REMARK SMILES O=C(OCCOC(=O)c1ccc(Cl)nc1NC[C@@H]1C[N@@H+]2CCC[C@@H]2CO1)c1ccc(-c2c3nc(c(-c4ccc(S(=O)(=O)[O-])cc4)c4ccc([nH]4)c(-c4ccc(S(=O)(=O)[O-])cc4)c4nc(c(-c5ccc(S(=O)(=O)[O-])cc5)c5ccc2[nH]5)C=C4)C=C3)cc1
REMARK SMILES IDX 4 1 3 2 2 3 1 4 27 5 28 6 86 7 29 8 85 9 30 10 31 11 32 12
REMARK SMILES IDX 79 13 33 14 84 15 78 16 80 17 34 18 83 19 77 20 76 21 35 23
REMARK SMILES IDX 65 24 46 25 64 26 47 27 50 28 63 29 81 30 48 31 49 32 62 34
REMARK SMILES IDX 82 35 51 36 36 37 37 38 45 39 38 40 44 41 39 42 40 43 41 44
REMARK SMILES IDX 42 45 43 46 66 47 67 48 75 49 68 50 74 51 69 52 70 53 71 54
REMARK SMILES IDX 72 55 73 56 52 57 53 58 61 59 54 60 60 61 55 62 56 63 57 64
REMARK SMILES IDX 58 65 59 66 5 67 6 68 7 69 8 70 9 71 10 72 15 73 11 74 14 75
REMARK SMILES IDX 12 76 13 77 16 78 17 80 18 81 19 82 26 83 20 84 25 85 21 86
REMARK SMILES IDX 24 87 22 89 23 90
REMARK H PARENT 80 22 50 33 16 79 20 88
REMARK Flexibility Score: inf
ROOT
ATOM      1  C   UNL     1      -2.916  -8.356   0.009  1.00  0.00     0.275 C 
ENDROOT
BRANCH   1   2
ATOM      2  O   UNL     1      -2.954  -6.976  -0.389  1.00  0.00    -0.458 OA
BRANCH   2   3
ATOM      3  C   UNL     1      -3.869  -6.043  -0.024  1.00  0.00     0.338 C 
ATOM      4  O   UNL     1      -4.096  -5.086  -0.761  1.00  0.00    -0.246 OA
BRANCH   3   5
ATOM      5  C   UNL     1      -4.453  -6.030   1.347  1.00  0.00     0.060 A 
ATOM      6  C   UNL     1      -5.032  -7.123   1.989  1.00  0.00     0.016 A 
ATOM      7  C   UNL     1      -4.471  -4.790   2.005  1.00  0.00     0.016 A 
ATOM      8  C   UNL     1      -5.546  -6.996   3.281  1.00  0.00     0.010 A 
ATOM      9  C   UNL     1      -4.954  -4.660   3.309  1.00  0.00     0.010 A 
ATOM     10  C   UNL     1      -5.511  -5.767   3.950  1.00  0.00    -0.014 A 
BRANCH  10  11
ATOM     11  C   UNL     1      -6.188  -5.647   5.260  1.00  0.00     0.031 A 
ATOM     12  C   UNL     1      -7.533  -4.985   5.323  1.00  0.00     0.074 A 
ATOM     13  C   UNL     1      -5.650  -6.221   6.353  1.00  0.00     0.049 A 
ATOM     14  N   UNL     1      -8.388  -4.962   6.311  1.00  0.00    -0.248 NA
ATOM     15  C   UNL     1      -7.996  -4.291   4.109  1.00  0.00     0.031 C 
ATOM     16  C   UNL     1      -4.369  -6.925   6.388  1.00  0.00     0.029 A 
ATOM     17  N   UNL     1      -6.113  -6.319   7.639  1.00  0.00    -0.354 N 
ATOM     18  C   UNL     1      -9.511  -4.312   5.816  1.00  0.00     0.074 A 
ATOM     19  C   UNL     1      -9.199  -3.876   4.475  1.00  0.00     0.031 C 
ATOM     20  C   UNL     1      -4.127  -7.350   7.639  1.00  0.00     0.029 A 
ATOM     21  C   UNL     1      -5.254  -6.980   8.486  1.00  0.00     0.049 A 
ATOM     22  H   UNL     1      -6.979  -5.952   7.929  1.00  0.00     0.167 HD
ATOM     23  C   UNL     1     -10.714  -4.141   6.410  1.00  0.00     0.031 A 
ATOM     24  C   UNL     1      -5.378  -7.278   9.793  1.00  0.00     0.031 A 
ATOM     25  C   UNL     1     -10.996  -4.535   7.762  1.00  0.00     0.049 A 
ATOM     26  C   UNL     1      -6.687  -6.976  10.470  1.00  0.00     0.074 A 
ATOM     27  C   UNL     1     -12.167  -4.385   8.481  1.00  0.00     0.029 A 
ATOM     28  N   UNL     1     -10.080  -5.149   8.606  1.00  0.00    -0.354 N 
ATOM     29  N   UNL     1      -7.765  -6.424   9.962  1.00  0.00    -0.248 NA
ATOM     30  C   UNL     1      -6.818  -7.382  11.874  1.00  0.00     0.031 C 
ATOM     31  C   UNL     1     -11.944  -4.869   9.775  1.00  0.00     0.029 A 
ATOM     32  C   UNL     1     -10.652  -5.368   9.845  1.00  0.00     0.049 A 
ATOM     33  H   UNL     1      -9.159  -5.392   8.358  1.00  0.00     0.167 HD
ATOM     34  C   UNL     1      -8.715  -6.449  10.975  1.00  0.00     0.074 A 
ATOM     35  C   UNL     1      -8.087  -7.085  12.117  1.00  0.00     0.031 C 
ATOM     36  C   UNL     1      -9.994  -5.996  10.963  1.00  0.00     0.031 A 
BRANCH  23  37
ATOM     37  C   UNL     1     -11.797  -3.509   5.580  1.00  0.00    -0.014 A 
ATOM     38  C   UNL     1     -12.392  -4.225   4.523  1.00  0.00     0.010 A 
ATOM     39  C   UNL     1     -12.221  -2.196   5.842  1.00  0.00     0.010 A 
ATOM     40  C   UNL     1     -13.359  -3.623   3.715  1.00  0.00     0.020 A 
ATOM     41  C   UNL     1     -13.206  -1.597   5.049  1.00  0.00     0.020 A 
ATOM     42  C   UNL     1     -13.756  -2.309   3.980  1.00  0.00     0.054 A 
BRANCH  42  43
ATOM     43  S   UNL     1     -15.015  -1.553   2.916  1.00  0.00     0.124 S 
ATOM     44  O   UNL     1     -14.269  -1.325   1.681  1.00  0.00    -0.237 OA
ATOM     45  O   UNL     1     -16.041  -2.591   2.847  1.00  0.00    -0.237 OA
ATOM     46  O   UNL     1     -15.402  -0.346   3.642  1.00  0.00    -0.744 OA
ENDBRANCH  42  43
ENDBRANCH  23  37
BRANCH  24  47
ATOM     47  C   UNL     1      -4.252  -7.917  10.529  1.00  0.00    -0.014 A 
ATOM     48  C   UNL     1      -4.328  -9.247  10.978  1.00  0.00     0.010 A 
ATOM     49  C   UNL     1      -3.086  -7.174  10.796  1.00  0.00     0.010 A 
ATOM     50  C   UNL     1      -3.276  -9.810  11.710  1.00  0.00     0.020 A 
ATOM     51  C   UNL     1      -2.022  -7.741  11.506  1.00  0.00     0.020 A 
ATOM     52  C   UNL     1      -2.132  -9.052  11.973  1.00  0.00     0.054 A 
BRANCH  52  53
ATOM     53  S   UNL     1      -0.771  -9.808  12.907  1.00  0.00     0.124 S 
ATOM     54  O   UNL     1      -1.316  -9.844  14.260  1.00  0.00    -0.237 OA
ATOM     55  O   UNL     1      -0.621 -11.103  12.248  1.00  0.00    -0.237 OA
ATOM     56  O   UNL     1       0.340  -8.881  12.701  1.00  0.00    -0.744 OA
ENDBRANCH  52  53
ENDBRANCH  24  47
BRANCH  36  57
ATOM     57  C   UNL     1     -10.796  -6.196  12.219  1.00  0.00    -0.014 A 
ATOM     58  C   UNL     1     -10.537  -5.437  13.372  1.00  0.00     0.010 A 
ATOM     59  C   UNL     1     -11.845  -7.132  12.229  1.00  0.00     0.010 A 
ATOM     60  C   UNL     1     -11.288  -5.640  14.531  1.00  0.00     0.020 A 
ATOM     61  C   UNL     1     -12.618  -7.317  13.376  1.00  0.00     0.020 A 
ATOM     62  C   UNL     1     -12.322  -6.582  14.526  1.00  0.00     0.054 A 
BRANCH  62  63
ATOM     63  S   UNL     1     -13.304  -6.807  16.032  1.00  0.00     0.124 S 
ATOM     64  O   UNL     1     -12.399  -7.591  16.868  1.00  0.00    -0.237 OA
ATOM     65  O   UNL     1     -13.538  -5.434  16.474  1.00  0.00    -0.237 OA
ATOM     66  O   UNL     1     -14.494  -7.516  15.566  1.00  0.00    -0.744 OA
ENDBRANCH  62  63
ENDBRANCH  36  57
ENDBRANCH  10  11
ENDBRANCH   3   5
ENDBRANCH   2   3
ENDBRANCH   1   2
BRANCH   1  67
ATOM     67  C   UNL     1      -1.905  -8.669   1.113  1.00  0.00     0.275 C 
BRANCH  67  68
ATOM     68  O   UNL     1      -1.907  -7.712   2.180  1.00  0.00    -0.458 OA
BRANCH  68  69
ATOM     69  C   UNL     1      -0.995  -6.710   2.053  1.00  0.00     0.342 C 
ATOM     70  O   UNL     1      -0.205  -6.557   1.137  1.00  0.00    -0.246 OA
BRANCH  69  71
ATOM     71  C   UNL     1      -1.155  -5.770   3.174  1.00  0.00     0.102 A 
ATOM     72  C   UNL     1      -1.225  -6.255   4.488  1.00  0.00     0.023 A 
ATOM     73  C   UNL     1      -1.266  -4.397   2.936  1.00  0.00     0.142 A 
ATOM     74  C   UNL     1      -1.447  -5.365   5.533  1.00  0.00     0.042 A 
ATOM     75  N   UNL     1      -1.523  -3.546   3.960  1.00  0.00    -0.218 NA
ATOM     76  C   UNL     1      -1.615  -4.037   5.210  1.00  0.00     0.131 A 
ATOM     77  Cl  UNL     1      -1.986  -2.866   6.403  1.00  0.00    -0.062 Cl
BRANCH  73  78
ATOM     78  N   UNL     1      -1.174  -3.845   1.672  1.00  0.00    -0.366 N 
ATOM     79  H   UNL     1      -0.853  -4.388   0.916  1.00  0.00     0.162 HD
BRANCH  78  80
ATOM     80  C   UNL     1      -1.556  -2.459   1.468  1.00  0.00     0.152 C 
BRANCH  80  81
ATOM     81  C   UNL     1      -0.760  -1.760   0.350  1.00  0.00     0.192 C 
ATOM     82  C   UNL     1      -0.959  -0.231   0.563  1.00  0.00     0.296 C 
ATOM     83  O   UNL     1      -1.187  -2.249  -0.936  1.00  0.00    -0.364 OA
ATOM     84  N   UNL     1      -0.917   0.615  -0.632  1.00  0.00    -0.328 N 
ATOM     85  C   UNL     1      -2.178  -1.410  -1.535  1.00  0.00     0.225 C 
ATOM     86  C   UNL     1      -1.555   1.916  -0.382  1.00  0.00     0.262 C 
ATOM     87  C   UNL     1      -1.592  -0.013  -1.790  1.00  0.00     0.210 C 
ATOM     88  H   UNL     1       0.071   0.742  -0.851  1.00  0.00     0.348 HD
ATOM     89  C   UNL     1      -2.127   2.316  -1.726  1.00  0.00     0.068 C 
ATOM     90  C   UNL     1      -2.635   0.993  -2.270  1.00  0.00     0.073 C 
ENDBRANCH  80  81
ENDBRANCH  78  80
ENDBRANCH  73  78
ENDBRANCH  69  71
ENDBRANCH  68  69
ENDBRANCH  67  68
ENDBRANCH   1  67
TORSDOF 17
