REMARK SMILES COc1ccc2c(CC(=O)OCCOC(=O)c3ccc(-c4c5nc(c(-c6ccc(S(=O)(=O)[O-])cc6)c6ccc([nH]6)c(-c6ccc(S(=O)(=O)[O-])cc6)c6nc(c(-c7ccc(S(=O)(=O)[O-])cc7)c7ccc4[nH]7)C=C6)C=C5)cc3)c(C(=O)c3cc(C)ccn3)[nH]c2c1
REMARK SMILES IDX 12 1 11 2 9 3 10 4 8 5 7 6 3 7 4 8 89 9 5 10 88 11 6 12
REMARK SMILES IDX 87 13 77 14 2 16 1 17 78 18 79 19 80 20 81 21 86 22 82 23
REMARK SMILES IDX 85 24 83 25 84 26 13 27 14 28 15 29 16 30 17 31 18 32 76 33
REMARK SMILES IDX 19 34 75 35 20 36 21 37 22 38 69 39 23 40 74 41 68 42 70 43
REMARK SMILES IDX 24 44 73 45 67 46 66 47 25 49 55 50 36 51 54 52 37 53 40 54
REMARK SMILES IDX 53 55 71 56 38 57 39 58 52 60 72 61 41 62 26 63 27 64 35 65
REMARK SMILES IDX 28 66 34 67 29 68 30 69 31 70 32 71 33 72 56 73 57 74 65 75
REMARK SMILES IDX 58 76 64 77 59 78 60 79 61 80 62 81 63 82 42 83 43 84 51 85
REMARK SMILES IDX 44 86 50 87 45 88 46 89 47 90 48 91 49 92
REMARK H PARENT 87 15 70 48 40 59
REMARK Flexibility Score: inf
ROOT
ATOM      1  C   UNL     1       3.839   2.425   8.606  1.00  0.00     0.274 C 
ENDROOT
BRANCH   1   2
ATOM      2  O   UNL     1       3.118   1.534   7.731  1.00  0.00    -0.462 OA
BRANCH   2   3
ATOM      3  C   UNL     1       3.699   0.322   7.524  1.00  0.00     0.310 C 
ATOM      4  O   UNL     1       4.803   0.005   7.962  1.00  0.00    -0.252 OA
BRANCH   3   5
ATOM      5  C   UNL     1       2.859  -0.658   6.736  1.00  0.00     0.161 C 
BRANCH   5   6
ATOM      6  C   UNL     1       1.658  -0.102   6.029  1.00  0.00     0.000 A 
ATOM      7  C   UNL     1       0.919   0.956   2.041  1.00  0.00     0.120 A 
ATOM      8  C   UNL     1       2.254   0.697   2.347  1.00  0.00     0.047 A 
ATOM      9  C   UNL     1      -0.053   1.019   3.045  1.00  0.00     0.073 A 
ATOM     10  C   UNL     1       2.634   0.399   3.659  1.00  0.00     0.014 A 
ATOM     11  C   UNL     1       0.341   0.678   4.344  1.00  0.00     0.050 A 
ATOM     12  C   UNL     1       1.651   0.339   4.667  1.00  0.00     0.004 A 
ATOM     13  N   UNL     1      -0.396   0.569   5.500  1.00  0.00    -0.351 N 
ATOM     14  C   UNL     1       0.333  -0.086   6.470  1.00  0.00     0.093 A 
ATOM     15  H   UNL     1      -1.313   0.909   5.618  1.00  0.00     0.167 HD
BRANCH   7  16
ATOM     16  O   UNL     1       0.486   1.181   0.759  1.00  0.00    -0.497 OA
ATOM     17  C   UNL     1       0.943   0.180  -0.151  1.00  0.00     0.278 C 
ENDBRANCH   7  16
BRANCH  14  18
ATOM     18  C   UNL     1      -0.245  -0.715   7.648  1.00  0.00     0.227 C 
ATOM     19  O   UNL     1       0.297  -1.643   8.243  1.00  0.00    -0.285 OA
BRANCH  18  20
ATOM     20  C   UNL     1      -1.603  -0.324   8.093  1.00  0.00     0.113 A 
ATOM     21  C   UNL     1      -2.676  -1.162   7.812  1.00  0.00     0.036 A 
ATOM     22  N   UNL     1      -1.697   0.831   8.793  1.00  0.00    -0.253 NA
ATOM     23  C   UNL     1      -3.937  -0.801   8.291  1.00  0.00    -0.047 A 
ATOM     24  C   UNL     1      -2.910   1.113   9.311  1.00  0.00     0.112 A 
ATOM     25  C   UNL     1      -5.150  -1.635   8.005  1.00  0.00     0.044 C 
ATOM     26  C   UNL     1      -4.044   0.344   9.085  1.00  0.00     0.023 A 
ENDBRANCH  18  20
ENDBRANCH  14  18
ENDBRANCH   5   6
ENDBRANCH   3   5
ENDBRANCH   2   3
ENDBRANCH   1   2
BRANCH   1  27
ATOM     27  C   UNL     1       3.202   2.444   9.992  1.00  0.00     0.275 C 
BRANCH  27  28
ATOM     28  O   UNL     1       3.029   1.096  10.461  1.00  0.00    -0.458 OA
BRANCH  28  29
ATOM     29  C   UNL     1       1.783   0.792  10.893  1.00  0.00     0.338 C 
ATOM     30  O   UNL     1       0.854   1.577  11.038  1.00  0.00    -0.246 OA
BRANCH  29  31
ATOM     31  C   UNL     1       1.682  -0.642  11.232  1.00  0.00     0.060 A 
ATOM     32  C   UNL     1       2.323  -1.626  10.476  1.00  0.00     0.016 A 
ATOM     33  C   UNL     1       0.838  -1.014  12.280  1.00  0.00     0.016 A 
ATOM     34  C   UNL     1       2.031  -2.975  10.698  1.00  0.00     0.010 A 
ATOM     35  C   UNL     1       0.626  -2.366  12.563  1.00  0.00     0.010 A 
ATOM     36  C   UNL     1       1.182  -3.363  11.746  1.00  0.00    -0.014 A 
BRANCH  36  37
ATOM     37  C   UNL     1       0.843  -4.796  11.975  1.00  0.00     0.031 A 
ATOM     38  C   UNL     1      -0.594  -5.258  11.937  1.00  0.00     0.074 A 
ATOM     39  C   UNL     1       1.815  -5.693  12.237  1.00  0.00     0.049 A 
ATOM     40  N   UNL     1      -1.100  -6.417  12.280  1.00  0.00    -0.248 NA
ATOM     41  C   UNL     1      -1.596  -4.284  11.471  1.00  0.00     0.031 C 
ATOM     42  C   UNL     1       3.249  -5.403  12.284  1.00  0.00     0.029 A 
ATOM     43  N   UNL     1       1.740  -7.037  12.511  1.00  0.00    -0.354 N 
ATOM     44  C   UNL     1      -2.477  -6.294  12.130  1.00  0.00     0.074 A 
ATOM     45  C   UNL     1      -2.729  -4.945  11.666  1.00  0.00     0.031 C 
ATOM     46  C   UNL     1       3.921  -6.539  12.526  1.00  0.00     0.029 A 
ATOM     47  C   UNL     1       2.965  -7.623  12.726  1.00  0.00     0.049 A 
ATOM     48  H   UNL     1       0.891  -7.533  12.550  1.00  0.00     0.167 HD
ATOM     49  C   UNL     1      -3.443  -7.216  12.359  1.00  0.00     0.031 A 
ATOM     50  C   UNL     1       3.290  -8.883  13.073  1.00  0.00     0.031 A 
ATOM     51  C   UNL     1      -3.195  -8.574  12.770  1.00  0.00     0.049 A 
ATOM     52  C   UNL     1       2.204  -9.892  13.304  1.00  0.00     0.074 A 
ATOM     53  C   UNL     1      -4.113  -9.582  13.016  1.00  0.00     0.029 A 
ATOM     54  N   UNL     1      -1.938  -9.123  12.972  1.00  0.00    -0.354 N 
ATOM     55  N   UNL     1       0.906  -9.739  13.213  1.00  0.00    -0.248 NA
ATOM     56  C   UNL     1       2.630 -11.244  13.693  1.00  0.00     0.031 C 
ATOM     57  C   UNL     1      -3.411 -10.735  13.387  1.00  0.00     0.029 A 
ATOM     58  C   UNL     1      -2.056 -10.454  13.337  1.00  0.00     0.049 A 
ATOM     59  H   UNL     1      -1.087  -8.638  12.870  1.00  0.00     0.167 HD
ATOM     60  C   UNL     1       0.358 -10.976  13.529  1.00  0.00     0.074 A 
ATOM     61  C   UNL     1       1.466 -11.872  13.792  1.00  0.00     0.031 C 
ATOM     62  C   UNL     1      -0.947 -11.335  13.600  1.00  0.00     0.031 A 
BRANCH  49  63
ATOM     63  C   UNL     1      -4.874  -6.777  12.196  1.00  0.00    -0.014 A 
ATOM     64  C   UNL     1      -5.445  -6.605  10.923  1.00  0.00     0.010 A 
ATOM     65  C   UNL     1      -5.669  -6.568  13.338  1.00  0.00     0.010 A 
ATOM     66  C   UNL     1      -6.774  -6.190  10.796  1.00  0.00     0.020 A 
ATOM     67  C   UNL     1      -7.004  -6.174  13.215  1.00  0.00     0.020 A 
ATOM     68  C   UNL     1      -7.542  -5.968  11.944  1.00  0.00     0.054 A 
BRANCH  68  69
ATOM     69  S   UNL     1      -9.264  -5.430  11.754  1.00  0.00     0.124 S 
ATOM     70  O   UNL     1      -9.101  -4.012  11.443  1.00  0.00    -0.237 OA
ATOM     71  O   UNL     1      -9.744  -6.260  10.651  1.00  0.00    -0.237 OA
ATOM     72  O   UNL     1      -9.863  -5.720  13.054  1.00  0.00    -0.744 OA
ENDBRANCH  68  69
ENDBRANCH  49  63
BRANCH  50  73
ATOM     73  C   UNL     1       4.721  -9.248  13.244  1.00  0.00    -0.014 A 
ATOM     74  C   UNL     1       5.373 -10.035  12.281  1.00  0.00     0.010 A 
ATOM     75  C   UNL     1       5.446  -8.775  14.353  1.00  0.00     0.010 A 
ATOM     76  C   UNL     1       6.728 -10.348  12.425  1.00  0.00     0.020 A 
ATOM     77  C   UNL     1       6.805  -9.066  14.488  1.00  0.00     0.020 A 
ATOM     78  C   UNL     1       7.436  -9.859  13.526  1.00  0.00     0.054 A 
BRANCH  78  79
ATOM     79  S   UNL     1       9.212 -10.207  13.661  1.00  0.00     0.124 S 
ATOM     80  O   UNL     1       9.214 -11.551  14.229  1.00  0.00    -0.237 OA
ATOM     81  O   UNL     1       9.666 -10.105  12.276  1.00  0.00    -0.237 OA
ATOM     82  O   UNL     1       9.697  -9.149  14.545  1.00  0.00    -0.744 OA
ENDBRANCH  78  79
ENDBRANCH  50  73
BRANCH  62  83
ATOM     83  C   UNL     1      -1.243 -12.765  13.952  1.00  0.00    -0.014 A 
ATOM     84  C   UNL     1      -1.124 -13.225  15.275  1.00  0.00     0.010 A 
ATOM     85  C   UNL     1      -1.664 -13.656  12.949  1.00  0.00     0.010 A 
ATOM     86  C   UNL     1      -1.385 -14.562  15.584  1.00  0.00     0.020 A 
ATOM     87  C   UNL     1      -1.944 -14.990  13.257  1.00  0.00     0.020 A 
ATOM     88  C   UNL     1      -1.786 -15.439  14.571  1.00  0.00     0.054 A 
BRANCH  88  89
ATOM     89  S   UNL     1      -2.143 -17.167  14.992  1.00  0.00     0.124 S 
ATOM     90  O   UNL     1      -0.804 -17.746  15.054  1.00  0.00    -0.237 OA
ATOM     91  O   UNL     1      -2.838 -17.055  16.271  1.00  0.00    -0.237 OA
ATOM     92  O   UNL     1      -2.971 -17.628  13.880  1.00  0.00    -0.744 OA
ENDBRANCH  88  89
ENDBRANCH  62  83
ENDBRANCH  36  37
ENDBRANCH  29  31
ENDBRANCH  28  29
ENDBRANCH  27  28
ENDBRANCH   1  27
TORSDOF 18
