REMARK SMILES COc1ccc(-n2ccnc2C[N@@H+]2CCn3nc(C(=O)OCCOC(=O)c4ccc(-c5c6nc(c(-c7ccc(S(=O)(=O)[O-])cc7)c7ccc([nH]7)c(-c7ccc(S(=O)(=O)[O-])cc7)c7nc(c(-c8ccc(S(=O)(=O)[O-])cc8)c8ccc5[nH]8)C=C7)C=C6)cc4)cc3C2)cc1
REMARK SMILES IDX 22 1 21 2 19 3 20 4 18 5 13 6 14 7 89 8 15 10 88 11 16 12
REMARK SMILES IDX 87 13 17 14 12 15 11 16 7 17 8 18 9 19 10 20 6 21 3 22 4 23
REMARK SMILES IDX 91 24 5 25 90 26 2 27 1 28 23 29 24 30 25 31 26 32 27 33
REMARK SMILES IDX 28 34 86 35 29 36 85 37 30 38 31 39 32 40 79 41 33 42 84 43
REMARK SMILES IDX 78 44 80 45 34 46 83 47 77 48 76 49 35 51 65 52 46 53 64 54
REMARK SMILES IDX 47 55 50 56 63 57 81 58 48 59 49 60 62 62 82 63 51 64 36 65
REMARK SMILES IDX 37 66 45 67 38 68 44 69 39 70 40 71 41 72 42 73 43 74 66 75
REMARK SMILES IDX 67 76 75 77 68 78 74 79 69 80 70 81 71 82 72 83 73 84 52 85
REMARK SMILES IDX 53 86 61 87 54 88 60 89 55 90 56 91 57 92 58 93 59 94
REMARK H PARENT 13 9 80 50 50 61
REMARK Flexibility Score: inf
ROOT
ATOM      1  C   UNL     1       0.394  -1.399  -5.138  1.00  0.00     0.275 C 
ENDROOT
BRANCH   1   2
ATOM      2  O   UNL     1       0.520   0.056  -5.007  1.00  0.00    -0.457 OA
BRANCH   2   3
ATOM      3  C   UNL     1       0.805   0.592  -3.599  1.00  0.00     0.358 C 
ATOM      4  O   UNL     1       1.293  -0.446  -3.043  1.00  0.00    -0.244 OA
BRANCH   3   5
ATOM      5  C   UNL     1       0.331   2.465  -2.797  1.00  0.00     0.170 A 
ATOM      6  N   UNL     1       1.055   6.231  -3.992  1.00  0.00    -0.322 N 
ATOM      7  C   UNL     1       2.279   5.870  -3.214  1.00  0.00     0.286 C 
ATOM      8  C   UNL     1      -0.165   6.170  -3.162  1.00  0.00     0.319 C 
ATOM      9  H   UNL     1       1.279   7.186  -4.273  1.00  0.00     0.348 HD
ATOM     10  C   UNL     1       2.064   5.193  -1.836  1.00  0.00     0.206 C 
ATOM     11  C   UNL     1      -0.208   4.795  -2.630  1.00  0.00     0.094 A 
ATOM     12  N   UNL     1       0.850   4.404  -1.899  1.00  0.00    -0.257 N 
ATOM     13  C   UNL     1      -0.765   3.617  -3.073  1.00  0.00     0.067 A 
ATOM     14  N   UNL     1       0.846   3.117  -1.625  1.00  0.00    -0.165 NA
BRANCH   6  15
ATOM     15  C   UNL     1       0.795   5.503  -5.269  1.00  0.00     0.339 C 
BRANCH  15  16
ATOM     16  C   UNL     1       1.813   4.583  -5.854  1.00  0.00     0.168 A 
ATOM     17  N   UNL     1       1.883   3.192  -5.699  1.00  0.00    -0.299 N 
ATOM     18  C   UNL     1       3.003   2.820  -6.413  1.00  0.00     0.113 A 
ATOM     19  C   UNL     1       3.502   3.944  -7.016  1.00  0.00     0.132 A 
ATOM     20  N   UNL     1       2.756   5.024  -6.673  1.00  0.00    -0.236 NA
BRANCH  17  21
ATOM     21  C   UNL     1       1.282   2.364  -4.699  1.00  0.00     0.047 A 
ATOM     22  C   UNL     1      -0.067   0.694  -1.724  1.00  0.00     0.119 A 
ATOM     23  C   UNL     1      -1.146   1.009  -3.175  1.00  0.00     0.048 A 
ATOM     24  C   UNL     1       1.722   1.146  -1.797  1.00  0.00     0.048 A 
ATOM     25  C   UNL     1      -0.476   1.876  -4.667  1.00  0.00     0.030 A 
ATOM     26  C   UNL     1       2.351   1.977  -3.300  1.00  0.00     0.030 A 
BRANCH  22  27
ATOM     27  O   UNL     1      -0.623   0.038  -0.662  1.00  0.00    -0.497 OA
ATOM     28  C   UNL     1       0.292  -0.068   0.423  1.00  0.00     0.278 C 
ENDBRANCH  22  27
ENDBRANCH  17  21
ENDBRANCH  15  16
ENDBRANCH   6  15
ENDBRANCH   3   5
ENDBRANCH   2   3
ENDBRANCH   1   2
BRANCH   1  29
ATOM     29  C   UNL     1       1.668  -2.146  -5.541  1.00  0.00     0.275 C 
BRANCH  29  30
ATOM     30  O   UNL     1       2.649  -2.098  -4.515  1.00  0.00    -0.458 OA
BRANCH  30  31
ATOM     31  C   UNL     1       3.376  -0.960  -4.543  1.00  0.00     0.338 C 
ATOM     32  O   UNL     1       3.323  -0.086  -5.391  1.00  0.00    -0.246 OA
BRANCH  31  33
ATOM     33  C   UNL     1       4.357  -0.960  -3.458  1.00  0.00     0.060 A 
ATOM     34  C   UNL     1       5.077   0.217  -3.252  1.00  0.00     0.016 A 
ATOM     35  C   UNL     1       4.938  -2.182  -3.194  1.00  0.00     0.016 A 
ATOM     36  C   UNL     1       6.424   0.184  -3.444  1.00  0.00     0.010 A 
ATOM     37  C   UNL     1       6.290  -2.184  -3.069  1.00  0.00     0.010 A 
ATOM     38  C   UNL     1       6.986  -1.070  -3.530  1.00  0.00    -0.014 A 
BRANCH  38  39
ATOM     39  C   UNL     1       8.383  -1.205  -3.836  1.00  0.00     0.031 A 
ATOM     40  C   UNL     1       9.158  -0.883  -2.615  1.00  0.00     0.074 A 
ATOM     41  C   UNL     1       8.794  -1.693  -5.026  1.00  0.00     0.049 A 
ATOM     42  N   UNL     1       9.703   0.258  -2.333  1.00  0.00    -0.248 NA
ATOM     43  C   UNL     1       8.963  -1.746  -1.428  1.00  0.00     0.031 C 
ATOM     44  C   UNL     1       8.032  -2.173  -6.187  1.00  0.00     0.029 A 
ATOM     45  N   UNL     1      10.066  -1.980  -5.395  1.00  0.00    -0.354 N 
ATOM     46  C   UNL     1      10.177   0.096  -1.038  1.00  0.00     0.074 A 
ATOM     47  C   UNL     1       9.376  -0.937  -0.453  1.00  0.00     0.031 C 
ATOM     48  C   UNL     1       8.834  -2.938  -6.974  1.00  0.00     0.029 A 
ATOM     49  C   UNL     1      10.185  -2.887  -6.450  1.00  0.00     0.049 A 
ATOM     50  H   UNL     1      10.848  -1.579  -4.952  1.00  0.00     0.167 HD
ATOM     51  C   UNL     1      11.443   0.469  -0.704  1.00  0.00     0.031 A 
ATOM     52  C   UNL     1      11.322  -3.594  -6.721  1.00  0.00     0.031 A 
ATOM     53  C   UNL     1      12.002   1.326  -1.718  1.00  0.00     0.049 A 
ATOM     54  C   UNL     1      12.429  -2.839  -6.045  1.00  0.00     0.074 A 
ATOM     55  C   UNL     1      11.650   2.555  -2.237  1.00  0.00     0.029 A 
ATOM     56  N   UNL     1      12.787   0.708  -2.668  1.00  0.00    -0.354 N 
ATOM     57  N   UNL     1      12.750  -1.618  -6.400  1.00  0.00    -0.248 NA
ATOM     58  C   UNL     1      12.709  -3.175  -4.650  1.00  0.00     0.031 C 
ATOM     59  C   UNL     1      11.831   2.418  -3.643  1.00  0.00     0.029 A 
ATOM     60  C   UNL     1      12.408   1.173  -3.903  1.00  0.00     0.049 A 
ATOM     61  H   UNL     1      13.496   0.049  -2.491  1.00  0.00     0.167 HD
ATOM     62  C   UNL     1      12.861  -0.912  -5.206  1.00  0.00     0.074 A 
ATOM     63  C   UNL     1      12.849  -1.937  -4.156  1.00  0.00     0.031 C 
ATOM     64  C   UNL     1      12.601   0.431  -5.134  1.00  0.00     0.031 A 
BRANCH  51  65
ATOM     65  C   UNL     1      12.314  -0.314   0.249  1.00  0.00    -0.014 A 
ATOM     66  C   UNL     1      13.589   0.200   0.544  1.00  0.00     0.010 A 
ATOM     67  C   UNL     1      12.051  -1.640   0.658  1.00  0.00     0.010 A 
ATOM     68  C   UNL     1      14.567  -0.594   1.154  1.00  0.00     0.020 A 
ATOM     69  C   UNL     1      13.005  -2.429   1.300  1.00  0.00     0.020 A 
ATOM     70  C   UNL     1      14.270  -1.907   1.519  1.00  0.00     0.054 A 
BRANCH  70  71
ATOM     71  S   UNL     1      15.566  -2.938   2.240  1.00  0.00     0.124 S 
ATOM     72  O   UNL     1      16.524  -3.031   1.143  1.00  0.00    -0.237 OA
ATOM     73  O   UNL     1      15.987  -2.138   3.386  1.00  0.00    -0.237 OA
ATOM     74  O   UNL     1      14.871  -4.180   2.574  1.00  0.00    -0.744 OA
ENDBRANCH  70  71
ENDBRANCH  51  65
BRANCH  52  75
ATOM     75  C   UNL     1      11.398  -5.053  -7.047  1.00  0.00    -0.014 A 
ATOM     76  C   UNL     1      12.575  -5.681  -7.509  1.00  0.00     0.010 A 
ATOM     77  C   UNL     1      10.343  -5.900  -6.645  1.00  0.00     0.010 A 
ATOM     78  C   UNL     1      12.698  -7.091  -7.526  1.00  0.00     0.020 A 
ATOM     79  C   UNL     1      10.457  -7.297  -6.655  1.00  0.00     0.020 A 
ATOM     80  C   UNL     1      11.642  -7.890  -7.078  1.00  0.00     0.054 A 
BRANCH  80  81
ATOM     81  S   UNL     1      11.845  -9.696  -6.934  1.00  0.00     0.124 S 
ATOM     82  O   UNL     1      11.928 -10.117  -8.329  1.00  0.00    -0.237 OA
ATOM     83  O   UNL     1      13.079  -9.819  -6.162  1.00  0.00    -0.237 OA
ATOM     84  O   UNL     1      10.636 -10.124  -6.231  1.00  0.00    -0.744 OA
ENDBRANCH  80  81
ENDBRANCH  52  75
BRANCH  64  85
ATOM     85  C   UNL     1      12.344   1.207  -6.412  1.00  0.00    -0.014 A 
ATOM     86  C   UNL     1      11.226   1.040  -7.261  1.00  0.00     0.010 A 
ATOM     87  C   UNL     1      13.193   2.301  -6.647  1.00  0.00     0.010 A 
ATOM     88  C   UNL     1      10.998   1.925  -8.333  1.00  0.00     0.020 A 
ATOM     89  C   UNL     1      12.960   3.192  -7.694  1.00  0.00     0.020 A 
ATOM     90  C   UNL     1      11.876   2.992  -8.546  1.00  0.00     0.054 A 
BRANCH  90  91
ATOM     91  S   UNL     1      11.598   4.137  -9.928  1.00  0.00     0.124 S 
ATOM     92  O   UNL     1      11.834   3.288 -11.092  1.00  0.00    -0.237 OA
ATOM     93  O   UNL     1      10.215   4.562  -9.727  1.00  0.00    -0.237 OA
ATOM     94  O   UNL     1      12.596   5.185  -9.716  1.00  0.00    -0.744 OA
ENDBRANCH  90  91
ENDBRANCH  64  85
ENDBRANCH  38  39
ENDBRANCH  31  33
ENDBRANCH  30  31
ENDBRANCH  29  30
ENDBRANCH   1  29
TORSDOF 18
