REMARK SMILES C[NH2+][C@@]1(C(=O)OCCOC(=O)c2ccc(-c3c4nc(c(-c5ccc(S(=O)(=O)[O-])cc5)c5ccc([nH]5)c(-c5ccc(S(=O)(=O)[O-])cc5)c5nc(c(-c6ccc(S(=O)(=O)[O-])cc6)c6ccc3[nH]6)C=C5)C=C4)cc2)CCC[C@H]([NH+]2CCCCCC2)C1
REMARK SMILES IDX 7 1 6 2 4 3 5 4 3 5 72 6 83 7 73 8 75 9 74 10 2 11 1 12
REMARK SMILES IDX 76 15 77 17 78 18 79 19 82 21 81 22 80 23 8 25 9 26 10 27
REMARK SMILES IDX 11 28 12 29 13 30 71 31 14 32 70 33 15 34 16 35 17 36 64 37
REMARK SMILES IDX 18 38 69 39 63 40 65 41 19 42 68 43 62 44 61 45 20 47 50 48
REMARK SMILES IDX 31 49 49 50 32 51 35 52 48 53 66 54 33 55 34 56 47 58 67 59
REMARK SMILES IDX 36 60 21 61 22 62 30 63 23 64 29 65 24 66 25 67 26 68 27 69
REMARK SMILES IDX 28 70 51 71 52 72 60 73 53 74 59 75 54 76 55 77 56 78 57 79
REMARK SMILES IDX 58 80 37 81 38 82 46 83 39 84 45 85 40 86 41 87 42 88 43 89
REMARK SMILES IDX 44 90
REMARK H PARENT 2 13 2 14 76 16 65 46 35 57
REMARK Flexibility Score: 90.00
ROOT
ATOM      1  C   UNL     1      -1.877   1.054  -3.627  1.00  0.00     0.274 C 
ENDROOT
BRANCH   1   2
ATOM      2  O   UNL     1      -1.488   1.363  -2.272  1.00  0.00    -0.457 OA
BRANCH   2   3
ATOM      3  C   UNL     1      -1.189   0.312  -1.451  1.00  0.00     0.368 C 
ATOM      4  O   UNL     1      -1.147  -0.851  -1.841  1.00  0.00    -0.245 OA
BRANCH   3   5
ATOM      5  C   UNL     1      -0.928   0.772   0.034  1.00  0.00     0.199 C 
ATOM      6  C   UNL     1      -1.259  -0.358   1.038  1.00  0.00     0.081 C 
ATOM      7  C   UNL     1      -1.711   2.089   0.380  1.00  0.00     0.146 C 
ATOM      8  C   UNL     1      -2.723  -0.481   1.409  1.00  0.00     0.013 C 
ATOM      9  C   UNL     1      -3.175   1.978   0.910  1.00  0.00     0.190 C 
ATOM     10  C   UNL     1      -3.256   0.840   1.934  1.00  0.00     0.065 C 
BRANCH   5  11
ATOM     11  N   UNL     1       0.540   1.081   0.162  1.00  0.00    -0.334 N 
ATOM     12  C   UNL     1       1.439  -0.072   0.105  1.00  0.00     0.331 C 
ATOM     13  H   UNL     1       0.794   1.714  -0.597  1.00  0.00     0.347 HD
ATOM     14  H   UNL     1       0.660   1.481   1.092  1.00  0.00     0.347 HD
ENDBRANCH   5  11
BRANCH   9  15
ATOM     15  N   UNL     1      -4.269   1.978  -0.068  1.00  0.00    -0.332 N 
ATOM     16  H   UNL     1      -3.657   2.639  -0.545  1.00  0.00     0.348 HD
BRANCH  15  17
ATOM     17  C   UNL     1      -5.496   2.696   0.235  1.00  0.00     0.262 C 
BRANCH  17  18
ATOM     18  C   UNL     1      -6.513   1.942   1.096  1.00  0.00     0.061 C 
BRANCH  18  19
ATOM     19  C   UNL     1      -7.139   0.686   0.487  1.00  0.00     0.006 CG0
ATOM     20  G   UNL     1      -6.177  -0.321  -0.129  1.00  0.00     0.000 G0
ENDBRANCH  18  19
ENDBRANCH  17  18
ENDBRANCH  15  17
BRANCH  15  21
ATOM     21  C   UNL     1      -4.303   1.076  -1.187  1.00  0.00     0.262 C 
BRANCH  21  22
ATOM     22  C   UNL     1      -5.539   0.208  -1.406  1.00  0.00     0.061 C 
BRANCH  22  23
ATOM     23  C   UNL     1      -6.177  -0.321  -0.129  1.00  0.00     0.006 CG0
ATOM     24  G   UNL     1      -7.139   0.686   0.487  1.00  0.00     0.000 G0
ENDBRANCH  22  23
ENDBRANCH  21  22
ENDBRANCH  15  21
ENDBRANCH   9  15
ENDBRANCH   3   5
ENDBRANCH   2   3
ENDBRANCH   1   2
BRANCH   1  25
ATOM     25  C   UNL     1      -2.125   2.363  -4.388  1.00  0.00     0.275 C 
BRANCH  25  26
ATOM     26  O   UNL     1      -0.859   3.002  -4.622  1.00  0.00    -0.458 OA
BRANCH  26  27
ATOM     27  C   UNL     1      -0.459   3.829  -3.624  1.00  0.00     0.338 C 
ATOM     28  O   UNL     1      -1.149   4.399  -2.803  1.00  0.00    -0.246 OA
BRANCH  27  29
ATOM     29  C   UNL     1       0.994   3.651  -3.512  1.00  0.00     0.060 A 
ATOM     30  C   UNL     1       1.442   2.845  -2.468  1.00  0.00     0.016 A 
ATOM     31  C   UNL     1       1.892   4.208  -4.415  1.00  0.00     0.016 A 
ATOM     32  C   UNL     1       2.792   2.579  -2.304  1.00  0.00     0.010 A 
ATOM     33  C   UNL     1       3.255   3.942  -4.254  1.00  0.00     0.010 A 
ATOM     34  C   UNL     1       3.711   3.130  -3.196  1.00  0.00    -0.014 A 
BRANCH  34  35
ATOM     35  C   UNL     1       5.158   2.954  -2.951  1.00  0.00     0.031 A 
ATOM     36  C   UNL     1       5.950   4.139  -2.485  1.00  0.00     0.074 A 
ATOM     37  C   UNL     1       5.745   1.754  -3.115  1.00  0.00     0.049 A 
ATOM     38  N   UNL     1       7.244   4.287  -2.398  1.00  0.00    -0.248 NA
ATOM     39  C   UNL     1       5.175   5.320  -2.068  1.00  0.00     0.031 C 
ATOM     40  C   UNL     1       5.052   0.508  -3.453  1.00  0.00     0.029 A 
ATOM     41  N   UNL     1       7.064   1.388  -3.027  1.00  0.00    -0.354 N 
ATOM     42  C   UNL     1       7.441   5.592  -1.963  1.00  0.00     0.074 A 
ATOM     43  C   UNL     1       6.136   6.194  -1.809  1.00  0.00     0.031 C 
ATOM     44  C   UNL     1       5.955  -0.481  -3.553  1.00  0.00     0.029 A 
ATOM     45  C   UNL     1       7.291   0.074  -3.360  1.00  0.00     0.049 A 
ATOM     46  H   UNL     1       7.778   2.007  -2.751  1.00  0.00     0.167 HD
ATOM     47  C   UNL     1       8.612   6.228  -1.727  1.00  0.00     0.031 A 
ATOM     48  C   UNL     1       8.450  -0.589  -3.541  1.00  0.00     0.031 A 
ATOM     49  C   UNL     1       9.898   5.603  -1.886  1.00  0.00     0.049 A 
ATOM     50  C   UNL     1       9.743   0.162  -3.362  1.00  0.00     0.074 A 
ATOM     51  C   UNL     1      11.153   6.153  -1.702  1.00  0.00     0.029 A 
ATOM     52  N   UNL     1      10.090   4.281  -2.264  1.00  0.00    -0.354 N 
ATOM     53  N   UNL     1       9.927   1.414  -3.012  1.00  0.00    -0.248 NA
ATOM     54  C   UNL     1      10.984  -0.583  -3.610  1.00  0.00     0.031 C 
ATOM     55  C   UNL     1      12.105   5.178  -2.019  1.00  0.00     0.029 A 
ATOM     56  C   UNL     1      11.443   4.001  -2.336  1.00  0.00     0.049 A 
ATOM     57  H   UNL     1       9.370   3.638  -2.452  1.00  0.00     0.167 HD
ATOM     58  C   UNL     1      11.304   1.601  -2.975  1.00  0.00     0.074 A 
ATOM     59  C   UNL     1      11.904   0.327  -3.322  1.00  0.00     0.031 C 
ATOM     60  C   UNL     1      12.011   2.721  -2.682  1.00  0.00     0.031 A 
BRANCH  47  61
ATOM     61  C   UNL     1       8.546   7.681  -1.341  1.00  0.00    -0.014 A 
ATOM     62  C   UNL     1       8.060   8.089  -0.085  1.00  0.00     0.010 A 
ATOM     63  C   UNL     1       8.981   8.658  -2.255  1.00  0.00     0.010 A 
ATOM     64  C   UNL     1       7.970   9.448   0.230  1.00  0.00     0.020 A 
ATOM     65  C   UNL     1       8.921  10.016  -1.932  1.00  0.00     0.020 A 
ATOM     66  C   UNL     1       8.398  10.403  -0.697  1.00  0.00     0.054 A 
BRANCH  66  67
ATOM     67  S   UNL     1       8.280  12.159  -0.258  1.00  0.00     0.124 S 
ATOM     68  O   UNL     1       6.839  12.390  -0.322  1.00  0.00    -0.237 OA
ATOM     69  O   UNL     1       8.862  12.194   1.081  1.00  0.00    -0.237 OA
ATOM     70  O   UNL     1       9.065  12.830  -1.292  1.00  0.00    -0.744 OA
ENDBRANCH  66  67
ENDBRANCH  47  61
BRANCH  48  71
ATOM     71  C   UNL     1       8.438  -2.017  -3.970  1.00  0.00    -0.014 A 
ATOM     72  C   UNL     1       8.902  -3.031  -3.115  1.00  0.00     0.010 A 
ATOM     73  C   UNL     1       7.951  -2.371  -5.244  1.00  0.00     0.010 A 
ATOM     74  C   UNL     1       8.892  -4.368  -3.529  1.00  0.00     0.020 A 
ATOM     75  C   UNL     1       7.910  -3.708  -5.649  1.00  0.00     0.020 A 
ATOM     76  C   UNL     1       8.393  -4.699  -4.792  1.00  0.00     0.054 A 
BRANCH  76  77
ATOM     77  S   UNL     1       8.343  -6.444  -5.286  1.00  0.00     0.124 S 
ATOM     78  O   UNL     1       9.754  -6.735  -5.517  1.00  0.00    -0.237 OA
ATOM     79  O   UNL     1       7.747  -7.086  -4.117  1.00  0.00    -0.237 OA
ATOM     80  O   UNL     1       7.501  -6.438  -6.481  1.00  0.00    -0.744 OA
ENDBRANCH  76  77
ENDBRANCH  48  71
BRANCH  60  81
ATOM     81  C   UNL     1      13.511   2.607  -2.679  1.00  0.00    -0.014 A 
ATOM     82  C   UNL     1      14.238   2.489  -3.877  1.00  0.00     0.010 A 
ATOM     83  C   UNL     1      14.205   2.683  -1.458  1.00  0.00     0.010 A 
ATOM     84  C   UNL     1      15.633   2.418  -3.849  1.00  0.00     0.020 A 
ATOM     85  C   UNL     1      15.600   2.644  -1.429  1.00  0.00     0.020 A 
ATOM     86  C   UNL     1      16.305   2.498  -2.625  1.00  0.00     0.054 A 
BRANCH  86  87
ATOM     87  S   UNL     1      18.118   2.454  -2.620  1.00  0.00     0.124 S 
ATOM     88  O   UNL     1      18.388   1.051  -2.919  1.00  0.00    -0.237 OA
ATOM     89  O   UNL     1      18.464   3.401  -3.677  1.00  0.00    -0.237 OA
ATOM     90  O   UNL     1      18.472   2.882  -1.268  1.00  0.00    -0.744 OA
ENDBRANCH  86  87
ENDBRANCH  60  81
ENDBRANCH  34  35
ENDBRANCH  27  29
ENDBRANCH  26  27
ENDBRANCH  25  26
ENDBRANCH   1  25
TORSDOF 16
