REMARK SMILES CS(=O)(=O)c1ccc(/C=C(/C(=O)OCCOC(=O)c2ccc(-c3c4nc(c(-c5ccc(S(=O)(=O)[O-])cc5)c5ccc([nH]5)c(-c5ccc(S(=O)(=O)[O-])cc5)c5nc(c(-c6ccc(S(=O)(=O)[O-])cc6)c6ccc3[nH]6)C=C5)C=C4)cc2)c2ccc(-c3ccc(S(C)(=O)=O)cc3)cc2)cc1
REMARK SMILES IDX 14 1 13 2 11 3 12 4 10 5 9 6 8 7 5 8 6 9 96 10 7 11 95 12
REMARK SMILES IDX 2 13 1 14 3 15 4 16 79 17 80 18 94 19 81 20 93 21 82 22
REMARK SMILES IDX 83 23 84 24 92 25 85 26 91 27 86 28 87 29 88 30 89 31 90 32
REMARK SMILES IDX 15 33 16 34 17 35 18 36 19 37 20 38 78 39 21 40 77 41 22 42
REMARK SMILES IDX 23 43 24 44 71 45 25 46 76 47 70 48 72 49 26 50 75 51 69 52
REMARK SMILES IDX 68 53 27 55 57 56 38 57 56 58 39 59 42 60 55 61 73 62 40 63
REMARK SMILES IDX 41 64 54 66 74 67 43 68 28 69 29 70 37 71 30 72 36 73 31 74
REMARK SMILES IDX 32 75 33 76 34 77 35 78 58 79 59 80 67 81 60 82 66 83 61 84
REMARK SMILES IDX 62 85 63 86 64 87 65 88 44 89 45 90 53 91 46 92 52 93 47 94
REMARK SMILES IDX 48 95 49 96 50 97 51 98
REMARK H PARENT 72 54 42 65
REMARK Flexibility Score: inf
ROOT
ATOM      1  C   UNL     1       3.873 -10.265   0.116  1.00  0.00     0.275 C 
ENDROOT
BRANCH   1   2
ATOM      2  O   UNL     1       3.358  -9.006   0.597  1.00  0.00    -0.458 OA
BRANCH   2   3
ATOM      3  C   UNL     1       2.186  -8.613   0.032  1.00  0.00     0.338 C 
ATOM      4  O   UNL     1       1.598  -9.201  -0.865  1.00  0.00    -0.246 OA
BRANCH   3   5
ATOM      5  C   UNL     1       1.651  -7.369   0.661  1.00  0.00     0.067 C 
ATOM      6  C   UNL     1       2.486  -6.319   0.839  1.00  0.00     0.024 C 
BRANCH   6   7
ATOM      7  C   UNL     1       2.141  -4.915   1.176  1.00  0.00    -0.025 A 
ATOM      8  C   UNL     1       1.443  -2.203   1.474  1.00  0.00     0.067 A 
ATOM      9  C   UNL     1       0.666  -3.187   2.074  1.00  0.00     0.021 A 
ATOM     10  C   UNL     1       2.611  -2.548   0.794  1.00  0.00     0.021 A 
ATOM     11  C   UNL     1       1.041  -4.527   1.952  1.00  0.00     0.009 A 
ATOM     12  C   UNL     1       2.949  -3.898   0.642  1.00  0.00     0.009 A 
BRANCH   8  13
ATOM     13  S   UNL     1       0.895  -0.516   1.547  1.00  0.00     0.175 S 
ATOM     14  C   UNL     1       1.179   0.134  -0.078  1.00  0.00     0.163 C 
ATOM     15  O   UNL     1       1.780   0.172   2.471  1.00  0.00    -0.224 OA
ATOM     16  O   UNL     1      -0.539  -0.529   1.746  1.00  0.00    -0.224 OA
ENDBRANCH   8  13
ENDBRANCH   6   7
BRANCH   5  17
ATOM     17  C   UNL     1       0.200  -7.296   0.893  1.00  0.00    -0.011 A 
ATOM     18  C   UNL     1      -0.315  -7.644   2.147  1.00  0.00     0.009 A 
ATOM     19  C   UNL     1      -0.670  -6.828  -0.092  1.00  0.00     0.009 A 
ATOM     20  C   UNL     1      -1.680  -7.499   2.417  1.00  0.00     0.009 A 
ATOM     21  C   UNL     1      -2.035  -6.688   0.186  1.00  0.00     0.009 A 
ATOM     22  C   UNL     1      -2.575  -7.022   1.443  1.00  0.00    -0.018 A 
BRANCH  22  23
ATOM     23  C   UNL     1      -4.024  -6.877   1.727  1.00  0.00    -0.018 A 
ATOM     24  C   UNL     1      -4.490  -6.538   3.013  1.00  0.00     0.010 A 
ATOM     25  C   UNL     1      -4.990  -7.055   0.717  1.00  0.00     0.010 A 
ATOM     26  C   UNL     1      -5.851  -6.357   3.274  1.00  0.00     0.021 A 
ATOM     27  C   UNL     1      -6.353  -6.864   0.963  1.00  0.00     0.021 A 
ATOM     28  C   UNL     1      -6.775  -6.511   2.242  1.00  0.00     0.067 A 
BRANCH  28  29
ATOM     29  S   UNL     1      -8.491  -6.181   2.557  1.00  0.00     0.175 S 
ATOM     30  C   UNL     1      -8.985  -7.501   3.625  1.00  0.00     0.163 C 
ATOM     31  O   UNL     1      -8.544  -4.933   3.298  1.00  0.00    -0.224 OA
ATOM     32  O   UNL     1      -9.200  -6.318   1.298  1.00  0.00    -0.224 OA
ENDBRANCH  28  29
ENDBRANCH  22  23
ENDBRANCH   5  17
ENDBRANCH   3   5
ENDBRANCH   2   3
ENDBRANCH   1   2
BRANCH   1  33
ATOM     33  C   UNL     1       3.555 -11.391   1.097  1.00  0.00     0.275 C 
BRANCH  33  34
ATOM     34  O   UNL     1       2.130 -11.565   1.199  1.00  0.00    -0.458 OA
BRANCH  34  35
ATOM     35  C   UNL     1       1.603 -11.416   2.436  1.00  0.00     0.338 C 
ATOM     36  O   UNL     1       2.216 -11.214   3.474  1.00  0.00    -0.246 OA
BRANCH  35  37
ATOM     37  C   UNL     1       0.130 -11.502   2.388  1.00  0.00     0.060 A 
ATOM     38  C   UNL     1      -0.585 -10.804   1.422  1.00  0.00     0.016 A 
ATOM     39  C   UNL     1      -0.555 -12.150   3.417  1.00  0.00     0.016 A 
ATOM     40  C   UNL     1      -1.963 -10.633   1.572  1.00  0.00     0.010 A 
ATOM     41  C   UNL     1      -1.954 -12.068   3.492  1.00  0.00     0.010 A 
ATOM     42  C   UNL     1      -2.679 -11.247   2.611  1.00  0.00    -0.014 A 
BRANCH  42  43
ATOM     43  C   UNL     1      -4.144 -10.984   2.817  1.00  0.00     0.031 A 
ATOM     44  C   UNL     1      -4.681 -10.610   4.185  1.00  0.00     0.074 A 
ATOM     45  C   UNL     1      -5.024 -11.047   1.794  1.00  0.00     0.049 A 
ATOM     46  N   UNL     1      -5.921 -10.589   4.613  1.00  0.00    -0.248 NA
ATOM     47  C   UNL     1      -3.696 -10.230   5.212  1.00  0.00     0.031 C 
ATOM     48  C   UNL     1      -4.693 -11.323   0.395  1.00  0.00     0.029 A 
ATOM     49  N   UNL     1      -6.389 -10.870   1.775  1.00  0.00    -0.354 N 
ATOM     50  C   UNL     1      -5.854 -10.301   5.974  1.00  0.00     0.074 A 
ATOM     51  C   UNL     1      -4.454 -10.127   6.295  1.00  0.00     0.031 C 
ATOM     52  C   UNL     1      -5.800 -11.219  -0.352  1.00  0.00     0.029 A 
ATOM     53  C   UNL     1      -6.945 -11.010   0.525  1.00  0.00     0.049 A 
ATOM     54  H   UNL     1      -6.917 -10.664   2.580  1.00  0.00     0.167 HD
ATOM     55  C   UNL     1      -6.862 -10.205   6.877  1.00  0.00     0.031 A 
ATOM     56  C   UNL     1      -8.228 -11.040   0.115  1.00  0.00     0.031 A 
ATOM     57  C   UNL     1      -8.261 -10.293   6.546  1.00  0.00     0.049 A 
ATOM     58  C   UNL     1      -9.333 -10.958   1.123  1.00  0.00     0.074 A 
ATOM     59  C   UNL     1      -9.353 -10.121   7.382  1.00  0.00     0.029 A 
ATOM     60  N   UNL     1      -8.766 -10.568   5.285  1.00  0.00    -0.354 N 
ATOM     61  N   UNL     1      -9.247 -10.841   2.426  1.00  0.00    -0.248 NA
ATOM     62  C   UNL     1     -10.707 -11.043   0.611  1.00  0.00     0.031 C 
ATOM     63  C   UNL     1     -10.518 -10.301   6.627  1.00  0.00     0.029 A 
ATOM     64  C   UNL     1     -10.151 -10.534   5.312  1.00  0.00     0.049 A 
ATOM     65  H   UNL     1      -8.220 -10.759   4.488  1.00  0.00     0.167 HD
ATOM     66  C   UNL     1     -10.557 -10.830   2.889  1.00  0.00     0.074 A 
ATOM     67  C   UNL     1     -11.415 -10.946   1.728  1.00  0.00     0.031 C 
ATOM     68  C   UNL     1     -11.002 -10.711   4.163  1.00  0.00     0.031 A 
BRANCH  55  69
ATOM     69  C   UNL     1      -6.495 -10.032   8.330  1.00  0.00    -0.014 A 
ATOM     70  C   UNL     1      -5.996  -8.819   8.835  1.00  0.00     0.010 A 
ATOM     71  C   UNL     1      -6.711 -11.104   9.218  1.00  0.00     0.010 A 
ATOM     72  C   UNL     1      -5.678  -8.697  10.193  1.00  0.00     0.020 A 
ATOM     73  C   UNL     1      -6.420 -10.977  10.579  1.00  0.00     0.020 A 
ATOM     74  C   UNL     1      -5.885  -9.779  11.055  1.00  0.00     0.054 A 
BRANCH  74  75
ATOM     75  S   UNL     1      -5.477  -9.593  12.813  1.00  0.00     0.124 S 
ATOM     76  O   UNL     1      -4.020  -9.694  12.794  1.00  0.00    -0.237 OA
ATOM     77  O   UNL     1      -6.011  -8.271  13.130  1.00  0.00    -0.237 OA
ATOM     78  O   UNL     1      -6.171 -10.710  13.449  1.00  0.00    -0.744 OA
ENDBRANCH  74  75
ENDBRANCH  55  69
BRANCH  56  79
ATOM     79  C   UNL     1      -8.523 -11.235  -1.329  1.00  0.00    -0.014 A 
ATOM     80  C   UNL     1      -8.994 -10.168  -2.113  1.00  0.00     0.010 A 
ATOM     81  C   UNL     1      -8.266 -12.477  -1.940  1.00  0.00     0.010 A 
ATOM     82  C   UNL     1      -9.188 -10.337  -3.487  1.00  0.00     0.020 A 
ATOM     83  C   UNL     1      -8.430 -12.639  -3.316  1.00  0.00     0.020 A 
ATOM     84  C   UNL     1      -8.894 -11.568  -4.082  1.00  0.00     0.054 A 
BRANCH  84  85
ATOM     85  S   UNL     1      -9.042 -11.740  -5.882  1.00  0.00     0.124 S 
ATOM     86  O   UNL     1     -10.477 -11.940  -6.051  1.00  0.00    -0.237 OA
ATOM     87  O   UNL     1      -8.517 -10.467  -6.369  1.00  0.00    -0.237 OA
ATOM     88  O   UNL     1      -8.206 -12.901  -6.180  1.00  0.00    -0.744 OA
ENDBRANCH  84  85
ENDBRANCH  56  79
BRANCH  68  89
ATOM     89  C   UNL     1     -12.491 -10.692   4.367  1.00  0.00    -0.014 A 
ATOM     90  C   UNL     1     -13.248 -11.873   4.279  1.00  0.00     0.010 A 
ATOM     91  C   UNL     1     -13.137  -9.480   4.670  1.00  0.00     0.010 A 
ATOM     92  C   UNL     1     -14.633 -11.836   4.462  1.00  0.00     0.020 A 
ATOM     93  C   UNL     1     -14.518  -9.444   4.875  1.00  0.00     0.020 A 
ATOM     94  C   UNL     1     -15.260 -10.621   4.755  1.00  0.00     0.054 A 
BRANCH  94  95
ATOM     95  S   UNL     1     -17.054 -10.603   5.021  1.00  0.00     0.124 S 
ATOM     96  O   UNL     1     -17.563 -10.693   3.655  1.00  0.00    -0.237 OA
ATOM     97  O   UNL     1     -17.269 -11.786   5.851  1.00  0.00    -0.237 OA
ATOM     98  O   UNL     1     -17.290  -9.327   5.693  1.00  0.00    -0.744 OA
ENDBRANCH  94  95
ENDBRANCH  68  89
ENDBRANCH  42  43
ENDBRANCH  35  37
ENDBRANCH  34  35
ENDBRANCH  33  34
ENDBRANCH   1  33
TORSDOF 19
