REMARK SMILES O=C(C[NH+]1CC(c2nc(-c3cccs3)no2)C1)OCCOC(=O)c1ccc(-c2c3nc(c(-c4ccc(S(=O)(=O)[O-])cc4)c4ccc([nH]4)c(-c4ccc(S(=O)(=O)[O-])cc4)c4nc(c(-c5ccc(S(=O)(=O)[O-])cc5)c5ccc2[nH]5)C=C4)C=C3)cc1
REMARK SMILES IDX 19 1 18 2 2 3 1 4 3 5 4 6 5 7 17 8 6 10 7 11 8 12 16 13 9 14
REMARK SMILES IDX 15 15 10 16 11 17 14 18 12 19 13 20 20 21 21 22 22 23 23 24
REMARK SMILES IDX 24 25 25 26 83 27 26 28 82 29 27 30 28 31 29 32 76 33 30 34
REMARK SMILES IDX 81 35 75 36 77 37 31 38 80 39 74 40 73 41 32 43 62 44 43 45
REMARK SMILES IDX 61 46 44 47 47 48 60 49 78 50 45 51 46 52 59 54 79 55 48 56
REMARK SMILES IDX 33 57 34 58 42 59 35 60 41 61 36 62 37 63 38 64 39 65 40 66
REMARK SMILES IDX 63 67 64 68 72 69 65 70 71 71 66 72 67 73 68 74 69 75 70 76
REMARK SMILES IDX 49 77 50 78 58 79 51 80 57 81 52 82 53 83 54 84 55 85 56 86
REMARK H PARENT 4 9 77 42 47 53
REMARK Flexibility Score: inf
ROOT
ATOM      1  C   UNL     1       4.013   1.324   0.688  1.00  0.00     0.274 C 
ENDROOT
BRANCH   1   2
ATOM      2  O   UNL     1       2.736   1.016   0.102  1.00  0.00    -0.458 OA
BRANCH   2   3
ATOM      3  C   UNL     1       2.658   0.281  -1.044  1.00  0.00     0.361 C 
ATOM      4  O   UNL     1       1.865   0.600  -1.927  1.00  0.00    -0.245 OA
BRANCH   3   5
ATOM      5  C   UNL     1       3.466  -1.017  -1.078  1.00  0.00     0.386 C 
BRANCH   5   6
ATOM      6  N   UNL     1       4.263  -1.156  -2.311  1.00  0.00    -0.324 N 
ATOM      7  C   UNL     1       5.521  -0.380  -2.252  1.00  0.00     0.282 C 
ATOM      8  C   UNL     1       5.078  -2.398  -2.224  1.00  0.00     0.282 C 
ATOM      9  H   UNL     1       3.583  -0.986  -3.052  1.00  0.00     0.348 HD
ATOM     10  C   UNL     1       6.262  -1.605  -2.842  1.00  0.00     0.188 C 
BRANCH  10  11
ATOM     11  C   UNL     1       7.585  -1.910  -2.169  1.00  0.00     0.241 A 
ATOM     12  N   UNL     1       8.598  -2.475  -2.783  1.00  0.00    -0.190 NA
ATOM     13  O   UNL     1       7.846  -1.650  -0.850  1.00  0.00    -0.338 OA
ATOM     14  C   UNL     1       9.519  -2.626  -1.772  1.00  0.00     0.212 A 
ATOM     15  N   UNL     1       9.137  -2.103  -0.598  1.00  0.00    -0.056 NA
BRANCH  14  16
ATOM     16  C   UNL     1      10.798  -3.368  -1.977  1.00  0.00     0.075 A 
ATOM     17  C   UNL     1      11.141  -3.966  -3.172  1.00  0.00     0.024 A 
ATOM     18  S   UNL     1      11.981  -3.624  -0.773  1.00  0.00    -0.140 S 
ATOM     19  C   UNL     1      12.371  -4.681  -3.081  1.00  0.00     0.012 A 
ATOM     20  C   UNL     1      12.931  -4.582  -1.827  1.00  0.00     0.065 A 
ENDBRANCH  14  16
ENDBRANCH  10  11
ENDBRANCH   5   6
ENDBRANCH   3   5
ENDBRANCH   2   3
ENDBRANCH   1   2
BRANCH   1  21
ATOM     21  C   UNL     1       4.214   0.708   2.076  1.00  0.00     0.275 C 
BRANCH  21  22
ATOM     22  O   UNL     1       3.901  -0.693   2.087  1.00  0.00    -0.458 OA
BRANCH  22  23
ATOM     23  C   UNL     1       2.607  -0.972   2.394  1.00  0.00     0.338 C 
ATOM     24  O   UNL     1       1.762  -0.174   2.763  1.00  0.00    -0.246 OA
BRANCH  23  25
ATOM     25  C   UNL     1       2.303  -2.377   2.046  1.00  0.00     0.060 A 
ATOM     26  C   UNL     1       1.068  -2.641   1.440  1.00  0.00     0.016 A 
ATOM     27  C   UNL     1       3.192  -3.421   2.316  1.00  0.00     0.016 A 
ATOM     28  C   UNL     1       0.702  -3.954   1.142  1.00  0.00     0.010 A 
ATOM     29  C   UNL     1       2.821  -4.738   2.020  1.00  0.00     0.010 A 
ATOM     30  C   UNL     1       1.562  -5.014   1.460  1.00  0.00    -0.014 A 
BRANCH  30  31
ATOM     31  C   UNL     1       1.085  -6.414   1.330  1.00  0.00     0.031 A 
ATOM     32  C   UNL     1       0.555  -7.122   2.548  1.00  0.00     0.074 A 
ATOM     33  C   UNL     1       1.100  -7.045   0.142  1.00  0.00     0.049 A 
ATOM     34  N   UNL     1       0.065  -8.331   2.654  1.00  0.00    -0.248 NA
ATOM     35  C   UNL     1       0.580  -6.368   3.812  1.00  0.00     0.031 C 
ATOM     36  C   UNL     1       1.563  -6.468  -1.119  1.00  0.00     0.029 A 
ATOM     37  N   UNL     1       0.712  -8.319  -0.192  1.00  0.00    -0.354 N 
ATOM     38  C   UNL     1      -0.283  -8.481   3.990  1.00  0.00     0.074 A 
ATOM     39  C   UNL     1       0.087  -7.255   4.664  1.00  0.00     0.031 C 
ATOM     40  C   UNL     1       1.436  -7.389  -2.091  1.00  0.00     0.029 A 
ATOM     41  C   UNL     1       0.903  -8.624  -1.519  1.00  0.00     0.049 A 
ATOM     42  H   UNL     1       0.333  -8.954   0.457  1.00  0.00     0.167 HD
ATOM     43  C   UNL     1      -0.869  -9.538   4.603  1.00  0.00     0.031 A 
ATOM     44  C   UNL     1       0.680  -9.771  -2.193  1.00  0.00     0.031 A 
ATOM     45  C   UNL     1      -1.219 -10.768   3.946  1.00  0.00     0.049 A 
ATOM     46  C   UNL     1       0.099 -10.960  -1.473  1.00  0.00     0.074 A 
ATOM     47  C   UNL     1      -1.835 -11.885   4.484  1.00  0.00     0.029 A 
ATOM     48  N   UNL     1      -0.973 -11.051   2.612  1.00  0.00    -0.354 N 
ATOM     49  N   UNL     1      -0.272 -11.067  -0.220  1.00  0.00    -0.248 NA
ATOM     50  C   UNL     1      -0.104 -12.183  -2.266  1.00  0.00     0.031 C 
ATOM     51  C   UNL     1      -1.912 -12.864   3.488  1.00  0.00     0.029 A 
ATOM     52  C   UNL     1      -1.395 -12.336   2.316  1.00  0.00     0.049 A 
ATOM     53  H   UNL     1      -0.559 -10.430   1.970  1.00  0.00     0.167 HD
ATOM     54  C   UNL     1      -0.777 -12.357  -0.082  1.00  0.00     0.074 A 
ATOM     55  C   UNL     1      -0.674 -12.989  -1.380  1.00  0.00     0.031 C 
ATOM     56  C   UNL     1      -1.286 -12.960   1.021  1.00  0.00     0.031 A 
BRANCH  43  57
ATOM     57  C   UNL     1      -1.144  -9.412   6.077  1.00  0.00    -0.014 A 
ATOM     58  C   UNL     1      -2.174  -8.581   6.553  1.00  0.00     0.010 A 
ATOM     59  C   UNL     1      -0.381 -10.155   6.995  1.00  0.00     0.010 A 
ATOM     60  C   UNL     1      -2.409  -8.463   7.925  1.00  0.00     0.020 A 
ATOM     61  C   UNL     1      -0.629 -10.059   8.367  1.00  0.00     0.020 A 
ATOM     62  C   UNL     1      -1.630  -9.199   8.824  1.00  0.00     0.054 A 
BRANCH  62  63
ATOM     63  S   UNL     1      -1.961  -9.034  10.600  1.00  0.00     0.124 S 
ATOM     64  O   UNL     1      -1.401  -7.716  10.888  1.00  0.00    -0.237 OA
ATOM     65  O   UNL     1      -3.417  -9.125  10.665  1.00  0.00    -0.237 OA
ATOM     66  O   UNL     1      -1.242 -10.159  11.192  1.00  0.00    -0.744 OA
ENDBRANCH  62  63
ENDBRANCH  43  57
BRANCH  44  67
ATOM     67  C   UNL     1       1.018  -9.858  -3.640  1.00  0.00    -0.014 A 
ATOM     68  C   UNL     1       0.004  -9.927  -4.611  1.00  0.00     0.010 A 
ATOM     69  C   UNL     1       2.363  -9.886  -4.051  1.00  0.00     0.010 A 
ATOM     70  C   UNL     1       0.329 -10.042  -5.966  1.00  0.00     0.020 A 
ATOM     71  C   UNL     1       2.692  -9.976  -5.406  1.00  0.00     0.020 A 
ATOM     72  C   UNL     1       1.671 -10.065  -6.355  1.00  0.00     0.054 A 
BRANCH  72  73
ATOM     73  S   UNL     1       2.072 -10.171  -8.121  1.00  0.00     0.124 S 
ATOM     74  O   UNL     1       1.790 -11.572  -8.413  1.00  0.00    -0.237 OA
ATOM     75  O   UNL     1       1.152  -9.203  -8.713  1.00  0.00    -0.237 OA
ATOM     76  O   UNL     1       3.482  -9.790  -8.174  1.00  0.00    -0.744 OA
ENDBRANCH  72  73
ENDBRANCH  44  67
BRANCH  56  77
ATOM     77  C   UNL     1      -1.798 -14.369   0.875  1.00  0.00    -0.014 A 
ATOM     78  C   UNL     1      -0.916 -15.455   0.732  1.00  0.00     0.010 A 
ATOM     79  C   UNL     1      -3.182 -14.617   0.947  1.00  0.00     0.010 A 
ATOM     80  C   UNL     1      -1.410 -16.759   0.635  1.00  0.00     0.020 A 
ATOM     81  C   UNL     1      -3.678 -15.921   0.876  1.00  0.00     0.020 A 
ATOM     82  C   UNL     1      -2.789 -16.985   0.708  1.00  0.00     0.054 A 
BRANCH  82  83
ATOM     83  S   UNL     1      -3.403 -18.690   0.631  1.00  0.00     0.124 S 
ATOM     84  O   UNL     1      -3.258 -19.002  -0.788  1.00  0.00    -0.237 OA
ATOM     85  O   UNL     1      -2.493 -19.401   1.526  1.00  0.00    -0.237 OA
ATOM     86  O   UNL     1      -4.779 -18.585   1.109  1.00  0.00    -0.744 OA
ENDBRANCH  82  83
ENDBRANCH  56  77
ENDBRANCH  30  31
ENDBRANCH  23  25
ENDBRANCH  22  23
ENDBRANCH  21  22
ENDBRANCH   1  21
TORSDOF 17
