REMARK SMILES Cc1cc(Br)c(C)c([C@@H]2[NH2+][C@H](C(=O)OCCOC(=O)c3ccc(-c4c5nc(c(-c6ccc(S(=O)(=O)[O-])cc6)c6ccc([nH]6)c(-c6ccc(S(=O)(=O)[O-])cc6)c6nc(c(-c7ccc(S(=O)(=O)[O-])cc7)c7ccc4[nH]7)C=C6)C=C5)cc3)CS2)c1O
REMARK SMILES IDX 16 1 15 2 14 3 12 4 13 5 11 6 9 7 10 8 81 9 80 12 8 13 1 14
REMARK SMILES IDX 2 15 3 16 82 17 4 18 5 19 6 20 7 21 83 22 17 24 18 25 19 26
REMARK SMILES IDX 20 27 21 28 79 29 22 30 78 31 23 32 24 33 25 34 72 35 26 36
REMARK SMILES IDX 77 37 71 38 73 39 27 40 76 41 70 42 69 43 28 45 58 46 39 47
REMARK SMILES IDX 57 48 40 49 43 50 56 51 74 52 41 53 42 54 55 56 75 57 44 58
REMARK SMILES IDX 29 59 30 60 38 61 31 62 37 63 32 64 33 65 34 66 35 67 36 68
REMARK SMILES IDX 59 69 60 70 68 71 61 72 67 73 62 74 63 75 64 76 65 77 66 78
REMARK SMILES IDX 45 79 46 80 54 81 47 82 53 83 48 84 49 85 50 86 51 87 52 88
REMARK H PARENT 10 10 10 11 83 23 73 44 43 55
REMARK Flexibility Score: inf
ROOT
ATOM      1  C   UNL     1       4.670   1.803  -2.072  1.00  0.00     0.275 C 
ENDROOT
BRANCH   1   2
ATOM      2  C   UNL     1       3.426   2.031  -1.214  1.00  0.00     0.274 C 
BRANCH   2   3
ATOM      3  O   UNL     1       2.355   2.527  -2.038  1.00  0.00    -0.458 OA
BRANCH   3   4
ATOM      4  C   UNL     1       1.810   3.730  -1.722  1.00  0.00     0.365 C 
ATOM      5  O   UNL     1       2.146   4.396  -0.746  1.00  0.00    -0.245 OA
BRANCH   4   6
ATOM      6  C   UNL     1       0.751   4.218  -2.723  1.00  0.00     0.304 C 
ATOM      7  C   UNL     1      -0.790   2.571  -3.568  1.00  0.00     0.278 C 
ATOM      8  N   UNL     1       0.463   3.276  -3.836  1.00  0.00    -0.319 N 
ATOM      9  S   UNL     1      -1.875   3.645  -2.618  1.00  0.00    -0.087 SA
ATOM     10  H   UNL     1       0.379   3.798  -4.708  1.00  0.00     0.348 HD
ATOM     11  H   UNL     1       1.222   2.601  -3.913  1.00  0.00     0.348 HD
ATOM     12  C   UNL     1      -0.520   4.672  -2.005  1.00  0.00     0.153 C 
BRANCH   7  13
ATOM     13  C   UNL     1      -0.565   1.141  -3.078  1.00  0.00     0.066 A 
ATOM     14  C   UNL     1       0.386  -0.756   0.151  1.00  0.00     0.048 C 
ATOM     15  C   UNL     1       0.006  -0.449  -1.270  1.00  0.00    -0.008 A 
ATOM     16  C   UNL     1      -0.025  -1.494  -2.193  1.00  0.00     0.023 A 
ATOM     17  C   UNL     1      -0.267   0.851  -1.724  1.00  0.00     0.128 A 
ATOM     18  C   UNL     1      -0.316  -1.253  -3.536  1.00  0.00     0.021 A 
ATOM     19  Br  UNL     1      -0.387  -2.792  -4.660  1.00  0.00    -0.051 Br
ATOM     20  C   UNL     1      -0.548   0.055  -4.013  1.00  0.00    -0.023 A 
ATOM     21  C   UNL     1      -0.809   0.266  -5.488  1.00  0.00     0.046 C 
BRANCH  17  22
ATOM     22  O   UNL     1      -0.227   1.877  -0.818  1.00  0.00    -0.507 OA
ATOM     23  H   UNL     1      -0.032   1.700   0.082  1.00  0.00     0.293 HD
ENDBRANCH  17  22
ENDBRANCH   7  13
ENDBRANCH   4   6
ENDBRANCH   3   4
ENDBRANCH   2   3
ENDBRANCH   1   2
BRANCH   1  24
ATOM     24  O   UNL     1       5.275   3.063  -2.401  1.00  0.00    -0.458 OA
BRANCH  24  25
ATOM     25  C   UNL     1       4.786   3.668  -3.513  1.00  0.00     0.338 C 
ATOM     26  O   UNL     1       4.013   3.216  -4.329  1.00  0.00    -0.246 OA
BRANCH  25  27
ATOM     27  C   UNL     1       5.215   5.077  -3.481  1.00  0.00     0.060 A 
ATOM     28  C   UNL     1       6.556   5.419  -3.309  1.00  0.00     0.016 A 
ATOM     29  C   UNL     1       4.235   6.064  -3.623  1.00  0.00     0.016 A 
ATOM     30  C   UNL     1       6.913   6.765  -3.264  1.00  0.00     0.010 A 
ATOM     31  C   UNL     1       4.590   7.407  -3.571  1.00  0.00     0.010 A 
ATOM     32  C   UNL     1       5.931   7.764  -3.390  1.00  0.00    -0.014 A 
BRANCH  32  33
ATOM     33  C   UNL     1       6.327   9.186  -3.423  1.00  0.00     0.031 A 
ATOM     34  C   UNL     1       6.146  10.061  -2.222  1.00  0.00     0.074 A 
ATOM     35  C   UNL     1       6.854   9.672  -4.561  1.00  0.00     0.049 A 
ATOM     36  N   UNL     1       6.555  11.288  -2.040  1.00  0.00    -0.248 NA
ATOM     37  C   UNL     1       5.410   9.492  -1.082  1.00  0.00     0.031 C 
ATOM     38  C   UNL     1       7.026   8.902  -5.796  1.00  0.00     0.029 A 
ATOM     39  N   UNL     1       7.356  10.910  -4.863  1.00  0.00    -0.354 N 
ATOM     40  C   UNL     1       6.151  11.634  -0.757  1.00  0.00     0.074 A 
ATOM     41  C   UNL     1       5.416  10.507  -0.225  1.00  0.00     0.031 C 
ATOM     42  C   UNL     1       7.635   9.674  -6.708  1.00  0.00     0.029 A 
ATOM     43  C   UNL     1       7.879  10.992  -6.131  1.00  0.00     0.049 A 
ATOM     44  H   UNL     1       7.343  11.666  -4.233  1.00  0.00     0.167 HD
ATOM     45  C   UNL     1       6.398  12.782  -0.084  1.00  0.00     0.031 A 
ATOM     46  C   UNL     1       8.511  12.008  -6.751  1.00  0.00     0.031 A 
ATOM     47  C   UNL     1       7.114  13.899  -0.645  1.00  0.00     0.049 A 
ATOM     48  C   UNL     1       8.758  13.278  -5.991  1.00  0.00     0.074 A 
ATOM     49  C   UNL     1       7.451  15.095  -0.036  1.00  0.00     0.029 A 
ATOM     50  N   UNL     1       7.597  13.962  -1.945  1.00  0.00    -0.354 N 
ATOM     51  N   UNL     1       8.441  13.563  -4.750  1.00  0.00    -0.248 NA
ATOM     52  C   UNL     1       9.460  14.355  -6.700  1.00  0.00     0.031 C 
ATOM     53  C   UNL     1       8.085  15.902  -0.984  1.00  0.00     0.029 A 
ATOM     54  C   UNL     1       8.203  15.187  -2.166  1.00  0.00     0.049 A 
ATOM     55  H   UNL     1       7.521  13.241  -2.611  1.00  0.00     0.167 HD
ATOM     56  C   UNL     1       8.912  14.850  -4.524  1.00  0.00     0.074 A 
ATOM     57  C   UNL     1       9.553  15.281  -5.752  1.00  0.00     0.031 C 
ATOM     58  C   UNL     1       8.820  15.604  -3.402  1.00  0.00     0.031 A 
BRANCH  45  59
ATOM     59  C   UNL     1       5.915  12.892   1.339  1.00  0.00    -0.014 A 
ATOM     60  C   UNL     1       4.912  13.818   1.677  1.00  0.00     0.010 A 
ATOM     61  C   UNL     1       6.533  12.151   2.362  1.00  0.00     0.010 A 
ATOM     62  C   UNL     1       4.551  14.018   3.013  1.00  0.00     0.020 A 
ATOM     63  C   UNL     1       6.158  12.330   3.697  1.00  0.00     0.020 A 
ATOM     64  C   UNL     1       5.184  13.279   4.016  1.00  0.00     0.054 A 
BRANCH  64  65
ATOM     65  S   UNL     1       4.714  13.558   5.746  1.00  0.00     0.124 S 
ATOM     66  O   UNL     1       5.402  14.807   6.055  1.00  0.00    -0.237 OA
ATOM     67  O   UNL     1       3.257  13.640   5.674  1.00  0.00    -0.237 OA
ATOM     68  O   UNL     1       5.226  12.374   6.434  1.00  0.00    -0.744 OA
ENDBRANCH  64  65
ENDBRANCH  45  59
BRANCH  46  69
ATOM     69  C   UNL     1       9.008  11.800  -8.136  1.00  0.00    -0.014 A 
ATOM     70  C   UNL     1       8.103  11.677  -9.207  1.00  0.00     0.010 A 
ATOM     71  C   UNL     1      10.379  11.592  -8.370  1.00  0.00     0.010 A 
ATOM     72  C   UNL     1       8.552  11.290 -10.473  1.00  0.00     0.020 A 
ATOM     73  C   UNL     1      10.834  11.230  -9.642  1.00  0.00     0.020 A 
ATOM     74  C   UNL     1       9.913  11.049 -10.676  1.00  0.00     0.054 A 
BRANCH  74  75
ATOM     75  S   UNL     1      10.464  10.470 -12.305  1.00  0.00     0.124 S 
ATOM     76  O   UNL     1      10.071   9.064 -12.270  1.00  0.00    -0.237 OA
ATOM     77  O   UNL     1       9.701  11.314 -13.221  1.00  0.00    -0.237 OA
ATOM     78  O   UNL     1      11.903  10.718 -12.286  1.00  0.00    -0.744 OA
ENDBRANCH  74  75
ENDBRANCH  46  69
BRANCH  58  79
ATOM     79  C   UNL     1       9.402  16.992  -3.437  1.00  0.00    -0.014 A 
ATOM     80  C   UNL     1      10.541  17.293  -2.667  1.00  0.00     0.010 A 
ATOM     81  C   UNL     1       8.741  18.026  -4.121  1.00  0.00     0.010 A 
ATOM     82  C   UNL     1      10.987  18.610  -2.550  1.00  0.00     0.020 A 
ATOM     83  C   UNL     1       9.201  19.343  -4.027  1.00  0.00     0.020 A 
ATOM     84  C   UNL     1      10.305  19.629  -3.220  1.00  0.00     0.054 A 
BRANCH  84  85
ATOM     85  S   UNL     1      10.873  21.341  -3.026  1.00  0.00     0.124 S 
ATOM     86  O   UNL     1      10.341  21.693  -1.712  1.00  0.00    -0.237 OA
ATOM     87  O   UNL     1      12.326  21.209  -3.102  1.00  0.00    -0.237 OA
ATOM     88  O   UNL     1      10.259  22.035  -4.155  1.00  0.00    -0.744 OA
ENDBRANCH  84  85
ENDBRANCH  58  79
ENDBRANCH  32  33
ENDBRANCH  25  27
ENDBRANCH  24  25
ENDBRANCH   1  24
TORSDOF 16
