REMARK SMILES O=C(OCCOC(=O)[C@@H]1CCCN(C(=O)/C=C/c2c(F)cccc2Cl)C1)c1ccc(-c2c3nc(c(-c4ccc(S(=O)(=O)[O-])cc4)c4ccc([nH]4)c(-c4ccc(S(=O)(=O)[O-])cc4)c4nc(c(-c5ccc(S(=O)(=O)[O-])cc5)c5ccc2[nH]5)C=C4)C=C3)cc1
REMARK SMILES IDX 4 1 3 2 2 3 1 4 27 5 28 6 86 7 29 8 85 9 30 10 31 11 32 12
REMARK SMILES IDX 79 13 33 14 84 15 78 16 80 17 34 18 83 19 77 20 76 21 35 23
REMARK SMILES IDX 65 24 46 25 64 26 47 27 50 28 63 29 81 30 48 31 49 32 62 34
REMARK SMILES IDX 82 35 51 36 36 37 37 38 45 39 38 40 44 41 39 42 40 43 41 44
REMARK SMILES IDX 42 45 43 46 66 47 67 48 75 49 68 50 74 51 69 52 70 53 71 54
REMARK SMILES IDX 72 55 73 56 52 57 53 58 61 59 54 60 60 61 55 62 56 63 57 64
REMARK SMILES IDX 58 65 59 66 5 67 6 68 7 69 8 70 9 71 10 72 26 73 11 74 13 75
REMARK SMILES IDX 12 76 14 77 15 78 16 79 17 80 18 81 19 82 24 83 20 84 21 85
REMARK SMILES IDX 23 86 25 87 22 88
REMARK H PARENT 80 22 50 33
REMARK Flexibility Score: inf
ROOT
ATOM      1  C   UNL     1       4.087  -1.018  -0.965  1.00  0.00     0.275 C 
ENDROOT
BRANCH   1   2
ATOM      2  O   UNL     1       2.805  -1.204  -0.317  1.00  0.00    -0.458 OA
BRANCH   2   3
ATOM      3  C   UNL     1       2.333  -0.864   0.910  1.00  0.00     0.338 C 
ATOM      4  O   UNL     1       1.163  -1.151   1.174  1.00  0.00    -0.246 OA
BRANCH   3   5
ATOM      5  C   UNL     1       3.083  -0.075   1.944  1.00  0.00     0.060 A 
ATOM      6  C   UNL     1       4.464  -0.047   2.090  1.00  0.00     0.016 A 
ATOM      7  C   UNL     1       2.325   0.708   2.851  1.00  0.00     0.016 A 
ATOM      8  C   UNL     1       5.069   0.857   2.983  1.00  0.00     0.010 A 
ATOM      9  C   UNL     1       2.932   1.598   3.767  1.00  0.00     0.010 A 
ATOM     10  C   UNL     1       4.322   1.730   3.796  1.00  0.00    -0.014 A 
BRANCH  10  11
ATOM     11  C   UNL     1       5.079   2.607   4.746  1.00  0.00     0.031 A 
ATOM     12  C   UNL     1       5.759   1.913   5.882  1.00  0.00     0.074 A 
ATOM     13  C   UNL     1       5.292   3.931   4.569  1.00  0.00     0.049 A 
ATOM     14  N   UNL     1       6.684   2.355   6.689  1.00  0.00    -0.248 NA
ATOM     15  C   UNL     1       5.317   0.533   6.147  1.00  0.00     0.031 C 
ATOM     16  C   UNL     1       4.622   4.764   3.590  1.00  0.00     0.029 A 
ATOM     17  N   UNL     1       6.164   4.817   5.170  1.00  0.00    -0.354 N 
ATOM     18  C   UNL     1       6.933   1.309   7.562  1.00  0.00     0.074 A 
ATOM     19  C   UNL     1       6.078   0.207   7.176  1.00  0.00     0.031 C 
ATOM     20  C   UNL     1       5.198   5.975   3.525  1.00  0.00     0.029 A 
ATOM     21  C   UNL     1       6.233   6.053   4.544  1.00  0.00     0.049 A 
ATOM     22  H   UNL     1       6.690   4.592   5.972  1.00  0.00     0.167 HD
ATOM     23  C   UNL     1       7.765   1.283   8.626  1.00  0.00     0.031 A 
ATOM     24  C   UNL     1       7.026   7.125   4.772  1.00  0.00     0.031 A 
ATOM     25  C   UNL     1       8.514   2.416   9.084  1.00  0.00     0.049 A 
ATOM     26  C   UNL     1       7.942   7.062   5.971  1.00  0.00     0.074 A 
ATOM     27  C   UNL     1       9.302   2.525  10.214  1.00  0.00     0.029 A 
ATOM     28  N   UNL     1       8.537   3.651   8.453  1.00  0.00    -0.354 N 
ATOM     29  N   UNL     1       8.195   6.048   6.763  1.00  0.00    -0.248 NA
ATOM     30  C   UNL     1       8.645   8.302   6.337  1.00  0.00     0.031 C 
ATOM     31  C   UNL     1       9.756   3.845  10.298  1.00  0.00     0.029 A 
ATOM     32  C   UNL     1       9.314   4.535   9.179  1.00  0.00     0.049 A 
ATOM     33  H   UNL     1       8.070   3.866   7.614  1.00  0.00     0.167 HD
ATOM     34  C   UNL     1       9.082   6.528   7.719  1.00  0.00     0.074 A 
ATOM     35  C   UNL     1       9.368   7.904   7.374  1.00  0.00     0.031 C 
ATOM     36  C   UNL     1       9.592   5.897   8.803  1.00  0.00     0.031 A 
BRANCH  23  37
ATOM     37  C   UNL     1       7.768   0.011   9.418  1.00  0.00    -0.014 A 
ATOM     38  C   UNL     1       8.353  -1.162   8.910  1.00  0.00     0.010 A 
ATOM     39  C   UNL     1       7.081  -0.029  10.644  1.00  0.00     0.010 A 
ATOM     40  C   UNL     1       8.198  -2.372   9.589  1.00  0.00     0.020 A 
ATOM     41  C   UNL     1       6.949  -1.231  11.338  1.00  0.00     0.020 A 
ATOM     42  C   UNL     1       7.487  -2.399  10.793  1.00  0.00     0.054 A 
BRANCH  42  43
ATOM     43  S   UNL     1       7.273  -3.986  11.640  1.00  0.00     0.124 S 
ATOM     44  O   UNL     1       6.290  -4.651  10.789  1.00  0.00    -0.237 OA
ATOM     45  O   UNL     1       8.619  -4.551  11.605  1.00  0.00    -0.237 OA
ATOM     46  O   UNL     1       6.794  -3.608  12.967  1.00  0.00    -0.744 OA
ENDBRANCH  42  43
ENDBRANCH  23  37
BRANCH  24  47
ATOM     47  C   UNL     1       7.003   8.367   3.923  1.00  0.00    -0.014 A 
ATOM     48  C   UNL     1       8.188   8.835   3.315  1.00  0.00     0.010 A 
ATOM     49  C   UNL     1       5.841   9.148   3.784  1.00  0.00     0.010 A 
ATOM     50  C   UNL     1       8.220  10.058   2.629  1.00  0.00     0.020 A 
ATOM     51  C   UNL     1       5.852  10.343   3.047  1.00  0.00     0.020 A 
ATOM     52  C   UNL     1       7.047  10.800   2.487  1.00  0.00     0.054 A 
BRANCH  52  53
ATOM     53  S   UNL     1       7.082  12.324   1.496  1.00  0.00     0.124 S 
ATOM     54  O   UNL     1       7.733  13.263   2.404  1.00  0.00    -0.237 OA
ATOM     55  O   UNL     1       7.870  11.933   0.329  1.00  0.00    -0.237 OA
ATOM     56  O   UNL     1       5.670  12.588   1.228  1.00  0.00    -0.744 OA
ENDBRANCH  52  53
ENDBRANCH  24  47
BRANCH  36  57
ATOM     57  C   UNL     1      10.548   6.674   9.666  1.00  0.00    -0.014 A 
ATOM     58  C   UNL     1      10.111   7.736  10.477  1.00  0.00     0.010 A 
ATOM     59  C   UNL     1      11.899   6.289   9.702  1.00  0.00     0.010 A 
ATOM     60  C   UNL     1      11.020   8.424  11.284  1.00  0.00     0.020 A 
ATOM     61  C   UNL     1      12.804   6.952  10.532  1.00  0.00     0.020 A 
ATOM     62  C   UNL     1      12.361   8.025  11.307  1.00  0.00     0.054 A 
BRANCH  62  63
ATOM     63  S   UNL     1      13.515   8.901  12.396  1.00  0.00     0.124 S 
ATOM     64  O   UNL     1      13.692  10.169  11.693  1.00  0.00    -0.237 OA
ATOM     65  O   UNL     1      12.774   8.976  13.653  1.00  0.00    -0.237 OA
ATOM     66  O   UNL     1      14.691   8.034  12.423  1.00  0.00    -0.744 OA
ENDBRANCH  62  63
ENDBRANCH  36  57
ENDBRANCH  10  11
ENDBRANCH   3   5
ENDBRANCH   2   3
ENDBRANCH   1   2
BRANCH   1  67
ATOM     67  C   UNL     1       4.219   0.301  -1.718  1.00  0.00     0.274 C 
BRANCH  67  68
ATOM     68  O   UNL     1       3.751   1.370  -0.904  1.00  0.00    -0.462 OA
BRANCH  68  69
ATOM     69  C   UNL     1       2.652   2.052  -1.300  1.00  0.00     0.310 C 
ATOM     70  O   UNL     1       2.034   1.849  -2.342  1.00  0.00    -0.252 OA
BRANCH  69  71
ATOM     71  C   UNL     1       2.212   3.043  -0.244  1.00  0.00     0.119 C 
ATOM     72  C   UNL     1       1.747   4.381  -0.819  1.00  0.00     0.019 C 
ATOM     73  C   UNL     1       3.280   3.320   0.798  1.00  0.00     0.135 C 
ATOM     74  C   UNL     1       2.923   5.244  -1.290  1.00  0.00     0.022 C 
ATOM     75  N   UNL     1       4.400   4.120   0.312  1.00  0.00    -0.338 N 
ATOM     76  C   UNL     1       4.009   5.416  -0.225  1.00  0.00     0.120 C 
BRANCH  75  77
ATOM     77  C   UNL     1       5.670   3.568   0.371  1.00  0.00     0.246 C 
ATOM     78  O   UNL     1       5.885   2.408   0.729  1.00  0.00    -0.270 OA
BRANCH  77  79
ATOM     79  C   UNL     1       6.865   4.282  -0.126  1.00  0.00     0.072 C 
ATOM     80  C   UNL     1       7.225   5.541   0.147  1.00  0.00     0.018 C 
BRANCH  80  81
ATOM     81  C   UNL     1       8.485   6.186  -0.293  1.00  0.00     0.029 A 
ATOM     82  C   UNL     1       9.651   5.465  -0.607  1.00  0.00     0.131 A 
ATOM     83  C   UNL     1       8.579   7.589  -0.350  1.00  0.00     0.051 A 
ATOM     84  F   UNL     1       9.650   4.124  -0.651  1.00  0.00    -0.206 F 
ATOM     85  C   UNL     1      10.861   6.097  -0.901  1.00  0.00     0.040 A 
ATOM     86  C   UNL     1       9.804   8.231  -0.588  1.00  0.00     0.021 A 
ATOM     87  Cl  UNL     1       7.166   8.586  -0.254  1.00  0.00    -0.084 Cl
ATOM     88  C   UNL     1      10.949   7.483  -0.856  1.00  0.00     0.005 A 
ENDBRANCH  80  81
ENDBRANCH  77  79
ENDBRANCH  75  77
ENDBRANCH  69  71
ENDBRANCH  68  69
ENDBRANCH  67  68
ENDBRANCH   1  67
TORSDOF 17
