REMARK SMILES O=C(OCCOC(=O)c1ccccc1Nc1cccc(C(F)(F)F)c1)c1ccc(-c2c3nc(c(-c4ccc(S(=O)(=O)[O-])cc4)c4ccc([nH]4)c(-c4ccc(S(=O)(=O)[O-])cc4)c4nc(c(-c5ccc(S(=O)(=O)[O-])cc5)c5ccc2[nH]5)C=C4)C=C3)cc1
REMARK SMILES IDX 4 1 3 2 2 3 1 4 26 5 27 6 85 7 28 8 84 9 29 10 30 11 31 12
REMARK SMILES IDX 78 13 32 14 83 15 77 16 79 17 33 18 82 19 76 20 75 21 34 23
REMARK SMILES IDX 64 24 45 25 63 26 46 27 49 28 62 29 80 30 47 31 48 32 61 34
REMARK SMILES IDX 81 35 50 36 35 37 36 38 44 39 37 40 43 41 38 42 39 43 40 44
REMARK SMILES IDX 41 45 42 46 65 47 66 48 74 49 67 50 73 51 68 52 69 53 70 54
REMARK SMILES IDX 71 55 72 56 51 57 52 58 60 59 53 60 59 61 54 62 55 63 56 64
REMARK SMILES IDX 57 65 58 66 5 67 6 68 7 69 8 70 9 71 10 72 14 73 11 74 13 75
REMARK SMILES IDX 12 76 15 77 16 79 17 80 25 81 18 82 20 83 19 84 21 85 22 86
REMARK SMILES IDX 23 87 24 88
REMARK H PARENT 79 22 49 33 15 78
REMARK Flexibility Score: inf
ROOT
ATOM      1  C   UNL     1       4.445  -1.412  -0.053  1.00  0.00     0.275 C 
ENDROOT
BRANCH   1   2
ATOM      2  O   UNL     1       3.269  -0.963   0.643  1.00  0.00    -0.458 OA
BRANCH   2   3
ATOM      3  C   UNL     1       2.900   0.262   1.081  1.00  0.00     0.338 C 
ATOM      4  O   UNL     1       1.928   0.329   1.836  1.00  0.00    -0.246 OA
BRANCH   3   5
ATOM      5  C   UNL     1       3.523   1.563   0.652  1.00  0.00     0.060 A 
ATOM      6  C   UNL     1       4.773   1.736   0.052  1.00  0.00     0.016 A 
ATOM      7  C   UNL     1       2.756   2.724   0.891  1.00  0.00     0.016 A 
ATOM      8  C   UNL     1       5.239   3.008  -0.301  1.00  0.00     0.010 A 
ATOM      9  C   UNL     1       3.212   3.999   0.535  1.00  0.00     0.010 A 
ATOM     10  C   UNL     1       4.469   4.147  -0.051  1.00  0.00    -0.014 A 
BRANCH  10  11
ATOM     11  C   UNL     1       5.069   5.483  -0.274  1.00  0.00     0.031 A 
ATOM     12  C   UNL     1       5.857   6.086   0.840  1.00  0.00     0.074 A 
ATOM     13  C   UNL     1       4.963   6.103  -1.463  1.00  0.00     0.049 A 
ATOM     14  N   UNL     1       6.634   7.131   0.821  1.00  0.00    -0.248 NA
ATOM     15  C   UNL     1       5.754   5.422   2.150  1.00  0.00     0.031 C 
ATOM     16  C   UNL     1       4.215   5.561  -2.581  1.00  0.00     0.029 A 
ATOM     17  N   UNL     1       5.502   7.260  -1.965  1.00  0.00    -0.354 N 
ATOM     18  C   UNL     1       7.085   7.278   2.124  1.00  0.00     0.074 A 
ATOM     19  C   UNL     1       6.512   6.204   2.903  1.00  0.00     0.031 C 
ATOM     20  C   UNL     1       4.405   6.319  -3.671  1.00  0.00     0.029 A 
ATOM     21  C   UNL     1       5.285   7.424  -3.321  1.00  0.00     0.049 A 
ATOM     22  H   UNL     1       5.995   7.910  -1.414  1.00  0.00     0.167 HD
ATOM     23  C   UNL     1       7.877   8.253   2.622  1.00  0.00     0.031 A 
ATOM     24  C   UNL     1       5.806   8.320  -4.186  1.00  0.00     0.031 A 
ATOM     25  C   UNL     1       8.386   9.335   1.825  1.00  0.00     0.049 A 
ATOM     26  C   UNL     1       6.771   9.331  -3.619  1.00  0.00     0.074 A 
ATOM     27  C   UNL     1       9.133  10.426   2.225  1.00  0.00     0.029 A 
ATOM     28  N   UNL     1       8.183   9.463   0.456  1.00  0.00    -0.354 N 
ATOM     29  N   UNL     1       7.241   9.422  -2.395  1.00  0.00    -0.248 NA
ATOM     30  C   UNL     1       7.287  10.349  -4.542  1.00  0.00     0.031 C 
ATOM     31  C   UNL     1       9.341  11.240   1.105  1.00  0.00     0.029 A 
ATOM     32  C   UNL     1       8.772  10.627  -0.002  1.00  0.00     0.049 A 
ATOM     33  H   UNL     1       7.693   8.820  -0.105  1.00  0.00     0.167 HD
ATOM     34  C   UNL     1       8.110  10.504  -2.403  1.00  0.00     0.074 A 
ATOM     35  C   UNL     1       8.152  10.992  -3.768  1.00  0.00     0.031 C 
ATOM     36  C   UNL     1       8.785  11.074  -1.373  1.00  0.00     0.031 A 
BRANCH  23  37
ATOM     37  C   UNL     1       8.118   8.233   4.104  1.00  0.00    -0.014 A 
ATOM     38  C   UNL     1       8.946   7.268   4.705  1.00  0.00     0.010 A 
ATOM     39  C   UNL     1       7.453   9.169   4.915  1.00  0.00     0.010 A 
ATOM     40  C   UNL     1       9.067   7.212   6.096  1.00  0.00     0.020 A 
ATOM     41  C   UNL     1       7.592   9.133   6.304  1.00  0.00     0.020 A 
ATOM     42  C   UNL     1       8.383   8.141   6.887  1.00  0.00     0.054 A 
BRANCH  42  43
ATOM     43  S   UNL     1       8.549   8.045   8.690  1.00  0.00     0.124 S 
ATOM     44  O   UNL     1       7.741   6.869   9.005  1.00  0.00    -0.237 OA
ATOM     45  O   UNL     1       9.989   7.884   8.871  1.00  0.00    -0.237 OA
ATOM     46  O   UNL     1       8.004   9.317   9.157  1.00  0.00    -0.744 OA
ENDBRANCH  42  43
ENDBRANCH  23  37
BRANCH  24  47
ATOM     47  C   UNL     1       5.567   8.209  -5.664  1.00  0.00    -0.014 A 
ATOM     48  C   UNL     1       6.658   7.998  -6.531  1.00  0.00     0.010 A 
ATOM     49  C   UNL     1       4.278   8.259  -6.226  1.00  0.00     0.010 A 
ATOM     50  C   UNL     1       6.474   7.826  -7.905  1.00  0.00     0.020 A 
ATOM     51  C   UNL     1       4.081   8.049  -7.600  1.00  0.00     0.020 A 
ATOM     52  C   UNL     1       5.183   7.832  -8.430  1.00  0.00     0.054 A 
BRANCH  52  53
ATOM     53  S   UNL     1       4.970   7.473 -10.196  1.00  0.00     0.124 S 
ATOM     54  O   UNL     1       5.542   8.660 -10.822  1.00  0.00    -0.237 OA
ATOM     55  O   UNL     1       5.739   6.239 -10.352  1.00  0.00    -0.237 OA
ATOM     56  O   UNL     1       3.525   7.319 -10.344  1.00  0.00    -0.744 OA
ENDBRANCH  52  53
ENDBRANCH  24  47
BRANCH  36  57
ATOM     57  C   UNL     1       9.581  12.309  -1.688  1.00  0.00    -0.014 A 
ATOM     58  C   UNL     1       8.927  13.512  -2.011  1.00  0.00     0.010 A 
ATOM     59  C   UNL     1      10.984  12.289  -1.597  1.00  0.00     0.010 A 
ATOM     60  C   UNL     1       9.663  14.665  -2.278  1.00  0.00     0.020 A 
ATOM     61  C   UNL     1      11.723  13.450  -1.832  1.00  0.00     0.020 A 
ATOM     62  C   UNL     1      11.057  14.627  -2.186  1.00  0.00     0.054 A 
BRANCH  62  63
ATOM     63  S   UNL     1      11.985  16.154  -2.487  1.00  0.00     0.124 S 
ATOM     64  O   UNL     1      11.902  16.276  -3.940  1.00  0.00    -0.237 OA
ATOM     65  O   UNL     1      11.225  17.145  -1.729  1.00  0.00    -0.237 OA
ATOM     66  O   UNL     1      13.315  15.860  -1.960  1.00  0.00    -0.744 OA
ENDBRANCH  62  63
ENDBRANCH  36  57
ENDBRANCH  10  11
ENDBRANCH   3   5
ENDBRANCH   2   3
ENDBRANCH   1   2
BRANCH   1  67
ATOM     67  C   UNL     1       4.295  -1.406  -1.576  1.00  0.00     0.275 C 
BRANCH  67  68
ATOM     68  O   UNL     1       3.817  -0.150  -2.082  1.00  0.00    -0.458 OA
BRANCH  68  69
ATOM     69  C   UNL     1       2.470  -0.086  -2.255  1.00  0.00     0.340 C 
ATOM     70  O   UNL     1       1.678  -0.999  -2.067  1.00  0.00    -0.246 OA
BRANCH  69  71
ATOM     71  C   UNL     1       2.039   1.290  -2.582  1.00  0.00     0.083 A 
ATOM     72  C   UNL     1       0.895   1.746  -1.897  1.00  0.00     0.018 A 
ATOM     73  C   UNL     1       2.696   2.110  -3.520  1.00  0.00     0.053 A 
ATOM     74  C   UNL     1       0.377   3.010  -2.154  1.00  0.00     0.001 A 
ATOM     75  C   UNL     1       2.061   3.315  -3.863  1.00  0.00     0.027 A 
ATOM     76  C   UNL     1       0.942   3.781  -3.161  1.00  0.00     0.002 A 
BRANCH  73  77
ATOM     77  N   UNL     1       3.926   1.734  -4.114  1.00  0.00    -0.355 N 
ATOM     78  H   UNL     1       4.218   0.808  -3.951  1.00  0.00     0.167 HD
BRANCH  77  79
ATOM     79  C   UNL     1       4.785   2.520  -4.907  1.00  0.00     0.039 A 
ATOM     80  C   UNL     1       4.553   2.672  -6.275  1.00  0.00     0.026 A 
ATOM     81  C   UNL     1       5.881   3.180  -4.332  1.00  0.00     0.039 A 
ATOM     82  C   UNL     1       5.398   3.466  -7.055  1.00  0.00     0.003 A 
ATOM     83  C   UNL     1       6.731   3.998  -5.099  1.00  0.00     0.058 A 
ATOM     84  C   UNL     1       6.478   4.128  -6.470  1.00  0.00     0.013 A 
BRANCH  83  85
ATOM     85  C   UNL     1       7.897   4.721  -4.466  1.00  0.00     0.416 C 
ATOM     86  F   UNL     1       9.091   4.320  -4.990  1.00  0.00    -0.166 F 
ATOM     87  F   UNL     1       7.861   6.068  -4.628  1.00  0.00    -0.166 F 
ATOM     88  F   UNL     1       8.002   4.503  -3.123  1.00  0.00    -0.166 F 
ENDBRANCH  83  85
ENDBRANCH  77  79
ENDBRANCH  73  77
ENDBRANCH  69  71
ENDBRANCH  68  69
ENDBRANCH  67  68
ENDBRANCH   1  67
TORSDOF 17
