REMARK SMILES NS(=O)(=O)c1ccc(N2N=C(C(=O)OCCOC(=O)c3ccc(-c4c5nc(c(-c6ccc(S(=O)(=O)[O-])cc6)c6ccc([nH]6)c(-c6ccc(S(=O)(=O)[O-])cc6)c6nc(c(-c7ccc(S(=O)(=O)[O-])cc7)c7ccc4[nH]7)C=C6)C=C5)cc3)C[C@H]2c2ccco2)cc1
REMARK SMILES IDX 15 1 14 2 12 3 13 4 11 5 9 6 10 7 81 8 80 9 8 10 5 11 6 12
REMARK SMILES IDX 88 13 7 14 87 15 2 16 3 17 4 18 1 19 82 22 83 23 86 24 84 25
REMARK SMILES IDX 85 26 16 27 17 28 18 29 19 30 20 31 21 32 79 33 22 34 78 35
REMARK SMILES IDX 23 36 24 37 25 38 72 39 26 40 77 41 71 42 73 43 27 44 76 45
REMARK SMILES IDX 70 46 69 47 28 49 58 50 39 51 57 52 40 53 43 54 56 55 74 56
REMARK SMILES IDX 41 57 42 58 55 60 75 61 44 62 29 63 30 64 38 65 31 66 37 67
REMARK SMILES IDX 32 68 33 69 34 70 35 71 36 72 59 73 60 74 68 75 61 76 67 77
REMARK SMILES IDX 62 78 63 79 64 80 65 81 66 82 45 83 46 84 54 85 47 86 53 87
REMARK SMILES IDX 48 88 49 89 50 90 51 91 52 92
REMARK H PARENT 1 20 1 21 73 48 43 59
REMARK Flexibility Score: inf
ROOT
ATOM      1  C   UNL     1       2.596  -1.094 -12.299  1.00  0.00     0.275 C 
ENDROOT
BRANCH   1   2
ATOM      2  O   UNL     1       3.024  -0.710 -10.978  1.00  0.00    -0.458 OA
BRANCH   2   3
ATOM      3  C   UNL     1       2.119  -0.041 -10.235  1.00  0.00     0.354 C 
ATOM      4  O   UNL     1       1.037   0.386 -10.592  1.00  0.00    -0.245 OA
BRANCH   3   5
ATOM      5  C   UNL     1       2.593   0.038  -8.803  1.00  0.00     0.148 C 
ATOM      6  N   UNL     1       2.602  -0.150  -6.702  1.00  0.00    -0.254 N 
ATOM      7  N   UNL     1       1.812  -0.229  -7.801  1.00  0.00    -0.169 NA
ATOM      8  C   UNL     1       3.863   0.552  -6.954  1.00  0.00     0.180 C 
ATOM      9  C   UNL     1       4.023   0.324  -8.468  1.00  0.00     0.101 C 
BRANCH   6  10
ATOM     10  C   UNL     1       2.098  -0.462  -5.453  1.00  0.00     0.060 A 
ATOM     11  C   UNL     1       1.123  -1.113  -2.902  1.00  0.00     0.082 A 
ATOM     12  C   UNL     1       1.794  -2.080  -3.651  1.00  0.00     0.024 A 
ATOM     13  C   UNL     1       0.906   0.164  -3.423  1.00  0.00     0.024 A 
ATOM     14  C   UNL     1       2.279  -1.748  -4.921  1.00  0.00     0.029 A 
ATOM     15  C   UNL     1       1.386   0.477  -4.697  1.00  0.00     0.029 A 
BRANCH  11  16
ATOM     16  S   UNL     1       0.549  -1.491  -1.275  1.00  0.00     0.238 S 
ATOM     17  O   UNL     1       1.183  -2.707  -0.811  1.00  0.00    -0.207 OA
ATOM     18  O   UNL     1      -0.867  -1.252  -1.201  1.00  0.00    -0.207 OA
BRANCH  16  19
ATOM     19  N   UNL     1       1.264  -0.274  -0.347  1.00  0.00    -0.225 NA
ATOM     20  H   UNL     1       0.999  -0.391   0.630  1.00  0.00     0.137 HD
ATOM     21  H   UNL     1       0.946   0.637  -0.679  1.00  0.00     0.137 HD
ENDBRANCH  16  19
ENDBRANCH  11  16
ENDBRANCH   6  10
BRANCH   8  22
ATOM     22  C   UNL     1       3.846   2.008  -6.577  1.00  0.00     0.128 A 
ATOM     23  C   UNL     1       3.974   2.656  -5.362  1.00  0.00     0.048 A 
ATOM     24  O   UNL     1       3.595   2.926  -7.559  1.00  0.00    -0.467 OA
ATOM     25  C   UNL     1       3.754   4.031  -5.611  1.00  0.00     0.042 A 
ATOM     26  C   UNL     1       3.533   4.143  -6.963  1.00  0.00     0.195 A 
ENDBRANCH   8  22
ENDBRANCH   3   5
ENDBRANCH   2   3
ENDBRANCH   1   2
BRANCH   1  27
ATOM     27  C   UNL     1       2.611  -2.619 -12.453  1.00  0.00     0.275 C 
BRANCH  27  28
ATOM     28  O   UNL     1       1.643  -3.252 -11.594  1.00  0.00    -0.458 OA
BRANCH  28  29
ATOM     29  C   UNL     1       2.116  -3.595 -10.371  1.00  0.00     0.338 C 
ATOM     30  O   UNL     1       3.253  -3.434  -9.956  1.00  0.00    -0.246 OA
BRANCH  29  31
ATOM     31  C   UNL     1       1.020  -4.080  -9.516  1.00  0.00     0.060 A 
ATOM     32  C   UNL     1       0.724  -3.326  -8.383  1.00  0.00     0.016 A 
ATOM     33  C   UNL     1       0.379  -5.300  -9.732  1.00  0.00     0.016 A 
ATOM     34  C   UNL     1      -0.183  -3.786  -7.439  1.00  0.00     0.010 A 
ATOM     35  C   UNL     1      -0.548  -5.762  -8.786  1.00  0.00     0.010 A 
ATOM     36  C   UNL     1      -0.816  -5.019  -7.619  1.00  0.00    -0.014 A 
BRANCH  36  37
ATOM     37  C   UNL     1      -1.681  -5.543  -6.532  1.00  0.00     0.031 A 
ATOM     38  C   UNL     1      -1.210  -6.701  -5.694  1.00  0.00     0.074 A 
ATOM     39  C   UNL     1      -2.844  -4.929  -6.240  1.00  0.00     0.049 A 
ATOM     40  N   UNL     1      -1.822  -7.317  -4.715  1.00  0.00    -0.248 NA
ATOM     41  C   UNL     1       0.127  -7.237  -5.997  1.00  0.00     0.031 C 
ATOM     42  C   UNL     1      -3.376  -3.753  -6.932  1.00  0.00     0.029 A 
ATOM     43  N   UNL     1      -3.777  -5.195  -5.269  1.00  0.00    -0.354 N 
ATOM     44  C   UNL     1      -0.961  -8.328  -4.304  1.00  0.00     0.074 A 
ATOM     45  C   UNL     1       0.210  -8.255  -5.152  1.00  0.00     0.031 C 
ATOM     46  C   UNL     1      -4.527  -3.385  -6.347  1.00  0.00     0.029 A 
ATOM     47  C   UNL     1      -4.840  -4.324  -5.274  1.00  0.00     0.049 A 
ATOM     48  H   UNL     1      -3.692  -5.939  -4.630  1.00  0.00     0.167 HD
ATOM     49  C   UNL     1      -1.129  -9.233  -3.309  1.00  0.00     0.031 A 
ATOM     50  C   UNL     1      -5.951  -4.293  -4.512  1.00  0.00     0.031 A 
ATOM     51  C   UNL     1      -2.288  -9.293  -2.458  1.00  0.00     0.049 A 
ATOM     52  C   UNL     1      -6.134  -5.336  -3.443  1.00  0.00     0.074 A 
ATOM     53  C   UNL     1      -2.560 -10.182  -1.433  1.00  0.00     0.029 A 
ATOM     54  N   UNL     1      -3.364  -8.419  -2.524  1.00  0.00    -0.354 N 
ATOM     55  N   UNL     1      -5.330  -6.315  -3.099  1.00  0.00    -0.248 NA
ATOM     56  C   UNL     1      -7.375  -5.270  -2.659  1.00  0.00     0.031 C 
ATOM     57  C   UNL     1      -3.819  -9.871  -0.905  1.00  0.00     0.029 A 
ATOM     58  C   UNL     1      -4.307  -8.756  -1.568  1.00  0.00     0.049 A 
ATOM     59  H   UNL     1      -3.444  -7.670  -3.157  1.00  0.00     0.167 HD
ATOM     60  C   UNL     1      -5.957  -6.965  -2.043  1.00  0.00     0.074 A 
ATOM     61  C   UNL     1      -7.200  -6.262  -1.797  1.00  0.00     0.031 C 
ATOM     62  C   UNL     1      -5.541  -8.047  -1.339  1.00  0.00     0.031 A 
BRANCH  49  63
ATOM     63  C   UNL     1      -0.046 -10.263  -3.122  1.00  0.00    -0.014 A 
ATOM     64  C   UNL     1       1.201  -9.926  -2.567  1.00  0.00     0.010 A 
ATOM     65  C   UNL     1      -0.291 -11.599  -3.493  1.00  0.00     0.010 A 
ATOM     66  C   UNL     1       2.199 -10.896  -2.429  1.00  0.00     0.020 A 
ATOM     67  C   UNL     1       0.695 -12.576  -3.332  1.00  0.00     0.020 A 
ATOM     68  C   UNL     1       1.942 -12.213  -2.820  1.00  0.00     0.054 A 
BRANCH  68  69
ATOM     69  S   UNL     1       3.252 -13.455  -2.629  1.00  0.00     0.124 S 
ATOM     70  O   UNL     1       4.149 -13.117  -3.731  1.00  0.00    -0.237 OA
ATOM     71  O   UNL     1       3.769 -13.177  -1.291  1.00  0.00    -0.237 OA
ATOM     72  O   UNL     1       2.547 -14.727  -2.768  1.00  0.00    -0.744 OA
ENDBRANCH  68  69
ENDBRANCH  49  63
BRANCH  50  73
ATOM     73  C   UNL     1      -6.987  -3.252  -4.752  1.00  0.00    -0.014 A 
ATOM     74  C   UNL     1      -7.207  -2.224  -3.818  1.00  0.00     0.010 A 
ATOM     75  C   UNL     1      -7.758  -3.282  -5.929  1.00  0.00     0.010 A 
ATOM     76  C   UNL     1      -8.189  -1.255  -4.050  1.00  0.00     0.020 A 
ATOM     77  C   UNL     1      -8.721  -2.300  -6.177  1.00  0.00     0.020 A 
ATOM     78  C   UNL     1      -8.939  -1.299  -5.229  1.00  0.00     0.054 A 
BRANCH  78  79
ATOM     79  S   UNL     1     -10.174  -0.005  -5.536  1.00  0.00     0.124 S 
ATOM     80  O   UNL     1     -11.267  -0.413  -4.658  1.00  0.00    -0.237 OA
ATOM     81  O   UNL     1      -9.468   1.212  -5.143  1.00  0.00    -0.237 OA
ATOM     82  O   UNL     1     -10.444  -0.123  -6.967  1.00  0.00    -0.744 OA
ENDBRANCH  78  79
ENDBRANCH  50  73
BRANCH  62  83
ATOM     83  C   UNL     1      -6.422  -8.514  -0.211  1.00  0.00    -0.014 A 
ATOM     84  C   UNL     1      -7.635  -9.179  -0.460  1.00  0.00     0.010 A 
ATOM     85  C   UNL     1      -6.011  -8.310   1.119  1.00  0.00     0.010 A 
ATOM     86  C   UNL     1      -8.441  -9.598   0.602  1.00  0.00     0.020 A 
ATOM     87  C   UNL     1      -6.802  -8.750   2.183  1.00  0.00     0.020 A 
ATOM     88  C   UNL     1      -8.021  -9.376   1.918  1.00  0.00     0.054 A 
BRANCH  88  89
ATOM     89  S   UNL     1      -9.070  -9.952   3.281  1.00  0.00     0.124 S 
ATOM     90  O   UNL     1     -10.126  -8.944   3.299  1.00  0.00    -0.237 OA
ATOM     91  O   UNL     1      -9.479 -11.282   2.837  1.00  0.00    -0.237 OA
ATOM     92  O   UNL     1      -8.175  -9.937   4.436  1.00  0.00    -0.744 OA
ENDBRANCH  88  89
ENDBRANCH  62  83
ENDBRANCH  36  37
ENDBRANCH  29  31
ENDBRANCH  28  29
ENDBRANCH  27  28
ENDBRANCH   1  27
TORSDOF 18
