REMARK SMILES Cc1cc(CNC(=O)C[C@H](C)CC(=O)OCCOC(=O)c2ccc(-c3c4nc(c(-c5ccc(S(=O)(=O)[O-])cc5)c5ccc([nH]5)c(-c5ccc(S(=O)(=O)[O-])cc5)c5nc(c(-c6ccc(S(=O)(=O)[O-])cc6)c6ccc3[nH]6)C=C5)C=C4)cc2)cc(C)c1F
REMARK SMILES IDX 16 1 15 2 13 3 14 4 12 5 10 6 11 7 9 8 7 9 6 10 8 12 5 13
REMARK SMILES IDX 4 14 1 15 2 16 3 17 84 18 82 19 85 20 81 21 83 22 17 23
REMARK SMILES IDX 18 24 19 25 20 26 21 27 22 28 80 29 23 30 79 31 24 32 25 33
REMARK SMILES IDX 26 34 73 35 27 36 78 37 72 38 74 39 28 40 77 41 71 42 70 43
REMARK SMILES IDX 29 45 59 46 40 47 58 48 41 49 44 50 57 51 75 52 42 53 43 54
REMARK SMILES IDX 56 56 76 57 45 58 30 59 31 60 39 61 32 62 38 63 33 64 34 65
REMARK SMILES IDX 35 66 36 67 37 68 60 69 61 70 69 71 62 72 68 73 63 74 64 75
REMARK SMILES IDX 65 76 66 77 67 78 46 79 47 80 55 81 48 82 54 83 49 84 50 85
REMARK SMILES IDX 51 86 52 87 53 88
REMARK H PARENT 6 11 74 44 44 55
REMARK Flexibility Score: inf
ROOT
ATOM      1  C   UNL     1       5.597  -6.401  -4.039  1.00  0.00     0.274 C 
ENDROOT
BRANCH   1   2
ATOM      2  O   UNL     1       4.803  -5.961  -2.912  1.00  0.00    -0.462 OA
BRANCH   2   3
ATOM      3  C   UNL     1       5.468  -5.354  -1.902  1.00  0.00     0.306 C 
ATOM      4  O   UNL     1       6.686  -5.205  -1.875  1.00  0.00    -0.252 OA
BRANCH   3   5
ATOM      5  C   UNL     1       4.608  -4.964  -0.712  1.00  0.00     0.126 C 
BRANCH   5   6
ATOM      6  C   UNL     1       3.169  -4.443  -0.893  1.00  0.00     0.006 C 
ATOM      7  C   UNL     1       2.238  -5.585  -1.327  1.00  0.00     0.009 C 
BRANCH   6   8
ATOM      8  C   UNL     1       2.654  -3.874   0.460  1.00  0.00     0.104 C 
BRANCH   8   9
ATOM      9  C   UNL     1       2.350  -2.385   0.489  1.00  0.00     0.220 C 
ATOM     10  N   UNL     1       3.296  -1.482   0.861  1.00  0.00    -0.352 N 
ATOM     11  H   UNL     1       2.950  -0.589   1.087  1.00  0.00     0.163 HD
ATOM     12  O   UNL     1       1.220  -1.970   0.227  1.00  0.00    -0.275 OA
BRANCH  10  13
ATOM     13  C   UNL     1       4.729  -1.625   0.979  1.00  0.00     0.151 C 
BRANCH  13  14
ATOM     14  C   UNL     1       5.422  -1.276  -0.318  1.00  0.00    -0.028 A 
ATOM     15  C   UNL     1       4.064  -0.061  -4.204  1.00  0.00     0.047 C 
ATOM     16  C   UNL     1       5.294  -0.366  -3.267  1.00  0.00    -0.015 A 
ATOM     17  C   UNL     1       4.470  -0.697  -1.684  1.00  0.00     0.012 A 
ATOM     18  C   UNL     1       7.296  -0.689  -3.337  1.00  0.00     0.129 A 
ATOM     19  C   UNL     1       8.134  -1.252  -1.843  1.00  0.00    -0.015 A 
ATOM     20  F   UNL     1       8.198  -0.608  -4.361  1.00  0.00    -0.206 F 
ATOM     21  C   UNL     1       7.176  -1.531  -0.398  1.00  0.00     0.012 A 
ATOM     22  C   UNL     1       9.624  -1.231  -1.747  1.00  0.00     0.047 C 
ENDBRANCH  13  14
ENDBRANCH  10  13
ENDBRANCH   8   9
ENDBRANCH   6   8
ENDBRANCH   5   6
ENDBRANCH   3   5
ENDBRANCH   2   3
ENDBRANCH   1   2
BRANCH   1  23
ATOM     23  C   UNL     1       5.336  -5.552  -5.288  1.00  0.00     0.275 C 
BRANCH  23  24
ATOM     24  O   UNL     1       5.984  -4.272  -5.173  1.00  0.00    -0.458 OA
BRANCH  24  25
ATOM     25  C   UNL     1       5.235  -3.363  -4.522  1.00  0.00     0.338 C 
ATOM     26  O   UNL     1       4.076  -3.486  -4.159  1.00  0.00    -0.246 OA
BRANCH  25  27
ATOM     27  C   UNL     1       6.020  -2.190  -4.157  1.00  0.00     0.060 A 
ATOM     28  C   UNL     1       6.133  -1.834  -2.401  1.00  0.00     0.016 A 
ATOM     29  C   UNL     1       6.223  -0.852  -5.288  1.00  0.00     0.016 A 
ATOM     30  C   UNL     1       6.459   0.074  -1.826  1.00  0.00     0.010 A 
ATOM     31  C   UNL     1       6.522   0.841  -4.764  1.00  0.00     0.010 A 
ATOM     32  C   UNL     1       6.656   1.335  -3.081  1.00  0.00    -0.014 A 
BRANCH  32  33
ATOM     33  C   UNL     1       7.113   2.657  -2.600  1.00  0.00     0.031 A 
ATOM     34  C   UNL     1       6.119   3.635  -2.076  1.00  0.00     0.074 A 
ATOM     35  C   UNL     1       8.431   2.866  -2.409  1.00  0.00     0.049 A 
ATOM     36  N   UNL     1       6.333   4.798  -1.524  1.00  0.00    -0.248 NA
ATOM     37  C   UNL     1       4.701   3.276  -2.198  1.00  0.00     0.031 C 
ATOM     38  C   UNL     1       9.487   1.950  -2.818  1.00  0.00     0.029 A 
ATOM     39  N   UNL     1       9.115   3.867  -1.756  1.00  0.00    -0.354 N 
ATOM     40  C   UNL     1       5.077   5.337  -1.294  1.00  0.00     0.074 A 
ATOM     41  C   UNL     1       4.104   4.359  -1.721  1.00  0.00     0.031 C 
ATOM     42  C   UNL     1      10.656   2.340  -2.288  1.00  0.00     0.029 A 
ATOM     43  C   UNL     1      10.465   3.614  -1.609  1.00  0.00     0.049 A 
ATOM     44  H   UNL     1       8.682   4.687  -1.425  1.00  0.00     0.167 HD
ATOM     45  C   UNL     1       4.778   6.563  -0.812  1.00  0.00     0.031 A 
ATOM     46  C   UNL     1      11.448   4.338  -1.031  1.00  0.00     0.031 A 
ATOM     47  C   UNL     1       5.766   7.524  -0.409  1.00  0.00     0.049 A 
ATOM     48  C   UNL     1      11.094   5.713  -0.535  1.00  0.00     0.074 A 
ATOM     49  C   UNL     1       5.571   8.822   0.023  1.00  0.00     0.029 A 
ATOM     50  N   UNL     1       7.133   7.290  -0.386  1.00  0.00    -0.354 N 
ATOM     51  N   UNL     1       9.906   6.258  -0.421  1.00  0.00    -0.248 NA
ATOM     52  C   UNL     1      12.205   6.604  -0.170  1.00  0.00     0.031 C 
ATOM     53  C   UNL     1       6.824   9.391   0.259  1.00  0.00     0.029 A 
ATOM     54  C   UNL     1       7.796   8.426   0.037  1.00  0.00     0.049 A 
ATOM     55  H   UNL     1       7.566   6.441  -0.634  1.00  0.00     0.167 HD
ATOM     56  C   UNL     1      10.127   7.564  -0.006  1.00  0.00     0.074 A 
ATOM     57  C   UNL     1      11.559   7.718   0.154  1.00  0.00     0.031 C 
ATOM     58  C   UNL     1       9.223   8.552   0.196  1.00  0.00     0.031 A 
BRANCH  45  59
ATOM     59  C   UNL     1       3.335   6.966  -0.794  1.00  0.00    -0.014 A 
ATOM     60  C   UNL     1       2.445   6.472   0.173  1.00  0.00     0.010 A 
ATOM     61  C   UNL     1       2.877   7.894  -1.748  1.00  0.00     0.010 A 
ATOM     62  C   UNL     1       1.114   6.894   0.179  1.00  0.00     0.020 A 
ATOM     63  C   UNL     1       1.554   8.336  -1.730  1.00  0.00     0.020 A 
ATOM     64  C   UNL     1       0.680   7.831  -0.766  1.00  0.00     0.054 A 
BRANCH  64  65
ATOM     65  S   UNL     1      -1.044   8.386  -0.706  1.00  0.00     0.124 S 
ATOM     66  O   UNL     1      -1.776   7.131  -0.865  1.00  0.00    -0.237 OA
ATOM     67  O   UNL     1      -1.127   8.999   0.616  1.00  0.00    -0.237 OA
ATOM     68  O   UNL     1      -1.153   9.311  -1.832  1.00  0.00    -0.744 OA
ENDBRANCH  64  65
ENDBRANCH  45  59
BRANCH  46  69
ATOM     69  C   UNL     1      12.857   3.837  -0.996  1.00  0.00    -0.014 A 
ATOM     70  C   UNL     1      13.512   3.575   0.222  1.00  0.00     0.010 A 
ATOM     71  C   UNL     1      13.555   3.595  -2.195  1.00  0.00     0.010 A 
ATOM     72  C   UNL     1      14.819   3.062   0.236  1.00  0.00     0.020 A 
ATOM     73  C   UNL     1      14.843   3.050  -2.188  1.00  0.00     0.020 A 
ATOM     74  C   UNL     1      15.468   2.784  -0.970  1.00  0.00     0.054 A 
BRANCH  74  75
ATOM     75  S   UNL     1      17.131   2.053  -0.932  1.00  0.00     0.124 S 
ATOM     76  O   UNL     1      17.898   3.065  -0.211  1.00  0.00    -0.237 OA
ATOM     77  O   UNL     1      16.902   0.803  -0.213  1.00  0.00    -0.237 OA
ATOM     78  O   UNL     1      17.474   1.901  -2.344  1.00  0.00    -0.744 OA
ENDBRANCH  74  75
ENDBRANCH  46  69
BRANCH  58  79
ATOM     79  C   UNL     1       9.728   9.897   0.631  1.00  0.00    -0.014 A 
ATOM     80  C   UNL     1      10.272  10.794  -0.303  1.00  0.00     0.010 A 
ATOM     81  C   UNL     1       9.492  10.324   1.950  1.00  0.00     0.010 A 
ATOM     82  C   UNL     1      10.560  12.107   0.075  1.00  0.00     0.020 A 
ATOM     83  C   UNL     1       9.758  11.641   2.324  1.00  0.00     0.020 A 
ATOM     84  C   UNL     1      10.284  12.526   1.381  1.00  0.00     0.054 A 
BRANCH  84  85
ATOM     85  S   UNL     1      10.589  14.259   1.817  1.00  0.00     0.124 S 
ATOM     86  O   UNL     1      12.016  14.401   1.542  1.00  0.00    -0.237 OA
ATOM     87  O   UNL     1       9.699  14.972   0.905  1.00  0.00    -0.237 OA
ATOM     88  O   UNL     1      10.221  14.333   3.230  1.00  0.00    -0.744 OA
ENDBRANCH  84  85
ENDBRANCH  58  79
ENDBRANCH  32  33
ENDBRANCH  25  27
ENDBRANCH  24  25
ENDBRANCH  23  24
ENDBRANCH   1  23
TORSDOF 19
