REMARK SMILES Cc1ccccc1/[NH+]=C1\S[C@@H](CC(=O)Nc2ccc(C(=O)OCCOC(=O)c3ccc(-c4c5nc(c(-c6ccc(S(=O)(=O)[O-])cc6)c6ccc([nH]6)c(-c6ccc(S(=O)(=O)[O-])cc6)c6nc(c(-c7ccc(S(=O)(=O)[O-])cc7)c7ccc4[nH]7)C=C6)C=C5)cc3)cc2)C(=O)N1C
REMARK SMILES IDX 23 1 22 2 20 3 21 4 19 5 16 6 17 7 89 8 18 9 88 10 15 11
REMARK SMILES IDX 13 12 14 13 12 15 11 16 8 17 9 18 10 20 92 21 90 22 93 23
REMARK SMILES IDX 91 24 7 25 1 26 2 27 3 28 4 29 6 30 5 31 24 32 25 33 26 34
REMARK SMILES IDX 27 35 28 36 29 37 87 38 30 39 86 40 31 41 32 42 33 43 80 44
REMARK SMILES IDX 34 45 85 46 79 47 81 48 35 49 84 50 78 51 77 52 36 54 66 55
REMARK SMILES IDX 47 56 65 57 48 58 51 59 64 60 82 61 49 62 50 63 63 65 83 66
REMARK SMILES IDX 52 67 37 68 38 69 46 70 39 71 45 72 40 73 41 74 42 75 43 76
REMARK SMILES IDX 44 77 67 78 68 79 76 80 69 81 75 82 70 83 71 84 72 85 73 86
REMARK SMILES IDX 74 87 53 88 54 89 62 90 55 91 61 92 56 93 57 94 58 95 59 96
REMARK SMILES IDX 60 97
REMARK H PARENT 15 14 8 19 81 53 51 64
REMARK Flexibility Score: inf
ROOT
ATOM      1  C   UNL     1       2.639   7.007  -2.268  1.00  0.00     0.275 C 
ENDROOT
BRANCH   1   2
ATOM      2  O   UNL     1       3.645   6.744  -1.285  1.00  0.00    -0.458 OA
BRANCH   2   3
ATOM      3  C   UNL     1       4.202   5.510  -1.383  1.00  0.00     0.338 C 
ATOM      4  O   UNL     1       3.782   4.580  -2.044  1.00  0.00    -0.246 OA
BRANCH   3   5
ATOM      5  C   UNL     1       5.375   5.373  -0.497  1.00  0.00     0.060 A 
ATOM      6  C   UNL     1       7.045   4.187   1.329  1.00  0.00     0.041 A 
ATOM      7  C   UNL     1       6.111   5.122   1.775  1.00  0.00     0.027 A 
ATOM      8  C   UNL     1       7.351   4.072  -0.020  1.00  0.00     0.027 A 
ATOM      9  C   UNL     1       5.252   5.713   0.849  1.00  0.00     0.018 A 
ATOM     10  C   UNL     1       6.472   4.624  -0.939  1.00  0.00     0.018 A 
BRANCH   6  11
ATOM     11  N   UNL     1       7.370   3.135   2.194  1.00  0.00    -0.326 N 
ATOM     12  C   UNL     1       6.784   1.886   2.129  1.00  0.00     0.226 C 
ATOM     13  O   UNL     1       6.936   1.105   3.073  1.00  0.00    -0.275 OA
ATOM     14  H   UNL     1       8.052   3.295   2.886  1.00  0.00     0.169 HD
BRANCH  12  15
ATOM     15  C   UNL     1       5.938   1.476   0.926  1.00  0.00     0.128 C 
BRANCH  15  16
ATOM     16  C   UNL     1       4.437   1.553   1.141  1.00  0.00     0.183 C 
ATOM     17  N   UNL     1       0.932   1.807   0.279  1.00  0.00    -0.234 N 
ATOM     18  C   UNL     1       2.182   2.085   0.211  1.00  0.00     0.319 C 
ATOM     19  H   UNL     1       0.376   2.537   0.638  1.00  0.00     0.313 HD
ATOM     20  S   UNL     1       3.542   1.237  -0.431  1.00  0.00    -0.022 SA
ATOM     21  N   UNL     1       2.659   3.161   0.897  1.00  0.00    -0.193 N 
ATOM     22  C   UNL     1       3.784   2.846   1.636  1.00  0.00     0.324 C 
ATOM     23  C   UNL     1       1.854   4.342   1.143  1.00  0.00     0.301 C 
ATOM     24  O   UNL     1       4.082   3.389   2.696  1.00  0.00    -0.245 OA
BRANCH  17  25
ATOM     25  C   UNL     1       0.213   0.655  -0.064  1.00  0.00     0.128 A 
ATOM     26  C   UNL     1       1.929  -1.200   0.519  1.00  0.00     0.049 C 
ATOM     27  C   UNL     1       0.581  -0.698   0.098  1.00  0.00    -0.004 A 
ATOM     28  C   UNL     1      -0.381  -1.709  -0.117  1.00  0.00     0.008 A 
ATOM     29  C   UNL     1      -1.711  -1.405  -0.380  1.00  0.00     0.001 A 
ATOM     30  C   UNL     1      -1.141   0.927  -0.345  1.00  0.00     0.052 A 
ATOM     31  C   UNL     1      -2.097  -0.080  -0.481  1.00  0.00     0.004 A 
ENDBRANCH  17  25
ENDBRANCH  15  16
ENDBRANCH  12  15
ENDBRANCH   6  11
ENDBRANCH   3   5
ENDBRANCH   2   3
ENDBRANCH   1   2
BRANCH   1  32
ATOM     32  C   UNL     1       2.663   8.477  -2.727  1.00  0.00     0.275 C 
BRANCH  32  33
ATOM     33  O   UNL     1       3.910   9.112  -3.125  1.00  0.00    -0.458 OA
BRANCH  33  34
ATOM     34  C   UNL     1       5.081   8.429  -3.036  1.00  0.00     0.338 C 
ATOM     35  O   UNL     1       5.826   8.533  -2.065  1.00  0.00    -0.246 OA
BRANCH  34  36
ATOM     36  C   UNL     1       5.170   7.393  -4.095  1.00  0.00     0.060 A 
ATOM     37  C   UNL     1       5.975   6.270  -3.873  1.00  0.00     0.016 A 
ATOM     38  C   UNL     1       4.190   7.382  -5.088  1.00  0.00     0.016 A 
ATOM     39  C   UNL     1       5.655   5.066  -4.491  1.00  0.00     0.010 A 
ATOM     40  C   UNL     1       3.781   6.174  -5.588  1.00  0.00     0.010 A 
ATOM     41  C   UNL     1       4.507   5.019  -5.280  1.00  0.00    -0.014 A 
BRANCH  41  42
ATOM     42  C   UNL     1       4.159   3.876  -6.101  1.00  0.00     0.031 A 
ATOM     43  C   UNL     1       3.477   2.702  -5.505  1.00  0.00     0.074 A 
ATOM     44  C   UNL     1       4.533   4.082  -7.387  1.00  0.00     0.049 A 
ATOM     45  N   UNL     1       3.752   1.476  -5.792  1.00  0.00    -0.248 NA
ATOM     46  C   UNL     1       2.432   2.804  -4.472  1.00  0.00     0.031 C 
ATOM     47  C   UNL     1       4.330   3.311  -8.595  1.00  0.00     0.029 A 
ATOM     48  N   UNL     1       5.360   5.110  -7.858  1.00  0.00    -0.354 N 
ATOM     49  C   UNL     1       2.689   0.717  -5.328  1.00  0.00     0.074 A 
ATOM     50  C   UNL     1       2.015   1.532  -4.353  1.00  0.00     0.031 C 
ATOM     51  C   UNL     1       5.310   3.643  -9.468  1.00  0.00     0.029 A 
ATOM     52  C   UNL     1       6.223   4.553  -8.778  1.00  0.00     0.049 A 
ATOM     53  H   UNL     1       5.331   6.055  -7.583  1.00  0.00     0.167 HD
ATOM     54  C   UNL     1       2.299  -0.384  -6.033  1.00  0.00     0.031 A 
ATOM     55  C   UNL     1       7.531   4.298  -8.457  1.00  0.00     0.031 A 
ATOM     56  C   UNL     1       3.097  -0.474  -7.251  1.00  0.00     0.049 A 
ATOM     57  C   UNL     1       7.762   2.803  -8.507  1.00  0.00     0.074 A 
ATOM     58  C   UNL     1       2.847   0.028  -8.518  1.00  0.00     0.029 A 
ATOM     59  N   UNL     1       4.460  -0.716  -7.172  1.00  0.00    -0.354 N 
ATOM     60  N   UNL     1       6.901   1.909  -8.092  1.00  0.00    -0.248 NA
ATOM     61  C   UNL     1       8.916   2.219  -9.178  1.00  0.00     0.031 C 
ATOM     62  C   UNL     1       4.087   0.138  -9.189  1.00  0.00     0.029 A 
ATOM     63  C   UNL     1       5.085  -0.265  -8.319  1.00  0.00     0.049 A 
ATOM     64  H   UNL     1       4.914  -1.145  -6.412  1.00  0.00     0.167 HD
ATOM     65  C   UNL     1       7.286   0.676  -8.565  1.00  0.00     0.074 A 
ATOM     66  C   UNL     1       8.570   0.921  -9.203  1.00  0.00     0.031 C 
ATOM     67  C   UNL     1       6.513  -0.450  -8.499  1.00  0.00     0.031 A 
BRANCH  54  68
ATOM     68  C   UNL     1       0.978  -1.108  -5.879  1.00  0.00    -0.014 A 
ATOM     69  C   UNL     1       0.344  -1.603  -7.042  1.00  0.00     0.010 A 
ATOM     70  C   UNL     1       0.325  -1.358  -4.657  1.00  0.00     0.010 A 
ATOM     71  C   UNL     1      -0.888  -2.263  -7.011  1.00  0.00     0.020 A 
ATOM     72  C   UNL     1      -0.922  -2.025  -4.612  1.00  0.00     0.020 A 
ATOM     73  C   UNL     1      -1.522  -2.467  -5.793  1.00  0.00     0.054 A 
BRANCH  73  74
ATOM     74  S   UNL     1      -3.115  -3.336  -5.804  1.00  0.00     0.124 S 
ATOM     75  O   UNL     1      -3.948  -2.454  -6.619  1.00  0.00    -0.237 OA
ATOM     76  O   UNL     1      -2.775  -4.617  -6.418  1.00  0.00    -0.237 OA
ATOM     77  O   UNL     1      -3.487  -3.405  -4.392  1.00  0.00    -0.744 OA
ENDBRANCH  73  74
ENDBRANCH  54  68
BRANCH  55  78
ATOM     78  C   UNL     1       8.213   5.263  -7.523  1.00  0.00    -0.014 A 
ATOM     79  C   UNL     1       8.123   6.645  -7.822  1.00  0.00     0.010 A 
ATOM     80  C   UNL     1       8.753   4.909  -6.273  1.00  0.00     0.010 A 
ATOM     81  C   UNL     1       8.412   7.631  -6.871  1.00  0.00     0.020 A 
ATOM     82  C   UNL     1       9.079   5.901  -5.319  1.00  0.00     0.020 A 
ATOM     83  C   UNL     1       8.869   7.253  -5.612  1.00  0.00     0.054 A 
BRANCH  83  84
ATOM     84  S   UNL     1       8.971   8.537  -4.319  1.00  0.00     0.124 S 
ATOM     85  O   UNL     1      10.221   9.212  -4.651  1.00  0.00    -0.237 OA
ATOM     86  O   UNL     1       7.755   9.312  -4.565  1.00  0.00    -0.237 OA
ATOM     87  O   UNL     1       8.984   7.758  -3.084  1.00  0.00    -0.744 OA
ENDBRANCH  83  84
ENDBRANCH  55  78
BRANCH  67  88
ATOM     88  C   UNL     1       6.982  -1.864  -8.740  1.00  0.00    -0.014 A 
ATOM     89  C   UNL     1       8.328  -2.243  -8.765  1.00  0.00     0.010 A 
ATOM     90  C   UNL     1       6.021  -2.908  -8.808  1.00  0.00     0.010 A 
ATOM     91  C   UNL     1       8.699  -3.579  -8.933  1.00  0.00     0.020 A 
ATOM     92  C   UNL     1       6.379  -4.250  -8.902  1.00  0.00     0.020 A 
ATOM     93  C   UNL     1       7.724  -4.574  -8.999  1.00  0.00     0.054 A 
BRANCH  93  94
ATOM     94  S   UNL     1       8.239  -6.294  -9.157  1.00  0.00     0.124 S 
ATOM     95  O   UNL     1       8.566  -6.375 -10.579  1.00  0.00    -0.237 OA
ATOM     96  O   UNL     1       9.379  -6.371  -8.246  1.00  0.00    -0.237 OA
ATOM     97  O   UNL     1       7.063  -7.051  -8.739  1.00  0.00    -0.744 OA
ENDBRANCH  93  94
ENDBRANCH  67  88
ENDBRANCH  41  42
ENDBRANCH  34  36
ENDBRANCH  33  34
ENDBRANCH  32  33
ENDBRANCH   1  32
TORSDOF 18
