REMARK SMILES O=C(Cc1ccccc1Nc1c(Cl)cccc1C(F)(F)F)OCCOC(=O)c1ccc(-c2c3nc(c(-c4ccc(S(=O)(=O)[O-])cc4)c4ccc([nH]4)c(-c4ccc(S(=O)(=O)[O-])cc4)c4nc(c(-c5ccc(S(=O)(=O)[O-])cc5)c5ccc2[nH]5)C=C4)C=C3)cc1
REMARK SMILES IDX 23 1 22 2 2 3 1 4 3 5 4 6 5 7 9 8 6 9 8 10 7 11 10 12 11 14
REMARK SMILES IDX 12 15 17 16 13 17 14 18 16 19 15 20 18 21 19 22 20 23 21 24
REMARK SMILES IDX 24 25 25 26 26 27 27 28 28 29 29 30 87 31 30 32 86 33 31 34
REMARK SMILES IDX 32 35 33 36 80 37 34 38 85 39 79 40 81 41 35 42 84 43 78 44
REMARK SMILES IDX 77 45 36 47 66 48 47 49 65 50 48 51 51 52 64 53 82 54 49 55
REMARK SMILES IDX 50 56 63 58 83 59 52 60 37 61 38 62 46 63 39 64 45 65 40 66
REMARK SMILES IDX 41 67 42 68 43 69 44 70 67 71 68 72 76 73 69 74 75 75 70 76
REMARK SMILES IDX 71 77 72 78 73 79 74 80 53 81 54 82 62 83 55 84 61 85 56 86
REMARK SMILES IDX 57 87 58 88 59 89 60 90
REMARK H PARENT 10 13 81 46 51 57
REMARK Flexibility Score: inf
ROOT
ATOM      1  C   UNL     1       3.921   1.071  -0.889  1.00  0.00     0.274 C 
ENDROOT
BRANCH   1   2
ATOM      2  O   UNL     1       2.611   0.479  -0.835  1.00  0.00    -0.462 OA
BRANCH   2   3
ATOM      3  C   UNL     1       2.431  -0.782  -0.358  1.00  0.00     0.310 C 
ATOM      4  O   UNL     1       1.589  -1.520  -0.866  1.00  0.00    -0.252 OA
BRANCH   3   5
ATOM      5  C   UNL     1       3.163  -1.161   0.913  1.00  0.00     0.160 C 
BRANCH   5   6
ATOM      6  C   UNL     1       4.125  -2.320   0.802  1.00  0.00    -0.013 A 
ATOM      7  C   UNL     1       3.590  -3.616   0.702  1.00  0.00     0.006 A 
ATOM      8  C   UNL     1       5.528  -2.148   0.825  1.00  0.00     0.042 A 
ATOM      9  C   UNL     1       4.423  -4.729   0.645  1.00  0.00     0.000 A 
ATOM     10  C   UNL     1       6.349  -3.283   0.773  1.00  0.00     0.026 A 
ATOM     11  C   UNL     1       5.802  -4.563   0.685  1.00  0.00     0.002 A 
BRANCH   8  12
ATOM     12  N   UNL     1       6.094  -0.862   0.945  1.00  0.00    -0.354 N 
ATOM     13  H   UNL     1       5.541  -0.226   1.455  1.00  0.00     0.167 HD
BRANCH  12  14
ATOM     14  C   UNL     1       7.309  -0.315   0.468  1.00  0.00     0.070 A 
ATOM     15  C   UNL     1       8.005   0.588   1.313  1.00  0.00     0.065 A 
ATOM     16  C   UNL     1       7.874  -0.609  -0.790  1.00  0.00     0.080 A 
ATOM     17  Cl  UNL     1       7.319   1.076   2.830  1.00  0.00    -0.082 Cl
ATOM     18  C   UNL     1       9.245   1.125   0.964  1.00  0.00     0.023 A 
ATOM     19  C   UNL     1       9.147  -0.075  -1.112  1.00  0.00     0.015 A 
ATOM     20  C   UNL     1       9.827   0.776  -0.245  1.00  0.00     0.002 A 
BRANCH  16  21
ATOM     21  C   UNL     1       7.193  -1.421  -1.870  1.00  0.00     0.418 C 
ATOM     22  F   UNL     1       7.555  -0.990  -3.121  1.00  0.00    -0.166 F 
ATOM     23  F   UNL     1       7.538  -2.736  -1.844  1.00  0.00    -0.166 F 
ATOM     24  F   UNL     1       5.835  -1.357  -1.880  1.00  0.00    -0.166 F 
ENDBRANCH  16  21
ENDBRANCH  12  14
ENDBRANCH   8  12
ENDBRANCH   5   6
ENDBRANCH   3   5
ENDBRANCH   2   3
ENDBRANCH   1   2
BRANCH   1  25
ATOM     25  C   UNL     1       4.051   2.315  -0.005  1.00  0.00     0.275 C 
BRANCH  25  26
ATOM     26  O   UNL     1       3.744   2.012   1.366  1.00  0.00    -0.458 OA
BRANCH  26  27
ATOM     27  C   UNL     1       2.448   2.225   1.713  1.00  0.00     0.338 C 
ATOM     28  O   UNL     1       1.602   2.787   1.038  1.00  0.00    -0.246 OA
BRANCH  27  29
ATOM     29  C   UNL     1       2.137   1.507   2.971  1.00  0.00     0.060 A 
ATOM     30  C   UNL     1       0.868   0.924   3.082  1.00  0.00     0.016 A 
ATOM     31  C   UNL     1       3.053   1.395   4.024  1.00  0.00     0.016 A 
ATOM     32  C   UNL     1       0.491   0.281   4.261  1.00  0.00     0.010 A 
ATOM     33  C   UNL     1       2.673   0.748   5.207  1.00  0.00     0.010 A 
ATOM     34  C   UNL     1       1.376   0.223   5.346  1.00  0.00    -0.014 A 
BRANCH  34  35
ATOM     35  C   UNL     1       0.868  -0.221   6.668  1.00  0.00     0.031 A 
ATOM     36  C   UNL     1       0.411   0.822   7.654  1.00  0.00     0.074 A 
ATOM     37  C   UNL     1       0.754  -1.526   6.977  1.00  0.00     0.049 A 
ATOM     38  N   UNL     1      -0.159   0.667   8.821  1.00  0.00    -0.248 NA
ATOM     39  C   UNL     1       0.620   2.227   7.267  1.00  0.00     0.031 C 
ATOM     40  C   UNL     1       1.133  -2.641   6.110  1.00  0.00     0.029 A 
ATOM     41  N   UNL     1       0.270  -2.131   8.112  1.00  0.00    -0.354 N 
ATOM     42  C   UNL     1      -0.388   1.951   9.302  1.00  0.00     0.074 A 
ATOM     43  C   UNL     1       0.145   2.872   8.322  1.00  0.00     0.031 C 
ATOM     44  C   UNL     1       0.858  -3.796   6.743  1.00  0.00     0.029 A 
ATOM     45  C   UNL     1       0.297  -3.504   8.062  1.00  0.00     0.049 A 
ATOM     46  H   UNL     1      -0.065  -1.627   8.889  1.00  0.00     0.167 HD
ATOM     47  C   UNL     1      -0.999   2.336  10.448  1.00  0.00     0.031 A 
ATOM     48  C   UNL     1      -0.090  -4.420   8.972  1.00  0.00     0.031 A 
ATOM     49  C   UNL     1      -1.509   1.430  11.441  1.00  0.00     0.049 A 
ATOM     50  C   UNL     1      -0.698  -3.968  10.276  1.00  0.00     0.074 A 
ATOM     51  C   UNL     1      -2.159   1.729  12.626  1.00  0.00     0.029 A 
ATOM     52  N   UNL     1      -1.413   0.049  11.374  1.00  0.00    -0.354 N 
ATOM     53  N   UNL     1      -0.960  -2.750  10.689  1.00  0.00    -0.248 NA
ATOM     54  C   UNL     1      -1.077  -5.020  11.232  1.00  0.00     0.031 C 
ATOM     55  C   UNL     1      -2.409   0.529  13.301  1.00  0.00     0.029 A 
ATOM     56  C   UNL     1      -1.964  -0.518  12.511  1.00  0.00     0.049 A 
ATOM     57  H   UNL     1      -1.011  -0.454  10.629  1.00  0.00     0.167 HD
ATOM     58  C   UNL     1      -1.566  -2.893  11.934  1.00  0.00     0.074 A 
ATOM     59  C   UNL     1      -1.637  -4.314  12.205  1.00  0.00     0.031 C 
ATOM     60  C   UNL     1      -2.031  -1.934  12.773  1.00  0.00     0.031 A 
BRANCH  47  61
ATOM     61  C   UNL     1      -1.120   3.815  10.694  1.00  0.00    -0.014 A 
ATOM     62  C   UNL     1      -2.019   4.602   9.950  1.00  0.00     0.010 A 
ATOM     63  C   UNL     1      -0.329   4.424  11.683  1.00  0.00     0.010 A 
ATOM     64  C   UNL     1      -2.087   5.981  10.158  1.00  0.00     0.020 A 
ATOM     65  C   UNL     1      -0.413   5.800  11.911  1.00  0.00     0.020 A 
ATOM     66  C   UNL     1      -1.276   6.573  11.131  1.00  0.00     0.054 A 
BRANCH  66  67
ATOM     67  S   UNL     1      -1.378   8.367  11.378  1.00  0.00     0.124 S 
ATOM     68  O   UNL     1      -0.655   8.870  10.212  1.00  0.00    -0.237 OA
ATOM     69  O   UNL     1      -2.817   8.612  11.377  1.00  0.00    -0.237 OA
ATOM     70  O   UNL     1      -0.713   8.578  12.662  1.00  0.00    -0.744 OA
ENDBRANCH  66  67
ENDBRANCH  47  61
BRANCH  48  71
ATOM     71  C   UNL     1       0.070  -5.872   8.685  1.00  0.00    -0.014 A 
ATOM     72  C   UNL     1      -1.054  -6.682   8.444  1.00  0.00     0.010 A 
ATOM     73  C   UNL     1       1.349  -6.455   8.673  1.00  0.00     0.010 A 
ATOM     74  C   UNL     1      -0.903  -8.053   8.217  1.00  0.00     0.020 A 
ATOM     75  C   UNL     1       1.506  -7.822   8.423  1.00  0.00     0.020 A 
ATOM     76  C   UNL     1       0.377  -8.615   8.209  1.00  0.00     0.054 A 
BRANCH  76  77
ATOM     77  S   UNL     1       0.554 -10.389   7.874  1.00  0.00     0.124 S 
ATOM     78  O   UNL     1       0.118 -10.982   9.134  1.00  0.00    -0.237 OA
ATOM     79  O   UNL     1      -0.340 -10.588   6.737  1.00  0.00    -0.237 OA
ATOM     80  O   UNL     1       1.976 -10.538   7.571  1.00  0.00    -0.744 OA
ENDBRANCH  76  77
ENDBRANCH  48  71
BRANCH  60  81
ATOM     81  C   UNL     1      -2.694  -2.382  14.050  1.00  0.00    -0.014 A 
ATOM     82  C   UNL     1      -1.946  -2.911  15.117  1.00  0.00     0.010 A 
ATOM     83  C   UNL     1      -4.084  -2.220  14.202  1.00  0.00     0.010 A 
ATOM     84  C   UNL     1      -2.581  -3.300  16.300  1.00  0.00     0.020 A 
ATOM     85  C   UNL     1      -4.718  -2.583  15.393  1.00  0.00     0.020 A 
ATOM     86  C   UNL     1      -3.964  -3.136  16.430  1.00  0.00     0.054 A 
BRANCH  86  87
ATOM     87  S   UNL     1      -4.761  -3.610  17.990  1.00  0.00     0.124 S 
ATOM     88  O   UNL     1      -4.794  -5.066  17.884  1.00  0.00    -0.237 OA
ATOM     89  O   UNL     1      -3.846  -3.074  18.996  1.00  0.00    -0.237 OA
ATOM     90  O   UNL     1      -6.063  -2.950  17.928  1.00  0.00    -0.744 OA
ENDBRANCH  86  87
ENDBRANCH  60  81
ENDBRANCH  34  35
ENDBRANCH  27  29
ENDBRANCH  26  27
ENDBRANCH  25  26
ENDBRANCH   1  25
TORSDOF 18
