REMARK SMILES NS(=O)(=O)c1ccc(-n2nc(C(F)(F)F)cc2-c2ccc(CC(=O)OCCOC(=O)c3ccc(-c4c5nc(c(-c6ccc(S(=O)(=O)[O-])cc6)c6ccc([nH]6)c(-c6ccc(S(=O)(=O)[O-])cc6)c6nc(c(-c7ccc(S(=O)(=O)[O-])cc7)c7ccc4[nH]7)C=C6)C=C5)cc3)cc2)cc1
REMARK SMILES IDX 26 1 25 2 23 3 24 4 22 5 21 6 18 7 19 8 92 9 20 10 91 11
REMARK SMILES IDX 17 12 9 13 10 14 11 15 16 16 8 17 5 18 6 19 94 20 7 21 93 22
REMARK SMILES IDX 2 23 3 24 4 25 1 26 12 29 13 30 14 31 15 32 27 33 28 34
REMARK SMILES IDX 29 35 30 36 31 37 32 38 90 39 33 40 89 41 34 42 35 43 36 44
REMARK SMILES IDX 83 45 37 46 88 47 82 48 84 49 38 50 87 51 81 52 80 53 39 55
REMARK SMILES IDX 69 56 50 57 68 58 51 59 54 60 67 61 85 62 52 63 53 64 66 66
REMARK SMILES IDX 86 67 55 68 40 69 41 70 49 71 42 72 48 73 43 74 44 75 45 76
REMARK SMILES IDX 46 77 47 78 70 79 71 80 79 81 72 82 78 83 73 84 74 85 75 86
REMARK SMILES IDX 76 87 77 88 56 89 57 90 65 91 58 92 64 93 59 94 60 95 61 96
REMARK SMILES IDX 62 97 63 98
REMARK H PARENT 1 27 1 28 84 54 54 65
REMARK Flexibility Score: inf
ROOT
ATOM      1  C   UNL     1       4.007  -3.803  -1.358  1.00  0.00     0.274 C 
ENDROOT
BRANCH   1   2
ATOM      2  O   UNL     1       4.194  -4.568  -0.145  1.00  0.00    -0.462 OA
BRANCH   2   3
ATOM      3  C   UNL     1       5.460  -5.015   0.082  1.00  0.00     0.310 C 
ATOM      4  O   UNL     1       6.384  -4.884  -0.720  1.00  0.00    -0.252 OA
BRANCH   3   5
ATOM      5  C   UNL     1       5.643  -5.795   1.367  1.00  0.00     0.158 C 
BRANCH   5   6
ATOM      6  C   UNL     1       4.795  -5.448   2.568  1.00  0.00    -0.037 A 
ATOM      7  C   UNL     1       3.238  -4.748   4.817  1.00  0.00     0.000 A 
ATOM      8  C   UNL     1       4.365  -4.000   4.487  1.00  0.00     0.010 A 
ATOM      9  C   UNL     1       2.923  -5.879   4.056  1.00  0.00     0.010 A 
ATOM     10  C   UNL     1       5.145  -4.374   3.394  1.00  0.00     0.005 A 
ATOM     11  C   UNL     1       3.681  -6.211   2.925  1.00  0.00     0.005 A 
BRANCH   7  12
ATOM     12  C   UNL     1       2.402  -4.340   5.940  1.00  0.00     0.075 A 
ATOM     13  N   UNL     1       1.673  -3.157   6.010  1.00  0.00    -0.233 N 
ATOM     14  N   UNL     1       1.168  -2.951   7.256  1.00  0.00    -0.163 NA
ATOM     15  C   UNL     1       1.474  -4.063   7.951  1.00  0.00     0.167 A 
ATOM     16  C   UNL     1       2.274  -4.936   7.176  1.00  0.00     0.064 A 
BRANCH  13  17
ATOM     17  C   UNL     1       1.358  -2.254   4.958  1.00  0.00     0.065 A 
ATOM     18  C   UNL     1       0.782  -0.480   2.884  1.00  0.00     0.082 A 
ATOM     19  C   UNL     1       0.791  -1.853   2.633  1.00  0.00     0.024 A 
ATOM     20  C   UNL     1       1.048   0.014   4.166  1.00  0.00     0.024 A 
ATOM     21  C   UNL     1       1.091  -2.738   3.668  1.00  0.00     0.030 A 
ATOM     22  C   UNL     1       1.306  -0.877   5.214  1.00  0.00     0.030 A 
BRANCH  18  23
ATOM     23  S   UNL     1       0.450   0.648   1.566  1.00  0.00     0.238 S 
ATOM     24  O   UNL     1       1.127   1.892   1.805  1.00  0.00    -0.207 OA
ATOM     25  O   UNL     1      -0.962   0.566   1.242  1.00  0.00    -0.207 OA
BRANCH  23  26
ATOM     26  N   UNL     1       1.248  -0.030   0.243  1.00  0.00    -0.225 NA
ATOM     27  H   UNL     1       1.110   0.561  -0.577  1.00  0.00     0.137 HD
ATOM     28  H   UNL     1       0.872  -0.960   0.059  1.00  0.00     0.137 HD
ENDBRANCH  23  26
ENDBRANCH  18  23
ENDBRANCH  13  17
BRANCH  15  29
ATOM     29  C   UNL     1       0.997  -4.321   9.355  1.00  0.00     0.435 C 
ATOM     30  F   UNL     1       1.276  -3.318  10.223  1.00  0.00    -0.164 F 
ATOM     31  F   UNL     1      -0.348  -4.533   9.402  1.00  0.00    -0.164 F 
ATOM     32  F   UNL     1       1.564  -5.449   9.873  1.00  0.00    -0.164 F 
ENDBRANCH  15  29
ENDBRANCH   7  12
ENDBRANCH   5   6
ENDBRANCH   3   5
ENDBRANCH   2   3
ENDBRANCH   1   2
BRANCH   1  33
ATOM     33  C   UNL     1       4.221  -2.302  -1.172  1.00  0.00     0.275 C 
BRANCH  33  34
ATOM     34  O   UNL     1       5.561  -1.993  -0.790  1.00  0.00    -0.458 OA
BRANCH  34  35
ATOM     35  C   UNL     1       5.725  -1.981   0.550  1.00  0.00     0.338 C 
ATOM     36  O   UNL     1       4.925  -2.376   1.381  1.00  0.00    -0.246 OA
BRANCH  35  37
ATOM     37  C   UNL     1       6.893  -1.197   0.936  1.00  0.00     0.060 A 
ATOM     38  C   UNL     1       7.384  -1.372   2.235  1.00  0.00     0.016 A 
ATOM     39  C   UNL     1       7.132  -0.037   0.199  1.00  0.00     0.016 A 
ATOM     40  C   UNL     1       7.902  -0.285   2.896  1.00  0.00     0.010 A 
ATOM     41  C   UNL     1       7.651   1.047   0.858  1.00  0.00     0.010 A 
ATOM     42  C   UNL     1       7.936   0.932   2.220  1.00  0.00    -0.014 A 
BRANCH  42  43
ATOM     43  C   UNL     1       8.429   2.095   2.920  1.00  0.00     0.031 A 
ATOM     44  C   UNL     1       9.902   2.054   3.067  1.00  0.00     0.074 A 
ATOM     45  C   UNL     1       7.623   3.135   3.205  1.00  0.00     0.049 A 
ATOM     46  N   UNL     1      10.581   1.917   4.155  1.00  0.00    -0.248 NA
ATOM     47  C   UNL     1      10.707   1.905   1.837  1.00  0.00     0.031 C 
ATOM     48  C   UNL     1       6.217   3.321   2.834  1.00  0.00     0.029 A 
ATOM     49  N   UNL     1       7.936   4.329   3.765  1.00  0.00    -0.354 N 
ATOM     50  C   UNL     1      11.911   1.930   3.754  1.00  0.00     0.074 A 
ATOM     51  C   UNL     1      11.912   1.650   2.344  1.00  0.00     0.031 C 
ATOM     52  C   UNL     1       5.911   4.637   2.913  1.00  0.00     0.029 A 
ATOM     53  C   UNL     1       7.061   5.358   3.436  1.00  0.00     0.049 A 
ATOM     54  H   UNL     1       8.714   4.456   4.354  1.00  0.00     0.167 HD
ATOM     55  C   UNL     1      12.875   2.503   4.524  1.00  0.00     0.031 A 
ATOM     56  C   UNL     1       7.328   6.694   3.481  1.00  0.00     0.031 A 
ATOM     57  C   UNL     1      12.415   2.720   5.871  1.00  0.00     0.049 A 
ATOM     58  C   UNL     1       8.527   6.861   4.351  1.00  0.00     0.074 A 
ATOM     59  C   UNL     1      11.907   1.897   6.858  1.00  0.00     0.029 A 
ATOM     60  N   UNL     1      12.029   4.000   6.201  1.00  0.00    -0.354 N 
ATOM     61  N   UNL     1       8.521   6.581   5.628  1.00  0.00    -0.248 NA
ATOM     62  C   UNL     1       9.839   6.811   3.715  1.00  0.00     0.031 C 
ATOM     63  C   UNL     1      10.845   2.645   7.442  1.00  0.00     0.029 A 
ATOM     64  C   UNL     1      10.828   3.913   6.857  1.00  0.00     0.049 A 
ATOM     65  H   UNL     1      12.525   4.827   6.003  1.00  0.00     0.167 HD
ATOM     66  C   UNL     1       9.709   5.896   5.850  1.00  0.00     0.074 A 
ATOM     67  C   UNL     1      10.514   6.132   4.649  1.00  0.00     0.031 C 
ATOM     68  C   UNL     1       9.815   4.947   6.829  1.00  0.00     0.031 A 
BRANCH  55  69
ATOM     69  C   UNL     1      14.037   3.266   3.940  1.00  0.00    -0.014 A 
ATOM     70  C   UNL     1      15.019   3.768   4.813  1.00  0.00     0.010 A 
ATOM     71  C   UNL     1      14.058   3.741   2.610  1.00  0.00     0.010 A 
ATOM     72  C   UNL     1      15.932   4.742   4.390  1.00  0.00     0.020 A 
ATOM     73  C   UNL     1      14.991   4.675   2.166  1.00  0.00     0.020 A 
ATOM     74  C   UNL     1      15.904   5.194   3.070  1.00  0.00     0.054 A 
BRANCH  74  75
ATOM     75  S   UNL     1      17.029   6.512   2.559  1.00  0.00     0.124 S 
ATOM     76  O   UNL     1      16.549   7.640   3.350  1.00  0.00    -0.237 OA
ATOM     77  O   UNL     1      18.329   5.971   2.945  1.00  0.00    -0.237 OA
ATOM     78  O   UNL     1      16.805   6.614   1.119  1.00  0.00    -0.744 OA
ENDBRANCH  74  75
ENDBRANCH  55  69
BRANCH  56  79
ATOM     79  C   UNL     1       6.874   7.727   2.500  1.00  0.00    -0.014 A 
ATOM     80  C   UNL     1       7.098   9.104   2.702  1.00  0.00     0.010 A 
ATOM     81  C   UNL     1       6.429   7.337   1.219  1.00  0.00     0.010 A 
ATOM     82  C   UNL     1       6.937  10.035   1.651  1.00  0.00     0.020 A 
ATOM     83  C   UNL     1       6.257   8.252   0.174  1.00  0.00     0.020 A 
ATOM     84  C   UNL     1       6.536   9.597   0.386  1.00  0.00     0.054 A 
BRANCH  84  85
ATOM     85  S   UNL     1       6.501  10.755  -1.018  1.00  0.00     0.124 S 
ATOM     86  O   UNL     1       5.360  11.607  -0.696  1.00  0.00    -0.237 OA
ATOM     87  O   UNL     1       7.811  11.393  -0.938  1.00  0.00    -0.237 OA
ATOM     88  O   UNL     1       6.314   9.883  -2.178  1.00  0.00    -0.744 OA
ENDBRANCH  84  85
ENDBRANCH  56  79
BRANCH  68  89
ATOM     89  C   UNL     1       8.699   4.803   7.841  1.00  0.00    -0.014 A 
ATOM     90  C   UNL     1       7.367   4.474   7.514  1.00  0.00     0.010 A 
ATOM     91  C   UNL     1       9.067   4.817   9.197  1.00  0.00     0.010 A 
ATOM     92  C   UNL     1       6.429   4.195   8.523  1.00  0.00     0.020 A 
ATOM     93  C   UNL     1       8.146   4.522  10.203  1.00  0.00     0.020 A 
ATOM     94  C   UNL     1       6.828   4.223   9.863  1.00  0.00     0.054 A 
BRANCH  94  95
ATOM     95  S   UNL     1       5.628   3.833  11.168  1.00  0.00     0.124 S 
ATOM     96  O   UNL     1       4.704   4.962  11.095  1.00  0.00    -0.237 OA
ATOM     97  O   UNL     1       5.087   2.546  10.737  1.00  0.00    -0.237 OA
ATOM     98  O   UNL     1       6.440   3.778  12.383  1.00  0.00    -0.744 OA
ENDBRANCH  94  95
ENDBRANCH  68  89
ENDBRANCH  42  43
ENDBRANCH  35  37
ENDBRANCH  34  35
ENDBRANCH  33  34
ENDBRANCH   1  33
TORSDOF 20
