REMARK SMILES CC(C)CCc1cc2c(cc1Cl)C=C(C(=O)OCCOC(=O)c1ccc(-c3c4nc(c(-c5ccc(S(=O)(=O)[O-])cc5)c5ccc([nH]5)c(-c5ccc(S(=O)(=O)[O-])cc5)c5nc(c(-c6ccc(S(=O)(=O)[O-])cc6)c6ccc3[nH]6)C=C5)C=C4)cc1)[C@@H](C(F)(F)F)O2
REMARK SMILES IDX 18 1 17 2 15 3 16 4 14 5 6 6 7 7 11 8 8 9 10 10 12 11 9 12
REMARK SMILES IDX 88 13 13 14 83 15 5 16 4 17 2 18 1 19 3 20 84 21 85 22 86 23
REMARK SMILES IDX 87 24 19 25 20 26 21 27 22 28 23 29 24 30 82 31 25 32 81 33
REMARK SMILES IDX 26 34 27 35 28 36 75 37 29 38 80 39 74 40 76 41 30 42 79 43
REMARK SMILES IDX 73 44 72 45 31 47 61 48 42 49 60 50 43 51 46 52 59 53 77 54
REMARK SMILES IDX 44 55 45 56 58 58 78 59 47 60 32 61 33 62 41 63 34 64 40 65
REMARK SMILES IDX 35 66 36 67 37 68 38 69 39 70 62 71 63 72 71 73 64 74 70 75
REMARK SMILES IDX 65 76 66 77 67 78 68 79 69 80 48 81 49 82 57 83 50 84 56 85
REMARK SMILES IDX 51 86 52 87 53 88 54 89 55 90
REMARK H PARENT 76 46 46 57
REMARK Flexibility Score: inf
ROOT
ATOM      1  C   UNL     1       2.895  -9.603   4.042  1.00  0.00     0.275 C 
ENDROOT
BRANCH   1   2
ATOM      2  O   UNL     1       2.431  -8.268   3.747  1.00  0.00    -0.459 OA
BRANCH   2   3
ATOM      3  C   UNL     1       2.103  -8.025   2.457  1.00  0.00     0.338 C 
ATOM      4  O   UNL     1       2.215  -8.802   1.520  1.00  0.00    -0.246 OA
BRANCH   3   5
ATOM      5  C   UNL     1       1.506  -6.681   2.329  1.00  0.00     0.087 C 
ATOM      6  C   UNL     1      -1.130  -2.608   0.997  1.00  0.00    -0.026 A 
ATOM      7  C   UNL     1      -0.163  -2.881   1.982  1.00  0.00     0.052 A 
ATOM      8  C   UNL     1      -1.675  -3.700   0.296  1.00  0.00     0.045 A 
ATOM      9  C   UNL     1       0.377  -4.156   2.133  1.00  0.00     0.128 A 
ATOM     10  C   UNL     1      -1.188  -4.991   0.497  1.00  0.00     0.032 A 
ATOM     11  Cl  UNL     1      -2.950  -3.504  -0.856  1.00  0.00    -0.084 Cl
ATOM     12  C   UNL     1      -0.123  -5.205   1.374  1.00  0.00     0.019 A 
ATOM     13  O   UNL     1       1.392  -4.291   3.039  1.00  0.00    -0.475 OA
ATOM     14  C   UNL     1       0.467  -6.518   1.502  1.00  0.00     0.027 C 
ATOM     15  C   UNL     1       2.162  -5.526   3.029  1.00  0.00     0.316 C 
BRANCH   6  16
ATOM     16  C   UNL     1      -1.551  -1.197   0.640  1.00  0.00     0.037 C 
BRANCH  16  17
ATOM     17  C   UNL     1      -0.909  -0.025   1.397  1.00  0.00     0.008 C 
BRANCH  17  18
ATOM     18  C   UNL     1       0.607   0.187   1.185  1.00  0.00    -0.017 C 
ATOM     19  C   UNL     1       0.960   0.615  -0.237  1.00  0.00     0.007 C 
ATOM     20  C   UNL     1       1.115   1.212   2.200  1.00  0.00     0.007 C 
ENDBRANCH  17  18
ENDBRANCH  16  17
ENDBRANCH   6  16
BRANCH  15  21
ATOM     21  C   UNL     1       3.548  -5.277   2.407  1.00  0.00     0.430 C 
ATOM     22  F   UNL     1       4.163  -4.207   2.965  1.00  0.00    -0.167 F 
ATOM     23  F   UNL     1       4.372  -6.337   2.598  1.00  0.00    -0.167 F 
ATOM     24  F   UNL     1       3.483  -5.056   1.074  1.00  0.00    -0.167 F 
ENDBRANCH  15  21
ENDBRANCH   3   5
ENDBRANCH   2   3
ENDBRANCH   1   2
BRANCH   1  25
ATOM     25  C   UNL     1       1.821 -10.415   4.770  1.00  0.00     0.275 C 
BRANCH  25  26
ATOM     26  O   UNL     1       0.718 -10.712   3.895  1.00  0.00    -0.458 OA
BRANCH  26  27
ATOM     27  C   UNL     1      -0.363  -9.912   4.045  1.00  0.00     0.338 C 
ATOM     28  O   UNL     1      -0.503  -9.000   4.842  1.00  0.00    -0.246 OA
BRANCH  27  29
ATOM     29  C   UNL     1      -1.334 -10.192   2.979  1.00  0.00     0.060 A 
ATOM     30  C   UNL     1      -2.496 -10.918   3.195  1.00  0.00     0.016 A 
ATOM     31  C   UNL     1      -1.135  -9.556   1.763  1.00  0.00     0.016 A 
ATOM     32  C   UNL     1      -3.440 -11.005   2.160  1.00  0.00     0.010 A 
ATOM     33  C   UNL     1      -2.146  -9.491   0.814  1.00  0.00     0.010 A 
ATOM     34  C   UNL     1      -3.300 -10.258   0.969  1.00  0.00    -0.014 A 
BRANCH  34  35
ATOM     35  C   UNL     1      -4.329 -10.287  -0.114  1.00  0.00     0.031 A 
ATOM     36  C   UNL     1      -3.949 -10.603  -1.548  1.00  0.00     0.074 A 
ATOM     37  C   UNL     1      -5.616 -10.001   0.182  1.00  0.00     0.049 A 
ATOM     38  N   UNL     1      -4.724 -10.706  -2.599  1.00  0.00    -0.248 NA
ATOM     39  C   UNL     1      -2.519 -10.788  -1.860  1.00  0.00     0.031 C 
ATOM     40  C   UNL     1      -6.104  -9.581   1.498  1.00  0.00     0.029 A 
ATOM     41  N   UNL     1      -6.754 -10.047  -0.588  1.00  0.00    -0.354 N 
ATOM     42  C   UNL     1      -3.878 -10.948  -3.679  1.00  0.00     0.074 A 
ATOM     43  C   UNL     1      -2.527 -10.882  -3.181  1.00  0.00     0.031 C 
ATOM     44  C   UNL     1      -7.442  -9.511   1.472  1.00  0.00     0.029 A 
ATOM     45  C   UNL     1      -7.912  -9.816   0.124  1.00  0.00     0.049 A 
ATOM     46  H   UNL     1      -6.744 -10.229  -1.555  1.00  0.00     0.167 HD
ATOM     47  C   UNL     1      -4.194 -11.259  -4.958  1.00  0.00     0.031 A 
ATOM     48  C   UNL     1      -9.207  -9.864  -0.251  1.00  0.00     0.031 A 
ATOM     49  C   UNL     1      -5.544 -11.390  -5.433  1.00  0.00     0.049 A 
ATOM     50  C   UNL     1      -9.540 -10.246  -1.666  1.00  0.00     0.074 A 
ATOM     51  C   UNL     1      -5.973 -11.785  -6.688  1.00  0.00     0.029 A 
ATOM     52  N   UNL     1      -6.681 -11.152  -4.676  1.00  0.00    -0.354 N 
ATOM     53  N   UNL     1      -8.724 -10.566  -2.643  1.00  0.00    -0.248 NA
ATOM     54  C   UNL     1     -10.963 -10.292  -2.032  1.00  0.00     0.031 C 
ATOM     55  C   UNL     1      -7.366 -11.716  -6.711  1.00  0.00     0.029 A 
ATOM     56  C   UNL     1      -7.810 -11.364  -5.446  1.00  0.00     0.049 A 
ATOM     57  H   UNL     1      -6.683 -10.874  -3.731  1.00  0.00     0.167 HD
ATOM     58  C   UNL     1      -9.534 -10.866  -3.732  1.00  0.00     0.074 A 
ATOM     59  C   UNL     1     -10.904 -10.716  -3.289  1.00  0.00     0.031 C 
ATOM     60  C   UNL     1      -9.171 -11.225  -4.988  1.00  0.00     0.031 A 
BRANCH  47  61
ATOM     61  C   UNL     1      -3.076 -11.552  -5.932  1.00  0.00    -0.014 A 
ATOM     62  C   UNL     1      -2.916 -10.759  -7.085  1.00  0.00     0.010 A 
ATOM     63  C   UNL     1      -2.272 -12.698  -5.782  1.00  0.00     0.010 A 
ATOM     64  C   UNL     1      -2.010 -11.129  -8.084  1.00  0.00     0.020 A 
ATOM     65  C   UNL     1      -1.338 -13.050  -6.760  1.00  0.00     0.020 A 
ATOM     66  C   UNL     1      -1.235 -12.280  -7.920  1.00  0.00     0.054 A 
BRANCH  66  67
ATOM     67  S   UNL     1      -0.110 -12.779  -9.252  1.00  0.00     0.124 S 
ATOM     68  O   UNL     1      -1.036 -13.255 -10.276  1.00  0.00    -0.237 OA
ATOM     69  O   UNL     1       0.590 -11.534  -9.561  1.00  0.00    -0.237 OA
ATOM     70  O   UNL     1       0.719 -13.811  -8.633  1.00  0.00    -0.744 OA
ENDBRANCH  66  67
ENDBRANCH  47  61
BRANCH  48  71
ATOM     71  C   UNL     1     -10.270  -9.617   0.768  1.00  0.00    -0.014 A 
ATOM     72  C   UNL     1     -10.404  -8.355   1.377  1.00  0.00     0.010 A 
ATOM     73  C   UNL     1     -11.088 -10.673   1.211  1.00  0.00     0.010 A 
ATOM     74  C   UNL     1     -11.280  -8.170   2.450  1.00  0.00     0.020 A 
ATOM     75  C   UNL     1     -11.995 -10.482   2.261  1.00  0.00     0.020 A 
ATOM     76  C   UNL     1     -12.058  -9.241   2.896  1.00  0.00     0.054 A 
BRANCH  76  77
ATOM     77  S   UNL     1     -13.132  -8.994   4.338  1.00  0.00     0.124 S 
ATOM     78  O   UNL     1     -12.162  -8.943   5.429  1.00  0.00    -0.237 OA
ATOM     79  O   UNL     1     -13.797  -7.732   4.028  1.00  0.00    -0.237 OA
ATOM     80  O   UNL     1     -13.998 -10.171   4.327  1.00  0.00    -0.744 OA
ENDBRANCH  76  77
ENDBRANCH  48  71
BRANCH  60  81
ATOM     81  C   UNL     1     -10.253 -11.488  -6.003  1.00  0.00    -0.014 A 
ATOM     82  C   UNL     1     -10.394 -12.778  -6.551  1.00  0.00     0.010 A 
ATOM     83  C   UNL     1     -11.005 -10.429  -6.540  1.00  0.00     0.010 A 
ATOM     84  C   UNL     1     -11.223 -12.993  -7.653  1.00  0.00     0.020 A 
ATOM     85  C   UNL     1     -11.864 -10.648  -7.620  1.00  0.00     0.020 A 
ATOM     86  C   UNL     1     -11.941 -11.921  -8.190  1.00  0.00     0.054 A 
BRANCH  86  87
ATOM     87  S   UNL     1     -12.956 -12.206  -9.666  1.00  0.00     0.124 S 
ATOM     88  O   UNL     1     -11.946 -12.354 -10.710  1.00  0.00    -0.237 OA
ATOM     89  O   UNL     1     -13.688 -13.422  -9.321  1.00  0.00    -0.237 OA
ATOM     90  O   UNL     1     -13.776 -10.999  -9.758  1.00  0.00    -0.744 OA
ENDBRANCH  86  87
ENDBRANCH  60  81
ENDBRANCH  34  35
ENDBRANCH  27  29
ENDBRANCH  26  27
ENDBRANCH  25  26
ENDBRANCH   1  25
TORSDOF 18
