REMARK SMILES CCCCc1ncc(C[N@H+]2C[C@@H]3c4ccccc4OC[C@]3(C(=O)OCCOC(=O)c3ccc(-c4c5nc(c(-c6ccc(S(=O)(=O)[O-])cc6)c6ccc([nH]6)c(-c6ccc(S(=O)(=O)[O-])cc6)c6nc(c(-c7ccc(S(=O)(=O)[O-])cc7)c7ccc4[nH]7)C=C6)C=C5)cc3)C2)[nH]1
REMARK SMILES IDX 25 1 24 2 22 3 23 4 21 5 10 6 11 7 90 8 12 10 13 11 20 12
REMARK SMILES IDX 14 13 18 14 19 15 15 16 17 17 16 18 9 19 8 20 5 21 6 22
REMARK SMILES IDX 91 23 7 24 4 26 3 27 2 28 1 29 26 30 27 31 28 32 29 33 30 34
REMARK SMILES IDX 31 35 89 36 32 37 88 38 33 39 34 40 35 41 82 42 36 43 87 44
REMARK SMILES IDX 81 45 83 46 37 47 86 48 80 49 79 50 38 52 68 53 49 54 67 55
REMARK SMILES IDX 50 56 53 57 66 58 84 59 51 60 52 61 65 63 85 64 54 65 39 66
REMARK SMILES IDX 40 67 48 68 41 69 47 70 42 71 43 72 44 73 45 74 46 75 69 76
REMARK SMILES IDX 70 77 78 78 71 79 77 80 72 81 73 82 74 83 75 84 76 85 55 86
REMARK SMILES IDX 56 87 64 88 57 89 63 90 58 91 59 92 60 93 61 94 62 95
REMARK H PARENT 10 9 91 25 83 51 53 62
REMARK Flexibility Score: inf
ROOT
ATOM      1  C   UNL     1      -1.139  -4.239  -3.597  1.00  0.00     0.274 C 
ENDROOT
BRANCH   1   2
ATOM      2  O   UNL     1      -2.196  -3.259  -3.519  1.00  0.00    -0.461 OA
BRANCH   2   3
ATOM      3  C   UNL     1      -1.977  -1.999  -4.015  1.00  0.00     0.322 C 
ATOM      4  O   UNL     1      -0.880  -1.496  -4.192  1.00  0.00    -0.251 OA
BRANCH   3   5
ATOM      5  C   UNL     1      -3.328  -1.345  -4.282  1.00  0.00     0.162 C 
ATOM      6  N   UNL     1      -4.679   0.012  -2.768  1.00  0.00    -0.328 N 
ATOM      7  C   UNL     1      -4.563   0.693  -4.055  1.00  0.00     0.272 C 
ATOM      8  C   UNL     1      -3.989  -1.271  -2.886  1.00  0.00     0.286 C 
ATOM      9  H   UNL     1      -5.665  -0.157  -2.569  1.00  0.00     0.348 HD
ATOM     10  C   UNL     1      -3.302   0.121  -4.718  1.00  0.00     0.105 C 
ATOM     11  C   UNL     1      -3.391   0.347  -6.195  1.00  0.00     0.004 A 
ATOM     12  C   UNL     1      -4.061  -2.258  -5.290  1.00  0.00     0.255 C 
ATOM     13  C   UNL     1      -3.002   1.572  -6.761  1.00  0.00     0.008 A 
ATOM     14  C   UNL     1      -4.011  -0.600  -7.000  1.00  0.00     0.123 A 
ATOM     15  O   UNL     1      -4.611  -1.705  -6.484  1.00  0.00    -0.492 OA
ATOM     16  C   UNL     1      -3.201   1.819  -8.120  1.00  0.00     0.001 A 
ATOM     17  C   UNL     1      -4.178  -0.371  -8.366  1.00  0.00     0.047 A 
ATOM     18  C   UNL     1      -3.768   0.837  -8.929  1.00  0.00     0.004 A 
BRANCH   6  19
ATOM     19  C   UNL     1      -4.326   0.812  -1.595  1.00  0.00     0.319 C 
BRANCH  19  20
ATOM     20  C   UNL     1      -3.125   1.681  -1.727  1.00  0.00     0.090 A 
ATOM     21  C   UNL     1      -1.008   2.342  -1.865  1.00  0.00     0.106 A 
ATOM     22  N   UNL     1      -1.719   3.448  -1.917  1.00  0.00    -0.241 NA
ATOM     23  N   UNL     1      -1.825   1.242  -1.745  1.00  0.00    -0.341 N 
ATOM     24  C   UNL     1      -3.024   3.052  -1.836  1.00  0.00     0.140 A 
ATOM     25  H   UNL     1      -1.529   0.305  -1.682  1.00  0.00     0.168 HD
BRANCH  21  26
ATOM     26  C   UNL     1       0.479   2.240  -1.911  1.00  0.00     0.075 C 
BRANCH  26  27
ATOM     27  C   UNL     1       1.118   2.451  -0.535  1.00  0.00     0.008 C 
BRANCH  27  28
ATOM     28  C   UNL     1       0.746   1.410   0.527  1.00  0.00    -0.003 C 
ATOM     29  C   UNL     1       1.175  -0.004   0.171  1.00  0.00     0.004 C 
ENDBRANCH  27  28
ENDBRANCH  26  27
ENDBRANCH  21  26
ENDBRANCH  19  20
ENDBRANCH   6  19
ENDBRANCH   3   5
ENDBRANCH   2   3
ENDBRANCH   1   2
BRANCH   1  30
ATOM     30  C   UNL     1      -1.403  -5.100  -4.832  1.00  0.00     0.275 C 
BRANCH  30  31
ATOM     31  O   UNL     1      -1.029  -4.307  -5.966  1.00  0.00    -0.458 OA
BRANCH  31  32
ATOM     32  C   UNL     1      -1.673  -4.538  -7.130  1.00  0.00     0.338 C 
ATOM     33  O   UNL     1      -2.478  -5.428  -7.360  1.00  0.00    -0.246 OA
BRANCH  32  34
ATOM     34  C   UNL     1      -1.188  -3.536  -8.100  1.00  0.00     0.060 A 
ATOM     35  C   UNL     1      -0.950  -3.920  -9.417  1.00  0.00     0.016 A 
ATOM     36  C   UNL     1      -0.920  -2.223  -7.691  1.00  0.00     0.016 A 
ATOM     37  C   UNL     1      -0.333  -3.019 -10.286  1.00  0.00     0.010 A 
ATOM     38  C   UNL     1      -0.379  -1.302  -8.581  1.00  0.00     0.010 A 
ATOM     39  C   UNL     1      -0.016  -1.712  -9.866  1.00  0.00    -0.014 A 
BRANCH  39  40
ATOM     40  C   UNL     1       0.758  -0.806 -10.750  1.00  0.00     0.031 A 
ATOM     41  C   UNL     1       2.160  -0.397 -10.373  1.00  0.00     0.074 A 
ATOM     42  C   UNL     1       0.214  -0.393 -11.910  1.00  0.00     0.049 A 
ATOM     43  N   UNL     1       3.034   0.278 -11.075  1.00  0.00    -0.248 NA
ATOM     44  C   UNL     1       2.644  -0.779  -9.034  1.00  0.00     0.031 C 
ATOM     45  C   UNL     1      -1.149  -0.696 -12.348  1.00  0.00     0.029 A 
ATOM     46  N   UNL     1       0.746   0.334 -12.945  1.00  0.00    -0.354 N 
ATOM     47  C   UNL     1       4.162   0.395 -10.269  1.00  0.00     0.074 A 
ATOM     48  C   UNL     1       3.844  -0.217  -9.002  1.00  0.00     0.031 C 
ATOM     49  C   UNL     1      -1.322  -0.225 -13.592  1.00  0.00     0.029 A 
ATOM     50  C   UNL     1      -0.098   0.445 -14.026  1.00  0.00     0.049 A 
ATOM     51  H   UNL     1       1.644   0.736 -12.917  1.00  0.00     0.167 HD
ATOM     52  C   UNL     1       5.366   0.933 -10.574  1.00  0.00     0.031 A 
ATOM     53  C   UNL     1       0.099   0.998 -15.240  1.00  0.00     0.031 A 
ATOM     54  C   UNL     1       5.674   1.517 -11.851  1.00  0.00     0.049 A 
ATOM     55  C   UNL     1       1.447   1.582 -15.563  1.00  0.00     0.074 A 
ATOM     56  C   UNL     1       6.875   2.053 -12.279  1.00  0.00     0.029 A 
ATOM     57  N   UNL     1       4.781   1.633 -12.906  1.00  0.00    -0.354 N 
ATOM     58  N   UNL     1       2.522   1.623 -14.812  1.00  0.00    -0.248 NA
ATOM     59  C   UNL     1       1.619   2.179 -16.894  1.00  0.00     0.031 C 
ATOM     60  C   UNL     1       6.692   2.546 -13.571  1.00  0.00     0.029 A 
ATOM     61  C   UNL     1       5.398   2.252 -13.977  1.00  0.00     0.049 A 
ATOM     62  H   UNL     1       3.847   1.321 -12.894  1.00  0.00     0.167 HD
ATOM     63  C   UNL     1       3.503   2.236 -15.583  1.00  0.00     0.074 A 
ATOM     64  C   UNL     1       2.899   2.534 -16.866  1.00  0.00     0.031 C 
ATOM     65  C   UNL     1       4.784   2.529 -15.253  1.00  0.00     0.031 A 
BRANCH  52  66
ATOM     66  C   UNL     1       6.458   0.889  -9.534  1.00  0.00    -0.014 A 
ATOM     67  C   UNL     1       6.971   2.084  -8.996  1.00  0.00     0.010 A 
ATOM     68  C   UNL     1       7.060  -0.331  -9.175  1.00  0.00     0.010 A 
ATOM     69  C   UNL     1       8.078   2.064  -8.143  1.00  0.00     0.020 A 
ATOM     70  C   UNL     1       8.148  -0.359  -8.297  1.00  0.00     0.020 A 
ATOM     71  C   UNL     1       8.665   0.842  -7.805  1.00  0.00     0.054 A 
BRANCH  71  72
ATOM     72  S   UNL     1      10.115   0.833  -6.714  1.00  0.00     0.124 S 
ATOM     73  O   UNL     1      11.175   1.295  -7.603  1.00  0.00    -0.237 OA
ATOM     74  O   UNL     1       9.725   1.764  -5.657  1.00  0.00    -0.237 OA
ATOM     75  O   UNL     1      10.216  -0.563  -6.291  1.00  0.00    -0.744 OA
ENDBRANCH  71  72
ENDBRANCH  52  66
BRANCH  53  76
ATOM     76  C   UNL     1      -1.000   0.943 -16.245  1.00  0.00    -0.014 A 
ATOM     77  C   UNL     1      -2.194   1.659 -16.035  1.00  0.00     0.010 A 
ATOM     78  C   UNL     1      -0.905   0.089 -17.358  1.00  0.00     0.010 A 
ATOM     79  C   UNL     1      -3.292   1.475 -16.880  1.00  0.00     0.020 A 
ATOM     80  C   UNL     1      -1.992  -0.074 -18.224  1.00  0.00     0.020 A 
ATOM     81  C   UNL     1      -3.189   0.595 -17.959  1.00  0.00     0.054 A 
BRANCH  81  82
ATOM     82  S   UNL     1      -4.650   0.318 -18.999  1.00  0.00     0.124 S 
ATOM     83  O   UNL     1      -5.471  -0.532 -18.140  1.00  0.00    -0.237 OA
ATOM     84  O   UNL     1      -5.154   1.672 -19.210  1.00  0.00    -0.237 OA
ATOM     85  O   UNL     1      -4.106  -0.334 -20.188  1.00  0.00    -0.744 OA
ENDBRANCH  81  82
ENDBRANCH  53  76
BRANCH  65  86
ATOM     86  C   UNL     1       5.653   3.212 -16.275  1.00  0.00    -0.014 A 
ATOM     87  C   UNL     1       6.760   2.528 -16.813  1.00  0.00     0.010 A 
ATOM     88  C   UNL     1       5.494   4.582 -16.544  1.00  0.00     0.010 A 
ATOM     89  C   UNL     1       7.726   3.216 -17.550  1.00  0.00     0.020 A 
ATOM     90  C   UNL     1       6.445   5.268 -17.305  1.00  0.00     0.020 A 
ATOM     91  C   UNL     1       7.572   4.587 -17.773  1.00  0.00     0.054 A 
BRANCH  91  92
ATOM     92  S   UNL     1       8.884   5.481 -18.649  1.00  0.00     0.124 S 
ATOM     93  O   UNL     1       9.931   5.563 -17.635  1.00  0.00    -0.237 OA
ATOM     94  O   UNL     1       9.171   4.601 -19.780  1.00  0.00    -0.237 OA
ATOM     95  O   UNL     1       8.256   6.752 -19.002  1.00  0.00    -0.744 OA
ENDBRANCH  91  92
ENDBRANCH  65  86
ENDBRANCH  39  40
ENDBRANCH  32  34
ENDBRANCH  31  32
ENDBRANCH  30  31
ENDBRANCH   1  30
TORSDOF 19
