REMARK SMILES C[N@@H+]1CC[N@H+](Cc2ccc(C#CC(C)(C)O)s2)C[C@H]1C(=O)OCCOC(=O)c1ccc(-c2c3nc(c(-c4ccc(S(=O)(=O)[O-])cc4)c4ccc([nH]4)c(-c4ccc(S(=O)(=O)[O-])cc4)c4nc(c(-c5ccc(S(=O)(=O)[O-])cc5)c5ccc2[nH]5)C=C4)C=C3)cc1
REMARK SMILES IDX 23 1 22 2 20 3 21 4 19 5 1 6 2 7 3 8 4 10 18 11 5 12 6 14
REMARK SMILES IDX 7 15 8 16 17 17 9 18 10 19 11 20 12 21 13 22 14 23 15 24
REMARK SMILES IDX 16 25 24 27 25 28 26 29 27 30 28 31 29 32 87 33 30 34 86 35
REMARK SMILES IDX 31 36 32 37 33 38 80 39 34 40 85 41 79 42 81 43 35 44 84 45
REMARK SMILES IDX 78 46 77 47 36 49 66 50 47 51 65 52 48 53 51 54 64 55 82 56
REMARK SMILES IDX 49 57 50 58 63 60 83 61 52 62 37 63 38 64 46 65 39 66 45 67
REMARK SMILES IDX 40 68 41 69 42 70 43 71 44 72 67 73 68 74 76 75 69 76 75 77
REMARK SMILES IDX 70 78 71 79 72 80 73 81 74 82 53 83 54 84 62 85 55 86 61 87
REMARK SMILES IDX 56 88 57 89 58 90 59 91 60 92
REMARK H PARENT 2 9 5 13 16 26 81 48 51 59
REMARK Flexibility Score: inf
ROOT
ATOM      1  C   UNL     1       1.213  -3.825  -2.512  1.00  0.00     0.274 C 
ENDROOT
BRANCH   1   2
ATOM      2  O   UNL     1       0.948  -2.475  -2.070  1.00  0.00    -0.457 OA
BRANCH   2   3
ATOM      3  C   UNL     1       0.565  -2.354  -0.771  1.00  0.00     0.371 C 
ATOM      4  O   UNL     1       0.456  -3.317  -0.009  1.00  0.00    -0.245 OA
BRANCH   3   5
ATOM      5  C   UNL     1       0.157  -0.951  -0.322  1.00  0.00     0.350 C 
ATOM      6  C   UNL     1       2.114   0.357  -1.023  1.00  0.00     0.333 C 
ATOM      7  N   UNL     1       0.653   0.218  -1.117  1.00  0.00    -0.316 N 
ATOM      8  C   UNL     1       0.052   1.452  -0.564  1.00  0.00     0.325 C 
ATOM      9  H   UNL     1       0.396   0.069  -2.093  1.00  0.00     0.348 HD
ATOM     10  C   UNL     1      -1.487   1.417  -0.473  1.00  0.00     0.324 C 
ATOM     11  C   UNL     1      -1.397  -0.994  -0.281  1.00  0.00     0.341 C 
ATOM     12  N   UNL     1      -2.078   0.234   0.161  1.00  0.00    -0.320 N 
ATOM     13  H   UNL     1      -3.037   0.184  -0.184  1.00  0.00     0.348 HD
BRANCH  12  14
ATOM     14  C   UNL     1      -2.320   0.328   1.606  1.00  0.00     0.310 C 
BRANCH  14  15
ATOM     15  C   UNL     1      -1.117   0.277   2.500  1.00  0.00     0.060 A 
ATOM     16  C   UNL     1      -0.289   1.308   2.904  1.00  0.00     0.022 A 
ATOM     17  S   UNL     1      -0.649  -1.206   3.235  1.00  0.00    -0.126 S 
ATOM     18  C   UNL     1       0.828   0.842   3.658  1.00  0.00     0.029 A 
ATOM     19  C   UNL     1       0.777  -0.517   3.869  1.00  0.00     0.077 A 
BRANCH  19  20
ATOM     20  C   UNL     1       1.729  -1.265   4.614  1.00  0.00    -0.053 C 
ATOM     21  C   UNL     1       2.456  -1.930   5.468  1.00  0.00    -0.063 C 
BRANCH  21  22
ATOM     22  C   UNL     1       3.304  -2.705   6.463  1.00  0.00     0.120 C 
ATOM     23  C   UNL     1       3.341  -4.186   6.112  1.00  0.00     0.056 C 
ATOM     24  C   UNL     1       4.689  -2.078   6.497  1.00  0.00     0.056 C 
BRANCH  22  25
ATOM     25  O   UNL     1       2.698  -2.562   7.748  1.00  0.00    -0.378 OA
ATOM     26  H   UNL     1       1.813  -2.960   7.735  1.00  0.00     0.212 HD
ENDBRANCH  22  25
ENDBRANCH  21  22
ENDBRANCH  19  20
ENDBRANCH  14  15
ENDBRANCH  12  14
ENDBRANCH   3   5
ENDBRANCH   2   3
ENDBRANCH   1   2
BRANCH   1  27
ATOM     27  C   UNL     1       2.661  -4.286  -2.315  1.00  0.00     0.275 C 
BRANCH  27  28
ATOM     28  O   UNL     1       3.023  -4.418  -0.934  1.00  0.00    -0.458 OA
BRANCH  28  29
ATOM     29  C   UNL     1       3.477  -3.256  -0.419  1.00  0.00     0.338 C 
ATOM     30  O   UNL     1       3.535  -2.185  -0.999  1.00  0.00    -0.246 OA
BRANCH  29  31
ATOM     31  C   UNL     1       4.076  -3.392   0.906  1.00  0.00     0.060 A 
ATOM     32  C   UNL     1       4.078  -2.231   1.693  1.00  0.00     0.016 A 
ATOM     33  C   UNL     1       5.016  -4.408   1.077  1.00  0.00     0.016 A 
ATOM     34  C   UNL     1       5.169  -1.977   2.497  1.00  0.00     0.010 A 
ATOM     35  C   UNL     1       6.109  -4.149   1.879  1.00  0.00     0.010 A 
ATOM     36  C   UNL     1       6.217  -2.898   2.503  1.00  0.00    -0.014 A 
BRANCH  36  37
ATOM     37  C   UNL     1       7.491  -2.464   3.055  1.00  0.00     0.031 A 
ATOM     38  C   UNL     1       7.728  -2.692   4.499  1.00  0.00     0.074 A 
ATOM     39  C   UNL     1       8.496  -2.079   2.246  1.00  0.00     0.049 A 
ATOM     40  N   UNL     1       8.103  -1.847   5.404  1.00  0.00    -0.248 NA
ATOM     41  C   UNL     1       7.437  -4.038   5.009  1.00  0.00     0.031 C 
ATOM     42  C   UNL     1       8.570  -2.220   0.788  1.00  0.00     0.029 A 
ATOM     43  N   UNL     1       9.753  -1.691   2.591  1.00  0.00    -0.354 N 
ATOM     44  C   UNL     1       8.187  -2.567   6.595  1.00  0.00     0.074 A 
ATOM     45  C   UNL     1       7.653  -3.877   6.311  1.00  0.00     0.031 C 
ATOM     46  C   UNL     1       9.872  -2.230   0.430  1.00  0.00     0.029 A 
ATOM     47  C   UNL     1      10.687  -1.987   1.612  1.00  0.00     0.049 A 
ATOM     48  H   UNL     1       9.974  -1.249   3.443  1.00  0.00     0.167 HD
ATOM     49  C   UNL     1       8.781  -2.097   7.728  1.00  0.00     0.031 A 
ATOM     50  C   UNL     1      12.006  -2.215   1.826  1.00  0.00     0.031 A 
ATOM     51  C   UNL     1       9.088  -0.695   7.654  1.00  0.00     0.049 A 
ATOM     52  C   UNL     1      12.358  -1.657   3.161  1.00  0.00     0.074 A 
ATOM     53  C   UNL     1       8.343   0.463   7.531  1.00  0.00     0.029 A 
ATOM     54  N   UNL     1      10.385  -0.330   7.377  1.00  0.00    -0.354 N 
ATOM     55  N   UNL     1      12.318  -0.388   3.461  1.00  0.00    -0.248 NA
ATOM     56  C   UNL     1      12.352  -2.561   4.304  1.00  0.00     0.031 C 
ATOM     57  C   UNL     1       9.135   1.330   6.721  1.00  0.00     0.029 A 
ATOM     58  C   UNL     1      10.310   0.643   6.411  1.00  0.00     0.049 A 
ATOM     59  H   UNL     1      11.203  -0.693   7.788  1.00  0.00     0.167 HD
ATOM     60  C   UNL     1      11.895  -0.335   4.783  1.00  0.00     0.074 A 
ATOM     61  C   UNL     1      12.024  -1.704   5.275  1.00  0.00     0.031 C 
ATOM     62  C   UNL     1      11.215   0.741   5.285  1.00  0.00     0.031 A 
BRANCH  49  63
ATOM     63  C   UNL     1       9.312  -2.981   8.827  1.00  0.00    -0.014 A 
ATOM     64  C   UNL     1       9.768  -2.402  10.027  1.00  0.00     0.010 A 
ATOM     65  C   UNL     1       9.579  -4.353   8.641  1.00  0.00     0.010 A 
ATOM     66  C   UNL     1      10.500  -3.148  10.964  1.00  0.00     0.020 A 
ATOM     67  C   UNL     1      10.251  -5.120   9.592  1.00  0.00     0.020 A 
ATOM     68  C   UNL     1      10.748  -4.501  10.729  1.00  0.00     0.054 A 
BRANCH  68  69
ATOM     69  S   UNL     1      11.803  -5.433  11.865  1.00  0.00     0.124 S 
ATOM     70  O   UNL     1      13.119  -4.876  11.570  1.00  0.00    -0.237 OA
ATOM     71  O   UNL     1      11.244  -5.088  13.169  1.00  0.00    -0.237 OA
ATOM     72  O   UNL     1      11.602  -6.821  11.454  1.00  0.00    -0.744 OA
ENDBRANCH  68  69
ENDBRANCH  49  63
BRANCH  50  73
ATOM     73  C   UNL     1      12.796  -3.278   1.150  1.00  0.00    -0.014 A 
ATOM     74  C   UNL     1      14.199  -3.293   1.201  1.00  0.00     0.010 A 
ATOM     75  C   UNL     1      12.150  -4.420   0.624  1.00  0.00     0.010 A 
ATOM     76  C   UNL     1      14.924  -4.411   0.750  1.00  0.00     0.020 A 
ATOM     77  C   UNL     1      12.862  -5.527   0.157  1.00  0.00     0.020 A 
ATOM     78  C   UNL     1      14.249  -5.523   0.235  1.00  0.00     0.054 A 
BRANCH  78  79
ATOM     79  S   UNL     1      15.182  -7.002  -0.248  1.00  0.00     0.124 S 
ATOM     80  O   UNL     1      15.910  -6.539  -1.426  1.00  0.00    -0.237 OA
ATOM     81  O   UNL     1      15.994  -7.263   0.937  1.00  0.00    -0.237 OA
ATOM     82  O   UNL     1      14.142  -7.995  -0.514  1.00  0.00    -0.744 OA
ENDBRANCH  78  79
ENDBRANCH  50  73
BRANCH  62  83
ATOM     83  C   UNL     1      11.125   2.003   4.458  1.00  0.00    -0.014 A 
ATOM     84  C   UNL     1      10.538   2.030   3.178  1.00  0.00     0.010 A 
ATOM     85  C   UNL     1      11.474   3.226   5.058  1.00  0.00     0.010 A 
ATOM     86  C   UNL     1      10.326   3.242   2.508  1.00  0.00     0.020 A 
ATOM     87  C   UNL     1      11.253   4.442   4.400  1.00  0.00     0.020 A 
ATOM     88  C   UNL     1      10.683   4.443   3.125  1.00  0.00     0.054 A 
BRANCH  88  89
ATOM     89  S   UNL     1      10.332   6.010   2.279  1.00  0.00     0.124 S 
ATOM     90  O   UNL     1      11.295   6.000   1.181  1.00  0.00    -0.237 OA
ATOM     91  O   UNL     1       8.931   5.862   1.889  1.00  0.00    -0.237 OA
ATOM     92  O   UNL     1      10.575   7.023   3.305  1.00  0.00    -0.744 OA
ENDBRANCH  88  89
ENDBRANCH  62  83
ENDBRANCH  36  37
ENDBRANCH  29  31
ENDBRANCH  28  29
ENDBRANCH  27  28
ENDBRANCH   1  27
TORSDOF 19
