REMARK SMILES O=C(CCN1C(=O)/C(=C2\C(=O)N(Cc3ccc(Cl)cc3)c3ccccc32)SC1=S)OCCOC(=O)c1ccc(-c2c3nc(c(-c4ccc(S(=O)(=O)[O-])cc4)c4ccc([nH]4)c(-c4ccc(S(=O)(=O)[O-])cc4)c4nc(c(-c5ccc(S(=O)(=O)[O-])cc5)c5ccc2[nH]5)C=C4)C=C3)cc1
REMARK SMILES IDX 31 1 30 2 2 3 1 4 3 5 4 6 5 7 6 8 28 9 7 10 8 11 27 12 29 13
REMARK SMILES IDX 9 14 10 15 26 16 11 17 12 18 21 19 25 20 22 21 24 22 23 23
REMARK SMILES IDX 13 24 14 25 15 26 20 27 16 28 19 29 17 30 18 31 32 32 33 33
REMARK SMILES IDX 34 34 35 35 36 36 37 37 95 38 38 39 94 40 39 41 40 42 41 43
REMARK SMILES IDX 88 44 42 45 93 46 87 47 89 48 43 49 92 50 86 51 85 52 44 54
REMARK SMILES IDX 74 55 55 56 73 57 56 58 59 59 72 60 90 61 57 62 58 63 71 65
REMARK SMILES IDX 91 66 60 67 45 68 46 69 54 70 47 71 53 72 48 73 49 74 50 75
REMARK SMILES IDX 51 76 52 77 75 78 76 79 84 80 77 81 83 82 78 83 79 84 80 85
REMARK SMILES IDX 81 86 82 87 61 88 62 89 70 90 63 91 69 92 64 93 65 94 66 95
REMARK SMILES IDX 67 96 68 97
REMARK H PARENT 89 53 59 64
REMARK Flexibility Score: inf
ROOT
ATOM      1  C   UNL     1       4.014   0.296   1.304  1.00  0.00     0.274 C 
ENDROOT
BRANCH   1   2
ATOM      2  O   UNL     1       2.695   0.548   0.773  1.00  0.00    -0.462 OA
BRANCH   2   3
ATOM      3  C   UNL     1       2.272   0.298  -0.487  1.00  0.00     0.307 C 
ATOM      4  O   UNL     1       1.174   0.698  -0.868  1.00  0.00    -0.252 OA
BRANCH   3   5
ATOM      5  C   UNL     1       3.131  -0.534  -1.402  1.00  0.00     0.144 C 
BRANCH   5   6
ATOM      6  C   UNL     1       3.805   0.271  -2.497  1.00  0.00     0.139 C 
BRANCH   6   7
ATOM      7  N   UNL     1       5.007   0.964  -2.034  1.00  0.00    -0.292 N 
ATOM      8  C   UNL     1       4.898   2.294  -1.652  1.00  0.00     0.267 C 
ATOM      9  C   UNL     1       6.242   0.374  -1.885  1.00  0.00     0.148 C 
ATOM     10  O   UNL     1       3.840   2.861  -1.446  1.00  0.00    -0.268 OA
ATOM     11  C   UNL     1       6.253   2.879  -1.449  1.00  0.00     0.093 C 
ATOM     12  S   UNL     1       7.368   1.560  -1.268  1.00  0.00    -0.053 SA
ATOM     13  S   UNL     1       6.685  -1.208  -2.160  1.00  0.00    -0.052 S 
ATOM     14  C   UNL     1       6.591   4.168  -1.622  1.00  0.00     0.069 C 
ATOM     15  C   UNL     1       5.647   5.274  -2.033  1.00  0.00     0.260 C 
ATOM     16  C   UNL     1       7.954   4.689  -1.841  1.00  0.00     0.012 A 
ATOM     17  O   UNL     1       4.458   5.376  -1.809  1.00  0.00    -0.269 OA
ATOM     18  N   UNL     1       6.449   6.196  -2.703  1.00  0.00    -0.303 N 
ATOM     19  C   UNL     1       7.804   5.831  -2.633  1.00  0.00     0.052 A 
ATOM     20  C   UNL     1       9.220   4.261  -1.470  1.00  0.00     0.011 A 
ATOM     21  C   UNL     1       8.896   6.453  -3.212  1.00  0.00     0.027 A 
ATOM     22  C   UNL     1      10.332   4.917  -2.000  1.00  0.00     0.001 A 
ATOM     23  C   UNL     1      10.170   5.984  -2.892  1.00  0.00     0.002 A 
BRANCH  18  24
ATOM     24  C   UNL     1       5.938   7.435  -3.249  1.00  0.00     0.161 C 
BRANCH  24  25
ATOM     25  C   UNL     1       6.079   8.606  -2.293  1.00  0.00    -0.028 A 
ATOM     26  C   UNL     1       7.291   9.304  -2.180  1.00  0.00     0.007 A 
ATOM     27  C   UNL     1       5.004   9.001  -1.482  1.00  0.00     0.007 A 
ATOM     28  C   UNL     1       7.439  10.351  -1.269  1.00  0.00     0.021 A 
ATOM     29  C   UNL     1       5.143  10.067  -0.585  1.00  0.00     0.021 A 
ATOM     30  C   UNL     1       6.363  10.730  -0.476  1.00  0.00     0.041 A 
ATOM     31  Cl  UNL     1       6.546  12.026   0.641  1.00  0.00    -0.084 Cl
ENDBRANCH  24  25
ENDBRANCH  18  24
ENDBRANCH   6   7
ENDBRANCH   5   6
ENDBRANCH   3   5
ENDBRANCH   2   3
ENDBRANCH   1   2
BRANCH   1  32
ATOM     32  C   UNL     1       4.037  -0.930   2.217  1.00  0.00     0.275 C 
BRANCH  32  33
ATOM     33  O   UNL     1       3.873  -2.121   1.431  1.00  0.00    -0.458 OA
BRANCH  33  34
ATOM     34  C   UNL     1       2.609  -2.608   1.355  1.00  0.00     0.338 C 
ATOM     35  O   UNL     1       1.648  -2.242   2.008  1.00  0.00    -0.246 OA
BRANCH  34  36
ATOM     36  C   UNL     1       2.524  -3.503   0.177  1.00  0.00     0.060 A 
ATOM     37  C   UNL     1       3.600  -4.307  -0.217  1.00  0.00     0.016 A 
ATOM     38  C   UNL     1       1.358  -3.460  -0.598  1.00  0.00     0.016 A 
ATOM     39  C   UNL     1       3.505  -5.068  -1.385  1.00  0.00     0.010 A 
ATOM     40  C   UNL     1       1.268  -4.215  -1.770  1.00  0.00     0.010 A 
ATOM     41  C   UNL     1       2.337  -5.032  -2.164  1.00  0.00    -0.014 A 
BRANCH  41  42
ATOM     42  C   UNL     1       2.170  -5.978  -3.292  1.00  0.00     0.031 A 
ATOM     43  C   UNL     1       2.417  -5.574  -4.714  1.00  0.00     0.074 A 
ATOM     44  C   UNL     1       1.770  -7.230  -3.000  1.00  0.00     0.049 A 
ATOM     45  N   UNL     1       2.344  -6.313  -5.792  1.00  0.00    -0.248 NA
ATOM     46  C   UNL     1       2.796  -4.176  -4.967  1.00  0.00     0.031 C 
ATOM     47  C   UNL     1       1.494  -7.724  -1.649  1.00  0.00     0.029 A 
ATOM     48  N   UNL     1       1.521  -8.309  -3.809  1.00  0.00    -0.354 N 
ATOM     49  C   UNL     1       2.692  -5.484  -6.849  1.00  0.00     0.074 A 
ATOM     50  C   UNL     1       2.941  -4.171  -6.289  1.00  0.00     0.031 C 
ATOM     51  C   UNL     1       1.110  -9.006  -1.723  1.00  0.00     0.029 A 
ATOM     52  C   UNL     1       1.087  -9.418  -3.124  1.00  0.00     0.049 A 
ATOM     53  H   UNL     1       1.641  -8.291  -4.786  1.00  0.00     0.167 HD
ATOM     54  C   UNL     1       2.806  -5.803  -8.160  1.00  0.00     0.031 A 
ATOM     55  C   UNL     1       0.699 -10.631  -3.566  1.00  0.00     0.031 A 
ATOM     56  C   UNL     1       2.538  -7.111  -8.704  1.00  0.00     0.049 A 
ATOM     57  C   UNL     1       0.773 -10.936  -5.034  1.00  0.00     0.074 A 
ATOM     58  C   UNL     1       2.681  -7.533 -10.016  1.00  0.00     0.029 A 
ATOM     59  N   UNL     1       2.064  -8.198  -7.986  1.00  0.00    -0.354 N 
ATOM     60  N   UNL     1       1.187 -10.163  -6.009  1.00  0.00    -0.248 NA
ATOM     61  C   UNL     1       0.343 -12.274  -5.465  1.00  0.00     0.031 C 
ATOM     62  C   UNL     1       2.224  -8.848 -10.105  1.00  0.00     0.029 A 
ATOM     63  C   UNL     1       1.866  -9.274  -8.837  1.00  0.00     0.049 A 
ATOM     64  H   UNL     1       1.894  -8.205  -7.017  1.00  0.00     0.167 HD
ATOM     65  C   UNL     1       1.076 -10.923  -7.167  1.00  0.00     0.074 A 
ATOM     66  C   UNL     1       0.578 -12.223  -6.771  1.00  0.00     0.031 C 
ATOM     67  C   UNL     1       1.361 -10.566  -8.442  1.00  0.00     0.031 A 
BRANCH  54  68
ATOM     68  C   UNL     1       3.271  -4.750  -9.133  1.00  0.00    -0.014 A 
ATOM     69  C   UNL     1       2.390  -4.273 -10.122  1.00  0.00     0.010 A 
ATOM     70  C   UNL     1       4.632  -4.405  -9.202  1.00  0.00     0.010 A 
ATOM     71  C   UNL     1       2.872  -3.517 -11.195  1.00  0.00     0.020 A 
ATOM     72  C   UNL     1       5.113  -3.632 -10.263  1.00  0.00     0.020 A 
ATOM     73  C   UNL     1       4.235  -3.219 -11.269  1.00  0.00     0.054 A 
BRANCH  73  74
ATOM     74  S   UNL     1       4.858  -2.318 -12.715  1.00  0.00     0.124 S 
ATOM     75  O   UNL     1       4.792  -3.331 -13.763  1.00  0.00    -0.237 OA
ATOM     76  O   UNL     1       3.905  -1.217 -12.838  1.00  0.00    -0.237 OA
ATOM     77  O   UNL     1       6.206  -1.919 -12.315  1.00  0.00    -0.744 OA
ENDBRANCH  73  74
ENDBRANCH  54  68
BRANCH  55  78
ATOM     78  C   UNL     1       0.215 -11.633  -2.580  1.00  0.00    -0.014 A 
ATOM     79  C   UNL     1      -0.999 -11.420  -1.899  1.00  0.00     0.010 A 
ATOM     80  C   UNL     1       0.996 -12.755  -2.254  1.00  0.00     0.010 A 
ATOM     81  C   UNL     1      -1.399 -12.280  -0.875  1.00  0.00     0.020 A 
ATOM     82  C   UNL     1       0.583 -13.635  -1.249  1.00  0.00     0.020 A 
ATOM     83  C   UNL     1      -0.598 -13.376  -0.548  1.00  0.00     0.054 A 
BRANCH  83  84
ATOM     84  S   UNL     1      -1.117 -14.461   0.810  1.00  0.00     0.124 S 
ATOM     85  O   UNL     1      -0.722 -13.682   1.981  1.00  0.00    -0.237 OA
ATOM     86  O   UNL     1      -2.555 -14.584   0.592  1.00  0.00    -0.237 OA
ATOM     87  O   UNL     1      -0.348 -15.682   0.582  1.00  0.00    -0.744 OA
ENDBRANCH  83  84
ENDBRANCH  55  78
BRANCH  67  88
ATOM     88  C   UNL     1       1.129 -11.574  -9.537  1.00  0.00    -0.014 A 
ATOM     89  C   UNL     1       2.224 -12.104 -10.246  1.00  0.00     0.010 A 
ATOM     90  C   UNL     1      -0.175 -11.876  -9.965  1.00  0.00     0.010 A 
ATOM     91  C   UNL     1       2.019 -12.875 -11.393  1.00  0.00     0.020 A 
ATOM     92  C   UNL     1      -0.384 -12.671 -11.096  1.00  0.00     0.020 A 
ATOM     93  C   UNL     1       0.715 -13.140 -11.820  1.00  0.00     0.054 A 
BRANCH  93  94
ATOM     94  S   UNL     1       0.470 -14.090 -13.346  1.00  0.00     0.124 S 
ATOM     95  O   UNL     1       0.801 -13.110 -14.375  1.00  0.00    -0.237 OA
ATOM     96  O   UNL     1       1.419 -15.190 -13.195  1.00  0.00    -0.237 OA
ATOM     97  O   UNL     1      -0.937 -14.480 -13.285  1.00  0.00    -0.744 OA
ENDBRANCH  93  94
ENDBRANCH  67  88
ENDBRANCH  41  42
ENDBRANCH  34  36
ENDBRANCH  33  34
ENDBRANCH  32  33
ENDBRANCH   1  32
TORSDOF 18
