REMARK SMILES Cc1nn(C)c2nc(C3CC3)c(Cl)c(C(=O)OCCOC(=O)c3ccc(-c4c5nc(c(-c6ccc(S(=O)(=O)[O-])cc6)c6ccc([nH]6)c(-c6ccc(S(=O)(=O)[O-])cc6)c6nc(c(-c7ccc(S(=O)(=O)[O-])cc7)c7ccc4[nH]7)C=C6)C=C5)cc3)c12
REMARK SMILES IDX 19 1 18 2 17 3 15 4 16 5 14 6 1 7 2 8 3 9 83 10 4 11 6 12
REMARK SMILES IDX 5 13 7 14 12 15 8 16 13 17 9 18 10 19 11 20 20 21 21 22
REMARK SMILES IDX 22 23 23 24 24 25 82 26 25 27 81 28 26 29 27 30 28 31 75 32
REMARK SMILES IDX 29 33 80 34 74 35 76 36 30 37 79 38 73 39 72 40 31 42 61 43
REMARK SMILES IDX 42 44 60 45 43 46 46 47 59 48 77 49 44 50 45 51 58 53 78 54
REMARK SMILES IDX 47 55 32 56 33 57 41 58 34 59 40 60 35 61 36 62 37 63 38 64
REMARK SMILES IDX 39 65 62 66 63 67 71 68 64 69 70 70 65 71 66 72 67 73 68 74
REMARK SMILES IDX 69 75 48 76 49 77 57 78 50 79 56 80 51 81 52 82 53 83 54 84
REMARK SMILES IDX 55 85
REMARK H PARENT 76 41 46 52
REMARK Flexibility Score: inf
ROOT
ATOM      1  C   UNL     1      -0.469   2.531   2.132  1.00  0.00     0.275 C 
ENDROOT
BRANCH   1   2
ATOM      2  C   UNL     1       0.673   3.243   1.397  1.00  0.00     0.275 C 
BRANCH   2   3
ATOM      3  O   UNL     1       0.449   3.187  -0.016  1.00  0.00    -0.458 OA
BRANCH   3   4
ATOM      4  C   UNL     1       1.446   2.691  -0.777  1.00  0.00     0.340 C 
ATOM      5  O   UNL     1       2.596   2.459  -0.440  1.00  0.00    -0.246 OA
BRANCH   4   6
ATOM      6  C   UNL     1       0.865   2.281  -2.058  1.00  0.00     0.093 A 
ATOM      7  C   UNL     1       2.065  -0.570  -0.569  1.00  0.00     0.069 C 
ATOM      8  C   UNL     1       1.389  -0.309  -1.866  1.00  0.00     0.070 A 
ATOM      9  N   UNL     1       1.125  -1.341  -2.680  1.00  0.00    -0.176 NA
ATOM     10  C   UNL     1       0.917   0.923  -2.403  1.00  0.00     0.058 A 
ATOM     11  N   UNL     1       0.423  -0.789  -3.689  1.00  0.00    -0.250 N 
ATOM     12  C   UNL     1       0.293   0.569  -3.585  1.00  0.00     0.159 A 
ATOM     13  C   UNL     1      -0.183  -1.632  -4.690  1.00  0.00     0.176 C 
ATOM     14  N   UNL     1      -0.357   1.381  -4.433  1.00  0.00    -0.231 NA
ATOM     15  C   UNL     1       0.236   3.190  -2.932  1.00  0.00     0.078 A 
ATOM     16  C   UNL     1      -0.390   2.707  -4.103  1.00  0.00     0.065 A 
ATOM     17  Cl  UNL     1       0.344   4.884  -2.563  1.00  0.00    -0.081 Cl
BRANCH  16  18
ATOM     18  C   UNL     1      -1.159   3.517  -5.154  1.00  0.00     0.040 C 
ATOM     19  C   UNL     1      -1.783   4.876  -5.000  1.00  0.00     0.011 C 
ATOM     20  C   UNL     1      -0.536   4.715  -5.826  1.00  0.00     0.011 C 
ENDBRANCH  16  18
ENDBRANCH   4   6
ENDBRANCH   3   4
ENDBRANCH   2   3
ENDBRANCH   1   2
BRANCH   1  21
ATOM     21  O   UNL     1      -0.677   1.170   1.695  1.00  0.00    -0.458 OA
BRANCH  21  22
ATOM     22  C   UNL     1      -1.553   1.026   0.661  1.00  0.00     0.338 C 
ATOM     23  O   UNL     1      -2.047   1.930   0.006  1.00  0.00    -0.246 OA
BRANCH  22  24
ATOM     24  C   UNL     1      -1.814  -0.400   0.356  1.00  0.00     0.060 A 
ATOM     25  C   UNL     1      -1.980  -0.781  -0.981  1.00  0.00     0.016 A 
ATOM     26  C   UNL     1      -1.973  -1.350   1.357  1.00  0.00     0.016 A 
ATOM     27  C   UNL     1      -2.213  -2.120  -1.330  1.00  0.00     0.010 A 
ATOM     28  C   UNL     1      -2.264  -2.674   1.004  1.00  0.00     0.010 A 
ATOM     29  C   UNL     1      -2.351  -3.099  -0.344  1.00  0.00    -0.014 A 
BRANCH  29  30
ATOM     30  C   UNL     1      -2.466  -4.553  -0.716  1.00  0.00     0.031 A 
ATOM     31  C   UNL     1      -2.033  -5.495   0.353  1.00  0.00     0.074 A 
ATOM     32  C   UNL     1      -3.379  -5.076  -1.578  1.00  0.00     0.049 A 
ATOM     33  N   UNL     1      -2.850  -5.705   1.335  1.00  0.00    -0.248 NA
ATOM     34  C   UNL     1      -0.689  -5.998   0.608  1.00  0.00     0.031 C 
ATOM     35  C   UNL     1      -4.600  -4.377  -1.998  1.00  0.00     0.029 A 
ATOM     36  N   UNL     1      -3.557  -6.368  -2.058  1.00  0.00    -0.354 N 
ATOM     37  C   UNL     1      -2.141  -6.238   2.388  1.00  0.00     0.074 A 
ATOM     38  C   UNL     1      -0.811  -6.470   1.866  1.00  0.00     0.031 C 
ATOM     39  C   UNL     1      -5.460  -5.272  -2.526  1.00  0.00     0.029 A 
ATOM     40  C   UNL     1      -4.820  -6.585  -2.615  1.00  0.00     0.049 A 
ATOM     41  H   UNL     1      -2.862  -7.063  -2.010  1.00  0.00     0.167 HD
ATOM     42  C   UNL     1      -2.742  -6.403   3.600  1.00  0.00     0.031 A 
ATOM     43  C   UNL     1      -5.521  -7.755  -2.617  1.00  0.00     0.031 A 
ATOM     44  C   UNL     1      -4.137  -5.997   3.701  1.00  0.00     0.049 A 
ATOM     45  C   UNL     1      -5.971  -7.889  -1.187  1.00  0.00     0.074 A 
ATOM     46  C   UNL     1      -5.009  -5.421   4.605  1.00  0.00     0.029 A 
ATOM     47  N   UNL     1      -4.891  -6.186   2.579  1.00  0.00    -0.354 N 
ATOM     48  N   UNL     1      -6.963  -7.258  -0.621  1.00  0.00    -0.248 NA
ATOM     49  C   UNL     1      -5.111  -8.639  -0.256  1.00  0.00     0.031 C 
ATOM     50  C   UNL     1      -6.318  -5.404   3.997  1.00  0.00     0.029 A 
ATOM     51  C   UNL     1      -6.229  -6.027   2.763  1.00  0.00     0.049 A 
ATOM     52  H   UNL     1      -4.498  -6.419   1.706  1.00  0.00     0.167 HD
ATOM     53  C   UNL     1      -6.678  -7.297   0.736  1.00  0.00     0.074 A 
ATOM     54  C   UNL     1      -5.641  -8.295   0.912  1.00  0.00     0.031 C 
ATOM     55  C   UNL     1      -7.066  -6.336   1.626  1.00  0.00     0.031 A 
BRANCH  42  56
ATOM     56  C   UNL     1      -2.132  -7.188   4.699  1.00  0.00    -0.014 A 
ATOM     57  C   UNL     1      -2.571  -8.520   4.833  1.00  0.00     0.010 A 
ATOM     58  C   UNL     1      -1.281  -6.648   5.671  1.00  0.00     0.010 A 
ATOM     59  C   UNL     1      -2.188  -9.297   5.924  1.00  0.00     0.020 A 
ATOM     60  C   UNL     1      -0.889  -7.429   6.772  1.00  0.00     0.020 A 
ATOM     61  C   UNL     1      -1.354  -8.744   6.895  1.00  0.00     0.054 A 
BRANCH  61  62
ATOM     62  S   UNL     1      -0.925  -9.769   8.330  1.00  0.00     0.124 S 
ATOM     63  O   UNL     1      -2.233 -10.054   8.914  1.00  0.00    -0.237 OA
ATOM     64  O   UNL     1      -0.251 -10.905   7.708  1.00  0.00    -0.237 OA
ATOM     65  O   UNL     1      -0.065  -8.900   9.130  1.00  0.00    -0.744 OA
ENDBRANCH  61  62
ENDBRANCH  42  56
BRANCH  43  66
ATOM     66  C   UNL     1      -5.028  -8.935  -3.400  1.00  0.00    -0.014 A 
ATOM     67  C   UNL     1      -4.570  -8.743  -4.721  1.00  0.00     0.010 A 
ATOM     68  C   UNL     1      -5.061 -10.261  -2.926  1.00  0.00     0.010 A 
ATOM     69  C   UNL     1      -4.028  -9.797  -5.469  1.00  0.00     0.020 A 
ATOM     70  C   UNL     1      -4.485 -11.316  -3.648  1.00  0.00     0.020 A 
ATOM     71  C   UNL     1      -3.941 -11.070  -4.905  1.00  0.00     0.054 A 
BRANCH  71  72
ATOM     72  S   UNL     1      -3.039 -12.366  -5.798  1.00  0.00     0.124 S 
ATOM     73  O   UNL     1      -3.888 -12.593  -6.964  1.00  0.00    -0.237 OA
ATOM     74  O   UNL     1      -1.758 -11.716  -6.068  1.00  0.00    -0.237 OA
ATOM     75  O   UNL     1      -2.981 -13.468  -4.841  1.00  0.00    -0.744 OA
ENDBRANCH  71  72
ENDBRANCH  43  66
BRANCH  55  76
ATOM     76  C   UNL     1      -8.276  -5.543   1.292  1.00  0.00    -0.014 A 
ATOM     77  C   UNL     1      -9.485  -6.225   1.067  1.00  0.00     0.010 A 
ATOM     78  C   UNL     1      -8.269  -4.139   1.281  1.00  0.00     0.010 A 
ATOM     79  C   UNL     1     -10.672  -5.526   0.871  1.00  0.00     0.020 A 
ATOM     80  C   UNL     1      -9.460  -3.430   1.084  1.00  0.00     0.020 A 
ATOM     81  C   UNL     1     -10.656  -4.131   0.899  1.00  0.00     0.054 A 
BRANCH  81  82
ATOM     82  S   UNL     1     -12.238  -3.261   0.761  1.00  0.00     0.124 S 
ATOM     83  O   UNL     1     -12.700  -3.650  -0.569  1.00  0.00    -0.237 OA
ATOM     84  O   UNL     1     -12.999  -3.820   1.877  1.00  0.00    -0.237 OA
ATOM     85  O   UNL     1     -11.878  -1.852   0.906  1.00  0.00    -0.744 OA
ENDBRANCH  81  82
ENDBRANCH  55  76
ENDBRANCH  29  30
ENDBRANCH  22  24
ENDBRANCH  21  22
ENDBRANCH   1  21
TORSDOF 15
