REMARK SMILES COc1ccc(S(=O)(=O)N2CCC[C@H](C(=O)N3CCC[C@H](C(=O)OCCOC(=O)c4ccc(-c5c6nc(c(-c7ccc(S(=O)(=O)[O-])cc7)c7ccc([nH]7)c(-c7ccc(S(=O)(=O)[O-])cc7)c7nc(c(-c8ccc(S(=O)(=O)[O-])cc8)c8ccc5[nH]8)C=C7)C=C6)cc4)C3)C2)cc1
REMARK SMILES IDX 25 1 24 2 22 3 23 4 21 5 17 6 18 7 90 8 19 9 20 10 15 11
REMARK SMILES IDX 16 12 14 13 10 14 11 15 91 16 12 17 13 18 7 19 8 20 9 21
REMARK SMILES IDX 6 22 3 23 4 24 93 25 5 26 92 27 2 28 1 29 26 30 27 31 28 32
REMARK SMILES IDX 29 33 30 34 31 35 89 36 32 37 88 38 33 39 34 40 35 41 82 42
REMARK SMILES IDX 36 43 87 44 81 45 83 46 37 47 86 48 80 49 79 50 38 52 68 53
REMARK SMILES IDX 49 54 67 55 50 56 53 57 66 58 84 59 51 60 52 61 65 63 85 64
REMARK SMILES IDX 54 65 39 66 40 67 48 68 41 69 47 70 42 71 43 72 44 73 45 74
REMARK SMILES IDX 46 75 69 76 70 77 78 78 71 79 77 80 72 81 73 82 74 83 75 84
REMARK SMILES IDX 76 85 55 86 56 87 64 88 57 89 63 90 58 91 59 92 60 93 61 94
REMARK SMILES IDX 62 95
REMARK H PARENT 83 51 53 62
REMARK Flexibility Score: inf
ROOT
ATOM      1  C   UNL     1       9.470  10.455  -1.645  1.00  0.00     0.274 C 
ENDROOT
BRANCH   1   2
ATOM      2  O   UNL     1       8.069  10.652  -1.384  1.00  0.00    -0.462 OA
BRANCH   2   3
ATOM      3  C   UNL     1       7.535   9.966  -0.348  1.00  0.00     0.310 C 
ATOM      4  O   UNL     1       8.153   9.173   0.357  1.00  0.00    -0.252 OA
BRANCH   3   5
ATOM      5  C   UNL     1       6.056  10.247  -0.132  1.00  0.00     0.119 C 
ATOM      6  N   UNL     1       5.218   8.700  -1.829  1.00  0.00    -0.342 N 
ATOM      7  C   UNL     1       4.578   9.755  -2.607  1.00  0.00     0.119 C 
ATOM      8  C   UNL     1       5.285   8.960  -0.402  1.00  0.00     0.134 C 
ATOM      9  C   UNL     1       5.242  11.111  -2.394  1.00  0.00     0.022 C 
ATOM     10  C   UNL     1       5.458  11.422  -0.912  1.00  0.00     0.019 C 
BRANCH   6  11
ATOM     11  C   UNL     1       5.978   7.748  -2.478  1.00  0.00     0.227 C 
ATOM     12  O   UNL     1       6.555   8.014  -3.538  1.00  0.00    -0.275 OA
BRANCH  11  13
ATOM     13  C   UNL     1       5.912   6.284  -2.025  1.00  0.00     0.094 C 
ATOM     14  N   UNL     1       3.522   6.097  -1.409  1.00  0.00    -0.197 NA
ATOM     15  C   UNL     1       3.801   5.976   0.032  1.00  0.00     0.102 C 
ATOM     16  C   UNL     1       4.550   5.715  -2.390  1.00  0.00     0.116 C 
ATOM     17  C   UNL     1       5.242   5.641   0.401  1.00  0.00     0.018 C 
ATOM     18  C   UNL     1       6.349   5.867  -0.631  1.00  0.00     0.016 C 
BRANCH  14  19
ATOM     19  S   UNL     1       1.897   6.042  -1.891  1.00  0.00     0.243 S 
ATOM     20  O   UNL     1       1.820   6.365  -3.296  1.00  0.00    -0.207 OA
ATOM     21  O   UNL     1       1.129   6.779  -0.903  1.00  0.00    -0.207 OA
BRANCH  19  22
ATOM     22  C   UNL     1       1.398   4.339  -1.734  1.00  0.00     0.082 A 
ATOM     23  C   UNL     1       0.484   1.726  -1.361  1.00  0.00     0.118 A 
ATOM     24  C   UNL     1      -0.407   2.733  -1.738  1.00  0.00     0.048 A 
ATOM     25  C   UNL     1       1.840   2.018  -1.222  1.00  0.00     0.048 A 
ATOM     26  C   UNL     1       0.044   4.044  -1.915  1.00  0.00     0.025 A 
ATOM     27  C   UNL     1       2.295   3.323  -1.399  1.00  0.00     0.025 A 
BRANCH  23  28
ATOM     28  O   UNL     1      -0.055   0.483  -1.171  1.00  0.00    -0.497 OA
ATOM     29  C   UNL     1       0.576  -0.274  -0.140  1.00  0.00     0.278 C 
ENDBRANCH  23  28
ENDBRANCH  19  22
ENDBRANCH  14  19
ENDBRANCH  11  13
ENDBRANCH   6  11
ENDBRANCH   3   5
ENDBRANCH   2   3
ENDBRANCH   1   2
BRANCH   1  30
ATOM     30  C   UNL     1      10.286  11.643  -1.135  1.00  0.00     0.275 C 
BRANCH  30  31
ATOM     31  O   UNL     1      10.255  11.723   0.303  1.00  0.00    -0.458 OA
BRANCH  31  32
ATOM     32  C   UNL     1       9.259  12.486   0.809  1.00  0.00     0.338 C 
ATOM     33  O   UNL     1       8.433  13.138   0.193  1.00  0.00    -0.246 OA
BRANCH  32  34
ATOM     34  C   UNL     1       9.216  12.336   2.268  1.00  0.00     0.060 A 
ATOM     35  C   UNL     1       8.190  11.570   2.823  1.00  0.00     0.016 A 
ATOM     36  C   UNL     1      10.100  13.039   3.084  1.00  0.00     0.016 A 
ATOM     37  C   UNL     1       8.013  11.526   4.200  1.00  0.00     0.010 A 
ATOM     38  C   UNL     1       9.939  12.974   4.471  1.00  0.00     0.010 A 
ATOM     39  C   UNL     1       8.882  12.235   5.034  1.00  0.00    -0.014 A 
BRANCH  39  40
ATOM     40  C   UNL     1       8.646  12.246   6.495  1.00  0.00     0.031 A 
ATOM     41  C   UNL     1       8.161  13.502   7.158  1.00  0.00     0.074 A 
ATOM     42  C   UNL     1       8.845  11.125   7.213  1.00  0.00     0.049 A 
ATOM     43  N   UNL     1       8.010  13.756   8.431  1.00  0.00    -0.248 NA
ATOM     44  C   UNL     1       7.803  14.622   6.272  1.00  0.00     0.031 C 
ATOM     45  C   UNL     1       9.252   9.829   6.666  1.00  0.00     0.029 A 
ATOM     46  N   UNL     1       8.734  10.899   8.561  1.00  0.00    -0.354 N 
ATOM     47  C   UNL     1       7.577  15.075   8.504  1.00  0.00     0.074 A 
ATOM     48  C   UNL     1       7.492  15.569   7.146  1.00  0.00     0.031 C 
ATOM     49  C   UNL     1       9.352   8.943   7.669  1.00  0.00     0.029 A 
ATOM     50  C   UNL     1       9.077   9.621   8.931  1.00  0.00     0.049 A 
ATOM     51  H   UNL     1       8.437  11.586   9.201  1.00  0.00     0.167 HD
ATOM     52  C   UNL     1       7.284  15.806   9.605  1.00  0.00     0.031 A 
ATOM     53  C   UNL     1       9.193   9.069  10.154  1.00  0.00     0.031 A 
ATOM     54  C   UNL     1       7.363  15.300  10.950  1.00  0.00     0.049 A 
ATOM     55  C   UNL     1       8.912   9.916  11.364  1.00  0.00     0.074 A 
ATOM     56  C   UNL     1       7.089  15.957  12.136  1.00  0.00     0.029 A 
ATOM     57  N   UNL     1       7.740  14.008  11.286  1.00  0.00    -0.354 N 
ATOM     58  N   UNL     1       8.536  11.171  11.420  1.00  0.00    -0.248 NA
ATOM     59  C   UNL     1       9.076   9.273  12.674  1.00  0.00     0.031 C 
ATOM     60  C   UNL     1       7.340  15.074  13.192  1.00  0.00     0.029 A 
ATOM     61  C   UNL     1       7.722  13.852  12.661  1.00  0.00     0.049 A 
ATOM     62  H   UNL     1       7.984  13.305  10.641  1.00  0.00     0.167 HD
ATOM     63  C   UNL     1       8.402  11.466  12.771  1.00  0.00     0.074 A 
ATOM     64  C   UNL     1       8.721  10.252  13.496  1.00  0.00     0.031 C 
ATOM     65  C   UNL     1       8.048  12.634  13.360  1.00  0.00     0.031 A 
BRANCH  52  66
ATOM     66  C   UNL     1       6.901  17.246   9.399  1.00  0.00    -0.014 A 
ATOM     67  C   UNL     1       5.646  17.605   8.877  1.00  0.00     0.010 A 
ATOM     68  C   UNL     1       7.810  18.260   9.756  1.00  0.00     0.010 A 
ATOM     69  C   UNL     1       5.322  18.951   8.680  1.00  0.00     0.020 A 
ATOM     70  C   UNL     1       7.480  19.607   9.582  1.00  0.00     0.020 A 
ATOM     71  C   UNL     1       6.244  19.943   9.028  1.00  0.00     0.054 A 
BRANCH  71  72
ATOM     72  S   UNL     1       5.795  21.683   8.775  1.00  0.00     0.124 S 
ATOM     73  O   UNL     1       5.934  21.820   7.327  1.00  0.00    -0.237 OA
ATOM     74  O   UNL     1       4.427  21.740   9.283  1.00  0.00    -0.237 OA
ATOM     75  O   UNL     1       6.781  22.413   9.567  1.00  0.00    -0.744 OA
ENDBRANCH  71  72
ENDBRANCH  52  66
BRANCH  53  76
ATOM     76  C   UNL     1       9.632   7.655  10.287  1.00  0.00    -0.014 A 
ATOM     77  C   UNL     1       8.730   6.661  10.702  1.00  0.00     0.010 A 
ATOM     78  C   UNL     1      10.954   7.291   9.970  1.00  0.00     0.010 A 
ATOM     79  C   UNL     1       9.143   5.329  10.803  1.00  0.00     0.020 A 
ATOM     80  C   UNL     1      11.364   5.957  10.045  1.00  0.00     0.020 A 
ATOM     81  C   UNL     1      10.457   4.985  10.470  1.00  0.00     0.054 A 
BRANCH  81  82
ATOM     82  S   UNL     1      10.953   3.241  10.539  1.00  0.00     0.124 S 
ATOM     83  O   UNL     1      11.117   3.029  11.973  1.00  0.00    -0.237 OA
ATOM     84  O   UNL     1       9.814   2.563   9.925  1.00  0.00    -0.237 OA
ATOM     85  O   UNL     1      12.184   3.206   9.754  1.00  0.00    -0.744 OA
ENDBRANCH  81  82
ENDBRANCH  53  76
BRANCH  65  86
ATOM     86  C   UNL     1       7.957  12.645  14.861  1.00  0.00    -0.014 A 
ATOM     87  C   UNL     1       9.115  12.651  15.659  1.00  0.00     0.010 A 
ATOM     88  C   UNL     1       6.694  12.692  15.478  1.00  0.00     0.010 A 
ATOM     89  C   UNL     1       9.009  12.671  17.052  1.00  0.00     0.020 A 
ATOM     90  C   UNL     1       6.586  12.735  16.870  1.00  0.00     0.020 A 
ATOM     91  C   UNL     1       7.745  12.709  17.648  1.00  0.00     0.054 A 
BRANCH  91  92
ATOM     92  S   UNL     1       7.631  12.769  19.457  1.00  0.00     0.124 S 
ATOM     93  O   UNL     1       7.911  11.384  19.825  1.00  0.00    -0.237 OA
ATOM     94  O   UNL     1       8.668  13.736  19.814  1.00  0.00    -0.237 OA
ATOM     95  O   UNL     1       6.262  13.216  19.703  1.00  0.00    -0.744 OA
ENDBRANCH  91  92
ENDBRANCH  65  86
ENDBRANCH  39  40
ENDBRANCH  32  34
ENDBRANCH  31  32
ENDBRANCH  30  31
ENDBRANCH   1  30
TORSDOF 19
