REMARK SMILES Cc1cc(C(=O)N[C@H]2C=C[C@H](C(=O)OCCOC(=O)c3ccc(-c4c5nc(c(-c6ccc(S(=O)(=O)[O-])cc6)c6ccc([nH]6)c(-c6ccc(S(=O)(=O)[O-])cc6)c6nc(c(-c7ccc(S(=O)(=O)[O-])cc7)c7ccc4[nH]7)C=C6)C=C5)cc3)C2)ccc1F
REMARK SMILES IDX 16 1 15 2 14 3 12 4 13 5 11 6 8 7 9 8 80 9 10 10 7 11 5 12
REMARK SMILES IDX 6 13 4 15 1 16 2 17 3 18 83 19 82 20 84 21 81 22 17 23 18 24
REMARK SMILES IDX 19 25 20 26 21 27 79 28 22 29 78 30 23 31 24 32 25 33 72 34
REMARK SMILES IDX 26 35 77 36 71 37 73 38 27 39 76 40 70 41 69 42 28 44 58 45
REMARK SMILES IDX 39 46 57 47 40 48 43 49 56 50 74 51 41 52 42 53 55 55 75 56
REMARK SMILES IDX 44 57 29 58 30 59 38 60 31 61 37 62 32 63 33 64 34 65 35 66
REMARK SMILES IDX 36 67 59 68 60 69 68 70 61 71 67 72 62 73 63 74 64 75 65 76
REMARK SMILES IDX 66 77 45 78 46 79 54 80 47 81 53 82 48 83 49 84 50 85 51 86
REMARK SMILES IDX 52 87
REMARK H PARENT 7 14 73 43 43 54
REMARK Flexibility Score: inf
ROOT
ATOM      1  C   UNL     1       2.972   5.451   2.476  1.00  0.00     0.275 C 
ENDROOT
BRANCH   1   2
ATOM      2  C   UNL     1       2.212   5.924   1.232  1.00  0.00     0.274 C 
BRANCH   2   3
ATOM      3  O   UNL     1       0.800   6.014   1.501  1.00  0.00    -0.462 OA
BRANCH   3   4
ATOM      4  C   UNL     1       0.030   5.085   0.877  1.00  0.00     0.312 C 
ATOM      5  O   UNL     1       0.433   4.333  -0.003  1.00  0.00    -0.252 OA
BRANCH   4   6
ATOM      6  C   UNL     1      -1.392   5.057   1.440  1.00  0.00     0.124 C 
ATOM      7  C   UNL     1      -2.568   3.733  -0.194  1.00  0.00     0.106 C 
ATOM      8  C   UNL     1      -3.098   5.132  -0.188  1.00  0.00    -0.006 C 
ATOM      9  C   UNL     1      -1.978   3.657   1.214  1.00  0.00     0.048 C 
ATOM     10  C   UNL     1      -2.385   5.885   0.667  1.00  0.00    -0.014 C 
BRANCH   7  11
ATOM     11  N   UNL     1      -3.557   2.730  -0.440  1.00  0.00    -0.346 N 
ATOM     12  C   UNL     1      -3.412   1.381  -0.686  1.00  0.00     0.251 C 
ATOM     13  O   UNL     1      -4.458   0.747  -0.846  1.00  0.00    -0.269 OA
ATOM     14  H   UNL     1      -4.487   3.053  -0.432  1.00  0.00     0.164 HD
BRANCH  12  15
ATOM     15  C   UNL     1      -2.098   0.640  -0.741  1.00  0.00     0.040 A 
ATOM     16  C   UNL     1       1.696   1.112  -0.771  1.00  0.00     0.047 C 
ATOM     17  C   UNL     1       0.355   0.441  -0.820  1.00  0.00    -0.015 A 
ATOM     18  C   UNL     1      -0.821   1.213  -0.825  1.00  0.00     0.020 A 
ATOM     19  C   UNL     1       0.242  -0.942  -0.787  1.00  0.00     0.126 A 
ATOM     20  C   UNL     1      -1.006  -1.550  -0.758  1.00  0.00     0.040 A 
ATOM     21  F   UNL     1       1.346  -1.701  -0.762  1.00  0.00    -0.207 F 
ATOM     22  C   UNL     1      -2.165  -0.764  -0.717  1.00  0.00     0.017 A 
ENDBRANCH  12  15
ENDBRANCH   7  11
ENDBRANCH   4   6
ENDBRANCH   3   4
ENDBRANCH   2   3
ENDBRANCH   1   2
BRANCH   1  23
ATOM     23  O   UNL     1       2.646   4.094   2.843  1.00  0.00    -0.458 OA
BRANCH  23  24
ATOM     24  C   UNL     1       1.601   3.961   3.695  1.00  0.00     0.338 C 
ATOM     25  O   UNL     1       0.895   4.862   4.129  1.00  0.00    -0.246 OA
BRANCH  24  26
ATOM     26  C   UNL     1       1.317   2.538   3.960  1.00  0.00     0.060 A 
ATOM     27  C   UNL     1      -0.009   2.110   3.849  1.00  0.00     0.016 A 
ATOM     28  C   UNL     1       2.307   1.647   4.386  1.00  0.00     0.016 A 
ATOM     29  C   UNL     1      -0.350   0.787   4.125  1.00  0.00     0.010 A 
ATOM     30  C   UNL     1       1.958   0.327   4.702  1.00  0.00     0.010 A 
ATOM     31  C   UNL     1       0.628  -0.109   4.575  1.00  0.00    -0.014 A 
BRANCH  31  32
ATOM     32  C   UNL     1       0.222  -1.479   4.970  1.00  0.00     0.031 A 
ATOM     33  C   UNL     1      -0.155  -1.765   6.393  1.00  0.00     0.074 A 
ATOM     34  C   UNL     1       0.144  -2.453   4.045  1.00  0.00     0.049 A 
ATOM     35  N   UNL     1      -0.567  -2.886   6.926  1.00  0.00    -0.248 NA
ATOM     36  C   UNL     1      -0.049  -0.645   7.341  1.00  0.00     0.031 C 
ATOM     37  C   UNL     1       0.466  -2.288   2.631  1.00  0.00     0.029 A 
ATOM     38  N   UNL     1      -0.240  -3.766   4.153  1.00  0.00    -0.354 N 
ATOM     39  C   UNL     1      -0.750  -2.617   8.276  1.00  0.00     0.074 A 
ATOM     40  C   UNL     1      -0.404  -1.225   8.479  1.00  0.00     0.031 C 
ATOM     41  C   UNL     1       0.242  -3.450   1.997  1.00  0.00     0.029 A 
ATOM     42  C   UNL     1      -0.224  -4.444   2.957  1.00  0.00     0.049 A 
ATOM     43  H   UNL     1      -0.503  -4.183   5.006  1.00  0.00     0.167 HD
ATOM     44  C   UNL     1      -1.152  -3.458   9.259  1.00  0.00     0.031 A 
ATOM     45  C   UNL     1      -0.547  -5.720   2.665  1.00  0.00     0.031 A 
ATOM     46  C   UNL     1      -1.468  -4.848   9.059  1.00  0.00     0.049 A 
ATOM     47  C   UNL     1      -0.981  -6.637   3.777  1.00  0.00     0.074 A 
ATOM     48  C   UNL     1      -1.867  -5.784   9.999  1.00  0.00     0.029 A 
ATOM     49  N   UNL     1      -1.415  -5.507   7.839  1.00  0.00    -0.354 N 
ATOM     50  N   UNL     1      -1.151  -6.365   5.049  1.00  0.00    -0.248 NA
ATOM     51  C   UNL     1      -1.250  -8.036   3.418  1.00  0.00     0.031 C 
ATOM     52  C   UNL     1      -2.009  -7.018   9.356  1.00  0.00     0.029 A 
ATOM     53  C   UNL     1      -1.752  -6.840   8.006  1.00  0.00     0.049 A 
ATOM     54  H   UNL     1      -1.174  -5.088   6.982  1.00  0.00     0.167 HD
ATOM     55  C   UNL     1      -1.546  -7.559   5.642  1.00  0.00     0.074 A 
ATOM     56  C   UNL     1      -1.622  -8.546   4.584  1.00  0.00     0.031 C 
ATOM     57  C   UNL     1      -1.810  -7.816   6.946  1.00  0.00     0.031 A 
BRANCH  44  58
ATOM     58  C   UNL     1      -1.209  -2.904  10.656  1.00  0.00    -0.014 A 
ATOM     59  C   UNL     1      -2.229  -2.021  11.052  1.00  0.00     0.010 A 
ATOM     60  C   UNL     1      -0.232  -3.289  11.591  1.00  0.00     0.010 A 
ATOM     61  C   UNL     1      -2.246  -1.500  12.348  1.00  0.00     0.020 A 
ATOM     62  C   UNL     1      -0.259  -2.788  12.895  1.00  0.00     0.020 A 
ATOM     63  C   UNL     1      -1.256  -1.881  13.260  1.00  0.00     0.054 A 
BRANCH  63  64
ATOM     64  S   UNL     1      -1.300  -1.193  14.937  1.00  0.00     0.124 S 
ATOM     65  O   UNL     1      -0.835   0.174  14.713  1.00  0.00    -0.237 OA
ATOM     66  O   UNL     1      -2.708  -1.325  15.303  1.00  0.00    -0.237 OA
ATOM     67  O   UNL     1      -0.383  -2.047  15.687  1.00  0.00    -0.744 OA
ENDBRANCH  63  64
ENDBRANCH  44  58
BRANCH  45  68
ATOM     68  C   UNL     1      -0.473  -6.209   1.260  1.00  0.00    -0.014 A 
ATOM     69  C   UNL     1      -1.646  -6.533   0.554  1.00  0.00     0.010 A 
ATOM     70  C   UNL     1       0.770  -6.348   0.616  1.00  0.00     0.010 A 
ATOM     71  C   UNL     1      -1.577  -6.998  -0.763  1.00  0.00     0.020 A 
ATOM     72  C   UNL     1       0.841  -6.785  -0.711  1.00  0.00     0.020 A 
ATOM     73  C   UNL     1      -0.333  -7.120  -1.388  1.00  0.00     0.054 A 
BRANCH  73  74
ATOM     74  S   UNL     1      -0.265  -7.673  -3.115  1.00  0.00     0.124 S 
ATOM     75  O   UNL     1      -0.476  -9.110  -2.981  1.00  0.00    -0.237 OA
ATOM     76  O   UNL     1      -1.360  -6.927  -3.731  1.00  0.00    -0.237 OA
ATOM     77  O   UNL     1       1.071  -7.272  -3.549  1.00  0.00    -0.744 OA
ENDBRANCH  73  74
ENDBRANCH  45  68
BRANCH  57  78
ATOM     78  C   UNL     1      -2.209  -9.222   7.306  1.00  0.00    -0.014 A 
ATOM     79  C   UNL     1      -1.262 -10.262   7.323  1.00  0.00     0.010 A 
ATOM     80  C   UNL     1      -3.535  -9.497   7.685  1.00  0.00     0.010 A 
ATOM     81  C   UNL     1      -1.640 -11.557   7.684  1.00  0.00     0.020 A 
ATOM     82  C   UNL     1      -3.913 -10.787   8.070  1.00  0.00     0.020 A 
ATOM     83  C   UNL     1      -2.965 -11.812   8.055  1.00  0.00     0.054 A 
BRANCH  83  84
ATOM     84  S   UNL     1      -3.423 -13.492   8.564  1.00  0.00     0.124 S 
ATOM     85  O   UNL     1      -3.475 -14.194   7.285  1.00  0.00    -0.237 OA
ATOM     86  O   UNL     1      -2.322 -13.873   9.446  1.00  0.00    -0.237 OA
ATOM     87  O   UNL     1      -4.711 -13.312   9.230  1.00  0.00    -0.744 OA
ENDBRANCH  83  84
ENDBRANCH  57  78
ENDBRANCH  31  32
ENDBRANCH  24  26
ENDBRANCH  23  24
ENDBRANCH   1  23
TORSDOF 16
