REMARK SMILES Cc1c(Br)c(C)c2c(c1Br)O[C@H](C(F)(F)F)C(C(=O)OCCOC(=O)c1ccc(-c3c4nc(c(-c5ccc(S(=O)(=O)[O-])cc5)c5ccc([nH]5)c(-c5ccc(S(=O)(=O)[O-])cc5)c5nc(c(-c6ccc(S(=O)(=O)[O-])cc6)c6ccc3[nH]6)C=C5)C=C4)cc1)=C2
REMARK SMILES IDX 22 1 21 2 20 3 18 4 19 5 17 6 1 7 2 8 3 9 9 10 4 11 5 12
REMARK SMILES IDX 8 13 10 14 6 15 7 16 11 17 86 18 12 19 13 20 14 21 15 22
REMARK SMILES IDX 16 23 23 24 24 25 25 26 26 27 27 28 85 29 28 30 84 31 29 32
REMARK SMILES IDX 30 33 31 34 78 35 32 36 83 37 77 38 79 39 33 40 82 41 76 42
REMARK SMILES IDX 75 43 34 45 64 46 45 47 63 48 46 49 49 50 62 51 80 52 47 53
REMARK SMILES IDX 48 54 61 56 81 57 50 58 35 59 36 60 44 61 37 62 43 63 38 64
REMARK SMILES IDX 39 65 40 66 41 67 42 68 65 69 66 70 74 71 67 72 73 73 68 74
REMARK SMILES IDX 69 75 70 76 71 77 72 78 51 79 52 80 60 81 53 82 59 83 54 84
REMARK SMILES IDX 55 85 56 86 57 87 58 88
REMARK H PARENT 79 44 49 55
REMARK Flexibility Score: inf
ROOT
ATOM      1  C   UNL     1       0.009 -10.080   3.277  1.00  0.00     0.275 C 
ENDROOT
BRANCH   1   2
ATOM      2  C   UNL     1      -0.053  -9.812   1.774  1.00  0.00     0.275 C 
BRANCH   2   3
ATOM      3  O   UNL     1       0.401  -8.478   1.458  1.00  0.00    -0.459 OA
BRANCH   3   4
ATOM      4  C   UNL     1      -0.572  -7.586   1.163  1.00  0.00     0.338 C 
ATOM      5  O   UNL     1      -1.772  -7.806   1.118  1.00  0.00    -0.246 OA
BRANCH   4   6
ATOM      6  C   UNL     1       0.008  -6.255   0.899  1.00  0.00     0.087 C 
ATOM      7  C   UNL     1       1.234   0.084  -0.149  1.00  0.00     0.047 C 
ATOM      8  C   UNL     1       0.777  -1.272   0.336  1.00  0.00    -0.019 A 
ATOM      9  C   UNL     1      -0.299  -1.412   1.246  1.00  0.00     0.025 A 
ATOM     10  C   UNL     1       1.382  -2.445  -0.168  1.00  0.00     0.064 A 
ATOM     11  Br  UNL     1      -1.210   0.160   1.869  1.00  0.00    -0.050 Br
ATOM     12  C   UNL     1      -0.737  -2.689   1.676  1.00  0.00    -0.026 A 
ATOM     13  C   UNL     1       0.952  -3.721   0.235  1.00  0.00     0.142 A 
ATOM     14  Br  UNL     1       2.785  -2.340  -1.474  1.00  0.00    -0.046 Br
ATOM     15  C   UNL     1      -1.850  -2.859   2.691  1.00  0.00     0.046 C 
ATOM     16  C   UNL     1      -0.105  -3.845   1.143  1.00  0.00     0.022 A 
ATOM     17  O   UNL     1       1.627  -4.801  -0.278  1.00  0.00    -0.474 OA
ATOM     18  C   UNL     1      -0.555  -5.193   1.484  1.00  0.00     0.027 C 
ATOM     19  C   UNL     1       1.103  -6.140  -0.109  1.00  0.00     0.316 C 
BRANCH  19  20
ATOM     20  C   UNL     1       0.671  -6.690  -1.478  1.00  0.00     0.430 C 
ATOM     21  F   UNL     1       1.661  -6.567  -2.395  1.00  0.00    -0.167 F 
ATOM     22  F   UNL     1       0.373  -8.011  -1.413  1.00  0.00    -0.167 F 
ATOM     23  F   UNL     1      -0.417  -6.053  -1.966  1.00  0.00    -0.167 F 
ENDBRANCH  19  20
ENDBRANCH   4   6
ENDBRANCH   3   4
ENDBRANCH   2   3
ENDBRANCH   1   2
BRANCH   1  24
ATOM     24  O   UNL     1      -0.952  -9.266   3.973  1.00  0.00    -0.458 OA
BRANCH  24  25
ATOM     25  C   UNL     1      -0.438  -8.207   4.640  1.00  0.00     0.338 C 
ATOM     26  O   UNL     1       0.736  -7.897   4.747  1.00  0.00    -0.246 OA
BRANCH  25  27
ATOM     27  C   UNL     1      -1.530  -7.383   5.178  1.00  0.00     0.060 A 
ATOM     28  C   UNL     1      -2.315  -6.666   4.284  1.00  0.00     0.016 A 
ATOM     29  C   UNL     1      -1.674  -7.179   6.548  1.00  0.00     0.016 A 
ATOM     30  C   UNL     1      -3.133  -5.641   4.743  1.00  0.00     0.010 A 
ATOM     31  C   UNL     1      -2.613  -6.246   7.012  1.00  0.00     0.010 A 
ATOM     32  C   UNL     1      -3.322  -5.426   6.115  1.00  0.00    -0.014 A 
BRANCH  32  33
ATOM     33  C   UNL     1      -4.239  -4.338   6.579  1.00  0.00     0.031 A 
ATOM     34  C   UNL     1      -3.757  -3.283   7.550  1.00  0.00     0.074 A 
ATOM     35  C   UNL     1      -5.496  -4.254   6.088  1.00  0.00     0.049 A 
ATOM     36  N   UNL     1      -4.445  -2.348   8.157  1.00  0.00    -0.248 NA
ATOM     37  C   UNL     1      -2.325  -3.281   7.893  1.00  0.00     0.031 C 
ATOM     38  C   UNL     1      -6.087  -5.166   5.103  1.00  0.00     0.029 A 
ATOM     39  N   UNL     1      -6.496  -3.339   6.317  1.00  0.00    -0.354 N 
ATOM     40  C   UNL     1      -3.546  -1.688   8.990  1.00  0.00     0.074 A 
ATOM     41  C   UNL     1      -2.264  -2.335   8.821  1.00  0.00     0.031 C 
ATOM     42  C   UNL     1      -7.295  -4.712   4.743  1.00  0.00     0.029 A 
ATOM     43  C   UNL     1      -7.628  -3.555   5.563  1.00  0.00     0.049 A 
ATOM     44  H   UNL     1      -6.412  -2.599   6.961  1.00  0.00     0.167 HD
ATOM     45  C   UNL     1      -3.767  -0.638   9.818  1.00  0.00     0.031 A 
ATOM     46  C   UNL     1      -8.822  -2.929   5.552  1.00  0.00     0.031 A 
ATOM     47  C   UNL     1      -5.034   0.034   9.948  1.00  0.00     0.049 A 
ATOM     48  C   UNL     1      -9.061  -1.809   6.523  1.00  0.00     0.074 A 
ATOM     49  C   UNL     1      -5.362   1.098  10.771  1.00  0.00     0.029 A 
ATOM     50  N   UNL     1      -6.173  -0.271   9.219  1.00  0.00    -0.354 N 
ATOM     51  N   UNL     1      -8.220  -1.262   7.367  1.00  0.00    -0.248 NA
ATOM     52  C   UNL     1     -10.416  -1.242   6.563  1.00  0.00     0.031 C 
ATOM     53  C   UNL     1      -6.710   1.406  10.573  1.00  0.00     0.029 A 
ATOM     54  C   UNL     1      -7.207   0.575   9.582  1.00  0.00     0.049 A 
ATOM     55  H   UNL     1      -6.237  -0.984   8.543  1.00  0.00     0.167 HD
ATOM     56  C   UNL     1      -8.941  -0.277   8.030  1.00  0.00     0.074 A 
ATOM     57  C   UNL     1     -10.280  -0.290   7.476  1.00  0.00     0.031 C 
ATOM     58  C   UNL     1      -8.531   0.557   9.015  1.00  0.00     0.031 A 
BRANCH  45  59
ATOM     59  C   UNL     1      -2.625  -0.154  10.676  1.00  0.00    -0.014 A 
ATOM     60  C   UNL     1      -1.548   0.563  10.128  1.00  0.00     0.010 A 
ATOM     61  C   UNL     1      -2.674  -0.351  12.070  1.00  0.00     0.010 A 
ATOM     62  C   UNL     1      -0.530   1.052  10.953  1.00  0.00     0.020 A 
ATOM     63  C   UNL     1      -1.673   0.160  12.902  1.00  0.00     0.020 A 
ATOM     64  C   UNL     1      -0.601   0.850  12.335  1.00  0.00     0.054 A 
BRANCH  64  65
ATOM     65  S   UNL     1       0.713   1.535  13.383  1.00  0.00     0.124 S 
ATOM     66  O   UNL     1       1.853   0.694  13.026  1.00  0.00    -0.237 OA
ATOM     67  O   UNL     1       0.791   2.922  12.931  1.00  0.00    -0.237 OA
ATOM     68  O   UNL     1       0.208   1.352  14.741  1.00  0.00    -0.744 OA
ENDBRANCH  64  65
ENDBRANCH  45  59
BRANCH  46  69
ATOM     69  C   UNL     1      -9.896  -3.385   4.625  1.00  0.00    -0.014 A 
ATOM     70  C   UNL     1     -10.335  -2.559   3.576  1.00  0.00     0.010 A 
ATOM     71  C   UNL     1     -10.472  -4.662   4.771  1.00  0.00     0.010 A 
ATOM     72  C   UNL     1     -11.328  -2.999   2.694  1.00  0.00     0.020 A 
ATOM     73  C   UNL     1     -11.438  -5.119   3.872  1.00  0.00     0.020 A 
ATOM     74  C   UNL     1     -11.869  -4.279   2.845  1.00  0.00     0.054 A 
BRANCH  74  75
ATOM     75  S   UNL     1     -13.113  -4.851   1.655  1.00  0.00     0.124 S 
ATOM     76  O   UNL     1     -14.279  -4.058   2.031  1.00  0.00    -0.237 OA
ATOM     77  O   UNL     1     -12.502  -4.511   0.372  1.00  0.00    -0.237 OA
ATOM     78  O   UNL     1     -13.216  -6.283   1.927  1.00  0.00    -0.744 OA
ENDBRANCH  74  75
ENDBRANCH  46  69
BRANCH  58  79
ATOM     79  C   UNL     1      -9.525   1.555   9.542  1.00  0.00    -0.014 A 
ATOM     80  C   UNL     1     -10.568   1.157  10.396  1.00  0.00     0.010 A 
ATOM     81  C   UNL     1      -9.356   2.920   9.249  1.00  0.00     0.010 A 
ATOM     82  C   UNL     1     -11.434   2.110  10.938  1.00  0.00     0.020 A 
ATOM     83  C   UNL     1     -10.203   3.877   9.810  1.00  0.00     0.020 A 
ATOM     84  C   UNL     1     -11.241   3.465  10.648  1.00  0.00     0.054 A 
BRANCH  84  85
ATOM     85  S   UNL     1     -12.334   4.684  11.427  1.00  0.00     0.124 S 
ATOM     86  O   UNL     1     -13.600   4.441  10.741  1.00  0.00    -0.237 OA
ATOM     87  O   UNL     1     -12.297   4.292  12.834  1.00  0.00    -0.237 OA
ATOM     88  O   UNL     1     -11.698   5.964  11.126  1.00  0.00    -0.744 OA
ENDBRANCH  84  85
ENDBRANCH  58  79
ENDBRANCH  32  33
ENDBRANCH  25  27
ENDBRANCH  24  25
ENDBRANCH   1  24
TORSDOF 15
