REMARK SMILES CC[NH+]1CC[NH+]([C@@H]2CC(=O)N(c3ccc(C(=O)OCCOC(=O)c4ccc(-c5c6nc(c(-c7ccc(S(=O)(=O)[O-])cc7)c7ccc([nH]7)c(-c7ccc(S(=O)(=O)[O-])cc7)c7nc(c(-c8ccc(S(=O)(=O)[O-])cc8)c8ccc5[nH]8)C=C7)C=C6)cc4)cc3)C2=O)CC1
REMARK SMILES IDX 19 1 18 2 16 3 17 4 15 5 12 6 13 7 85 8 14 9 84 10 11 11
REMARK SMILES IDX 7 12 8 13 86 14 9 15 87 16 10 17 6 18 3 19 4 20 89 21 5 23
REMARK SMILES IDX 88 24 2 26 1 27 20 28 21 29 22 30 23 31 24 32 25 33 83 34
REMARK SMILES IDX 26 35 82 36 27 37 28 38 29 39 76 40 30 41 81 42 75 43 77 44
REMARK SMILES IDX 31 45 80 46 74 47 73 48 32 50 62 51 43 52 61 53 44 54 47 55
REMARK SMILES IDX 60 56 78 57 45 58 46 59 59 61 79 62 48 63 33 64 34 65 42 66
REMARK SMILES IDX 35 67 41 68 36 69 37 70 38 71 39 72 40 73 63 74 64 75 72 76
REMARK SMILES IDX 65 77 71 78 66 79 67 80 68 81 69 82 70 83 49 84 50 85 58 86
REMARK SMILES IDX 51 87 57 88 52 89 53 90 54 91 55 92 56 93
REMARK H PARENT 3 22 6 25 77 49 47 60
REMARK Flexibility Score: inf
ROOT
ATOM      1  C   UNL     1      -4.547   8.546   9.110  1.00  0.00     0.275 C 
ENDROOT
BRANCH   1   2
ATOM      2  O   UNL     1      -3.469   8.107   8.260  1.00  0.00    -0.458 OA
BRANCH   2   3
ATOM      3  C   UNL     1      -3.584   6.840   7.788  1.00  0.00     0.338 C 
ATOM      4  O   UNL     1      -4.455   6.037   8.061  1.00  0.00    -0.246 OA
BRANCH   3   5
ATOM      5  C   UNL     1      -2.533   6.571   6.783  1.00  0.00     0.060 A 
ATOM      6  C   UNL     1      -0.607   5.876   4.853  1.00  0.00     0.052 A 
ATOM      7  C   UNL     1      -1.962   5.636   4.621  1.00  0.00     0.028 A 
ATOM      8  C   UNL     1      -0.229   6.484   6.061  1.00  0.00     0.028 A 
ATOM      9  C   UNL     1      -2.903   5.940   5.595  1.00  0.00     0.018 A 
ATOM     10  C   UNL     1      -1.190   6.861   7.012  1.00  0.00     0.018 A 
BRANCH   6  11
ATOM     11  N   UNL     1       0.334   5.407   3.909  1.00  0.00    -0.245 N 
ATOM     12  C   UNL     1       1.181   4.523   1.897  1.00  0.00     0.285 C 
ATOM     13  C   UNL     1       2.178   4.280   3.020  1.00  0.00     0.176 C 
ATOM     14  C   UNL     1       0.092   5.357   2.552  1.00  0.00     0.292 C 
ATOM     15  C   UNL     1       1.548   4.869   4.243  1.00  0.00     0.240 C 
ATOM     16  O   UNL     1      -0.820   5.898   1.938  1.00  0.00    -0.267 OA
ATOM     17  O   UNL     1       2.073   4.793   5.347  1.00  0.00    -0.274 OA
BRANCH  12  18
ATOM     18  N   UNL     1       0.614   3.388   1.144  1.00  0.00    -0.315 N 
ATOM     19  N   UNL     1       1.193   0.547   1.926  1.00  0.00    -0.326 N 
ATOM     20  C   UNL     1       2.164   1.359   1.182  1.00  0.00     0.324 C 
ATOM     21  C   UNL     1       0.233   1.390   2.662  1.00  0.00     0.324 C 
ATOM     22  H   UNL     1       1.783   0.043   2.588  1.00  0.00     0.348 HD
ATOM     23  C   UNL     1       1.592   2.575   0.411  1.00  0.00     0.325 C 
ATOM     24  C   UNL     1      -0.372   2.530   1.818  1.00  0.00     0.325 C 
ATOM     25  H   UNL     1       0.066   3.919   0.467  1.00  0.00     0.349 HD
BRANCH  19  26
ATOM     26  C   UNL     1       0.530  -0.552   1.210  1.00  0.00     0.259 C 
ATOM     27  C   UNL     1       0.788  -0.743  -0.280  1.00  0.00     0.071 C 
ENDBRANCH  19  26
ENDBRANCH  12  18
ENDBRANCH   6  11
ENDBRANCH   3   5
ENDBRANCH   2   3
ENDBRANCH   1   2
BRANCH   1  28
ATOM     28  C   UNL     1      -5.575   9.373   8.335  1.00  0.00     0.275 C 
BRANCH  28  29
ATOM     29  O   UNL     1      -6.363   8.549   7.456  1.00  0.00    -0.458 OA
BRANCH  29  30
ATOM     30  C   UNL     1      -5.973   8.563   6.163  1.00  0.00     0.338 C 
ATOM     31  O   UNL     1      -5.044   9.187   5.677  1.00  0.00    -0.246 OA
BRANCH  30  32
ATOM     32  C   UNL     1      -6.807   7.653   5.365  1.00  0.00     0.060 A 
ATOM     33  C   UNL     1      -6.457   6.309   5.313  1.00  0.00     0.016 A 
ATOM     34  C   UNL     1      -7.797   8.150   4.524  1.00  0.00     0.016 A 
ATOM     35  C   UNL     1      -6.968   5.490   4.311  1.00  0.00     0.010 A 
ATOM     36  C   UNL     1      -8.424   7.283   3.621  1.00  0.00     0.010 A 
ATOM     37  C   UNL     1      -7.986   5.952   3.470  1.00  0.00    -0.014 A 
BRANCH  37  38
ATOM     38  C   UNL     1      -8.605   5.059   2.447  1.00  0.00     0.031 A 
ATOM     39  C   UNL     1      -8.688   5.504   1.007  1.00  0.00     0.074 A 
ATOM     40  C   UNL     1      -9.134   3.870   2.811  1.00  0.00     0.049 A 
ATOM     41  N   UNL     1      -9.411   5.015   0.032  1.00  0.00    -0.248 NA
ATOM     42  C   UNL     1      -7.867   6.663   0.615  1.00  0.00     0.031 C 
ATOM     43  C   UNL     1      -9.077   3.281   4.153  1.00  0.00     0.029 A 
ATOM     44  N   UNL     1      -9.842   2.943   2.083  1.00  0.00    -0.354 N 
ATOM     45  C   UNL     1      -9.193   5.849  -1.061  1.00  0.00     0.074 A 
ATOM     46  C   UNL     1      -8.261   6.869  -0.635  1.00  0.00     0.031 C 
ATOM     47  C   UNL     1      -9.697   2.092   4.146  1.00  0.00     0.029 A 
ATOM     48  C   UNL     1     -10.296   1.883   2.836  1.00  0.00     0.049 A 
ATOM     49  H   UNL     1     -10.008   3.028   1.116  1.00  0.00     0.167 HD
ATOM     50  C   UNL     1      -9.735   5.772  -2.300  1.00  0.00     0.031 A 
ATOM     51  C   UNL     1     -11.156   0.890   2.539  1.00  0.00     0.031 A 
ATOM     52  C   UNL     1     -10.618   4.717  -2.725  1.00  0.00     0.049 A 
ATOM     53  C   UNL     1     -11.781   0.859   1.172  1.00  0.00     0.074 A 
ATOM     54  C   UNL     1     -11.186   4.524  -3.973  1.00  0.00     0.029 A 
ATOM     55  N   UNL     1     -11.052   3.674  -1.922  1.00  0.00    -0.354 N 
ATOM     56  N   UNL     1     -11.584   1.667   0.159  1.00  0.00    -0.248 NA
ATOM     57  C   UNL     1     -12.756  -0.209   0.912  1.00  0.00     0.031 C 
ATOM     58  C   UNL     1     -12.011   3.399  -3.907  1.00  0.00     0.029 A 
ATOM     59  C   UNL     1     -11.901   2.850  -2.639  1.00  0.00     0.049 A 
ATOM     60  H   UNL     1     -10.794   3.539  -0.981  1.00  0.00     0.167 HD
ATOM     61  C   UNL     1     -12.381   1.181  -0.870  1.00  0.00     0.074 A 
ATOM     62  C   UNL     1     -13.056   0.006  -0.361  1.00  0.00     0.031 C 
ATOM     63  C   UNL     1     -12.539   1.665  -2.126  1.00  0.00     0.031 A 
BRANCH  50  64
ATOM     64  C   UNL     1      -9.440   6.873  -3.287  1.00  0.00    -0.014 A 
ATOM     65  C   UNL     1      -8.188   6.994  -3.912  1.00  0.00     0.010 A 
ATOM     66  C   UNL     1     -10.482   7.740  -3.672  1.00  0.00     0.010 A 
ATOM     67  C   UNL     1      -7.980   7.970  -4.894  1.00  0.00     0.020 A 
ATOM     68  C   UNL     1     -10.286   8.697  -4.671  1.00  0.00     0.020 A 
ATOM     69  C   UNL     1      -9.033   8.811  -5.272  1.00  0.00     0.054 A 
BRANCH  69  70
ATOM     70  S   UNL     1      -8.754  10.018  -6.598  1.00  0.00     0.124 S 
ATOM     71  O   UNL     1      -7.878  10.988  -5.946  1.00  0.00    -0.237 OA
ATOM     72  O   UNL     1      -8.128   9.209  -7.641  1.00  0.00    -0.237 OA
ATOM     73  O   UNL     1     -10.095  10.506  -6.913  1.00  0.00    -0.744 OA
ENDBRANCH  69  70
ENDBRANCH  50  64
BRANCH  51  74
ATOM     74  C   UNL     1     -11.537  -0.115   3.572  1.00  0.00    -0.014 A 
ATOM     75  C   UNL     1     -11.199  -1.470   3.413  1.00  0.00     0.010 A 
ATOM     76  C   UNL     1     -12.267   0.275   4.712  1.00  0.00     0.010 A 
ATOM     77  C   UNL     1     -11.618  -2.420   4.350  1.00  0.00     0.020 A 
ATOM     78  C   UNL     1     -12.655  -0.664   5.670  1.00  0.00     0.020 A 
ATOM     79  C   UNL     1     -12.348  -2.011   5.470  1.00  0.00     0.054 A 
BRANCH  79  80
ATOM     80  S   UNL     1     -12.882  -3.260   6.672  1.00  0.00     0.124 S 
ATOM     81  O   UNL     1     -13.962  -3.927   5.954  1.00  0.00    -0.237 OA
ATOM     82  O   UNL     1     -11.668  -4.049   6.868  1.00  0.00    -0.237 OA
ATOM     83  O   UNL     1     -13.294  -2.467   7.829  1.00  0.00    -0.744 OA
ENDBRANCH  79  80
ENDBRANCH  51  74
BRANCH  63  84
ATOM     84  C   UNL     1     -13.413   0.885  -3.068  1.00  0.00    -0.014 A 
ATOM     85  C   UNL     1     -14.812   0.886  -2.944  1.00  0.00     0.010 A 
ATOM     86  C   UNL     1     -12.817   0.206  -4.148  1.00  0.00     0.010 A 
ATOM     87  C   UNL     1     -15.601   0.208  -3.877  1.00  0.00     0.020 A 
ATOM     88  C   UNL     1     -13.603  -0.447  -5.098  1.00  0.00     0.020 A 
ATOM     89  C   UNL     1     -14.991  -0.448  -4.952  1.00  0.00     0.054 A 
BRANCH  89  90
ATOM     90  S   UNL     1     -16.041  -1.255  -6.191  1.00  0.00     0.124 S 
ATOM     91  O   UNL     1     -16.527  -2.424  -5.463  1.00  0.00    -0.237 OA
ATOM     92  O   UNL     1     -17.042  -0.231  -6.477  1.00  0.00    -0.237 OA
ATOM     93  O   UNL     1     -15.122  -1.544  -7.289  1.00  0.00    -0.744 OA
ENDBRANCH  89  90
ENDBRANCH  63  84
ENDBRANCH  37  38
ENDBRANCH  30  32
ENDBRANCH  29  30
ENDBRANCH  28  29
ENDBRANCH   1  28
TORSDOF 17
