REMARK SMILES Cc1cc(C)cc(-c2ccc([C@@H](C)C(=O)OCCOC(=O)c3ccc(-c4c5nc(c(-c6ccc(S(=O)(=O)[O-])cc6)c6ccc([nH]6)c(-c6ccc(S(=O)(=O)[O-])cc6)c6nc(c(-c7ccc(S(=O)(=O)[O-])cc7)c7ccc4[nH]7)C=C6)C=C5)cc3)cc2F)c1
REMARK SMILES IDX 18 1 17 2 16 3 14 4 15 5 12 6 13 7 11 8 8 9 9 10 83 11 10 12
REMARK SMILES IDX 82 13 84 14 7 15 1 16 2 17 3 18 85 19 4 20 5 21 6 22 19 23
REMARK SMILES IDX 20 24 21 25 22 26 23 27 81 28 24 29 80 30 25 31 26 32 27 33
REMARK SMILES IDX 74 34 28 35 79 36 73 37 75 38 29 39 78 40 72 41 71 42 30 44
REMARK SMILES IDX 60 45 41 46 59 47 42 48 45 49 58 50 76 51 43 52 44 53 57 55
REMARK SMILES IDX 77 56 46 57 31 58 32 59 40 60 33 61 39 62 34 63 35 64 36 65
REMARK SMILES IDX 37 66 38 67 61 68 62 69 70 70 63 71 69 72 64 73 65 74 66 75
REMARK SMILES IDX 67 76 68 77 47 78 48 79 56 80 49 81 55 82 50 83 51 84 52 85
REMARK SMILES IDX 53 86 54 87
REMARK H PARENT 75 43 45 54
REMARK Flexibility Score: inf
ROOT
ATOM      1  C   UNL     1       2.499  -7.777  -3.450  1.00  0.00     0.275 C 
ENDROOT
BRANCH   1   2
ATOM      2  C   UNL     1       1.046  -8.260  -3.428  1.00  0.00     0.274 C 
BRANCH   2   3
ATOM      3  O   UNL     1       0.286  -7.600  -2.398  1.00  0.00    -0.462 OA
BRANCH   3   4
ATOM      4  C   UNL     1       0.060  -8.307  -1.259  1.00  0.00     0.313 C 
ATOM      5  O   UNL     1       0.397  -9.475  -1.097  1.00  0.00    -0.252 OA
BRANCH   4   6
ATOM      6  C   UNL     1      -0.720  -7.536  -0.200  1.00  0.00     0.126 C 
ATOM      7  C   UNL     1      -2.192  -7.945  -0.246  1.00  0.00     0.025 C 
BRANCH   6   8
ATOM      8  C   UNL     1      -0.537  -6.025  -0.202  1.00  0.00    -0.031 A 
ATOM      9  C   UNL     1      -0.222  -3.195  -0.127  1.00  0.00     0.017 A 
ATOM     10  C   UNL     1      -0.933  -3.822  -1.163  1.00  0.00     0.012 A 
ATOM     11  C   UNL     1       0.346  -4.016   0.853  1.00  0.00     0.131 A 
ATOM     12  C   UNL     1      -1.090  -5.213  -1.201  1.00  0.00     0.005 A 
ATOM     13  C   UNL     1       0.188  -5.403   0.826  1.00  0.00     0.044 A 
ATOM     14  F   UNL     1       1.031  -3.479   1.875  1.00  0.00    -0.206 F 
BRANCH   9  15
ATOM     15  C   UNL     1      -0.125  -1.729  -0.069  1.00  0.00    -0.015 A 
ATOM     16  C   UNL     1       2.521   1.025   0.055  1.00  0.00     0.044 C 
ATOM     17  C   UNL     1       1.193   0.327   0.014  1.00  0.00    -0.050 A 
ATOM     18  C   UNL     1       0.012   1.080   0.020  1.00  0.00     0.006 A 
ATOM     19  C   UNL     1       1.115  -1.073  -0.026  1.00  0.00     0.012 A 
ATOM     20  C   UNL     1      -1.237   0.451  -0.009  1.00  0.00    -0.050 A 
ATOM     21  C   UNL     1      -2.494   1.267   0.007  1.00  0.00     0.044 C 
ATOM     22  C   UNL     1      -1.293  -0.947  -0.057  1.00  0.00     0.012 A 
ENDBRANCH   9  15
ENDBRANCH   6   8
ENDBRANCH   4   6
ENDBRANCH   3   4
ENDBRANCH   2   3
ENDBRANCH   1   2
BRANCH   1  23
ATOM     23  O   UNL     1       3.214  -8.207  -2.278  1.00  0.00    -0.458 OA
BRANCH  23  24
ATOM     24  C   UNL     1       3.264  -7.297  -1.278  1.00  0.00     0.338 C 
ATOM     25  O   UNL     1       2.820  -6.163  -1.290  1.00  0.00    -0.246 OA
BRANCH  24  26
ATOM     26  C   UNL     1       3.835  -7.917  -0.073  1.00  0.00     0.060 A 
ATOM     27  C   UNL     1       3.001  -8.070   1.036  1.00  0.00     0.016 A 
ATOM     28  C   UNL     1       5.186  -8.255   0.004  1.00  0.00     0.016 A 
ATOM     29  C   UNL     1       3.515  -8.537   2.240  1.00  0.00     0.010 A 
ATOM     30  C   UNL     1       5.702  -8.737   1.214  1.00  0.00     0.010 A 
ATOM     31  C   UNL     1       4.873  -8.862   2.343  1.00  0.00    -0.014 A 
BRANCH  31  32
ATOM     32  C   UNL     1       5.418  -9.282   3.656  1.00  0.00     0.031 A 
ATOM     33  C   UNL     1       6.250  -8.326   4.464  1.00  0.00     0.074 A 
ATOM     34  C   UNL     1       5.120 -10.501   4.144  1.00  0.00     0.049 A 
ATOM     35  N   UNL     1       6.824  -8.511   5.625  1.00  0.00    -0.248 NA
ATOM     36  C   UNL     1       6.463  -6.987   3.891  1.00  0.00     0.031 C 
ATOM     37  C   UNL     1       4.284 -11.498   3.474  1.00  0.00     0.029 A 
ATOM     38  N   UNL     1       5.478 -11.101   5.324  1.00  0.00    -0.354 N 
ATOM     39  C   UNL     1       7.480  -7.320   5.916  1.00  0.00     0.074 A 
ATOM     40  C   UNL     1       7.247  -6.426   4.802  1.00  0.00     0.031 C 
ATOM     41  C   UNL     1       4.182 -12.582   4.262  1.00  0.00     0.029 A 
ATOM     42  C   UNL     1       4.974 -12.371   5.470  1.00  0.00     0.049 A 
ATOM     43  H   UNL     1       6.043 -10.664   6.002  1.00  0.00     0.167 HD
ATOM     44  C   UNL     1       8.209  -7.001   7.013  1.00  0.00     0.031 A 
ATOM     45  C   UNL     1       5.143 -13.270   6.458  1.00  0.00     0.031 A 
ATOM     46  C   UNL     1       8.440  -7.891   8.120  1.00  0.00     0.049 A 
ATOM     47  C   UNL     1       5.993 -12.908   7.644  1.00  0.00     0.074 A 
ATOM     48  C   UNL     1       9.168  -7.661   9.274  1.00  0.00     0.029 A 
ATOM     49  N   UNL     1       7.944  -9.183   8.213  1.00  0.00    -0.354 N 
ATOM     50  N   UNL     1       6.618 -11.782   7.897  1.00  0.00    -0.248 NA
ATOM     51  C   UNL     1       6.159 -13.937   8.680  1.00  0.00     0.031 C 
ATOM     52  C   UNL     1       9.143  -8.827  10.049  1.00  0.00     0.029 A 
ATOM     53  C   UNL     1       8.362  -9.768   9.396  1.00  0.00     0.049 A 
ATOM     54  H   UNL     1       7.378  -9.620   7.536  1.00  0.00     0.167 HD
ATOM     55  C   UNL     1       7.240 -11.963   9.126  1.00  0.00     0.074 A 
ATOM     56  C   UNL     1       6.901 -13.299   9.575  1.00  0.00     0.031 C 
ATOM     57  C   UNL     1       8.023 -11.102   9.822  1.00  0.00     0.031 A 
BRANCH  44  58
ATOM     58  C   UNL     1       8.844  -5.638   7.045  1.00  0.00    -0.014 A 
ATOM     59  C   UNL     1       8.078  -4.482   7.283  1.00  0.00     0.010 A 
ATOM     60  C   UNL     1      10.232  -5.513   6.855  1.00  0.00     0.010 A 
ATOM     61  C   UNL     1       8.684  -3.223   7.290  1.00  0.00     0.020 A 
ATOM     62  C   UNL     1      10.845  -4.257   6.883  1.00  0.00     0.020 A 
ATOM     63  C   UNL     1      10.063  -3.118   7.082  1.00  0.00     0.054 A 
BRANCH  63  64
ATOM     64  S   UNL     1      10.830  -1.473   7.105  1.00  0.00     0.124 S 
ATOM     65  O   UNL     1      10.449  -0.947   5.797  1.00  0.00    -0.237 OA
ATOM     66  O   UNL     1      10.189  -0.832   8.250  1.00  0.00    -0.237 OA
ATOM     67  O   UNL     1      12.253  -1.758   7.272  1.00  0.00    -0.744 OA
ENDBRANCH  63  64
ENDBRANCH  44  58
BRANCH  45  68
ATOM     68  C   UNL     1       4.506 -14.609   6.356  1.00  0.00    -0.014 A 
ATOM     69  C   UNL     1       3.415 -14.949   7.174  1.00  0.00     0.010 A 
ATOM     70  C   UNL     1       4.982 -15.549   5.423  1.00  0.00     0.010 A 
ATOM     71  C   UNL     1       2.817 -16.208   7.068  1.00  0.00     0.020 A 
ATOM     72  C   UNL     1       4.372 -16.799   5.298  1.00  0.00     0.020 A 
ATOM     73  C   UNL     1       3.299 -17.125   6.130  1.00  0.00     0.054 A 
BRANCH  73  74
ATOM     74  S   UNL     1       2.472 -18.732   5.962  1.00  0.00     0.124 S 
ATOM     75  O   UNL     1       3.012 -19.471   7.098  1.00  0.00    -0.237 OA
ATOM     76  O   UNL     1       1.058 -18.375   6.053  1.00  0.00    -0.237 OA
ATOM     77  O   UNL     1       2.903 -19.199   4.646  1.00  0.00    -0.744 OA
ENDBRANCH  73  74
ENDBRANCH  45  68
BRANCH  57  78
ATOM     78  C   UNL     1       8.548 -11.574  11.150  1.00  0.00    -0.014 A 
ATOM     79  C   UNL     1       9.595 -12.509  11.224  1.00  0.00     0.010 A 
ATOM     80  C   UNL     1       8.004 -11.055  12.338  1.00  0.00     0.010 A 
ATOM     81  C   UNL     1      10.065 -12.945  12.466  1.00  0.00     0.020 A 
ATOM     82  C   UNL     1       8.486 -11.472  13.581  1.00  0.00     0.020 A 
ATOM     83  C   UNL     1       9.502 -12.428  13.637  1.00  0.00     0.054 A 
BRANCH  83  84
ATOM     84  S   UNL     1      10.142 -12.988  15.240  1.00  0.00     0.124 S 
ATOM     85  O   UNL     1       9.493 -14.288  15.387  1.00  0.00    -0.237 OA
ATOM     86  O   UNL     1      11.585 -13.028  15.018  1.00  0.00    -0.237 OA
ATOM     87  O   UNL     1       9.690 -11.956  16.170  1.00  0.00    -0.744 OA
ENDBRANCH  83  84
ENDBRANCH  57  78
ENDBRANCH  31  32
ENDBRANCH  24  26
ENDBRANCH  23  24
ENDBRANCH   1  23
TORSDOF 16
