REMARK SMILES [NH3+][C@H](CSCc1ccco1)C(=O)OCCOC(=O)c1ccc(-c2c3nc(c(-c4ccc(S(=O)(=O)[O-])cc4)c4ccc([nH]4)c(-c4ccc(S(=O)(=O)[O-])cc4)c4nc(c(-c5ccc(S(=O)(=O)[O-])cc5)c5ccc2[nH]5)C=C4)C=C3)cc1
REMARK SMILES IDX 14 1 13 2 11 3 12 4 2 5 1 6 3 10 4 11 5 12 6 13 7 14 10 15
REMARK SMILES IDX 8 16 9 17 15 18 16 19 17 20 18 21 19 22 20 23 78 24 21 25
REMARK SMILES IDX 77 26 22 27 23 28 24 29 71 30 25 31 76 32 70 33 72 34 26 35
REMARK SMILES IDX 75 36 69 37 68 38 27 40 57 41 38 42 56 43 39 44 42 45 55 46
REMARK SMILES IDX 73 47 40 48 41 49 54 51 74 52 43 53 28 54 29 55 37 56 30 57
REMARK SMILES IDX 36 58 31 59 32 60 33 61 34 62 35 63 58 64 59 65 67 66 60 67
REMARK SMILES IDX 66 68 61 69 62 70 63 71 64 72 65 73 44 74 45 75 53 76 46 77
REMARK SMILES IDX 52 78 47 79 48 80 49 81 50 82 51 83
REMARK H PARENT 1 7 1 8 1 9 72 39 42 50
REMARK Flexibility Score: inf
ROOT
ATOM      1  C   UNL     1      -3.364  -1.846  -0.729  1.00  0.00     0.274 C 
ENDROOT
BRANCH   1   2
ATOM      2  O   UNL     1      -2.044  -1.510  -0.254  1.00  0.00    -0.458 OA
BRANCH   2   3
ATOM      3  C   UNL     1      -1.033  -1.790  -1.122  1.00  0.00     0.365 C 
ATOM      4  O   UNL     1      -1.205  -2.292  -2.230  1.00  0.00    -0.245 OA
BRANCH   3   5
ATOM      5  C   UNL     1       0.365  -1.449  -0.585  1.00  0.00     0.301 C 
BRANCH   5   6
ATOM      6  N   UNL     1       1.039  -2.678  -0.098  1.00  0.00    -0.345 N 
ATOM      7  H   UNL     1       0.937  -3.419  -0.792  1.00  0.00     0.345 HD
ATOM      8  H   UNL     1       0.615  -2.974   0.781  1.00  0.00     0.345 HD
ATOM      9  H   UNL     1       2.030  -2.486   0.051  1.00  0.00     0.345 HD
ENDBRANCH   5   6
BRANCH   5  10
ATOM     10  C   UNL     1       0.444  -0.242   0.373  1.00  0.00     0.147 C 
BRANCH  10  11
ATOM     11  S   UNL     1       0.687  -0.636   2.157  1.00  0.00    -0.147 SA
BRANCH  11  12
ATOM     12  C   UNL     1      -1.010  -0.492   2.798  1.00  0.00     0.145 C 
BRANCH  12  13
ATOM     13  C   UNL     1      -1.614   0.850   2.619  1.00  0.00     0.113 A 
ATOM     14  C   UNL     1      -2.673   1.300   1.861  1.00  0.00     0.046 A 
ATOM     15  O   UNL     1      -1.080   1.891   3.324  1.00  0.00    -0.468 OA
ATOM     16  C   UNL     1      -2.751   2.696   2.053  1.00  0.00     0.042 A 
ATOM     17  C   UNL     1      -1.767   3.006   2.961  1.00  0.00     0.195 A 
ENDBRANCH  12  13
ENDBRANCH  11  12
ENDBRANCH  10  11
ENDBRANCH   5  10
ENDBRANCH   3   5
ENDBRANCH   2   3
ENDBRANCH   1   2
BRANCH   1  18
ATOM     18  C   UNL     1      -4.092  -0.666  -1.382  1.00  0.00     0.275 C 
BRANCH  18  19
ATOM     19  O   UNL     1      -3.394  -0.137  -2.518  1.00  0.00    -0.458 OA
BRANCH  19  20
ATOM     20  C   UNL     1      -2.534   0.869  -2.240  1.00  0.00     0.338 C 
ATOM     21  O   UNL     1      -2.268   1.345  -1.152  1.00  0.00    -0.246 OA
BRANCH  20  22
ATOM     22  C   UNL     1      -1.912   1.336  -3.474  1.00  0.00     0.060 A 
ATOM     23  C   UNL     1      -0.673   0.817  -3.858  1.00  0.00     0.016 A 
ATOM     24  C   UNL     1      -2.541   2.344  -4.204  1.00  0.00     0.016 A 
ATOM     25  C   UNL     1      -0.061   1.299  -5.010  1.00  0.00     0.010 A 
ATOM     26  C   UNL     1      -1.941   2.802  -5.370  1.00  0.00     0.010 A 
ATOM     27  C   UNL     1      -0.706   2.273  -5.784  1.00  0.00    -0.014 A 
BRANCH  27  28
ATOM     28  C   UNL     1      -0.163   2.680  -7.095  1.00  0.00     0.031 A 
ATOM     29  C   UNL     1       0.397   4.054  -7.287  1.00  0.00     0.074 A 
ATOM     30  C   UNL     1      -0.300   1.825  -8.125  1.00  0.00     0.049 A 
ATOM     31  N   UNL     1       0.736   4.654  -8.396  1.00  0.00    -0.248 NA
ATOM     32  C   UNL     1       0.585   4.866  -6.074  1.00  0.00     0.031 C 
ATOM     33  C   UNL     1      -0.844   0.468  -8.024  1.00  0.00     0.029 A 
ATOM     34  N   UNL     1      -0.034   1.982  -9.459  1.00  0.00    -0.354 N 
ATOM     35  C   UNL     1       1.151   5.926  -8.024  1.00  0.00     0.074 A 
ATOM     36  C   UNL     1       1.016   6.012  -6.585  1.00  0.00     0.031 C 
ATOM     37  C   UNL     1      -0.896  -0.075  -9.249  1.00  0.00     0.029 A 
ATOM     38  C   UNL     1      -0.440   0.912 -10.220  1.00  0.00     0.049 A 
ATOM     39  H   UNL     1       0.404   2.779  -9.835  1.00  0.00     0.167 HD
ATOM     40  C   UNL     1       1.592   6.929  -8.821  1.00  0.00     0.031 A 
ATOM     41  C   UNL     1      -0.486   0.760 -11.556  1.00  0.00     0.031 A 
ATOM     42  C   UNL     1       1.695   6.819 -10.253  1.00  0.00     0.049 A 
ATOM     43  C   UNL     1      -0.013   1.891 -12.421  1.00  0.00     0.074 A 
ATOM     44  C   UNL     1       2.157   7.755 -11.160  1.00  0.00     0.029 A 
ATOM     45  N   UNL     1       1.315   5.702 -10.987  1.00  0.00    -0.354 N 
ATOM     46  N   UNL     1       0.416   3.076 -12.055  1.00  0.00    -0.248 NA
ATOM     47  C   UNL     1      -0.023   1.668 -13.871  1.00  0.00     0.031 C 
ATOM     48  C   UNL     1       2.015   7.221 -12.446  1.00  0.00     0.029 A 
ATOM     49  C   UNL     1       1.511   5.933 -12.337  1.00  0.00     0.049 A 
ATOM     50  H   UNL     1       0.960   4.869 -10.602  1.00  0.00     0.167 HD
ATOM     51  C   UNL     1       0.743   3.739 -13.230  1.00  0.00     0.074 A 
ATOM     52  C   UNL     1       0.471   2.817 -14.317  1.00  0.00     0.031 C 
ATOM     53  C   UNL     1       1.226   4.994 -13.395  1.00  0.00     0.031 A 
BRANCH  40  54
ATOM     54  C   UNL     1       1.941   8.236  -8.161  1.00  0.00    -0.014 A 
ATOM     55  C   UNL     1       3.088   8.368  -7.358  1.00  0.00     0.010 A 
ATOM     56  C   UNL     1       1.106   9.354  -8.347  1.00  0.00     0.010 A 
ATOM     57  C   UNL     1       3.364   9.576  -6.710  1.00  0.00     0.020 A 
ATOM     58  C   UNL     1       1.391  10.570  -7.720  1.00  0.00     0.020 A 
ATOM     59  C   UNL     1       2.506  10.666  -6.885  1.00  0.00     0.054 A 
BRANCH  59  60
ATOM     60  S   UNL     1       2.873  12.218  -6.018  1.00  0.00     0.124 S 
ATOM     61  O   UNL     1       2.455  11.905  -4.654  1.00  0.00    -0.237 OA
ATOM     62  O   UNL     1       4.313  12.366  -6.214  1.00  0.00    -0.237 OA
ATOM     63  O   UNL     1       2.049  13.205  -6.711  1.00  0.00    -0.744 OA
ENDBRANCH  59  60
ENDBRANCH  40  54
BRANCH  41  64
ATOM     64  C   UNL     1      -1.028  -0.501 -12.125  1.00  0.00    -0.014 A 
ATOM     65  C   UNL     1      -0.166  -1.470 -12.664  1.00  0.00     0.010 A 
ATOM     66  C   UNL     1      -2.405  -0.780 -12.039  1.00  0.00     0.010 A 
ATOM     67  C   UNL     1      -0.670  -2.698 -13.103  1.00  0.00     0.020 A 
ATOM     68  C   UNL     1      -2.909  -2.015 -12.456  1.00  0.00     0.020 A 
ATOM     69  C   UNL     1      -2.038  -2.966 -12.988  1.00  0.00     0.054 A 
BRANCH  69  70
ATOM     70  S   UNL     1      -2.655  -4.603 -13.473  1.00  0.00     0.124 S 
ATOM     71  O   UNL     1      -2.654  -4.508 -14.929  1.00  0.00    -0.237 OA
ATOM     72  O   UNL     1      -1.659  -5.502 -12.896  1.00  0.00    -0.237 OA
ATOM     73  O   UNL     1      -3.975  -4.668 -12.849  1.00  0.00    -0.744 OA
ENDBRANCH  69  70
ENDBRANCH  41  64
BRANCH  53  74
ATOM     74  C   UNL     1       1.516   5.435 -14.801  1.00  0.00    -0.014 A 
ATOM     75  C   UNL     1       0.477   5.824 -15.664  1.00  0.00     0.010 A 
ATOM     76  C   UNL     1       2.850   5.536 -15.233  1.00  0.00     0.010 A 
ATOM     77  C   UNL     1       0.770   6.299 -16.945  1.00  0.00     0.020 A 
ATOM     78  C   UNL     1       3.147   6.030 -16.504  1.00  0.00     0.020 A 
ATOM     79  C   UNL     1       2.104   6.402 -17.355  1.00  0.00     0.054 A 
BRANCH  79  80
ATOM     80  S   UNL     1       2.463   7.093 -18.993  1.00  0.00     0.124 S 
ATOM     81  O   UNL     1       2.130   5.976 -19.873  1.00  0.00    -0.237 OA
ATOM     82  O   UNL     1       1.561   8.240 -19.063  1.00  0.00    -0.237 OA
ATOM     83  O   UNL     1       3.884   7.429 -18.921  1.00  0.00    -0.744 OA
ENDBRANCH  79  80
ENDBRANCH  53  74
ENDBRANCH  27  28
ENDBRANCH  20  22
ENDBRANCH  19  20
ENDBRANCH  18  19
ENDBRANCH   1  18
TORSDOF 19
