REMARK SMILES C[C@@H](Sc1nc2ccccc2c(=O)n1N)C(=O)OCCOC(=O)c1ccc(-c2c3nc(c(-c4ccc(S(=O)(=O)[O-])cc4)c4ccc([nH]4)c(-c4ccc(S(=O)(=O)[O-])cc4)c4nc(c(-c5ccc(S(=O)(=O)[O-])cc5)c5ccc2[nH]5)C=C4)C=C3)cc1
REMARK SMILES IDX 19 1 18 2 16 3 17 4 2 5 1 6 3 7 4 8 5 9 14 10 6 11 12 12
REMARK SMILES IDX 7 13 11 14 13 15 8 16 10 17 9 18 15 19 20 22 21 23 22 24
REMARK SMILES IDX 23 25 24 26 25 27 83 28 26 29 82 30 27 31 28 32 29 33 76 34
REMARK SMILES IDX 30 35 81 36 75 37 77 38 31 39 80 40 74 41 73 42 32 44 62 45
REMARK SMILES IDX 43 46 61 47 44 48 47 49 60 50 78 51 45 52 46 53 59 55 79 56
REMARK SMILES IDX 48 57 33 58 34 59 42 60 35 61 41 62 36 63 37 64 38 65 39 66
REMARK SMILES IDX 40 67 63 68 64 69 72 70 65 71 71 72 66 73 67 74 68 75 69 76
REMARK SMILES IDX 70 77 49 78 50 79 58 80 51 81 57 82 52 83 53 84 54 85 55 86
REMARK SMILES IDX 56 87
REMARK H PARENT 15 20 15 21 77 43 47 54
REMARK Flexibility Score: inf
ROOT
ATOM      1  C   UNL     1      -3.013   1.093  -0.649  1.00  0.00     0.274 C 
ENDROOT
BRANCH   1   2
ATOM      2  O   UNL     1      -1.596   0.950  -0.861  1.00  0.00    -0.461 OA
BRANCH   2   3
ATOM      3  C   UNL     1      -0.798   1.844  -0.214  1.00  0.00     0.319 C 
ATOM      4  O   UNL     1      -1.223   2.757   0.487  1.00  0.00    -0.251 OA
BRANCH   3   5
ATOM      5  C   UNL     1       0.691   1.602  -0.451  1.00  0.00     0.161 C 
ATOM      6  C   UNL     1       1.033   0.241  -1.043  1.00  0.00     0.032 C 
BRANCH   5   7
ATOM      7  S   UNL     1       1.315   2.971  -1.488  1.00  0.00    -0.071 SA
BRANCH   7   8
ATOM      8  C   UNL     1       3.039   2.793  -1.244  1.00  0.00     0.191 A 
ATOM      9  N   UNL     1       3.731   2.408  -2.268  1.00  0.00    -0.222 NA
ATOM     10  N   UNL     1       3.597   3.119  -0.010  1.00  0.00    -0.202 N 
ATOM     11  C   UNL     1       5.123   2.328  -2.134  1.00  0.00     0.079 A 
ATOM     12  C   UNL     1       4.975   3.054   0.208  1.00  0.00     0.280 A 
ATOM     13  C   UNL     1       5.880   1.948  -3.245  1.00  0.00     0.029 A 
ATOM     14  C   UNL     1       5.788   2.638  -0.947  1.00  0.00     0.068 A 
ATOM     15  O   UNL     1       5.508   3.334   1.281  1.00  0.00    -0.267 OA
ATOM     16  C   UNL     1       7.275   1.885  -3.171  1.00  0.00     0.002 A 
ATOM     17  C   UNL     1       7.184   2.574  -0.859  1.00  0.00     0.016 A 
ATOM     18  C   UNL     1       7.926   2.198  -1.978  1.00  0.00     0.001 A 
BRANCH  10  19
ATOM     19  N   UNL     1       2.795   3.535   1.104  1.00  0.00    -0.334 N 
ATOM     20  H   UNL     1       1.817   3.600   1.010  1.00  0.00     0.178 HD
ATOM     21  H   UNL     1       3.222   3.756   1.963  1.00  0.00     0.178 HD
ENDBRANCH  10  19
ENDBRANCH   7   8
ENDBRANCH   5   7
ENDBRANCH   3   5
ENDBRANCH   2   3
ENDBRANCH   1   2
BRANCH   1  22
ATOM     22  C   UNL     1      -3.537   0.132   0.423  1.00  0.00     0.275 C 
BRANCH  22  23
ATOM     23  O   UNL     1      -3.087   0.484   1.745  1.00  0.00    -0.458 OA
BRANCH  23  24
ATOM     24  C   UNL     1      -1.906  -0.068   2.108  1.00  0.00     0.338 C 
ATOM     25  O   UNL     1      -1.222  -0.834   1.449  1.00  0.00    -0.246 OA
BRANCH  24  26
ATOM     26  C   UNL     1      -1.451   0.487   3.393  1.00  0.00     0.060 A 
ATOM     27  C   UNL     1      -0.177   1.060   3.434  1.00  0.00     0.016 A 
ATOM     28  C   UNL     1      -2.209   0.362   4.559  1.00  0.00     0.016 A 
ATOM     29  C   UNL     1       0.358   1.493   4.642  1.00  0.00     0.010 A 
ATOM     30  C   UNL     1      -1.669   0.796   5.776  1.00  0.00     0.010 A 
ATOM     31  C   UNL     1      -0.376   1.346   5.825  1.00  0.00    -0.014 A 
BRANCH  31  32
ATOM     32  C   UNL     1       0.259   1.704   7.114  1.00  0.00     0.031 A 
ATOM     33  C   UNL     1       0.796   0.622   8.007  1.00  0.00     0.074 A 
ATOM     34  C   UNL     1       0.406   2.998   7.452  1.00  0.00     0.049 A 
ATOM     35  N   UNL     1       1.382   0.727   9.171  1.00  0.00    -0.248 NA
ATOM     36  C   UNL     1       0.660  -0.761   7.522  1.00  0.00     0.031 C 
ATOM     37  C   UNL     1      -0.024   4.138   6.641  1.00  0.00     0.029 A 
ATOM     38  N   UNL     1       0.972   3.571   8.563  1.00  0.00    -0.354 N 
ATOM     39  C   UNL     1       1.671  -0.573   9.568  1.00  0.00     0.074 A 
ATOM     40  C   UNL     1       1.182  -1.451   8.527  1.00  0.00     0.031 C 
ATOM     41  C   UNL     1       0.306   5.275   7.276  1.00  0.00     0.029 A 
ATOM     42  C   UNL     1       0.935   4.944   8.552  1.00  0.00     0.049 A 
ATOM     43  H   UNL     1       1.367   3.047   9.297  1.00  0.00     0.167 HD
ATOM     44  C   UNL     1       2.288  -0.996  10.697  1.00  0.00     0.031 A 
ATOM     45  C   UNL     1       1.349   5.834   9.474  1.00  0.00     0.031 A 
ATOM     46  C   UNL     1       2.771  -0.122  11.733  1.00  0.00     0.049 A 
ATOM     47  C   UNL     1       1.978   5.337  10.746  1.00  0.00     0.074 A 
ATOM     48  C   UNL     1       3.406  -0.455  12.916  1.00  0.00     0.029 A 
ATOM     49  N   UNL     1       2.671   1.261  11.708  1.00  0.00    -0.354 N 
ATOM     50  N   UNL     1       2.233   4.103  11.111  1.00  0.00    -0.248 NA
ATOM     51  C   UNL     1       2.376   6.354  11.729  1.00  0.00     0.031 C 
ATOM     52  C   UNL     1       3.656   0.726  13.626  1.00  0.00     0.029 A 
ATOM     53  C   UNL     1       3.216   1.796  12.863  1.00  0.00     0.049 A 
ATOM     54  H   UNL     1       2.271   1.786  10.977  1.00  0.00     0.167 HD
ATOM     55  C   UNL     1       2.838   4.196  12.360  1.00  0.00     0.074 A 
ATOM     56  C   UNL     1       2.922   5.607  12.680  1.00  0.00     0.031 C 
ATOM     57  C   UNL     1       3.285   3.203  13.167  1.00  0.00     0.031 A 
BRANCH  44  58
ATOM     58  C   UNL     1       2.433  -2.482  10.885  1.00  0.00    -0.014 A 
ATOM     59  C   UNL     1       3.376  -3.222  10.150  1.00  0.00     0.010 A 
ATOM     60  C   UNL     1       1.616  -3.146  11.818  1.00  0.00     0.010 A 
ATOM     61  C   UNL     1       3.469  -4.607  10.313  1.00  0.00     0.020 A 
ATOM     62  C   UNL     1       1.721  -4.527  11.999  1.00  0.00     0.020 A 
ATOM     63  C   UNL     1       2.633  -5.252  11.229  1.00  0.00     0.054 A 
BRANCH  63  64
ATOM     64  S   UNL     1       2.767  -7.051  11.422  1.00  0.00     0.124 S 
ATOM     65  O   UNL     1       2.060  -7.533  10.238  1.00  0.00    -0.237 OA
ATOM     66  O   UNL     1       4.211  -7.271  11.424  1.00  0.00    -0.237 OA
ATOM     67  O   UNL     1       2.099  -7.313  12.695  1.00  0.00    -0.744 OA
ENDBRANCH  63  64
ENDBRANCH  44  58
BRANCH  45  68
ATOM     68  C   UNL     1       1.165   7.290   9.231  1.00  0.00    -0.014 A 
ATOM     69  C   UNL     1       2.269   8.112   8.948  1.00  0.00     0.010 A 
ATOM     70  C   UNL     1      -0.122   7.856   9.269  1.00  0.00     0.010 A 
ATOM     71  C   UNL     1       2.090   9.479   8.715  1.00  0.00     0.020 A 
ATOM     72  C   UNL     1      -0.307   9.217   9.015  1.00  0.00     0.020 A 
ATOM     73  C   UNL     1       0.802  10.023   8.750  1.00  0.00     0.054 A 
BRANCH  73  74
ATOM     74  S   UNL     1       0.581  11.787   8.386  1.00  0.00     0.124 S 
ATOM     75  O   UNL     1       0.986  12.408   9.642  1.00  0.00    -0.237 OA
ATOM     76  O   UNL     1       1.484  11.995   7.256  1.00  0.00    -0.237 OA
ATOM     77  O   UNL     1      -0.840  11.891   8.062  1.00  0.00    -0.744 OA
ENDBRANCH  73  74
ENDBRANCH  45  68
BRANCH  57  78
ATOM     78  C   UNL     1       3.928   3.611  14.464  1.00  0.00    -0.014 A 
ATOM     79  C   UNL     1       3.154   4.061  15.548  1.00  0.00     0.010 A 
ATOM     80  C   UNL     1       5.323   3.509  14.610  1.00  0.00     0.010 A 
ATOM     81  C   UNL     1       3.769   4.433  16.747  1.00  0.00     0.020 A 
ATOM     82  C   UNL     1       5.939   3.860  15.814  1.00  0.00     0.020 A 
ATOM     83  C   UNL     1       5.158   4.335  16.870  1.00  0.00     0.054 A 
BRANCH  83  84
ATOM     84  S   UNL     1       5.935   4.791  18.445  1.00  0.00     0.124 S 
ATOM     85  O   UNL     1       5.949   6.249  18.365  1.00  0.00    -0.237 OA
ATOM     86  O   UNL     1       5.020   4.225  19.434  1.00  0.00    -0.237 OA
ATOM     87  O   UNL     1       7.246   4.149  18.381  1.00  0.00    -0.744 OA
ENDBRANCH  83  84
ENDBRANCH  57  78
ENDBRANCH  31  32
ENDBRANCH  24  26
ENDBRANCH  23  24
ENDBRANCH  22  23
ENDBRANCH   1  22
TORSDOF 17
