REMARK SMILES COc1cc(C)cc2c1O[C@H](C(F)(F)F)C(C(=O)OCCOC(=O)c1ccc(-c3c4nc(c(-c5ccc(S(=O)(=O)[O-])cc5)c5ccc([nH]5)c(-c5ccc(S(=O)(=O)[O-])cc5)c5nc(c(-c6ccc(S(=O)(=O)[O-])cc6)c6ccc3[nH]6)C=C5)C=C4)cc1)=C2
REMARK SMILES IDX 21 1 20 2 19 3 17 4 18 5 16 6 3 7 4 8 9 9 5 10 8 11 10 12
REMARK SMILES IDX 6 13 7 14 85 15 11 16 2 17 1 18 12 19 13 20 14 21 15 22
REMARK SMILES IDX 22 23 23 24 24 25 25 26 26 27 84 28 27 29 83 30 28 31 29 32
REMARK SMILES IDX 30 33 77 34 31 35 82 36 76 37 78 38 32 39 81 40 75 41 74 42
REMARK SMILES IDX 33 44 63 45 44 46 62 47 45 48 48 49 61 50 79 51 46 52 47 53
REMARK SMILES IDX 60 55 80 56 49 57 34 58 35 59 43 60 36 61 42 62 37 63 38 64
REMARK SMILES IDX 39 65 40 66 41 67 64 68 65 69 73 70 66 71 72 72 67 73 68 74
REMARK SMILES IDX 69 75 70 76 71 77 50 78 51 79 59 80 52 81 58 82 53 83 54 84
REMARK SMILES IDX 55 85 56 86 57 87
REMARK H PARENT 78 43 48 54
REMARK Flexibility Score: inf
ROOT
ATOM      1  C   UNL     1      -5.330   1.171   7.703  1.00  0.00     0.275 C 
ENDROOT
BRANCH   1   2
ATOM      2  C   UNL     1      -5.125   2.248   6.636  1.00  0.00     0.275 C 
BRANCH   2   3
ATOM      3  O   UNL     1      -4.140   1.851   5.656  1.00  0.00    -0.459 OA
BRANCH   3   4
ATOM      4  C   UNL     1      -2.932   2.451   5.768  1.00  0.00     0.338 C 
ATOM      5  O   UNL     1      -2.611   3.282   6.604  1.00  0.00    -0.246 OA
BRANCH   4   6
ATOM      6  C   UNL     1      -1.996   1.944   4.746  1.00  0.00     0.087 C 
ATOM      7  C   UNL     1       0.865   0.887   1.878  1.00  0.00     0.161 A 
ATOM      8  C   UNL     1       2.175   0.605   2.296  1.00  0.00     0.054 A 
ATOM      9  C   UNL     1      -0.123   1.205   2.818  1.00  0.00     0.169 A 
ATOM     10  C   UNL     1       2.502   0.584   3.656  1.00  0.00    -0.047 A 
ATOM     11  C   UNL     1       0.211   1.205   4.169  1.00  0.00     0.021 A 
ATOM     12  O   UNL     1      -1.389   1.474   2.367  1.00  0.00    -0.471 OA
ATOM     13  C   UNL     1       3.893   0.284   4.133  1.00  0.00     0.044 C 
ATOM     14  C   UNL     1       1.506   0.876   4.589  1.00  0.00     0.015 A 
ATOM     15  C   UNL     1      -0.774   1.591   5.154  1.00  0.00     0.027 C 
ATOM     16  C   UNL     1      -2.389   1.980   3.298  1.00  0.00     0.316 C 
BRANCH   7  17
ATOM     17  O   UNL     1       0.520   0.948   0.550  1.00  0.00    -0.493 OA
ATOM     18  C   UNL     1       0.979  -0.172  -0.199  1.00  0.00     0.278 C 
ENDBRANCH   7  17
BRANCH  16  19
ATOM     19  C   UNL     1      -2.790   3.400   2.867  1.00  0.00     0.430 C 
ATOM     20  F   UNL     1      -3.141   3.442   1.559  1.00  0.00    -0.167 F 
ATOM     21  F   UNL     1      -3.867   3.844   3.562  1.00  0.00    -0.167 F 
ATOM     22  F   UNL     1      -1.795   4.296   3.051  1.00  0.00    -0.167 F 
ENDBRANCH  16  19
ENDBRANCH   4   6
ENDBRANCH   3   4
ENDBRANCH   2   3
ENDBRANCH   1   2
BRANCH   1  23
ATOM     23  O   UNL     1      -4.171   1.063   8.548  1.00  0.00    -0.458 OA
BRANCH  23  24
ATOM     24  C   UNL     1      -3.374  -0.001   8.298  1.00  0.00     0.338 C 
ATOM     25  O   UNL     1      -3.547  -0.880   7.473  1.00  0.00    -0.246 OA
BRANCH  24  26
ATOM     26  C   UNL     1      -2.153   0.103   9.109  1.00  0.00     0.060 A 
ATOM     27  C   UNL     1      -1.919  -0.725  10.198  1.00  0.00     0.016 A 
ATOM     28  C   UNL     1      -1.151   0.951   8.655  1.00  0.00     0.016 A 
ATOM     29  C   UNL     1      -0.669  -0.677  10.829  1.00  0.00     0.010 A 
ATOM     30  C   UNL     1       0.136   0.874   9.173  1.00  0.00     0.010 A 
ATOM     31  C   UNL     1       0.392   0.090  10.299  1.00  0.00    -0.014 A 
BRANCH  31  32
ATOM     32  C   UNL     1       1.753   0.082  10.915  1.00  0.00     0.031 A 
ATOM     33  C   UNL     1       2.434   1.371  11.324  1.00  0.00     0.074 A 
ATOM     34  C   UNL     1       2.402  -1.091  11.080  1.00  0.00     0.049 A 
ATOM     35  N   UNL     1       3.597   1.535  11.906  1.00  0.00    -0.248 NA
ATOM     36  C   UNL     1       1.755   2.640  11.007  1.00  0.00     0.031 C 
ATOM     37  C   UNL     1       1.909  -2.397  10.633  1.00  0.00     0.029 A 
ATOM     38  N   UNL     1       3.598  -1.385  11.691  1.00  0.00    -0.354 N 
ATOM     39  C   UNL     1       3.786   2.910  12.003  1.00  0.00     0.074 A 
ATOM     40  C   UNL     1       2.667   3.539  11.346  1.00  0.00     0.031 C 
ATOM     41  C   UNL     1       2.741  -3.354  11.067  1.00  0.00     0.029 A 
ATOM     42  C   UNL     1       3.856  -2.735  11.777  1.00  0.00     0.049 A 
ATOM     43  H   UNL     1       4.212  -0.695  12.033  1.00  0.00     0.167 HD
ATOM     44  C   UNL     1       4.772   3.594  12.631  1.00  0.00     0.031 A 
ATOM     45  C   UNL     1       4.857  -3.408  12.381  1.00  0.00     0.031 A 
ATOM     46  C   UNL     1       5.850   2.964  13.344  1.00  0.00     0.049 A 
ATOM     47  C   UNL     1       5.909  -2.637  13.127  1.00  0.00     0.074 A 
ATOM     48  C   UNL     1       6.849   3.565  14.088  1.00  0.00     0.029 A 
ATOM     49  N   UNL     1       6.059   1.595  13.421  1.00  0.00    -0.354 N 
ATOM     50  N   UNL     1       6.018  -1.339  13.282  1.00  0.00    -0.248 NA
ATOM     51  C   UNL     1       6.965  -3.413  13.792  1.00  0.00     0.031 C 
ATOM     52  C   UNL     1       7.696   2.564  14.567  1.00  0.00     0.029 A 
ATOM     53  C   UNL     1       7.184   1.335  14.183  1.00  0.00     0.049 A 
ATOM     54  H   UNL     1       5.492   0.912  12.997  1.00  0.00     0.167 HD
ATOM     55  C   UNL     1       7.145  -1.143  14.071  1.00  0.00     0.074 A 
ATOM     56  C   UNL     1       7.671  -2.456  14.383  1.00  0.00     0.031 C 
ATOM     57  C   UNL     1       7.696   0.022  14.491  1.00  0.00     0.031 A 
BRANCH  44  58
ATOM     58  C   UNL     1       4.711   5.103  12.641  1.00  0.00    -0.014 A 
ATOM     59  C   UNL     1       5.733   5.856  12.033  1.00  0.00     0.010 A 
ATOM     60  C   UNL     1       3.706   5.778  13.359  1.00  0.00     0.010 A 
ATOM     61  C   UNL     1       5.769   7.248  12.170  1.00  0.00     0.020 A 
ATOM     62  C   UNL     1       3.719   7.171  13.469  1.00  0.00     0.020 A 
ATOM     63  C   UNL     1       4.766   7.895  12.896  1.00  0.00     0.054 A 
BRANCH  63  64
ATOM     64  S   UNL     1       4.847   9.696  13.096  1.00  0.00     0.124 S 
ATOM     65  O   UNL     1       5.912   9.849  14.081  1.00  0.00    -0.237 OA
ATOM     66  O   UNL     1       5.164  10.154  11.745  1.00  0.00    -0.237 OA
ATOM     67  O   UNL     1       3.507  10.049  13.563  1.00  0.00    -0.744 OA
ENDBRANCH  63  64
ENDBRANCH  44  58
BRANCH  45  68
ATOM     68  C   UNL     1       4.841  -4.899  12.363  1.00  0.00    -0.014 A 
ATOM     69  C   UNL     1       5.026  -5.604  11.158  1.00  0.00     0.010 A 
ATOM     70  C   UNL     1       4.530  -5.619  13.531  1.00  0.00     0.010 A 
ATOM     71  C   UNL     1       4.835  -6.988  11.108  1.00  0.00     0.020 A 
ATOM     72  C   UNL     1       4.371  -7.008  13.491  1.00  0.00     0.020 A 
ATOM     73  C   UNL     1       4.491  -7.679  12.272  1.00  0.00     0.054 A 
BRANCH  73  74
ATOM     74  S   UNL     1       4.174  -9.462  12.166  1.00  0.00     0.124 S 
ATOM     75  O   UNL     1       2.857  -9.495  11.535  1.00  0.00    -0.237 OA
ATOM     76  O   UNL     1       5.280  -9.935  11.338  1.00  0.00    -0.237 OA
ATOM     77  O   UNL     1       4.210  -9.900  13.559  1.00  0.00    -0.744 OA
ENDBRANCH  73  74
ENDBRANCH  45  68
BRANCH  57  78
ATOM     78  C   UNL     1       8.943  -0.037  15.333  1.00  0.00    -0.014 A 
ATOM     79  C   UNL     1       8.905   0.406  16.668  1.00  0.00     0.010 A 
ATOM     80  C   UNL     1      10.180  -0.372  14.756  1.00  0.00     0.010 A 
ATOM     81  C   UNL     1      10.085   0.562  17.397  1.00  0.00     0.020 A 
ATOM     82  C   UNL     1      11.361  -0.247  15.492  1.00  0.00     0.020 A 
ATOM     83  C   UNL     1      11.308   0.248  16.798  1.00  0.00     0.054 A 
BRANCH  83  84
ATOM     84  S   UNL     1      12.835   0.511  17.740  1.00  0.00     0.124 S 
ATOM     85  O   UNL     1      12.980   1.963  17.691  1.00  0.00    -0.237 OA
ATOM     86  O   UNL     1      12.505  -0.046  19.049  1.00  0.00    -0.237 OA
ATOM     87  O   UNL     1      13.836  -0.242  16.987  1.00  0.00    -0.744 OA
ENDBRANCH  83  84
ENDBRANCH  57  78
ENDBRANCH  31  32
ENDBRANCH  24  26
ENDBRANCH  23  24
ENDBRANCH   1  23
TORSDOF 16
