REMARK SMILES O=C(OCCOC(=O)c1ccc(N2CNC(c3ccccc3)=[NH+]C2=S)cc1)c1ccc(-c2c3nc(c(-c4ccc(S(=O)(=O)[O-])cc4)c4ccc([nH]4)c(-c4ccc(S(=O)(=O)[O-])cc4)c4nc(c(-c5ccc(S(=O)(=O)[O-])cc5)c5ccc2[nH]5)C=C4)C=C3)cc1
REMARK SMILES IDX 4 1 3 2 2 3 1 4 28 5 29 6 87 7 30 8 86 9 31 10 32 11 33 12
REMARK SMILES IDX 80 13 34 14 85 15 79 16 81 17 35 18 84 19 78 20 77 21 36 23
REMARK SMILES IDX 66 24 47 25 65 26 48 27 51 28 64 29 82 30 49 31 50 32 63 34
REMARK SMILES IDX 83 35 52 36 37 37 38 38 46 39 39 40 45 41 40 42 41 43 42 44
REMARK SMILES IDX 43 45 44 46 67 47 68 48 76 49 69 50 75 51 70 52 71 53 72 54
REMARK SMILES IDX 73 55 74 56 53 57 54 58 62 59 55 60 61 61 56 62 57 63 58 64
REMARK SMILES IDX 59 65 60 66 5 67 6 68 7 69 8 70 9 71 10 72 27 73 11 74 26 75
REMARK SMILES IDX 12 76 13 77 14 78 24 79 15 80 23 81 25 82 16 83 17 86 18 87
REMARK SMILES IDX 22 88 19 89 21 90 20 91
REMARK H PARENT 81 22 51 33 15 84 23 85
REMARK Flexibility Score: inf
ROOT
ATOM      1  C   UNL     1       4.228  -1.478   0.393  1.00  0.00     0.275 C 
ENDROOT
BRANCH   1   2
ATOM      2  O   UNL     1       3.229  -0.640   0.986  1.00  0.00    -0.458 OA
BRANCH   2   3
ATOM      3  C   UNL     1       3.054   0.697   0.872  1.00  0.00     0.338 C 
ATOM      4  O   UNL     1       2.208   1.228   1.592  1.00  0.00    -0.246 OA
BRANCH   3   5
ATOM      5  C   UNL     1       3.732   1.548  -0.164  1.00  0.00     0.060 A 
ATOM      6  C   UNL     1       4.908   1.259  -0.871  1.00  0.00     0.016 A 
ATOM      7  C   UNL     1       3.079   2.747  -0.472  1.00  0.00     0.016 A 
ATOM      8  C   UNL     1       5.363   2.072  -1.919  1.00  0.00     0.010 A 
ATOM      9  C   UNL     1       3.532   3.559  -1.510  1.00  0.00     0.010 A 
ATOM     10  C   UNL     1       4.670   3.225  -2.253  1.00  0.00    -0.014 A 
BRANCH  10  11
ATOM     11  C   UNL     1       5.208   4.215  -3.214  1.00  0.00     0.031 A 
ATOM     12  C   UNL     1       5.706   5.510  -2.647  1.00  0.00     0.074 A 
ATOM     13  C   UNL     1       5.208   4.002  -4.543  1.00  0.00     0.049 A 
ATOM     14  N   UNL     1       6.102   6.587  -3.267  1.00  0.00    -0.248 NA
ATOM     15  C   UNL     1       5.775   5.593  -1.176  1.00  0.00     0.031 C 
ATOM     16  C   UNL     1       4.850   2.751  -5.206  1.00  0.00     0.029 A 
ATOM     17  N   UNL     1       5.482   4.856  -5.583  1.00  0.00    -0.354 N 
ATOM     18  C   UNL     1       6.456   7.475  -2.260  1.00  0.00     0.074 A 
ATOM     19  C   UNL     1       6.158   6.844  -0.997  1.00  0.00     0.031 C 
ATOM     20  C   UNL     1       4.829   2.943  -6.537  1.00  0.00     0.029 A 
ATOM     21  C   UNL     1       5.181   4.331  -6.819  1.00  0.00     0.049 A 
ATOM     22  H   UNL     1       5.858   5.757  -5.457  1.00  0.00     0.167 HD
ATOM     23  C   UNL     1       7.020   8.698  -2.378  1.00  0.00     0.031 A 
ATOM     24  C   UNL     1       5.170   4.912  -8.036  1.00  0.00     0.031 A 
ATOM     25  C   UNL     1       7.281   9.319  -3.643  1.00  0.00     0.049 A 
ATOM     26  C   UNL     1       5.667   6.325  -8.156  1.00  0.00     0.074 A 
ATOM     27  C   UNL     1       7.873  10.539  -3.900  1.00  0.00     0.029 A 
ATOM     28  N   UNL     1       6.938   8.765  -4.869  1.00  0.00    -0.354 N 
ATOM     29  N   UNL     1       6.051   7.139  -7.201  1.00  0.00    -0.248 NA
ATOM     30  C   UNL     1       5.783   6.882  -9.509  1.00  0.00     0.031 C 
ATOM     31  C   UNL     1       7.837  10.749  -5.282  1.00  0.00     0.029 A 
ATOM     32  C   UNL     1       7.287   9.628  -5.889  1.00  0.00     0.049 A 
ATOM     33  H   UNL     1       6.510   7.887  -4.993  1.00  0.00     0.167 HD
ATOM     34  C   UNL     1       6.529   8.275  -7.840  1.00  0.00     0.074 A 
ATOM     35  C   UNL     1       6.346   8.059  -9.262  1.00  0.00     0.031 C 
ATOM     36  C   UNL     1       7.101   9.378  -7.299  1.00  0.00     0.031 A 
BRANCH  23  37
ATOM     37  C   UNL     1       7.341   9.415  -1.096  1.00  0.00    -0.014 A 
ATOM     38  C   UNL     1       8.319   8.919  -0.211  1.00  0.00     0.010 A 
ATOM     39  C   UNL     1       6.602  10.552  -0.731  1.00  0.00     0.010 A 
ATOM     40  C   UNL     1       8.490   9.494   1.049  1.00  0.00     0.020 A 
ATOM     41  C   UNL     1       6.797  11.154   0.515  1.00  0.00     0.020 A 
ATOM     42  C   UNL     1       7.717  10.601   1.409  1.00  0.00     0.054 A 
BRANCH  42  43
ATOM     43  S   UNL     1       7.929  11.305   3.066  1.00  0.00     0.124 S 
ATOM     44  O   UNL     1       7.276  10.302   3.905  1.00  0.00    -0.237 OA
ATOM     45  O   UNL     1       9.382  11.381   3.199  1.00  0.00    -0.237 OA
ATOM     46  O   UNL     1       7.245  12.593   2.987  1.00  0.00    -0.744 OA
ENDBRANCH  42  43
ENDBRANCH  23  37
BRANCH  24  47
ATOM     47  C   UNL     1       4.694   4.148  -9.222  1.00  0.00    -0.014 A 
ATOM     48  C   UNL     1       5.596   3.600 -10.149  1.00  0.00     0.010 A 
ATOM     49  C   UNL     1       3.316   3.928  -9.403  1.00  0.00     0.010 A 
ATOM     50  C   UNL     1       5.130   2.834 -11.225  1.00  0.00     0.020 A 
ATOM     51  C   UNL     1       2.847   3.144 -10.461  1.00  0.00     0.020 A 
ATOM     52  C   UNL     1       3.759   2.600 -11.366  1.00  0.00     0.054 A 
BRANCH  52  53
ATOM     53  S   UNL     1       3.185   1.528 -12.715  1.00  0.00     0.124 S 
ATOM     54  O   UNL     1       3.439   2.353 -13.891  1.00  0.00    -0.237 OA
ATOM     55  O   UNL     1       4.040   0.354 -12.563  1.00  0.00    -0.237 OA
ATOM     56  O   UNL     1       1.776   1.309 -12.395  1.00  0.00    -0.744 OA
ENDBRANCH  52  53
ENDBRANCH  24  47
BRANCH  36  57
ATOM     57  C   UNL     1       7.646  10.417  -8.238  1.00  0.00    -0.014 A 
ATOM     58  C   UNL     1       6.799  11.303  -8.923  1.00  0.00     0.010 A 
ATOM     59  C   UNL     1       9.041  10.590  -8.316  1.00  0.00     0.010 A 
ATOM     60  C   UNL     1       7.342  12.353  -9.666  1.00  0.00     0.020 A 
ATOM     61  C   UNL     1       9.585  11.655  -9.033  1.00  0.00     0.020 A 
ATOM     62  C   UNL     1       8.730  12.530  -9.704  1.00  0.00     0.054 A 
BRANCH  62  63
ATOM     63  S   UNL     1       9.400  13.970 -10.579  1.00  0.00     0.124 S 
ATOM     64  O   UNL     1       9.187  13.602 -11.976  1.00  0.00    -0.237 OA
ATOM     65  O   UNL     1       8.566  15.061 -10.082  1.00  0.00    -0.237 OA
ATOM     66  O   UNL     1      10.797  14.016 -10.153  1.00  0.00    -0.744 OA
ENDBRANCH  62  63
ENDBRANCH  36  57
ENDBRANCH  10  11
ENDBRANCH   3   5
ENDBRANCH   2   3
ENDBRANCH   1   2
BRANCH   1  67
ATOM     67  C   UNL     1       3.880  -1.980  -1.016  1.00  0.00     0.275 C 
BRANCH  67  68
ATOM     68  O   UNL     1       3.377  -0.966  -1.909  1.00  0.00    -0.458 OA
BRANCH  68  69
ATOM     69  C   UNL     1       2.019  -0.865  -1.990  1.00  0.00     0.338 C 
ATOM     70  O   UNL     1       1.211  -1.573  -1.424  1.00  0.00    -0.246 OA
BRANCH  69  71
ATOM     71  C   UNL     1       1.638   0.333  -2.784  1.00  0.00     0.060 A 
ATOM     72  C   UNL     1       0.756   1.258  -2.224  1.00  0.00     0.019 A 
ATOM     73  C   UNL     1       2.115   0.556  -4.070  1.00  0.00     0.019 A 
ATOM     74  C   UNL     1       0.438   2.451  -2.903  1.00  0.00     0.044 A 
ATOM     75  C   UNL     1       1.748   1.730  -4.759  1.00  0.00     0.044 A 
ATOM     76  C   UNL     1       0.963   2.743  -4.166  1.00  0.00     0.103 A 
BRANCH  76  77
ATOM     77  N   UNL     1       0.738   4.000  -4.862  1.00  0.00    -0.219 N 
ATOM     78  C   UNL     1       0.681   3.919  -6.312  1.00  0.00     0.405 C 
ATOM     79  C   UNL     1       0.751   5.296  -4.285  1.00  0.00     0.297 C 
ATOM     80  N   UNL     1       0.114   5.104  -6.885  1.00  0.00    -0.274 N 
ATOM     81  N   UNL     1       0.843   6.393  -5.113  1.00  0.00    -0.236 N 
ATOM     82  S   UNL     1       0.664   5.673  -2.634  1.00  0.00    -0.005 S 
ATOM     83  C   UNL     1       0.464   6.297  -6.339  1.00  0.00     0.229 C 
ATOM     84  H   UNL     1      -0.506   5.055  -7.647  1.00  0.00     0.260 HD
ATOM     85  H   UNL     1       1.197   7.245  -4.769  1.00  0.00     0.268 HD
BRANCH  83  86
ATOM     86  C   UNL     1       0.391   7.540  -7.144  1.00  0.00     0.047 A 
ATOM     87  C   UNL     1       1.521   8.343  -7.321  1.00  0.00     0.015 A 
ATOM     88  C   UNL     1      -0.849   7.937  -7.654  1.00  0.00     0.015 A 
ATOM     89  C   UNL     1       1.408   9.546  -8.024  1.00  0.00     0.001 A 
ATOM     90  C   UNL     1      -0.960   9.148  -8.339  1.00  0.00     0.001 A 
ATOM     91  C   UNL     1       0.168   9.949  -8.527  1.00  0.00     0.000 A 
ENDBRANCH  83  86
ENDBRANCH  76  77
ENDBRANCH  69  71
ENDBRANCH  68  69
ENDBRANCH  67  68
ENDBRANCH   1  67
TORSDOF 16
