REMARK SMILES O=C(C[N@@H+](CC(F)(F)F)[C@H]1CCCC[C@H]1O)OCCOC(=O)c1ccc(-c2c3nc(c(-c4ccc(S(=O)(=O)[O-])cc4)c4ccc([nH]4)c(-c4ccc(S(=O)(=O)[O-])cc4)c4nc(c(-c5ccc(S(=O)(=O)[O-])cc5)c5ccc2[nH]5)C=C4)C=C3)cc1
REMARK SMILES IDX 18 1 17 2 2 3 1 4 3 5 4 6 5 8 6 9 7 10 8 11 9 12 10 13 11 14
REMARK SMILES IDX 15 15 12 16 14 17 13 18 16 19 19 21 20 22 21 23 22 24 23 25
REMARK SMILES IDX 24 26 82 27 25 28 81 29 26 30 27 31 28 32 75 33 29 34 80 35
REMARK SMILES IDX 74 36 76 37 30 38 79 39 73 40 72 41 31 43 61 44 42 45 60 46
REMARK SMILES IDX 43 47 46 48 59 49 77 50 44 51 45 52 58 54 78 55 47 56 32 57
REMARK SMILES IDX 33 58 41 59 34 60 40 61 35 62 36 63 37 64 38 65 39 66 62 67
REMARK SMILES IDX 63 68 71 69 64 70 70 71 65 72 66 73 67 74 68 75 69 76 48 77
REMARK SMILES IDX 49 78 57 79 50 80 56 81 51 82 52 83 53 84 54 85 55 86
REMARK H PARENT 4 7 16 20 76 42 46 53
REMARK Flexibility Score: inf
ROOT
ATOM      1  C   UNL     1       4.956  -0.701  -0.684  1.00  0.00     0.274 C 
ENDROOT
BRANCH   1   2
ATOM      2  O   UNL     1       3.760  -0.965   0.075  1.00  0.00    -0.458 OA
BRANCH   2   3
ATOM      3  C   UNL     1       2.746  -0.064  -0.013  1.00  0.00     0.361 C 
ATOM      4  O   UNL     1       1.677  -0.375  -0.532  1.00  0.00    -0.245 OA
BRANCH   3   5
ATOM      5  C   UNL     1       3.058   1.363   0.450  1.00  0.00     0.387 C 
BRANCH   5   6
ATOM      6  N   UNL     1       3.710   1.471   1.774  1.00  0.00    -0.314 N 
ATOM      7  H   UNL     1       4.141   0.560   1.933  1.00  0.00     0.349 HD
BRANCH   6   8
ATOM      8  C   UNL     1       4.804   2.497   1.758  1.00  0.00     0.380 C 
BRANCH   8   9
ATOM      9  C   UNL     1       4.650   3.923   1.156  1.00  0.00     0.438 C 
ATOM     10  F   UNL     1       4.261   4.826   2.076  1.00  0.00    -0.165 F 
ATOM     11  F   UNL     1       5.841   4.342   0.662  1.00  0.00    -0.165 F 
ATOM     12  F   UNL     1       3.766   3.960   0.139  1.00  0.00    -0.165 F 
ENDBRANCH   8   9
ENDBRANCH   6   8
BRANCH   6  13
ATOM     13  C   UNL     1       2.795   1.588   2.943  1.00  0.00     0.213 C 
ATOM     14  C   UNL     1       2.005   2.911   3.040  1.00  0.00     0.068 C 
ATOM     15  C   UNL     1       1.838   0.367   3.133  1.00  0.00     0.172 C 
ATOM     16  C   UNL     1       1.139   2.990   4.300  1.00  0.00     0.006 C 
ATOM     17  C   UNL     1       1.026   0.481   4.425  1.00  0.00     0.038 C 
ATOM     18  C   UNL     1       0.229   1.783   4.474  1.00  0.00     0.003 C 
BRANCH  15  19
ATOM     19  O   UNL     1       0.905   0.215   2.068  1.00  0.00    -0.387 OA
ATOM     20  H   UNL     1       0.316   0.986   2.042  1.00  0.00     0.211 HD
ENDBRANCH  15  19
ENDBRANCH   6  13
ENDBRANCH   5   6
ENDBRANCH   3   5
ENDBRANCH   2   3
ENDBRANCH   1   2
BRANCH   1  21
ATOM     21  C   UNL     1       4.694  -0.542  -2.190  1.00  0.00     0.275 C 
BRANCH  21  22
ATOM     22  O   UNL     1       4.236   0.802  -2.439  1.00  0.00    -0.458 OA
BRANCH  22  23
ATOM     23  C   UNL     1       3.072   0.940  -3.127  1.00  0.00     0.338 C 
ATOM     24  O   UNL     1       2.457   0.076  -3.715  1.00  0.00    -0.246 OA
BRANCH  23  25
ATOM     25  C   UNL     1       2.584   2.320  -2.888  1.00  0.00     0.060 A 
ATOM     26  C   UNL     1       1.285   2.505  -2.399  1.00  0.00     0.016 A 
ATOM     27  C   UNL     1       3.422   3.421  -3.091  1.00  0.00     0.016 A 
ATOM     28  C   UNL     1       0.818   3.796  -2.121  1.00  0.00     0.010 A 
ATOM     29  C   UNL     1       2.949   4.709  -2.828  1.00  0.00     0.010 A 
ATOM     30  C   UNL     1       1.639   4.908  -2.358  1.00  0.00    -0.014 A 
BRANCH  30  31
ATOM     31  C   UNL     1       1.091   6.287  -2.301  1.00  0.00     0.031 A 
ATOM     32  C   UNL     1       0.568   6.896  -3.574  1.00  0.00     0.074 A 
ATOM     33  C   UNL     1       1.093   7.012  -1.166  1.00  0.00     0.049 A 
ATOM     34  N   UNL     1       0.101   8.098  -3.787  1.00  0.00    -0.248 NA
ATOM     35  C   UNL     1       0.578   6.029  -4.765  1.00  0.00     0.031 C 
ATOM     36  C   UNL     1       1.550   6.549   0.142  1.00  0.00     0.029 A 
ATOM     37  N   UNL     1       0.710   8.314  -0.945  1.00  0.00    -0.354 N 
ATOM     38  C   UNL     1      -0.245   8.132  -5.132  1.00  0.00     0.074 A 
ATOM     39  C   UNL     1       0.096   6.843  -5.692  1.00  0.00     0.031 C 
ATOM     40  C   UNL     1       1.446   7.559   1.025  1.00  0.00     0.029 A 
ATOM     41  C   UNL     1       0.932   8.746   0.342  1.00  0.00     0.049 A 
ATOM     42  H   UNL     1       0.314   8.885  -1.642  1.00  0.00     0.167 HD
ATOM     43  C   UNL     1      -0.805   9.140  -5.841  1.00  0.00     0.031 A 
ATOM     44  C   UNL     1       0.759   9.963   0.899  1.00  0.00     0.031 A 
ATOM     45  C   UNL     1      -1.119  10.435  -5.307  1.00  0.00     0.049 A 
ATOM     46  C   UNL     1       0.214  11.099   0.067  1.00  0.00     0.074 A 
ATOM     47  C   UNL     1      -1.700  11.513  -5.952  1.00  0.00     0.029 A 
ATOM     48  N   UNL     1      -0.866  10.835  -4.005  1.00  0.00    -0.354 N 
ATOM     49  N   UNL     1      -0.160  11.097  -1.190  1.00  0.00    -0.248 NA
ATOM     50  C   UNL     1       0.059  12.400   0.736  1.00  0.00     0.031 C 
ATOM     51  C   UNL     1      -1.755  12.582  -5.051  1.00  0.00     0.029 A 
ATOM     52  C   UNL     1      -1.256  12.152  -3.832  1.00  0.00     0.049 A 
ATOM     53  H   UNL     1      -0.467  10.267  -3.306  1.00  0.00     0.167 HD
ATOM     54  C   UNL     1      -0.628  12.382  -1.449  1.00  0.00     0.074 A 
ATOM     55  C   UNL     1      -0.494  13.135  -0.221  1.00  0.00     0.031 C 
ATOM     56  C   UNL     1      -1.132  12.890  -2.601  1.00  0.00     0.031 A 
BRANCH  43  57
ATOM     57  C   UNL     1      -1.092   8.875  -7.292  1.00  0.00    -0.014 A 
ATOM     58  C   UNL     1      -2.163   8.046  -7.673  1.00  0.00     0.010 A 
ATOM     59  C   UNL     1      -0.295   9.472  -8.283  1.00  0.00     0.010 A 
ATOM     60  C   UNL     1      -2.408   7.788  -9.023  1.00  0.00     0.020 A 
ATOM     61  C   UNL     1      -0.551   9.234  -9.636  1.00  0.00     0.020 A 
ATOM     62  C   UNL     1      -1.596   8.379  -9.996  1.00  0.00     0.054 A 
BRANCH  62  63
ATOM     63  S   UNL     1      -1.942   8.039 -11.743  1.00  0.00     0.124 S 
ATOM     64  O   UNL     1      -1.431   6.678 -11.890  1.00  0.00    -0.237 OA
ATOM     65  O   UNL     1      -3.395   8.175 -11.815  1.00  0.00    -0.237 OA
ATOM     66  O   UNL     1      -1.188   9.069 -12.452  1.00  0.00    -0.744 OA
ENDBRANCH  62  63
ENDBRANCH  43  57
BRANCH  44  67
ATOM     67  C   UNL     1       1.115  10.194   2.326  1.00  0.00    -0.014 A 
ATOM     68  C   UNL     1       0.113  10.407   3.289  1.00  0.00     0.010 A 
ATOM     69  C   UNL     1       2.464  10.247   2.721  1.00  0.00     0.010 A 
ATOM     70  C   UNL     1       0.452  10.695   4.614  1.00  0.00     0.020 A 
ATOM     71  C   UNL     1       2.807  10.511   4.051  1.00  0.00     0.020 A 
ATOM     72  C   UNL     1       1.798  10.749   4.986  1.00  0.00     0.054 A 
BRANCH  72  73
ATOM     73  S   UNL     1       2.218  11.094   6.718  1.00  0.00     0.124 S 
ATOM     74  O   UNL     1       1.978  12.531   6.808  1.00  0.00    -0.237 OA
ATOM     75  O   UNL     1       1.276  10.248   7.447  1.00  0.00    -0.237 OA
ATOM     76  O   UNL     1       3.616  10.683   6.817  1.00  0.00    -0.744 OA
ENDBRANCH  72  73
ENDBRANCH  44  67
BRANCH  56  77
ATOM     77  C   UNL     1      -1.628  14.312  -2.588  1.00  0.00    -0.014 A 
ATOM     78  C   UNL     1      -0.737  15.399  -2.577  1.00  0.00     0.010 A 
ATOM     79  C   UNL     1      -3.011  14.561  -2.666  1.00  0.00     0.010 A 
ATOM     80  C   UNL     1      -1.221  16.710  -2.623  1.00  0.00     0.020 A 
ATOM     81  C   UNL     1      -3.498  15.869  -2.735  1.00  0.00     0.020 A 
ATOM     82  C   UNL     1      -2.599  16.937  -2.702  1.00  0.00     0.054 A 
BRANCH  82  83
ATOM     83  S   UNL     1      -3.202  18.645  -2.820  1.00  0.00     0.124 S 
ATOM     84  O   UNL     1      -3.066  19.111  -1.444  1.00  0.00    -0.237 OA
ATOM     85  O   UNL     1      -2.282  19.247  -3.782  1.00  0.00    -0.237 OA
ATOM     86  O   UNL     1      -4.576  18.494  -3.295  1.00  0.00    -0.744 OA
ENDBRANCH  82  83
ENDBRANCH  56  77
ENDBRANCH  30  31
ENDBRANCH  23  25
ENDBRANCH  22  23
ENDBRANCH  21  22
ENDBRANCH   1  21
TORSDOF 19
