REMARK SMILES Cc1ncn(CC[C@@H]2CCC[C@@]2([NH3+])C(=O)OCCOC(=O)c2ccc(-c3c4nc(c(-c5ccc(S(=O)(=O)[O-])cc5)c5ccc([nH]5)c(-c5ccc(S(=O)(=O)[O-])cc5)c5nc(c(-c6ccc(S(=O)(=O)[O-])cc6)c6ccc3[nH]6)C=C5)C=C4)cc2)c1C
REMARK SMILES IDX 17 1 16 2 14 3 15 4 12 5 8 6 9 7 10 8 11 9 7 10 6 11 5 12
REMARK SMILES IDX 1 13 2 14 3 15 82 16 4 17 83 18 13 19 18 23 19 24 20 25
REMARK SMILES IDX 21 26 22 27 23 28 81 29 24 30 80 31 25 32 26 33 27 34 74 35
REMARK SMILES IDX 28 36 79 37 73 38 75 39 29 40 78 41 72 42 71 43 30 45 60 46
REMARK SMILES IDX 41 47 59 48 42 49 45 50 58 51 76 52 43 53 44 54 57 56 77 57
REMARK SMILES IDX 46 58 31 59 32 60 40 61 33 62 39 63 34 64 35 65 36 66 37 67
REMARK SMILES IDX 38 68 61 69 62 70 70 71 63 72 69 73 64 74 65 75 66 76 67 77
REMARK SMILES IDX 68 78 47 79 48 80 56 81 49 82 55 83 50 84 51 85 52 86 53 87
REMARK SMILES IDX 54 88
REMARK H PARENT 13 20 13 21 13 22 75 44 45 55
REMARK Flexibility Score: inf
ROOT
ATOM      1  C   UNL     1       5.456   6.371   3.292  1.00  0.00     0.274 C 
ENDROOT
BRANCH   1   2
ATOM      2  O   UNL     1       4.367   5.461   3.020  1.00  0.00    -0.457 OA
BRANCH   2   3
ATOM      3  C   UNL     1       3.510   5.263   4.060  1.00  0.00     0.368 C 
ATOM      4  O   UNL     1       3.665   5.755   5.179  1.00  0.00    -0.245 OA
BRANCH   3   5
ATOM      5  C   UNL     1       2.394   4.227   3.783  1.00  0.00     0.195 C 
ATOM      6  C   UNL     1       2.024   3.827   2.327  1.00  0.00     0.064 C 
ATOM      7  C   UNL     1       1.447   2.411   2.534  1.00  0.00     0.011 C 
ATOM      8  C   UNL     1       2.255   1.770   3.646  1.00  0.00     0.008 C 
ATOM      9  C   UNL     1       2.987   2.907   4.331  1.00  0.00     0.081 C 
BRANCH   6  10
ATOM     10  C   UNL     1       1.014   4.723   1.566  1.00  0.00     0.032 C 
BRANCH  10  11
ATOM     11  C   UNL     1       1.091   4.640   0.025  1.00  0.00     0.124 C 
BRANCH  11  12
ATOM     12  N   UNL     1       0.677   3.357  -0.515  1.00  0.00    -0.335 N 
ATOM     13  C   UNL     1       0.843  -0.246  -0.698  1.00  0.00     0.069 C 
ATOM     14  C   UNL     1       0.578   1.206  -0.801  1.00  0.00     0.058 A 
ATOM     15  N   UNL     1      -0.717   1.663  -0.793  1.00  0.00    -0.242 NA
ATOM     16  C   UNL     1       1.472   2.267  -0.800  1.00  0.00     0.037 A 
ATOM     17  C   UNL     1      -0.625   2.967  -0.667  1.00  0.00     0.199 A 
ATOM     18  C   UNL     1       2.952   2.300  -0.873  1.00  0.00     0.066 C 
ENDBRANCH  11  12
ENDBRANCH  10  11
ENDBRANCH   6  10
BRANCH   5  19
ATOM     19  N   UNL     1       1.181   4.607   4.548  1.00  0.00    -0.343 N 
ATOM     20  H   UNL     1       0.440   3.929   4.371  1.00  0.00     0.345 HD
ATOM     21  H   UNL     1       0.871   5.534   4.255  1.00  0.00     0.345 HD
ATOM     22  H   UNL     1       1.399   4.621   5.545  1.00  0.00     0.345 HD
ENDBRANCH   5  19
ENDBRANCH   3   5
ENDBRANCH   2   3
ENDBRANCH   1   2
BRANCH   1  23
ATOM     23  C   UNL     1       5.119   7.838   3.023  1.00  0.00     0.275 C 
BRANCH  23  24
ATOM     24  O   UNL     1       4.011   8.287   3.800  1.00  0.00    -0.458 OA
BRANCH  24  25
ATOM     25  C   UNL     1       2.824   8.051   3.195  1.00  0.00     0.338 C 
ATOM     26  O   UNL     1       2.656   7.436   2.156  1.00  0.00    -0.246 OA
BRANCH  25  27
ATOM     27  C   UNL     1       1.743   8.776   3.863  1.00  0.00     0.060 A 
ATOM     28  C   UNL     1       0.432   8.402   3.544  1.00  0.00     0.016 A 
ATOM     29  C   UNL     1       2.040   9.993   4.483  1.00  0.00     0.016 A 
ATOM     30  C   UNL     1      -0.565   9.346   3.648  1.00  0.00     0.010 A 
ATOM     31  C   UNL     1       1.045  10.936   4.580  1.00  0.00     0.010 A 
ATOM     32  C   UNL     1      -0.221  10.629   4.074  1.00  0.00    -0.014 A 
BRANCH  32  33
ATOM     33  C   UNL     1      -1.222  11.673   3.978  1.00  0.00     0.031 A 
ATOM     34  C   UNL     1      -2.257  11.639   5.034  1.00  0.00     0.074 A 
ATOM     35  C   UNL     1      -1.089  12.685   3.099  1.00  0.00     0.049 A 
ATOM     36  N   UNL     1      -3.539  11.549   4.905  1.00  0.00    -0.248 NA
ATOM     37  C   UNL     1      -1.780  11.584   6.426  1.00  0.00     0.031 C 
ATOM     38  C   UNL     1       0.068  12.973   2.243  1.00  0.00     0.029 A 
ATOM     39  N   UNL     1      -1.895  13.763   2.905  1.00  0.00    -0.354 N 
ATOM     40  C   UNL     1      -4.046  11.628   6.199  1.00  0.00     0.074 A 
ATOM     41  C   UNL     1      -2.926  11.467   7.090  1.00  0.00     0.031 C 
ATOM     42  C   UNL     1       0.000  14.258   1.831  1.00  0.00     0.029 A 
ATOM     43  C   UNL     1      -1.255  14.831   2.289  1.00  0.00     0.049 A 
ATOM     44  H   UNL     1      -2.841  13.785   3.176  1.00  0.00     0.167 HD
ATOM     45  C   UNL     1      -5.303  12.079   6.457  1.00  0.00     0.031 A 
ATOM     46  C   UNL     1      -1.681  16.117   2.260  1.00  0.00     0.031 A 
ATOM     47  C   UNL     1      -6.145  12.043   5.291  1.00  0.00     0.049 A 
ATOM     48  C   UNL     1      -3.127  16.118   2.589  1.00  0.00     0.074 A 
ATOM     49  C   UNL     1      -6.575  11.050   4.435  1.00  0.00     0.029 A 
ATOM     50  N   UNL     1      -6.384  13.233   4.646  1.00  0.00    -0.354 N 
ATOM     51  N   UNL     1      -4.046  15.593   1.827  1.00  0.00    -0.248 NA
ATOM     52  C   UNL     1      -3.525  16.343   3.971  1.00  0.00     0.031 C 
ATOM     53  C   UNL     1      -6.629  11.664   3.150  1.00  0.00     0.029 A 
ATOM     54  C   UNL     1      -6.266  13.004   3.300  1.00  0.00     0.049 A 
ATOM     55  H   UNL     1      -6.601  14.094   5.073  1.00  0.00     0.167 HD
ATOM     56  C   UNL     1      -4.972  15.046   2.704  1.00  0.00     0.074 A 
ATOM     57  C   UNL     1      -4.660  15.640   4.000  1.00  0.00     0.031 C 
ATOM     58  C   UNL     1      -5.719  13.957   2.354  1.00  0.00     0.031 A 
BRANCH  45  59
ATOM     59  C   UNL     1      -5.623  12.933   7.662  1.00  0.00    -0.014 A 
ATOM     60  C   UNL     1      -6.957  13.322   7.889  1.00  0.00     0.010 A 
ATOM     61  C   UNL     1      -4.627  13.600   8.408  1.00  0.00     0.010 A 
ATOM     62  C   UNL     1      -7.264  14.383   8.752  1.00  0.00     0.020 A 
ATOM     63  C   UNL     1      -4.925  14.621   9.307  1.00  0.00     0.020 A 
ATOM     64  C   UNL     1      -6.240  15.038   9.438  1.00  0.00     0.054 A 
BRANCH  64  65
ATOM     65  S   UNL     1      -6.622  16.502  10.428  1.00  0.00     0.124 S 
ATOM     66  O   UNL     1      -6.994  17.466   9.398  1.00  0.00    -0.237 OA
ATOM     67  O   UNL     1      -7.710  16.027  11.278  1.00  0.00    -0.237 OA
ATOM     68  O   UNL     1      -5.368  16.779  11.126  1.00  0.00    -0.744 OA
ENDBRANCH  64  65
ENDBRANCH  45  59
BRANCH  46  69
ATOM     69  C   UNL     1      -0.839  17.339   2.305  1.00  0.00    -0.014 A 
ATOM     70  C   UNL     1      -1.377  18.603   2.007  1.00  0.00     0.010 A 
ATOM     71  C   UNL     1       0.444  17.296   2.893  1.00  0.00     0.010 A 
ATOM     72  C   UNL     1      -0.680  19.780   2.332  1.00  0.00     0.020 A 
ATOM     73  C   UNL     1       1.150  18.462   3.206  1.00  0.00     0.020 A 
ATOM     74  C   UNL     1       0.574  19.701   2.945  1.00  0.00     0.054 A 
BRANCH  74  75
ATOM     75  S   UNL     1       1.394  21.219   3.512  1.00  0.00     0.124 S 
ATOM     76  O   UNL     1       1.792  21.845   2.254  1.00  0.00    -0.237 OA
ATOM     77  O   UNL     1       0.332  21.898   4.249  1.00  0.00    -0.237 OA
ATOM     78  O   UNL     1       2.498  20.728   4.335  1.00  0.00    -0.744 OA
ENDBRANCH  74  75
ENDBRANCH  46  69
BRANCH  58  79
ATOM     79  C   UNL     1      -5.753  13.544   0.899  1.00  0.00    -0.014 A 
ATOM     80  C   UNL     1      -4.610  13.128   0.189  1.00  0.00     0.010 A 
ATOM     81  C   UNL     1      -7.010  13.410   0.284  1.00  0.00     0.010 A 
ATOM     82  C   UNL     1      -4.721  12.607  -1.108  1.00  0.00     0.020 A 
ATOM     83  C   UNL     1      -7.130  12.875  -1.002  1.00  0.00     0.020 A 
ATOM     84  C   UNL     1      -5.984  12.480  -1.694  1.00  0.00     0.054 A 
BRANCH  84  85
ATOM     85  S   UNL     1      -6.128  11.732  -3.342  1.00  0.00     0.124 S 
ATOM     86  O   UNL     1      -5.563  12.762  -4.209  1.00  0.00    -0.237 OA
ATOM     87  O   UNL     1      -5.335  10.511  -3.216  1.00  0.00    -0.237 OA
ATOM     88  O   UNL     1      -7.566  11.511  -3.499  1.00  0.00    -0.744 OA
ENDBRANCH  84  85
ENDBRANCH  58  79
ENDBRANCH  32  33
ENDBRANCH  25  27
ENDBRANCH  24  25
ENDBRANCH  23  24
ENDBRANCH   1  23
TORSDOF 18
