REMARK SMILES Cc1ccccc1OC1(C(=O)OCCOC(=O)c2ccc(-c3c4nc(c(-c5ccc(S(=O)(=O)[O-])cc5)c5ccc([nH]5)c(-c5ccc(S(=O)(=O)[O-])cc5)c5nc(c(-c6ccc(S(=O)(=O)[O-])cc6)c6ccc3[nH]6)C=C5)C=C4)cc2)CCN(C(=O)[C@H]2CCCCO2)CC1
REMARK SMILES IDX 14 1 13 2 12 3 10 4 11 5 9 6 78 7 90 8 79 9 89 10 80 11
REMARK SMILES IDX 81 12 82 13 8 14 7 15 1 16 2 17 3 18 4 19 6 20 5 21 83 22
REMARK SMILES IDX 84 23 88 24 85 25 87 26 86 27 15 28 16 29 17 30 18 31 19 32
REMARK SMILES IDX 77 33 20 34 76 35 21 36 22 37 23 38 70 39 24 40 75 41 69 42
REMARK SMILES IDX 71 43 25 44 74 45 68 46 67 47 26 49 56 50 37 51 55 52 38 53
REMARK SMILES IDX 41 54 54 55 72 56 39 57 40 58 53 60 73 61 42 62 27 63 28 64
REMARK SMILES IDX 36 65 29 66 35 67 30 68 31 69 32 70 33 71 34 72 57 73 58 74
REMARK SMILES IDX 66 75 59 76 65 77 60 78 61 79 62 80 63 81 64 82 43 83 44 84
REMARK SMILES IDX 52 85 45 86 51 87 46 88 47 89 48 90 49 91 50 92
REMARK H PARENT 71 48 41 59
REMARK Flexibility Score: inf
ROOT
ATOM      1  C   UNL     1      10.137  -7.490  -3.233  1.00  0.00     0.275 C 
ENDROOT
BRANCH   1   2
ATOM      2  C   UNL     1       9.400  -6.170  -2.947  1.00  0.00     0.274 C 
BRANCH   2   3
ATOM      3  O   UNL     1       8.321  -6.348  -2.001  1.00  0.00    -0.459 OA
BRANCH   3   4
ATOM      4  C   UNL     1       7.415  -5.323  -1.987  1.00  0.00     0.350 C 
ATOM      5  O   UNL     1       7.516  -4.371  -2.759  1.00  0.00    -0.247 OA
BRANCH   4   6
ATOM      6  C   UNL     1       6.405  -5.375  -0.768  1.00  0.00     0.209 C 
ATOM      7  C   UNL     1       7.344  -5.197   0.427  1.00  0.00     0.082 C 
ATOM      8  C   UNL     1       5.405  -4.228  -1.046  1.00  0.00     0.082 C 
ATOM      9  C   UNL     1       7.402  -3.784   0.962  1.00  0.00     0.124 C 
ATOM     10  C   UNL     1       5.041  -3.384   0.150  1.00  0.00     0.124 C 
ATOM     11  N   UNL     1       6.141  -3.055   1.054  1.00  0.00    -0.340 N 
ATOM     12  C   UNL     1       6.092  -2.029   2.004  1.00  0.00     0.251 C 
ATOM     13  O   UNL     1       7.035  -1.859   2.787  1.00  0.00    -0.272 OA
BRANCH   6  14
ATOM     14  O   UNL     1       5.760  -6.659  -0.639  1.00  0.00    -0.475 OA
BRANCH  14  15
ATOM     15  C   UNL     1       4.575  -6.949  -0.002  1.00  0.00     0.123 A 
ATOM     16  C   UNL     1       4.698  -5.810   2.368  1.00  0.00     0.048 C 
ATOM     17  C   UNL     1       4.056  -6.584   1.256  1.00  0.00    -0.009 A 
ATOM     18  C   UNL     1       2.793  -7.107   1.668  1.00  0.00     0.007 A 
ATOM     19  C   UNL     1       2.079  -8.024   0.911  1.00  0.00     0.001 A 
ATOM     20  C   UNL     1       3.833  -7.906  -0.727  1.00  0.00     0.047 A 
ATOM     21  C   UNL     1       2.616  -8.441  -0.288  1.00  0.00     0.004 A 
ENDBRANCH  14  15
ENDBRANCH   6  14
BRANCH  12  22
ATOM     22  C   UNL     1       4.857  -1.094   2.038  1.00  0.00     0.207 C 
ATOM     23  C   UNL     1       3.641  -1.794   2.654  1.00  0.00     0.042 C 
ATOM     24  O   UNL     1       5.203   0.062   2.819  1.00  0.00    -0.368 OA
ATOM     25  C   UNL     1       2.486  -0.824   2.877  1.00  0.00     0.006 C 
ATOM     26  C   UNL     1       4.157   1.020   2.901  1.00  0.00     0.161 C 
ATOM     27  C   UNL     1       2.961   0.417   3.618  1.00  0.00     0.029 C 
ENDBRANCH  12  22
ENDBRANCH   4   6
ENDBRANCH   3   4
ENDBRANCH   2   3
ENDBRANCH   1   2
BRANCH   1  28
ATOM     28  O   UNL     1       9.418  -8.411  -4.075  1.00  0.00    -0.458 OA
BRANCH  28  29
ATOM     29  C   UNL     1       8.156  -8.687  -3.657  1.00  0.00     0.338 C 
ATOM     30  O   UNL     1       7.900  -9.192  -2.560  1.00  0.00    -0.246 OA
BRANCH  29  31
ATOM     31  C   UNL     1       7.233  -7.888  -4.509  1.00  0.00     0.060 A 
ATOM     32  C   UNL     1       6.008  -7.471  -3.978  1.00  0.00     0.016 A 
ATOM     33  C   UNL     1       7.732  -7.277  -5.666  1.00  0.00     0.016 A 
ATOM     34  C   UNL     1       5.340  -6.367  -4.516  1.00  0.00     0.010 A 
ATOM     35  C   UNL     1       7.112  -6.147  -6.160  1.00  0.00     0.010 A 
ATOM     36  C   UNL     1       5.922  -5.677  -5.583  1.00  0.00    -0.014 A 
BRANCH  36  37
ATOM     37  C   UNL     1       5.223  -4.654  -6.360  1.00  0.00     0.031 A 
ATOM     38  C   UNL     1       4.998  -3.259  -5.925  1.00  0.00     0.074 A 
ATOM     39  C   UNL     1       4.750  -5.104  -7.542  1.00  0.00     0.049 A 
ATOM     40  N   UNL     1       3.954  -2.563  -6.247  1.00  0.00    -0.248 NA
ATOM     41  C   UNL     1       5.928  -2.524  -5.072  1.00  0.00     0.031 C 
ATOM     42  C   UNL     1       4.134  -4.364  -8.628  1.00  0.00     0.029 A 
ATOM     43  N   UNL     1       4.536  -6.448  -7.872  1.00  0.00    -0.354 N 
ATOM     44  C   UNL     1       4.194  -1.252  -5.884  1.00  0.00     0.074 A 
ATOM     45  C   UNL     1       5.387  -1.297  -5.069  1.00  0.00     0.031 C 
ATOM     46  C   UNL     1       3.349  -5.217  -9.313  1.00  0.00     0.029 A 
ATOM     47  C   UNL     1       3.342  -6.482  -8.581  1.00  0.00     0.049 A 
ATOM     48  H   UNL     1       5.114  -7.213  -7.646  1.00  0.00     0.167 HD
ATOM     49  C   UNL     1       3.471  -0.235  -6.441  1.00  0.00     0.031 A 
ATOM     50  C   UNL     1       2.242  -7.140  -8.119  1.00  0.00     0.031 A 
ATOM     51  C   UNL     1       2.523  -0.744  -7.425  1.00  0.00     0.049 A 
ATOM     52  C   UNL     1       1.064  -6.210  -8.051  1.00  0.00     0.074 A 
ATOM     53  C   UNL     1       2.639  -0.902  -8.796  1.00  0.00     0.029 A 
ATOM     54  N   UNL     1       1.409  -1.469  -7.026  1.00  0.00    -0.354 N 
ATOM     55  N   UNL     1       1.157  -4.938  -7.778  1.00  0.00    -0.248 NA
ATOM     56  C   UNL     1      -0.299  -6.644  -8.331  1.00  0.00     0.031 C 
ATOM     57  C   UNL     1       1.648  -1.822  -9.209  1.00  0.00     0.029 A 
ATOM     58  C   UNL     1       0.903  -2.179  -8.097  1.00  0.00     0.049 A 
ATOM     59  H   UNL     1       1.035  -1.476  -6.115  1.00  0.00     0.167 HD
ATOM     60  C   UNL     1      -0.071  -4.363  -7.975  1.00  0.00     0.074 A 
ATOM     61  C   UNL     1      -0.959  -5.476  -8.271  1.00  0.00     0.031 C 
ATOM     62  C   UNL     1      -0.275  -3.016  -7.960  1.00  0.00     0.031 A 
BRANCH  49  63
ATOM     63  C   UNL     1       3.865   1.229  -6.372  1.00  0.00    -0.014 A 
ATOM     64  C   UNL     1       3.601   2.071  -7.476  1.00  0.00     0.010 A 
ATOM     65  C   UNL     1       4.525   1.825  -5.281  1.00  0.00     0.010 A 
ATOM     66  C   UNL     1       4.075   3.389  -7.546  1.00  0.00     0.020 A 
ATOM     67  C   UNL     1       5.027   3.140  -5.347  1.00  0.00     0.020 A 
ATOM     68  C   UNL     1       4.820   3.906  -6.492  1.00  0.00     0.054 A 
BRANCH  68  69
ATOM     69  S   UNL     1       5.530   5.568  -6.659  1.00  0.00     0.124 S 
ATOM     70  O   UNL     1       6.355   5.438  -7.859  1.00  0.00    -0.237 OA
ATOM     71  O   UNL     1       4.344   6.407  -6.800  1.00  0.00    -0.237 OA
ATOM     72  O   UNL     1       6.277   5.752  -5.417  1.00  0.00    -0.744 OA
ENDBRANCH  68  69
ENDBRANCH  49  63
BRANCH  50  73
ATOM     73  C   UNL     1       2.478  -8.271  -7.170  1.00  0.00    -0.014 A 
ATOM     74  C   UNL     1       3.287  -9.349  -7.598  1.00  0.00     0.010 A 
ATOM     75  C   UNL     1       2.157  -8.182  -5.804  1.00  0.00     0.010 A 
ATOM     76  C   UNL     1       3.833 -10.253  -6.682  1.00  0.00     0.020 A 
ATOM     77  C   UNL     1       2.689  -9.100  -4.883  1.00  0.00     0.020 A 
ATOM     78  C   UNL     1       3.546 -10.113  -5.326  1.00  0.00     0.054 A 
BRANCH  78  79
ATOM     79  S   UNL     1       4.438 -11.175  -4.151  1.00  0.00     0.124 S 
ATOM     80  O   UNL     1       3.804 -12.471  -4.369  1.00  0.00    -0.237 OA
ATOM     81  O   UNL     1       5.815 -11.056  -4.624  1.00  0.00    -0.237 OA
ATOM     82  O   UNL     1       4.159 -10.549  -2.863  1.00  0.00    -0.744 OA
ENDBRANCH  78  79
ENDBRANCH  50  73
BRANCH  62  83
ATOM     83  C   UNL     1      -1.624  -2.357  -7.993  1.00  0.00    -0.014 A 
ATOM     84  C   UNL     1      -2.776  -2.949  -7.456  1.00  0.00     0.010 A 
ATOM     85  C   UNL     1      -1.730  -1.024  -8.453  1.00  0.00     0.010 A 
ATOM     86  C   UNL     1      -3.999  -2.269  -7.443  1.00  0.00     0.020 A 
ATOM     87  C   UNL     1      -2.934  -0.322  -8.406  1.00  0.00     0.020 A 
ATOM     88  C   UNL     1      -4.070  -0.960  -7.921  1.00  0.00     0.054 A 
BRANCH  88  89
ATOM     89  S   UNL     1      -5.634  -0.057  -7.830  1.00  0.00     0.124 S 
ATOM     90  O   UNL     1      -6.229  -0.355  -9.130  1.00  0.00    -0.237 OA
ATOM     91  O   UNL     1      -6.302  -0.666  -6.682  1.00  0.00    -0.237 OA
ATOM     92  O   UNL     1      -5.213   1.328  -7.632  1.00  0.00    -0.744 OA
ENDBRANCH  88  89
ENDBRANCH  62  83
ENDBRANCH  36  37
ENDBRANCH  29  31
ENDBRANCH  28  29
ENDBRANCH   1  28
TORSDOF 17
