REMARK SMILES C[C@@H]([C@H](C)O)[C@H](C(=O)OCCOC(=O)c1ccc(-c2c3nc(c(-c4ccc(S(=O)(=O)[O-])cc4)c4ccc([nH]4)c(-c4ccc(S(=O)(=O)[O-])cc4)c4nc(c(-c5ccc(S(=O)(=O)[O-])cc5)c5ccc2[nH]5)C=C4)C=C3)cc1)c1ccccc1Br
REMARK SMILES IDX 10 1 9 2 7 3 8 4 6 5 2 6 1 7 3 8 4 9 5 10 75 12 76 13 80 14
REMARK SMILES IDX 77 15 79 16 81 17 78 18 11 19 12 20 13 21 14 22 15 23 16 24
REMARK SMILES IDX 74 25 17 26 73 27 18 28 19 29 20 30 67 31 21 32 72 33 66 34
REMARK SMILES IDX 68 35 22 36 71 37 65 38 64 39 23 41 53 42 34 43 52 44 35 45
REMARK SMILES IDX 38 46 51 47 69 48 36 49 37 50 50 52 70 53 39 54 24 55 25 56
REMARK SMILES IDX 33 57 26 58 32 59 27 60 28 61 29 62 30 63 31 64 54 65 55 66
REMARK SMILES IDX 63 67 56 68 62 69 57 70 58 71 59 72 60 73 61 74 40 75 41 76
REMARK SMILES IDX 49 77 42 78 48 79 43 80 44 81 45 82 46 83 47 84
REMARK H PARENT 5 11 68 40 38 51
REMARK Flexibility Score: inf
ROOT
ATOM      1  C   UNL     1      -0.704   3.385  -1.371  1.00  0.00     0.274 C 
ENDROOT
BRANCH   1   2
ATOM      2  O   UNL     1      -0.604   2.073  -1.963  1.00  0.00    -0.462 OA
BRANCH   2   3
ATOM      3  C   UNL     1      -1.124   1.049  -1.223  1.00  0.00     0.313 C 
ATOM      4  O   UNL     1      -1.533   1.212  -0.082  1.00  0.00    -0.252 OA
BRANCH   3   5
ATOM      5  C   UNL     1      -1.101  -0.304  -1.971  1.00  0.00     0.136 C 
BRANCH   5   6
ATOM      6  C   UNL     1      -1.472  -1.491  -1.011  1.00  0.00     0.033 C 
ATOM      7  C   UNL     1      -1.195  -2.834  -1.726  1.00  0.00     0.011 C 
BRANCH   6   8
ATOM      8  C   UNL     1      -0.691  -1.567   0.346  1.00  0.00     0.115 C 
ATOM      9  C   UNL     1      -1.382  -0.953   1.572  1.00  0.00     0.038 C 
BRANCH   8  10
ATOM     10  O   UNL     1       0.629  -1.053   0.175  1.00  0.00    -0.393 OA
ATOM     11  H   UNL     1       0.584  -0.109  -0.043  1.00  0.00     0.210 HD
ENDBRANCH   8  10
ENDBRANCH   6   8
ENDBRANCH   5   6
BRANCH   5  12
ATOM     12  C   UNL     1      -1.808  -0.171  -3.352  1.00  0.00    -0.019 A 
ATOM     13  C   UNL     1      -1.067   0.556  -4.325  1.00  0.00     0.006 A 
ATOM     14  C   UNL     1      -3.083  -0.614  -3.763  1.00  0.00     0.022 A 
ATOM     15  C   UNL     1      -1.584   0.901  -5.577  1.00  0.00     0.000 A 
ATOM     16  C   UNL     1      -3.599  -0.258  -5.027  1.00  0.00     0.016 A 
ATOM     17  Br  UNL     1      -4.244  -1.785  -2.824  1.00  0.00    -0.051 Br
ATOM     18  C   UNL     1      -2.863   0.508  -5.923  1.00  0.00     0.001 A 
ENDBRANCH   5  12
ENDBRANCH   3   5
ENDBRANCH   2   3
ENDBRANCH   1   2
BRANCH   1  19
ATOM     19  C   UNL     1      -2.038   4.047  -1.725  1.00  0.00     0.275 C 
BRANCH  19  20
ATOM     20  O   UNL     1      -3.119   3.265  -1.192  1.00  0.00    -0.458 OA
BRANCH  20  21
ATOM     21  C   UNL     1      -4.292   3.331  -1.866  1.00  0.00     0.338 C 
ATOM     22  O   UNL     1      -4.549   4.082  -2.791  1.00  0.00    -0.246 OA
BRANCH  21  23
ATOM     23  C   UNL     1      -5.249   2.332  -1.321  1.00  0.00     0.060 A 
ATOM     24  C   UNL     1      -4.804   1.130  -0.775  1.00  0.00     0.016 A 
ATOM     25  C   UNL     1      -6.622   2.549  -1.441  1.00  0.00     0.016 A 
ATOM     26  C   UNL     1      -5.708   0.121  -0.443  1.00  0.00     0.010 A 
ATOM     27  C   UNL     1      -7.533   1.557  -1.040  1.00  0.00     0.010 A 
ATOM     28  C   UNL     1      -7.088   0.301  -0.592  1.00  0.00    -0.014 A 
BRANCH  28  29
ATOM     29  C   UNL     1      -8.025  -0.849  -0.385  1.00  0.00     0.031 A 
ATOM     30  C   UNL     1      -8.980  -1.261  -1.486  1.00  0.00     0.074 A 
ATOM     31  C   UNL     1      -7.994  -1.585   0.746  1.00  0.00     0.049 A 
ATOM     32  N   UNL     1      -9.973  -2.116  -1.444  1.00  0.00    -0.248 NA
ATOM     33  C   UNL     1      -8.809  -0.617  -2.798  1.00  0.00     0.031 C 
ATOM     34  C   UNL     1      -7.094  -1.371   1.882  1.00  0.00     0.029 A 
ATOM     35  N   UNL     1      -8.724  -2.692   1.115  1.00  0.00    -0.354 N 
ATOM     36  C   UNL     1     -10.593  -2.045  -2.688  1.00  0.00     0.074 A 
ATOM     37  C   UNL     1      -9.860  -1.071  -3.467  1.00  0.00     0.031 C 
ATOM     38  C   UNL     1      -7.269  -2.354   2.778  1.00  0.00     0.029 A 
ATOM     39  C   UNL     1      -8.364  -3.211   2.337  1.00  0.00     0.049 A 
ATOM     40  H   UNL     1      -9.438  -3.076   0.557  1.00  0.00     0.167 HD
ATOM     41  C   UNL     1     -11.677  -2.722  -3.142  1.00  0.00     0.031 A 
ATOM     42  C   UNL     1      -8.872  -4.237   3.050  1.00  0.00     0.031 A 
ATOM     43  C   UNL     1     -12.361  -3.753  -2.406  1.00  0.00     0.049 A 
ATOM     44  C   UNL     1     -10.060  -4.989   2.521  1.00  0.00     0.074 A 
ATOM     45  C   UNL     1     -13.472  -4.490  -2.783  1.00  0.00     0.029 A 
ATOM     46  N   UNL     1     -11.979  -4.221  -1.159  1.00  0.00    -0.354 N 
ATOM     47  N   UNL     1     -10.703  -4.824   1.391  1.00  0.00    -0.248 NA
ATOM     48  C   UNL     1     -10.605  -6.051   3.378  1.00  0.00     0.031 C 
ATOM     49  C   UNL     1     -13.776  -5.387  -1.753  1.00  0.00     0.029 A 
ATOM     50  C   UNL     1     -12.829  -5.238  -0.753  1.00  0.00     0.049 A 
ATOM     51  H   UNL     1     -11.216  -3.882  -0.638  1.00  0.00     0.167 HD
ATOM     52  C   UNL     1     -11.731  -5.760   1.402  1.00  0.00     0.074 A 
ATOM     53  C   UNL     1     -11.603  -6.510   2.635  1.00  0.00     0.031 C 
ATOM     54  C   UNL     1     -12.701  -5.971   0.479  1.00  0.00     0.031 A 
BRANCH  41  55
ATOM     55  C   UNL     1     -12.227  -2.333  -4.490  1.00  0.00    -0.014 A 
ATOM     56  C   UNL     1     -11.584  -2.693  -5.687  1.00  0.00     0.010 A 
ATOM     57  C   UNL     1     -13.439  -1.619  -4.553  1.00  0.00     0.010 A 
ATOM     58  C   UNL     1     -12.122  -2.311  -6.920  1.00  0.00     0.020 A 
ATOM     59  C   UNL     1     -13.993  -1.258  -5.784  1.00  0.00     0.020 A 
ATOM     60  C   UNL     1     -13.320  -1.589  -6.960  1.00  0.00     0.054 A 
BRANCH  60  61
ATOM     61  S   UNL     1     -14.008  -1.118  -8.572  1.00  0.00     0.124 S 
ATOM     62  O   UNL     1     -13.158   0.011  -8.943  1.00  0.00    -0.237 OA
ATOM     63  O   UNL     1     -13.826  -2.329  -9.369  1.00  0.00    -0.237 OA
ATOM     64  O   UNL     1     -15.397  -0.779  -8.270  1.00  0.00    -0.744 OA
ENDBRANCH  60  61
ENDBRANCH  41  55
BRANCH  42  65
ATOM     65  C   UNL     1      -8.284  -4.581   4.373  1.00  0.00    -0.014 A 
ATOM     66  C   UNL     1      -7.560  -5.773   4.548  1.00  0.00     0.010 A 
ATOM     67  C   UNL     1      -8.430  -3.704   5.464  1.00  0.00     0.010 A 
ATOM     68  C   UNL     1      -6.994  -6.082   5.788  1.00  0.00     0.020 A 
ATOM     69  C   UNL     1      -7.840  -3.994   6.696  1.00  0.00     0.020 A 
ATOM     70  C   UNL     1      -7.133  -5.187   6.853  1.00  0.00     0.054 A 
BRANCH  70  71
ATOM     71  S   UNL     1      -6.324  -5.560   8.434  1.00  0.00     0.124 S 
ATOM     72  O   UNL     1      -7.259  -6.502   9.039  1.00  0.00    -0.237 OA
ATOM     73  O   UNL     1      -5.042  -6.122   8.014  1.00  0.00    -0.237 OA
ATOM     74  O   UNL     1      -6.237  -4.255   9.085  1.00  0.00    -0.744 OA
ENDBRANCH  70  71
ENDBRANCH  42  65
BRANCH  54  75
ATOM     75  C   UNL     1     -13.686  -7.071   0.762  1.00  0.00    -0.014 A 
ATOM     76  C   UNL     1     -14.690  -6.912   1.734  1.00  0.00     0.010 A 
ATOM     77  C   UNL     1     -13.611  -8.277   0.043  1.00  0.00     0.010 A 
ATOM     78  C   UNL     1     -15.572  -7.959   2.015  1.00  0.00     0.020 A 
ATOM     79  C   UNL     1     -14.505  -9.318   0.305  1.00  0.00     0.020 A 
ATOM     80  C   UNL     1     -15.467  -9.159   1.306  1.00  0.00     0.054 A 
BRANCH  80  81
ATOM     81  S   UNL     1     -16.622 -10.507   1.683  1.00  0.00     0.124 S 
ATOM     82  O   UNL     1     -16.055 -11.056   2.911  1.00  0.00    -0.237 OA
ATOM     83  O   UNL     1     -17.897  -9.809   1.836  1.00  0.00    -0.237 OA
ATOM     84  O   UNL     1     -16.533 -11.376   0.511  1.00  0.00    -0.744 OA
ENDBRANCH  80  81
ENDBRANCH  54  75
ENDBRANCH  28  29
ENDBRANCH  21  23
ENDBRANCH  20  21
ENDBRANCH  19  20
ENDBRANCH   1  19
TORSDOF 18
