REMARK SMILES CC(=O)NS(=O)(=O)c1cc(-c2ccn(C(F)F)c(=O)c2)ccc1C(=O)OCCOC(=O)c1ccc(-c2c3nc(c(-c4ccc(S(=O)(=O)[O-])cc4)c4ccc([nH]4)c(-c4ccc(S(=O)(=O)[O-])cc4)c4nc(c(-c5ccc(S(=O)(=O)[O-])cc5)c5ccc2[nH]5)C=C4)C=C3)cc1
REMARK SMILES IDX 28 1 27 2 26 3 24 4 25 5 23 6 8 7 9 8 10 9 22 10 21 11 5 12
REMARK SMILES IDX 6 13 7 14 4 15 1 16 2 17 3 18 11 20 12 21 20 22 13 23 18 24
REMARK SMILES IDX 14 25 19 26 15 27 16 28 17 29 29 30 30 31 31 32 32 33 33 34
REMARK SMILES IDX 91 35 34 36 90 37 35 38 36 39 37 40 84 41 38 42 89 43 83 44
REMARK SMILES IDX 85 45 39 46 88 47 82 48 81 49 40 51 70 52 51 53 69 54 52 55
REMARK SMILES IDX 55 56 68 57 86 58 53 59 54 60 67 62 87 63 56 64 41 65 42 66
REMARK SMILES IDX 50 67 43 68 49 69 44 70 45 71 46 72 47 73 48 74 71 75 72 76
REMARK SMILES IDX 80 77 73 78 79 79 74 80 75 81 76 82 77 83 78 84 57 85 58 86
REMARK SMILES IDX 66 87 59 88 65 89 60 90 61 91 62 92 63 93 64 94
REMARK H PARENT 4 19 85 50 55 61
REMARK Flexibility Score: inf
ROOT
ATOM      1  C   UNL     1       6.262   2.572   1.822  1.00  0.00     0.275 C 
ENDROOT
BRANCH   1   2
ATOM      2  C   UNL     1       4.878   2.655   1.188  1.00  0.00     0.275 C 
BRANCH   2   3
ATOM      3  O   UNL     1       4.037   1.612   1.726  1.00  0.00    -0.458 OA
BRANCH   3   4
ATOM      4  C   UNL     1       3.567   0.704   0.845  1.00  0.00     0.339 C 
ATOM      5  O   UNL     1       3.755   0.667  -0.357  1.00  0.00    -0.246 OA
BRANCH   4   6
ATOM      6  C   UNL     1       2.822  -0.349   1.560  1.00  0.00     0.080 A 
ATOM      7  C   UNL     1       1.769  -0.107   2.442  1.00  0.00     0.103 A 
ATOM      8  C   UNL     1       1.113  -1.183   3.071  1.00  0.00     0.032 A 
ATOM      9  C   UNL     1       1.477  -2.503   2.780  1.00  0.00    -0.017 A 
ATOM     10  C   UNL     1       3.154  -1.676   1.246  1.00  0.00     0.018 A 
ATOM     11  C   UNL     1       2.502  -2.743   1.863  1.00  0.00     0.010 A 
BRANCH   7  12
ATOM     12  S   UNL     1       1.013   1.487   2.587  1.00  0.00     0.264 S 
ATOM     13  O   UNL     1       1.839   2.295   3.455  1.00  0.00    -0.201 OA
ATOM     14  O   UNL     1      -0.389   1.280   2.878  1.00  0.00    -0.201 OA
BRANCH  12  15
ATOM     15  N   UNL     1       1.086   2.157   1.069  1.00  0.00    -0.249 N 
ATOM     16  C   UNL     1      -0.095   0.435  -0.298  1.00  0.00     0.115 C 
ATOM     17  C   UNL     1       0.235   1.874  -0.011  1.00  0.00     0.230 C 
ATOM     18  O   UNL     1      -0.077   2.781  -0.770  1.00  0.00    -0.274 OA
ATOM     19  H   UNL     1       1.798   2.818   0.911  1.00  0.00     0.183 HD
ENDBRANCH  12  15
ENDBRANCH   7  12
BRANCH   9  20
ATOM     20  C   UNL     1       0.731  -3.645   3.331  1.00  0.00    -0.011 A 
ATOM     21  C   UNL     1       1.284  -4.556   4.313  1.00  0.00     0.027 A 
ATOM     22  C   UNL     1      -0.487  -3.890   2.819  1.00  0.00     0.080 A 
ATOM     23  C   UNL     1       0.603  -5.649   4.678  1.00  0.00     0.095 A 
ATOM     24  C   UNL     1      -1.267  -5.086   3.237  1.00  0.00     0.255 A 
ATOM     25  N   UNL     1      -0.644  -5.924   4.146  1.00  0.00    -0.258 N 
ATOM     26  O   UNL     1      -2.382  -5.253   2.752  1.00  0.00    -0.269 OA
BRANCH  25  27
ATOM     27  C   UNL     1      -1.353  -7.120   4.521  1.00  0.00     0.451 C 
ATOM     28  F   UNL     1      -2.533  -6.818   5.117  1.00  0.00    -0.185 F 
ATOM     29  F   UNL     1      -1.619  -7.888   3.436  1.00  0.00    -0.185 F 
ENDBRANCH  25  27
ENDBRANCH   9  20
ENDBRANCH   4   6
ENDBRANCH   3   4
ENDBRANCH   2   3
ENDBRANCH   1   2
BRANCH   1  30
ATOM     30  O   UNL     1       6.853   1.315   1.454  1.00  0.00    -0.458 OA
BRANCH  30  31
ATOM     31  C   UNL     1       7.283   0.536   2.473  1.00  0.00     0.338 C 
ATOM     32  O   UNL     1       7.323   0.815   3.658  1.00  0.00    -0.246 OA
BRANCH  31  33
ATOM     33  C   UNL     1       7.696  -0.768   1.928  1.00  0.00     0.060 A 
ATOM     34  C   UNL     1       6.795  -1.507   1.162  1.00  0.00     0.016 A 
ATOM     35  C   UNL     1       8.943  -1.298   2.246  1.00  0.00     0.016 A 
ATOM     36  C   UNL     1       7.108  -2.809   0.772  1.00  0.00     0.010 A 
ATOM     37  C   UNL     1       9.293  -2.567   1.770  1.00  0.00     0.010 A 
ATOM     38  C   UNL     1       8.370  -3.352   1.055  1.00  0.00    -0.014 A 
BRANCH  38  39
ATOM     39  C   UNL     1       8.718  -4.741   0.634  1.00  0.00     0.031 A 
ATOM     40  C   UNL     1       9.143  -5.762   1.660  1.00  0.00     0.074 A 
ATOM     41  C   UNL     1       8.660  -5.105  -0.664  1.00  0.00     0.049 A 
ATOM     42  N   UNL     1       9.658  -6.952   1.478  1.00  0.00    -0.248 NA
ATOM     43  C   UNL     1       8.979  -5.390   3.075  1.00  0.00     0.031 C 
ATOM     44  C   UNL     1       8.228  -4.249  -1.771  1.00  0.00     0.029 A 
ATOM     45  N   UNL     1       8.958  -6.301  -1.270  1.00  0.00    -0.354 N 
ATOM     46  C   UNL     1       9.947  -7.440   2.748  1.00  0.00     0.074 A 
ATOM     47  C   UNL     1       9.537  -6.422   3.693  1.00  0.00     0.031 C 
ATOM     48  C   UNL     1       8.238  -4.961  -2.908  1.00  0.00     0.029 A 
ATOM     49  C   UNL     1       8.763  -6.294  -2.631  1.00  0.00     0.049 A 
ATOM     50  H   UNL     1       9.282  -7.089  -0.777  1.00  0.00     0.167 HD
ATOM     51  C   UNL     1      10.510  -8.622   3.098  1.00  0.00     0.031 A 
ATOM     52  C   UNL     1       9.012  -7.232  -3.565  1.00  0.00     0.031 A 
ATOM     53  C   UNL     1      10.875  -9.657   2.168  1.00  0.00     0.049 A 
ATOM     54  C   UNL     1       9.652  -8.529  -3.161  1.00  0.00     0.074 A 
ATOM     55  C   UNL     1      11.440 -10.894   2.433  1.00  0.00     0.029 A 
ATOM     56  N   UNL     1      10.698  -9.586   0.796  1.00  0.00    -0.354 N 
ATOM     57  N   UNL     1       9.985  -8.941  -1.962  1.00  0.00    -0.248 NA
ATOM     58  C   UNL     1       9.977  -9.472  -4.240  1.00  0.00     0.031 C 
ATOM     59  C   UNL     1      11.630 -11.559   1.216  1.00  0.00     0.029 A 
ATOM     60  C   UNL     1      11.152 -10.750   0.198  1.00  0.00     0.049 A 
ATOM     61  H   UNL     1      10.306  -8.821   0.316  1.00  0.00     0.167 HD
ATOM     62  C   UNL     1      10.572 -10.187  -2.143  1.00  0.00     0.074 A 
ATOM     63  C   UNL     1      10.522 -10.474  -3.563  1.00  0.00     0.031 C 
ATOM     64  C   UNL     1      11.116 -11.013  -1.216  1.00  0.00     0.031 A 
BRANCH  51  65
ATOM     65  C   UNL     1      10.812  -8.832   4.556  1.00  0.00    -0.014 A 
ATOM     66  C   UNL     1       9.798  -9.130   5.482  1.00  0.00     0.010 A 
ATOM     67  C   UNL     1      12.144  -8.737   5.002  1.00  0.00     0.010 A 
ATOM     68  C   UNL     1      10.103  -9.278   6.838  1.00  0.00     0.020 A 
ATOM     69  C   UNL     1      12.455  -8.906   6.354  1.00  0.00     0.020 A 
ATOM     70  C   UNL     1      11.428  -9.152   7.267  1.00  0.00     0.054 A 
BRANCH  70  71
ATOM     71  S   UNL     1      11.803  -9.338   9.032  1.00  0.00     0.124 S 
ATOM     72  O   UNL     1      11.422  -8.029   9.556  1.00  0.00    -0.237 OA
ATOM     73  O   UNL     1      10.941 -10.448   9.432  1.00  0.00    -0.237 OA
ATOM     74  O   UNL     1      13.234  -9.627   9.052  1.00  0.00    -0.744 OA
ENDBRANCH  70  71
ENDBRANCH  51  65
BRANCH  52  75
ATOM     75  C   UNL     1       8.696  -6.949  -4.990  1.00  0.00    -0.014 A 
ATOM     76  C   UNL     1       7.587  -7.554  -5.603  1.00  0.00     0.010 A 
ATOM     77  C   UNL     1       9.470  -6.029  -5.721  1.00  0.00     0.010 A 
ATOM     78  C   UNL     1       7.247  -7.234  -6.921  1.00  0.00     0.020 A 
ATOM     79  C   UNL     1       9.120  -5.689  -7.029  1.00  0.00     0.020 A 
ATOM     80  C   UNL     1       8.011  -6.296  -7.622  1.00  0.00     0.054 A 
BRANCH  80  81
ATOM     81  S   UNL     1       7.494  -5.807  -9.292  1.00  0.00     0.124 S 
ATOM     82  O   UNL     1       8.040  -6.886 -10.107  1.00  0.00    -0.237 OA
ATOM     83  O   UNL     1       6.037  -5.773  -9.180  1.00  0.00    -0.237 OA
ATOM     84  O   UNL     1       8.125  -4.501  -9.470  1.00  0.00    -0.744 OA
ENDBRANCH  80  81
ENDBRANCH  52  75
BRANCH  64  85
ATOM     85  C   UNL     1      11.707 -12.302  -1.713  1.00  0.00    -0.014 A 
ATOM     86  C   UNL     1      12.969 -12.320  -2.332  1.00  0.00     0.010 A 
ATOM     87  C   UNL     1      11.011 -13.510  -1.530  1.00  0.00     0.010 A 
ATOM     88  C   UNL     1      13.515 -13.524  -2.785  1.00  0.00     0.020 A 
ATOM     89  C   UNL     1      11.561 -14.717  -1.967  1.00  0.00     0.020 A 
ATOM     90  C   UNL     1      12.804 -14.714  -2.605  1.00  0.00     0.054 A 
BRANCH  90  91
ATOM     91  S   UNL     1      13.544 -16.272  -3.170  1.00  0.00     0.124 S 
ATOM     92  O   UNL     1      13.274 -16.231  -4.605  1.00  0.00    -0.237 OA
ATOM     93  O   UNL     1      14.946 -16.123  -2.790  1.00  0.00    -0.237 OA
ATOM     94  O   UNL     1      12.808 -17.291  -2.425  1.00  0.00    -0.744 OA
ENDBRANCH  90  91
ENDBRANCH  64  85
ENDBRANCH  38  39
ENDBRANCH  31  33
ENDBRANCH  30  31
ENDBRANCH   1  30
TORSDOF 18
