REMARK SMILES CCCC[C@@H](C(=O)OCCOC(=O)c1ccc(-c2c3nc(c(-c4ccc(S(=O)(=O)[O-])cc4)c4ccc([nH]4)c(-c4ccc(S(=O)(=O)[O-])cc4)c4nc(c(-c5ccc(S(=O)(=O)[O-])cc5)c5ccc2[nH]5)C=C4)C=C3)cc1)[C@]1(O)COc2cc(O)ccc21
REMARK SMILES IDX 9 1 8 2 6 3 7 4 5 5 4 6 3 7 2 8 1 9 74 10 76 11 84 12 77 13
REMARK SMILES IDX 78 14 83 15 79 16 82 17 80 18 75 19 81 21 10 23 11 24 12 25
REMARK SMILES IDX 13 26 14 27 15 28 73 29 16 30 72 31 17 32 18 33 19 34 66 35
REMARK SMILES IDX 20 36 71 37 65 38 67 39 21 40 70 41 64 42 63 43 22 45 52 46
REMARK SMILES IDX 33 47 51 48 34 49 37 50 50 51 68 52 35 53 36 54 49 56 69 57
REMARK SMILES IDX 38 58 23 59 24 60 32 61 25 62 31 63 26 64 27 65 28 66 29 67
REMARK SMILES IDX 30 68 53 69 54 70 62 71 55 72 61 73 56 74 57 75 58 76 59 77
REMARK SMILES IDX 60 78 39 79 40 80 48 81 41 82 47 83 42 84 43 85 44 86 45 87
REMARK SMILES IDX 46 88
REMARK H PARENT 75 20 81 22 67 44 37 55
REMARK Flexibility Score: inf
ROOT
ATOM      1  C   UNL     1      -1.607  -4.962  -3.031  1.00  0.00     0.274 C 
ENDROOT
BRANCH   1   2
ATOM      2  O   UNL     1      -1.328  -4.084  -1.929  1.00  0.00    -0.462 OA
BRANCH   2   3
ATOM      3  C   UNL     1      -2.072  -2.945  -1.902  1.00  0.00     0.312 C 
ATOM      4  O   UNL     1      -2.831  -2.589  -2.796  1.00  0.00    -0.252 OA
BRANCH   3   5
ATOM      5  C   UNL     1      -1.875  -2.164  -0.610  1.00  0.00     0.139 C 
BRANCH   5   6
ATOM      6  C   UNL     1      -0.375  -2.122  -0.204  1.00  0.00     0.019 C 
BRANCH   6   7
ATOM      7  C   UNL     1       0.589  -1.512  -1.232  1.00  0.00     0.001 C 
BRANCH   7   8
ATOM      8  C   UNL     1       0.503   0.004  -1.393  1.00  0.00    -0.003 C 
ATOM      9  C   UNL     1       0.944   0.763  -0.150  1.00  0.00     0.004 C 
ENDBRANCH   7   8
ENDBRANCH   6   7
ENDBRANCH   5   6
BRANCH   5  10
ATOM     10  C   UNL     1      -2.822  -2.660   0.537  1.00  0.00     0.140 C 
ATOM     11  C   UNL     1      -2.178  -3.710   1.466  1.00  0.00     0.270 C 
ATOM     12  C   UNL     1      -3.969  -3.548   0.126  1.00  0.00     0.030 A 
ATOM     13  O   UNL     1      -2.294  -4.968   0.784  1.00  0.00    -0.490 OA
ATOM     14  C   UNL     1      -3.537  -4.868   0.223  1.00  0.00     0.129 A 
ATOM     15  C   UNL     1      -5.265  -3.287  -0.276  1.00  0.00     0.014 A 
ATOM     16  C   UNL     1      -4.291  -5.945  -0.179  1.00  0.00     0.093 A 
ATOM     17  C   UNL     1      -6.089  -4.376  -0.612  1.00  0.00     0.047 A 
ATOM     18  C   UNL     1      -5.587  -5.686  -0.584  1.00  0.00     0.119 A 
BRANCH  10  19
ATOM     19  O   UNL     1      -3.262  -1.544   1.311  1.00  0.00    -0.381 OA
ATOM     20  H   UNL     1      -2.498  -0.999   1.555  1.00  0.00     0.212 HD
ENDBRANCH  10  19
BRANCH  18  21
ATOM     21  O   UNL     1      -6.356  -6.758  -0.928  1.00  0.00    -0.508 OA
ATOM     22  H   UNL     1      -5.995  -7.622  -0.900  1.00  0.00     0.293 HD
ENDBRANCH  18  21
ENDBRANCH   5  10
ENDBRANCH   3   5
ENDBRANCH   2   3
ENDBRANCH   1   2
BRANCH   1  23
ATOM     23  C   UNL     1      -0.718  -6.203  -2.937  1.00  0.00     0.275 C 
BRANCH  23  24
ATOM     24  O   UNL     1      -1.050  -6.959  -1.756  1.00  0.00    -0.458 OA
BRANCH  24  25
ATOM     25  C   UNL     1      -0.107  -6.971  -0.777  1.00  0.00     0.338 C 
ATOM     26  O   UNL     1       1.026  -6.539  -0.853  1.00  0.00    -0.246 OA
BRANCH  25  27
ATOM     27  C   UNL     1      -0.717  -7.450   0.488  1.00  0.00     0.060 A 
ATOM     28  C   UNL     1      -0.362  -6.770   1.658  1.00  0.00     0.016 A 
ATOM     29  C   UNL     1      -1.687  -8.460   0.530  1.00  0.00     0.016 A 
ATOM     30  C   UNL     1      -1.043  -7.028   2.847  1.00  0.00     0.010 A 
ATOM     31  C   UNL     1      -2.336  -8.755   1.737  1.00  0.00     0.010 A 
ATOM     32  C   UNL     1      -2.025  -8.030   2.898  1.00  0.00    -0.014 A 
BRANCH  32  33
ATOM     33  C   UNL     1      -2.515  -8.445   4.234  1.00  0.00     0.031 A 
ATOM     34  C   UNL     1      -1.578  -9.276   5.065  1.00  0.00     0.074 A 
ATOM     35  C   UNL     1      -3.684  -8.018   4.747  1.00  0.00     0.049 A 
ATOM     36  N   UNL     1      -1.657  -9.607   6.325  1.00  0.00    -0.248 NA
ATOM     37  C   UNL     1      -0.365  -9.761   4.383  1.00  0.00     0.031 C 
ATOM     38  C   UNL     1      -4.654  -7.158   4.070  1.00  0.00     0.029 A 
ATOM     39  N   UNL     1      -4.239  -8.236   5.986  1.00  0.00    -0.354 N 
ATOM     40  C   UNL     1      -0.480 -10.290   6.600  1.00  0.00     0.074 A 
ATOM     41  C   UNL     1       0.284 -10.348   5.373  1.00  0.00     0.031 C 
ATOM     42  C   UNL     1      -5.680  -6.913   4.908  1.00  0.00     0.029 A 
ATOM     43  C   UNL     1      -5.447  -7.605   6.175  1.00  0.00     0.049 A 
ATOM     44  H   UNL     1      -3.811  -8.794   6.675  1.00  0.00     0.167 HD
ATOM     45  C   UNL     1      -0.065 -10.831   7.767  1.00  0.00     0.031 A 
ATOM     46  C   UNL     1      -6.261  -7.590   7.253  1.00  0.00     0.031 A 
ATOM     47  C   UNL     1      -0.868 -10.890   8.952  1.00  0.00     0.049 A 
ATOM     48  C   UNL     1      -5.842  -8.333   8.501  1.00  0.00     0.074 A 
ATOM     49  C   UNL     1      -0.595 -11.524  10.150  1.00  0.00     0.029 A 
ATOM     50  N   UNL     1      -2.126 -10.319   9.073  1.00  0.00    -0.354 N 
ATOM     51  N   UNL     1      -4.718  -8.962   8.752  1.00  0.00    -0.248 NA
ATOM     52  C   UNL     1      -6.804  -8.358   9.615  1.00  0.00     0.031 C 
ATOM     53  C   UNL     1      -1.712 -11.377  10.980  1.00  0.00     0.029 A 
ATOM     54  C   UNL     1      -2.655 -10.606  10.317  1.00  0.00     0.049 A 
ATOM     55  H   UNL     1      -2.575  -9.789   8.376  1.00  0.00     0.167 HD
ATOM     56  C   UNL     1      -4.829  -9.438  10.056  1.00  0.00     0.074 A 
ATOM     57  C   UNL     1      -6.122  -9.009  10.548  1.00  0.00     0.031 C 
ATOM     58  C   UNL     1      -3.945 -10.166  10.783  1.00  0.00     0.031 A 
BRANCH  45  59
ATOM     59  C   UNL     1       1.293 -11.467   7.753  1.00  0.00    -0.014 A 
ATOM     60  C   UNL     1       2.457 -10.675   7.765  1.00  0.00     0.010 A 
ATOM     61  C   UNL     1       1.407 -12.863   7.642  1.00  0.00     0.010 A 
ATOM     62  C   UNL     1       3.712 -11.268   7.613  1.00  0.00     0.020 A 
ATOM     63  C   UNL     1       2.662 -13.460   7.507  1.00  0.00     0.020 A 
ATOM     64  C   UNL     1       3.804 -12.656   7.469  1.00  0.00     0.054 A 
BRANCH  64  65
ATOM     65  S   UNL     1       5.439 -13.401   7.225  1.00  0.00     0.124 S 
ATOM     66  O   UNL     1       5.719 -13.060   5.832  1.00  0.00    -0.237 OA
ATOM     67  O   UNL     1       6.260 -12.711   8.217  1.00  0.00    -0.237 OA
ATOM     68  O   UNL     1       5.214 -14.821   7.486  1.00  0.00    -0.744 OA
ENDBRANCH  64  65
ENDBRANCH  45  59
BRANCH  46  69
ATOM     69  C   UNL     1      -7.568  -6.872   7.214  1.00  0.00    -0.014 A 
ATOM     70  C   UNL     1      -7.799  -5.743   8.022  1.00  0.00     0.010 A 
ATOM     71  C   UNL     1      -8.617  -7.354   6.409  1.00  0.00     0.010 A 
ATOM     72  C   UNL     1      -9.057  -5.129   8.046  1.00  0.00     0.020 A 
ATOM     73  C   UNL     1      -9.868  -6.729   6.412  1.00  0.00     0.020 A 
ATOM     74  C   UNL     1     -10.086  -5.629   7.243  1.00  0.00     0.054 A 
BRANCH  74  75
ATOM     75  S   UNL     1     -11.705  -4.807   7.265  1.00  0.00     0.124 S 
ATOM     76  O   UNL     1     -12.271  -5.285   8.522  1.00  0.00    -0.237 OA
ATOM     77  O   UNL     1     -11.343  -3.392   7.230  1.00  0.00    -0.237 OA
ATOM     78  O   UNL     1     -12.354  -5.304   6.054  1.00  0.00    -0.744 OA
ENDBRANCH  74  75
ENDBRANCH  46  69
BRANCH  58  79
ATOM     79  C   UNL     1      -4.329 -10.525  12.194  1.00  0.00    -0.014 A 
ATOM     80  C   UNL     1      -5.289 -11.518  12.456  1.00  0.00     0.010 A 
ATOM     81  C   UNL     1      -3.666  -9.909  13.270  1.00  0.00     0.010 A 
ATOM     82  C   UNL     1      -5.599 -11.869  13.773  1.00  0.00     0.020 A 
ATOM     83  C   UNL     1      -3.956 -10.274  14.587  1.00  0.00     0.020 A 
ATOM     84  C   UNL     1      -4.931 -11.242  14.830  1.00  0.00     0.054 A 
BRANCH  84  85
ATOM     85  S   UNL     1      -5.311 -11.747  16.531  1.00  0.00     0.124 S 
ATOM     86  O   UNL     1      -6.566 -11.045  16.783  1.00  0.00    -0.237 OA
ATOM     87  O   UNL     1      -5.414 -13.201  16.423  1.00  0.00    -0.237 OA
ATOM     88  O   UNL     1      -4.162 -11.268  17.297  1.00  0.00    -0.744 OA
ENDBRANCH  84  85
ENDBRANCH  58  79
ENDBRANCH  32  33
ENDBRANCH  25  27
ENDBRANCH  24  25
ENDBRANCH  23  24
ENDBRANCH   1  23
TORSDOF 20
