REMARK SMILES O=C(OCCOC(=O)c1ccc(-c2c3nc(c(-c4ccc(S(=O)(=O)[O-])cc4)c4ccc([nH]4)c(-c4ccc(S(=O)(=O)[O-])cc4)c4nc(c(-c5ccc(S(=O)(=O)[O-])cc5)c5ccc2[nH]5)C=C4)C=C3)cc1)C1=NN(c2ccc(S(=O)(=O)[O-])cc2)C(=O)/C1=C/Nc1ccccc1
REMARK SMILES IDX 5 1 4 2 3 3 2 4 1 5 69 6 70 7 84 8 71 9 82 10 85 11 83 12
REMARK SMILES IDX 72 13 73 14 81 15 74 16 80 17 75 18 76 19 77 20 78 21 79 22
REMARK SMILES IDX 86 23 87 25 88 26 92 27 89 28 91 29 90 30 6 31 7 32 8 33
REMARK SMILES IDX 9 34 10 35 68 36 11 37 67 38 12 39 13 40 14 41 61 42 15 43
REMARK SMILES IDX 66 44 60 45 62 46 16 47 65 48 59 49 58 50 17 52 47 53 28 54
REMARK SMILES IDX 46 55 29 56 32 57 45 58 63 59 30 60 31 61 44 63 64 64 33 65
REMARK SMILES IDX 18 66 19 67 27 68 20 69 26 70 21 71 22 72 23 73 24 74 25 75
REMARK SMILES IDX 48 76 49 77 57 78 50 79 56 80 51 81 52 82 53 83 54 84 55 85
REMARK SMILES IDX 34 86 35 87 43 88 36 89 42 90 37 91 38 92 39 93 40 94 41 95
REMARK H PARENT 86 24 62 51 32 62
REMARK Flexibility Score: inf
ROOT
ATOM      1  C   UNL     1       2.527  -1.450  -0.260  1.00  0.00     0.275 C 
ENDROOT
BRANCH   1   2
ATOM      2  C   UNL     1       3.844  -1.321   0.541  1.00  0.00     0.275 C 
BRANCH   2   3
ATOM      3  O   UNL     1       4.192  -0.035   1.091  1.00  0.00    -0.457 OA
BRANCH   3   4
ATOM      4  C   UNL     1       3.494   1.024   0.659  1.00  0.00     0.359 C 
ATOM      5  O   UNL     1       2.346   1.291   0.967  1.00  0.00    -0.244 OA
BRANCH   4   6
ATOM      6  C   UNL     1       4.330   1.901  -0.236  1.00  0.00     0.183 C 
ATOM      7  N   UNL     1       4.310   3.202  -0.090  1.00  0.00    -0.157 NA
ATOM      8  C   UNL     1       5.256   1.462  -1.313  1.00  0.00     0.093 C 
ATOM      9  N   UNL     1       5.178   3.693  -1.044  1.00  0.00    -0.196 N 
ATOM     10  C   UNL     1       5.904   2.724  -1.738  1.00  0.00     0.282 C 
ATOM     11  C   UNL     1       5.487   0.412  -2.120  1.00  0.00     0.099 C 
ATOM     12  O   UNL     1       6.775   2.832  -2.583  1.00  0.00    -0.267 OA
BRANCH   9  13
ATOM     13  C   UNL     1       5.043   5.034  -1.435  1.00  0.00     0.069 A 
ATOM     14  C   UNL     1       4.789   6.038  -0.498  1.00  0.00     0.030 A 
ATOM     15  C   UNL     1       5.128   5.363  -2.796  1.00  0.00     0.030 A 
ATOM     16  C   UNL     1       4.731   7.372  -0.912  1.00  0.00     0.021 A 
ATOM     17  C   UNL     1       4.990   6.679  -3.221  1.00  0.00     0.021 A 
ATOM     18  C   UNL     1       4.828   7.685  -2.274  1.00  0.00     0.054 A 
BRANCH  18  19
ATOM     19  S   UNL     1       4.856   9.379  -2.800  1.00  0.00     0.124 S 
ATOM     20  O   UNL     1       3.579   9.972  -2.516  1.00  0.00    -0.237 OA
ATOM     21  O   UNL     1       6.106   9.942  -2.328  1.00  0.00    -0.237 OA
ATOM     22  O   UNL     1       4.924   9.325  -4.412  1.00  0.00    -0.744 OA
ENDBRANCH  18  19
ENDBRANCH   9  13
BRANCH  11  23
ATOM     23  N   UNL     1       4.701  -0.673  -2.396  1.00  0.00    -0.361 N 
ATOM     24  H   UNL     1       3.767  -0.583  -2.099  1.00  0.00     0.166 HD
BRANCH  23  25
ATOM     25  C   UNL     1       4.991  -1.892  -3.027  1.00  0.00     0.038 A 
ATOM     26  C   UNL     1       3.941  -2.593  -3.646  1.00  0.00     0.026 A 
ATOM     27  C   UNL     1       6.267  -2.455  -3.051  1.00  0.00     0.026 A 
ATOM     28  C   UNL     1       4.145  -3.851  -4.216  1.00  0.00     0.002 A 
ATOM     29  C   UNL     1       6.472  -3.724  -3.606  1.00  0.00     0.002 A 
ATOM     30  C   UNL     1       5.410  -4.425  -4.179  1.00  0.00     0.000 A 
ENDBRANCH  23  25
ENDBRANCH  11  23
ENDBRANCH   4   6
ENDBRANCH   3   4
ENDBRANCH   2   3
ENDBRANCH   1   2
BRANCH   1  31
ATOM     31  O   UNL     1       2.409  -0.378  -1.228  1.00  0.00    -0.458 OA
BRANCH  31  32
ATOM     32  C   UNL     1       1.181  -0.185  -1.769  1.00  0.00     0.338 C 
ATOM     33  O   UNL     1       0.270  -0.990  -1.768  1.00  0.00    -0.246 OA
BRANCH  32  34
ATOM     34  C   UNL     1       1.087   1.230  -2.220  1.00  0.00     0.060 A 
ATOM     35  C   UNL     1       0.059   2.003  -1.679  1.00  0.00     0.016 A 
ATOM     36  C   UNL     1       1.990   1.813  -3.118  1.00  0.00     0.016 A 
ATOM     37  C   UNL     1      -0.084   3.346  -2.047  1.00  0.00     0.010 A 
ATOM     38  C   UNL     1       1.860   3.173  -3.462  1.00  0.00     0.010 A 
ATOM     39  C   UNL     1       0.809   3.954  -2.946  1.00  0.00    -0.014 A 
BRANCH  39  40
ATOM     40  C   UNL     1       0.583   5.373  -3.372  1.00  0.00     0.031 A 
ATOM     41  C   UNL     1       0.158   5.686  -4.790  1.00  0.00     0.074 A 
ATOM     42  C   UNL     1       0.678   6.388  -2.483  1.00  0.00     0.049 A 
ATOM     43  N   UNL     1      -0.156   6.842  -5.323  1.00  0.00    -0.248 NA
ATOM     44  C   UNL     1       0.067   4.556  -5.730  1.00  0.00     0.031 C 
ATOM     45  C   UNL     1       1.061   6.249  -1.077  1.00  0.00     0.029 A 
ATOM     46  N   UNL     1       0.452   7.740  -2.627  1.00  0.00    -0.354 N 
ATOM     47  C   UNL     1      -0.527   6.573  -6.636  1.00  0.00     0.074 A 
ATOM     48  C   UNL     1      -0.314   5.158  -6.849  1.00  0.00     0.031 C 
ATOM     49  C   UNL     1       1.037   7.459  -0.490  1.00  0.00     0.029 A 
ATOM     50  C   UNL     1       0.680   8.473  -1.480  1.00  0.00     0.049 A 
ATOM     51  H   UNL     1       0.155   8.147  -3.473  1.00  0.00     0.167 HD
ATOM     52  C   UNL     1      -1.044   7.410  -7.569  1.00  0.00     0.031 A 
ATOM     53  C   UNL     1       0.647   9.806  -1.254  1.00  0.00     0.031 A 
ATOM     54  C   UNL     1      -1.271   8.817  -7.370  1.00  0.00     0.049 A 
ATOM     55  C   UNL     1       0.285  10.735  -2.391  1.00  0.00     0.074 A 
ATOM     56  C   UNL     1      -1.870   9.721  -8.234  1.00  0.00     0.029 A 
ATOM     57  N   UNL     1      -0.904   9.529  -6.242  1.00  0.00    -0.354 N 
ATOM     58  N   UNL     1      -0.148  10.441  -3.596  1.00  0.00    -0.248 NA
ATOM     59  C   UNL     1       0.404  12.181  -2.139  1.00  0.00     0.031 C 
ATOM     60  C   UNL     1      -1.804  10.992  -7.654  1.00  0.00     0.029 A 
ATOM     61  C   UNL     1      -1.212  10.870  -6.409  1.00  0.00     0.049 A 
ATOM     62  H   UNL     1      -0.486   9.141  -5.440  1.00  0.00     0.167 HD
ATOM     63  C   UNL     1      -0.415  11.663  -4.211  1.00  0.00     0.074 A 
ATOM     64  C   UNL     1      -0.078  12.698  -3.260  1.00  0.00     0.031 C 
ATOM     65  C   UNL     1      -0.915  11.900  -5.449  1.00  0.00     0.031 A 
BRANCH  52  66
ATOM     66  C   UNL     1      -1.448   6.825  -8.898  1.00  0.00    -0.014 A 
ATOM     67  C   UNL     1      -2.605   6.033  -9.004  1.00  0.00     0.010 A 
ATOM     68  C   UNL     1      -0.735   7.157 -10.065  1.00  0.00     0.010 A 
ATOM     69  C   UNL     1      -3.030   5.564 -10.250  1.00  0.00     0.020 A 
ATOM     70  C   UNL     1      -1.170   6.707 -11.316  1.00  0.00     0.020 A 
ATOM     71  C   UNL     1      -2.311   5.905 -11.399  1.00  0.00     0.054 A 
BRANCH  71  72
ATOM     72  S   UNL     1      -2.919   5.326 -13.007  1.00  0.00     0.124 S 
ATOM     73  O   UNL     1      -2.594   3.903 -12.955  1.00  0.00    -0.237 OA
ATOM     74  O   UNL     1      -4.343   5.647 -12.945  1.00  0.00    -0.237 OA
ATOM     75  O   UNL     1      -2.148   6.106 -13.971  1.00  0.00    -0.744 OA
ENDBRANCH  71  72
ENDBRANCH  52  66
BRANCH  53  76
ATOM     76  C   UNL     1       1.109  10.380   0.053  1.00  0.00    -0.014 A 
ATOM     77  C   UNL     1       0.293  11.173   0.876  1.00  0.00     0.010 A 
ATOM     78  C   UNL     1       2.456  10.224   0.419  1.00  0.00     0.010 A 
ATOM     79  C   UNL     1       0.835  11.826   1.996  1.00  0.00     0.020 A 
ATOM     80  C   UNL     1       3.001  10.845   1.540  1.00  0.00     0.020 A 
ATOM     81  C   UNL     1       2.189  11.663   2.315  1.00  0.00     0.054 A 
BRANCH  81  82
ATOM     82  S   UNL     1       2.891  12.548   3.734  1.00  0.00     0.124 S 
ATOM     83  O   UNL     1       2.741  13.943   3.332  1.00  0.00    -0.237 OA
ATOM     84  O   UNL     1       2.032  12.106   4.829  1.00  0.00    -0.237 OA
ATOM     85  O   UNL     1       4.268  12.062   3.797  1.00  0.00    -0.744 OA
ENDBRANCH  81  82
ENDBRANCH  53  76
BRANCH  65  86
ATOM     86  C   UNL     1      -1.236  13.325  -5.819  1.00  0.00    -0.014 A 
ATOM     87  C   UNL     1      -0.231  14.249  -6.150  1.00  0.00     0.010 A 
ATOM     88  C   UNL     1      -2.584  13.727  -5.889  1.00  0.00     0.010 A 
ATOM     89  C   UNL     1      -0.567  15.557  -6.519  1.00  0.00     0.020 A 
ATOM     90  C   UNL     1      -2.925  15.024  -6.280  1.00  0.00     0.020 A 
ATOM     91  C   UNL     1      -1.912  15.937  -6.581  1.00  0.00     0.054 A 
BRANCH  91  92
ATOM     92  S   UNL     1      -2.328  17.624  -7.106  1.00  0.00     0.124 S 
ATOM     93  O   UNL     1      -1.990  18.405  -5.919  1.00  0.00    -0.237 OA
ATOM     94  O   UNL     1      -1.456  17.826  -8.261  1.00  0.00    -0.237 OA
ATOM     95  O   UNL     1      -3.754  17.549  -7.417  1.00  0.00    -0.744 OA
ENDBRANCH  91  92
ENDBRANCH  65  86
ENDBRANCH  39  40
ENDBRANCH  32  34
ENDBRANCH  31  32
ENDBRANCH   1  31
TORSDOF 18
