REMARK SMILES C=CCc1cccc(-c2ccc([C@@H](C)C(=O)OCCOC(=O)c3ccc(-c4c5nc(c(-c6ccc(S(=O)(=O)[O-])cc6)c6ccc([nH]6)c(-c6ccc(S(=O)(=O)[O-])cc6)c6nc(c(-c7ccc(S(=O)(=O)[O-])cc7)c7ccc4[nH]7)C=C6)C=C5)cc3)cc2)c1
REMARK SMILES IDX 18 1 17 2 15 3 16 4 13 5 14 6 12 7 9 8 10 9 84 10 11 11
REMARK SMILES IDX 83 12 8 13 4 14 5 15 85 16 6 17 7 18 3 19 2 20 1 21 19 22
REMARK SMILES IDX 20 23 21 24 22 25 23 26 24 27 82 28 25 29 81 30 26 31 27 32
REMARK SMILES IDX 28 33 75 34 29 35 80 36 74 37 76 38 30 39 79 40 73 41 72 42
REMARK SMILES IDX 31 44 61 45 42 46 60 47 43 48 46 49 59 50 77 51 44 52 45 53
REMARK SMILES IDX 58 55 78 56 47 57 32 58 33 59 41 60 34 61 40 62 35 63 36 64
REMARK SMILES IDX 37 65 38 66 39 67 62 68 63 69 71 70 64 71 70 72 65 73 66 74
REMARK SMILES IDX 67 75 68 76 69 77 48 78 49 79 57 80 50 81 56 82 51 83 52 84
REMARK SMILES IDX 53 85 54 86 55 87
REMARK H PARENT 76 43 46 54
REMARK Flexibility Score: inf
ROOT
ATOM      1  C   UNL     1       4.039  -9.012  -1.985  1.00  0.00     0.274 C 
ENDROOT
BRANCH   1   2
ATOM      2  O   UNL     1       2.946  -8.959  -1.049  1.00  0.00    -0.462 OA
BRANCH   2   3
ATOM      3  C   UNL     1       3.144  -9.557   0.155  1.00  0.00     0.313 C 
ATOM      4  O   UNL     1       4.147 -10.202   0.446  1.00  0.00    -0.252 OA
BRANCH   3   5
ATOM      5  C   UNL     1       1.968  -9.416   1.114  1.00  0.00     0.126 C 
ATOM      6  C   UNL     1       1.126 -10.691   1.090  1.00  0.00     0.025 C 
BRANCH   5   7
ATOM      7  C   UNL     1       1.127  -8.158   0.959  1.00  0.00    -0.034 A 
ATOM      8  C   UNL     1      -0.456  -5.803   0.739  1.00  0.00    -0.018 A 
ATOM      9  C   UNL     1      -0.500  -6.804  -0.243  1.00  0.00     0.009 A 
ATOM     10  C   UNL     1       0.407  -5.995   1.827  1.00  0.00     0.009 A 
ATOM     11  C   UNL     1       0.275  -7.964  -0.136  1.00  0.00     0.005 A 
ATOM     12  C   UNL     1       1.183  -7.154   1.937  1.00  0.00     0.005 A 
BRANCH   8  13
ATOM     13  C   UNL     1      -1.312  -4.608   0.647  1.00  0.00    -0.018 A 
ATOM     14  C   UNL     1      -1.594  -2.166   0.685  1.00  0.00    -0.044 A 
ATOM     15  C   UNL     1      -2.976  -2.346   0.513  1.00  0.00     0.004 A 
ATOM     16  C   UNL     1      -0.777  -3.309   0.752  1.00  0.00     0.012 A 
ATOM     17  C   UNL     1      -3.525  -3.621   0.402  1.00  0.00     0.001 A 
ATOM     18  C   UNL     1      -2.698  -4.741   0.470  1.00  0.00     0.009 A 
BRANCH  14  19
ATOM     19  C   UNL     1      -1.078  -0.748   0.825  1.00  0.00     0.062 C 
BRANCH  19  20
ATOM     20  C   UNL     1       0.412  -0.568   0.852  1.00  0.00    -0.030 C 
ATOM     21  C   UNL     1       1.119   0.056  -0.102  1.00  0.00     0.004 C 
ENDBRANCH  19  20
ENDBRANCH  14  19
ENDBRANCH   8  13
ENDBRANCH   5   7
ENDBRANCH   3   5
ENDBRANCH   2   3
ENDBRANCH   1   2
BRANCH   1  22
ATOM     22  C   UNL     1       4.816  -7.695  -2.005  1.00  0.00     0.275 C 
BRANCH  22  23
ATOM     23  O   UNL     1       5.538  -7.500  -0.776  1.00  0.00    -0.458 OA
BRANCH  23  24
ATOM     24  C   UNL     1       4.929  -6.694   0.125  1.00  0.00     0.338 C 
ATOM     25  O   UNL     1       3.884  -6.086  -0.011  1.00  0.00    -0.246 OA
BRANCH  24  26
ATOM     26  C   UNL     1       5.679  -6.723   1.388  1.00  0.00     0.060 A 
ATOM     27  C   UNL     1       5.104  -7.372   2.483  1.00  0.00     0.016 A 
ATOM     28  C   UNL     1       6.889  -6.042   1.519  1.00  0.00     0.016 A 
ATOM     29  C   UNL     1       5.728  -7.328   3.726  1.00  0.00     0.010 A 
ATOM     30  C   UNL     1       7.521  -6.008   2.766  1.00  0.00     0.010 A 
ATOM     31  C   UNL     1       6.936  -6.636   3.880  1.00  0.00    -0.014 A 
BRANCH  31  32
ATOM     32  C   UNL     1       7.562  -6.536   5.220  1.00  0.00     0.031 A 
ATOM     33  C   UNL     1       7.505  -5.239   5.976  1.00  0.00     0.074 A 
ATOM     34  C   UNL     1       8.163  -7.611   5.761  1.00  0.00     0.049 A 
ATOM     35  N   UNL     1       8.044  -4.932   7.128  1.00  0.00    -0.248 NA
ATOM     36  C   UNL     1       6.744  -4.143   5.356  1.00  0.00     0.031 C 
ATOM     37  C   UNL     1       8.246  -8.935   5.141  1.00  0.00     0.029 A 
ATOM     38  N   UNL     1       8.819  -7.760   6.957  1.00  0.00    -0.354 N 
ATOM     39  C   UNL     1       7.708  -3.604   7.361  1.00  0.00     0.074 A 
ATOM     40  C   UNL     1       6.928  -3.159   6.226  1.00  0.00     0.031 C 
ATOM     41  C   UNL     1       8.913  -9.761   5.963  1.00  0.00     0.029 A 
ATOM     42  C   UNL     1       9.340  -9.017   7.145  1.00  0.00     0.049 A 
ATOM     43  H   UNL     1       8.908  -7.035   7.617  1.00  0.00     0.167 HD
ATOM     44  C   UNL     1       8.023  -2.826   8.425  1.00  0.00     0.031 A 
ATOM     45  C   UNL     1      10.098  -9.508   8.144  1.00  0.00     0.031 A 
ATOM     46  C   UNL     1       8.798  -3.272   9.552  1.00  0.00     0.049 A 
ATOM     47  C   UNL     1      10.471  -8.613   9.292  1.00  0.00     0.074 A 
ATOM     48  C   UNL     1       9.164  -2.559  10.682  1.00  0.00     0.029 A 
ATOM     49  N   UNL     1       9.328  -4.545   9.694  1.00  0.00    -0.354 N 
ATOM     50  N   UNL     1      10.149  -7.357   9.495  1.00  0.00    -0.248 NA
ATOM     51  C   UNL     1      11.310  -9.200  10.346  1.00  0.00     0.031 C 
ATOM     52  C   UNL     1       9.948  -3.392  11.489  1.00  0.00     0.029 A 
ATOM     53  C   UNL     1      10.032  -4.636  10.883  1.00  0.00     0.049 A 
ATOM     54  H   UNL     1       9.219  -5.278   9.046  1.00  0.00     0.167 HD
ATOM     55  C   UNL     1      10.733  -7.008  10.707  1.00  0.00     0.074 A 
ATOM     56  C   UNL     1      11.415  -8.189  11.199  1.00  0.00     0.031 C 
ATOM     57  C   UNL     1      10.708  -5.817  11.354  1.00  0.00     0.031 A 
BRANCH  44  58
ATOM     58  C   UNL     1       7.558  -1.395   8.396  1.00  0.00    -0.014 A 
ATOM     59  C   UNL     1       6.210  -1.062   8.617  1.00  0.00     0.010 A 
ATOM     60  C   UNL     1       8.492  -0.367   8.173  1.00  0.00     0.010 A 
ATOM     61  C   UNL     1       5.798   0.273   8.577  1.00  0.00     0.020 A 
ATOM     62  C   UNL     1       8.087   0.970   8.153  1.00  0.00     0.020 A 
ATOM     63  C   UNL     1       6.738   1.280   8.338  1.00  0.00     0.054 A 
BRANCH  63  64
ATOM     64  S   UNL     1       6.182   3.007   8.302  1.00  0.00     0.124 S 
ATOM     65  O   UNL     1       5.535   3.086   6.994  1.00  0.00    -0.237 OA
ATOM     66  O   UNL     1       5.284   3.081   9.451  1.00  0.00    -0.237 OA
ATOM     67  O   UNL     1       7.419   3.772   8.432  1.00  0.00    -0.744 OA
ENDBRANCH  63  64
ENDBRANCH  44  58
BRANCH  45  68
ATOM     68  C   UNL     1      10.575 -10.915   8.084  1.00  0.00    -0.014 A 
ATOM     69  C   UNL     1      10.036 -11.892   8.938  1.00  0.00     0.010 A 
ATOM     70  C   UNL     1      11.560 -11.288   7.151  1.00  0.00     0.010 A 
ATOM     71  C   UNL     1      10.481 -13.216   8.867  1.00  0.00     0.020 A 
ATOM     72  C   UNL     1      11.990 -12.614   7.061  1.00  0.00     0.020 A 
ATOM     73  C   UNL     1      11.454 -13.569   7.926  1.00  0.00     0.054 A 
BRANCH  73  74
ATOM     74  S   UNL     1      11.971 -15.304   7.803  1.00  0.00     0.124 S 
ATOM     75  O   UNL     1      12.873 -15.433   8.943  1.00  0.00    -0.237 OA
ATOM     76  O   UNL     1      10.704 -16.023   7.914  1.00  0.00    -0.237 OA
ATOM     77  O   UNL     1      12.606 -15.377   6.489  1.00  0.00    -0.744 OA
ENDBRANCH  73  74
ENDBRANCH  45  68
BRANCH  57  78
ATOM     78  C   UNL     1      11.418  -5.738  12.678  1.00  0.00    -0.014 A 
ATOM     79  C   UNL     1      12.821  -5.675  12.745  1.00  0.00     0.010 A 
ATOM     80  C   UNL     1      10.669  -5.680  13.867  1.00  0.00     0.010 A 
ATOM     81  C   UNL     1      13.464  -5.584  13.983  1.00  0.00     0.020 A 
ATOM     82  C   UNL     1      11.307  -5.567  15.104  1.00  0.00     0.020 A 
ATOM     83  C   UNL     1      12.703  -5.534  15.155  1.00  0.00     0.054 A 
BRANCH  83  84
ATOM     84  S   UNL     1      13.555  -5.376  16.749  1.00  0.00     0.124 S 
ATOM     85  O   UNL     1      14.028  -6.739  16.976  1.00  0.00    -0.237 OA
ATOM     86  O   UNL     1      14.595  -4.390  16.464  1.00  0.00    -0.237 OA
ATOM     87  O   UNL     1      12.506  -4.920  17.657  1.00  0.00    -0.744 OA
ENDBRANCH  83  84
ENDBRANCH  57  78
ENDBRANCH  31  32
ENDBRANCH  24  26
ENDBRANCH  23  24
ENDBRANCH  22  23
ENDBRANCH   1  22
TORSDOF 18
