REMARK SMILES O=C(OCCOC(=O)c1ccc(-c2c3nc(c(-c4ccc(S(=O)(=O)[O-])cc4)c4ccc([nH]4)c(-c4ccc(S(=O)(=O)[O-])cc4)c4nc(c(-c5ccc(S(=O)(=O)[O-])cc5)c5ccc2[nH]5)C=C4)C=C3)cc1)c1ccc(C[C@H]2CCN(C(=O)Cc3cccc(O)c3)C2)cc1
REMARK SMILES IDX 3 1 2 2 1 3 69 4 70 5 90 6 71 7 89 8 72 9 73 10 74 11 75 12
REMARK SMILES IDX 88 13 76 14 77 15 78 16 79 17 80 18 81 19 82 20 87 21 83 22
REMARK SMILES IDX 85 23 84 24 86 25 4 27 5 28 6 29 7 30 8 31 9 32 10 33 68 34
REMARK SMILES IDX 11 35 67 36 12 37 13 38 14 39 61 40 15 41 66 42 60 43 62 44
REMARK SMILES IDX 16 45 65 46 59 47 58 48 17 50 47 51 28 52 46 53 29 54 32 55
REMARK SMILES IDX 45 56 63 57 30 58 31 59 44 61 64 62 33 63 18 64 19 65 27 66
REMARK SMILES IDX 20 67 26 68 21 69 22 70 23 71 24 72 25 73 48 74 49 75 57 76
REMARK SMILES IDX 50 77 56 78 51 79 52 80 53 81 54 82 55 83 34 84 35 85 43 86
REMARK SMILES IDX 36 87 42 88 37 89 38 90 39 91 40 92 41 93
REMARK H PARENT 86 26 62 49 32 60
REMARK Flexibility Score: inf
ROOT
ATOM      1  O   UNL     1       7.785  -4.164   8.140  1.00  0.00    -0.458 OA
ENDROOT
BRANCH   1   2
ATOM      2  C   UNL     1       6.959  -4.980   7.433  1.00  0.00     0.338 C 
ATOM      3  O   UNL     1       6.202  -5.728   8.048  1.00  0.00    -0.246 OA
BRANCH   2   4
ATOM      4  C   UNL     1       7.019  -5.112   5.939  1.00  0.00     0.060 A 
ATOM      5  C   UNL     1       7.772  -4.298   5.112  1.00  0.00     0.016 A 
ATOM      6  C   UNL     1       6.340  -6.181   5.322  1.00  0.00     0.016 A 
ATOM      7  C   UNL     1       7.933  -4.580   3.765  1.00  0.00     0.004 A 
ATOM      8  C   UNL     1       6.397  -6.387   3.927  1.00  0.00     0.004 A 
ATOM      9  C   UNL     1       7.186  -5.560   3.126  1.00  0.00    -0.048 A 
BRANCH   9  10
ATOM     10  C   UNL     1       7.260  -5.661   1.618  1.00  0.00     0.041 C 
BRANCH  10  11
ATOM     11  C   UNL     1       6.747  -4.388   0.905  1.00  0.00     0.015 C 
ATOM     12  C   UNL     1       7.472  -3.081   1.274  1.00  0.00     0.027 C 
ATOM     13  C   UNL     1       6.934  -4.417  -0.619  1.00  0.00     0.123 C 
ATOM     14  C   UNL     1       7.132  -2.148   0.148  1.00  0.00     0.120 C 
ATOM     15  N   UNL     1       7.108  -3.017  -1.008  1.00  0.00    -0.342 N 
BRANCH  15  16
ATOM     16  C   UNL     1       7.245  -2.629  -2.323  1.00  0.00     0.227 C 
ATOM     17  O   UNL     1       7.220  -3.446  -3.245  1.00  0.00    -0.275 OA
BRANCH  16  18
ATOM     18  C   UNL     1       7.472  -1.146  -2.607  1.00  0.00     0.135 C 
BRANCH  18  19
ATOM     19  C   UNL     1       6.370  -0.197  -2.175  1.00  0.00    -0.035 A 
ATOM     20  C   UNL     1       6.668   1.167  -2.018  1.00  0.00     0.004 A 
ATOM     21  C   UNL     1       5.062  -0.634  -1.910  1.00  0.00     0.050 A 
ATOM     22  C   UNL     1       5.697   2.060  -1.557  1.00  0.00     0.004 A 
ATOM     23  C   UNL     1       4.118   0.256  -1.405  1.00  0.00     0.115 A 
ATOM     24  C   UNL     1       4.423   1.599  -1.234  1.00  0.00     0.046 A 
BRANCH  23  25
ATOM     25  O   UNL     1       2.877  -0.170  -1.035  1.00  0.00    -0.508 OA
ATOM     26  H   UNL     1       2.253   0.442  -0.697  1.00  0.00     0.293 HD
ENDBRANCH  23  25
ENDBRANCH  18  19
ENDBRANCH  16  18
ENDBRANCH  15  16
ENDBRANCH  10  11
ENDBRANCH   9  10
ENDBRANCH   2   4
ENDBRANCH   1   2
BRANCH   1  27
ATOM     27  C   UNL     1       8.316  -2.871   7.777  1.00  0.00     0.275 C 
BRANCH  27  28
ATOM     28  C   UNL     1       9.832  -2.906   7.497  1.00  0.00     0.275 C 
BRANCH  28  29
ATOM     29  O   UNL     1      10.207  -3.954   6.579  1.00  0.00    -0.458 OA
BRANCH  29  30
ATOM     30  C   UNL     1      10.485  -5.152   7.155  1.00  0.00     0.338 C 
ATOM     31  O   UNL     1      10.652  -5.340   8.351  1.00  0.00    -0.246 OA
BRANCH  30  32
ATOM     32  C   UNL     1      10.414  -6.259   6.162  1.00  0.00     0.060 A 
ATOM     33  C   UNL     1      10.007  -7.514   6.629  1.00  0.00     0.016 A 
ATOM     34  C   UNL     1      10.731  -6.103   4.807  1.00  0.00     0.016 A 
ATOM     35  C   UNL     1       9.988  -8.620   5.773  1.00  0.00     0.010 A 
ATOM     36  C   UNL     1      10.676  -7.208   3.939  1.00  0.00     0.010 A 
ATOM     37  C   UNL     1      10.361  -8.489   4.429  1.00  0.00    -0.014 A 
BRANCH  37  38
ATOM     38  C   UNL     1      10.604  -9.718   3.618  1.00  0.00     0.031 A 
ATOM     39  C   UNL     1      12.028 -10.150   3.356  1.00  0.00     0.074 A 
ATOM     40  C   UNL     1       9.597 -10.502   3.184  1.00  0.00     0.049 A 
ATOM     41  N   UNL     1      12.474 -11.258   2.817  1.00  0.00    -0.248 NA
ATOM     42  C   UNL     1      13.088  -9.209   3.752  1.00  0.00     0.031 C 
ATOM     43  C   UNL     1       8.171 -10.234   3.359  1.00  0.00     0.029 A 
ATOM     44  N   UNL     1       9.631 -11.706   2.516  1.00  0.00    -0.354 N 
ATOM     45  C   UNL     1      13.860 -11.149   2.819  1.00  0.00     0.074 A 
ATOM     46  C   UNL     1      14.179  -9.844   3.355  1.00  0.00     0.031 C 
ATOM     47  C   UNL     1       7.466 -11.254   2.832  1.00  0.00     0.029 A 
ATOM     48  C   UNL     1       8.389 -12.246   2.278  1.00  0.00     0.049 A 
ATOM     49  H   UNL     1      10.468 -12.141   2.235  1.00  0.00     0.167 HD
ATOM     50  C   UNL     1      14.794 -12.053   2.438  1.00  0.00     0.031 A 
ATOM     51  C   UNL     1       8.031 -13.413   1.701  1.00  0.00     0.031 A 
ATOM     52  C   UNL     1      14.504 -13.354   1.902  1.00  0.00     0.049 A 
ATOM     53  C   UNL     1       9.087 -14.389   1.242  1.00  0.00     0.074 A 
ATOM     54  C   UNL     1      15.394 -14.348   1.530  1.00  0.00     0.029 A 
ATOM     55  N   UNL     1      13.233 -13.840   1.649  1.00  0.00    -0.354 N 
ATOM     56  N   UNL     1      10.392 -14.301   1.331  1.00  0.00    -0.248 NA
ATOM     57  C   UNL     1       8.613 -15.641   0.629  1.00  0.00     0.031 C 
ATOM     58  C   UNL     1      14.661 -15.417   1.003  1.00  0.00     0.029 A 
ATOM     59  C   UNL     1      13.314 -15.110   1.102  1.00  0.00     0.049 A 
ATOM     60  H   UNL     1      12.396 -13.355   1.830  1.00  0.00     0.167 HD
ATOM     61  C   UNL     1      10.889 -15.504   0.834  1.00  0.00     0.074 A 
ATOM     62  C   UNL     1       9.747 -16.302   0.443  1.00  0.00     0.031 C 
ATOM     63  C   UNL     1      12.178 -15.913   0.726  1.00  0.00     0.031 A 
BRANCH  50  64
ATOM     64  C   UNL     1      16.236 -11.646   2.582  1.00  0.00    -0.014 A 
ATOM     65  C   UNL     1      16.836 -11.536   3.849  1.00  0.00     0.010 A 
ATOM     66  C   UNL     1      17.002 -11.379   1.433  1.00  0.00     0.010 A 
ATOM     67  C   UNL     1      18.161 -11.113   3.968  1.00  0.00     0.020 A 
ATOM     68  C   UNL     1      18.336 -10.982   1.547  1.00  0.00     0.020 A 
ATOM     69  C   UNL     1      18.900 -10.830   2.815  1.00  0.00     0.054 A 
BRANCH  69  70
ATOM     70  S   UNL     1      20.617 -10.274   2.996  1.00  0.00     0.124 S 
ATOM     71  O   UNL     1      20.439  -8.894   3.440  1.00  0.00    -0.237 OA
ATOM     72  O   UNL     1      21.149 -11.193   3.998  1.00  0.00    -0.237 OA
ATOM     73  O   UNL     1      21.174 -10.429   1.654  1.00  0.00    -0.744 OA
ENDBRANCH  69  70
ENDBRANCH  50  64
BRANCH  51  74
ATOM     74  C   UNL     1       6.590 -13.762   1.550  1.00  0.00    -0.014 A 
ATOM     75  C   UNL     1       6.016 -14.783   2.329  1.00  0.00     0.010 A 
ATOM     76  C   UNL     1       5.796 -13.101   0.597  1.00  0.00     0.010 A 
ATOM     77  C   UNL     1       4.681 -15.154   2.140  1.00  0.00     0.020 A 
ATOM     78  C   UNL     1       4.454 -13.453   0.421  1.00  0.00     0.020 A 
ATOM     79  C   UNL     1       3.909 -14.487   1.185  1.00  0.00     0.054 A 
BRANCH  79  80
ATOM     80  S   UNL     1       2.169 -14.960   0.979  1.00  0.00     0.124 S 
ATOM     81  O   UNL     1       2.281 -16.228   0.267  1.00  0.00    -0.237 OA
ATOM     82  O   UNL     1       1.699 -15.047   2.360  1.00  0.00    -0.237 OA
ATOM     83  O   UNL     1       1.605 -13.854   0.207  1.00  0.00    -0.744 OA
ENDBRANCH  79  80
ENDBRANCH  51  74
BRANCH  63  84
ATOM     84  C   UNL     1      12.438 -17.311   0.224  1.00  0.00    -0.014 A 
ATOM     85  C   UNL     1      12.231 -17.667  -1.121  1.00  0.00     0.010 A 
ATOM     86  C   UNL     1      12.952 -18.276   1.112  1.00  0.00     0.010 A 
ATOM     87  C   UNL     1      12.496 -18.969  -1.558  1.00  0.00     0.020 A 
ATOM     88  C   UNL     1      13.244 -19.571   0.673  1.00  0.00     0.020 A 
ATOM     89  C   UNL     1      12.998 -19.915  -0.657  1.00  0.00     0.054 A 
BRANCH  89  90
ATOM     90  S   UNL     1      13.364 -21.589  -1.253  1.00  0.00     0.124 S 
ATOM     91  O   UNL     1      12.030 -22.172  -1.361  1.00  0.00    -0.237 OA
ATOM     92  O   UNL     1      14.046 -21.339  -2.521  1.00  0.00    -0.237 OA
ATOM     93  O   UNL     1      14.208 -22.154  -0.202  1.00  0.00    -0.744 OA
ENDBRANCH  89  90
ENDBRANCH  63  84
ENDBRANCH  37  38
ENDBRANCH  30  32
ENDBRANCH  29  30
ENDBRANCH  28  29
ENDBRANCH  27  28
ENDBRANCH   1  27
TORSDOF 20
