REMARK SMILES CC[N@@H+](C[C@@H](C)C(=O)OCCOC(=O)c1ccc(-c2c3nc(c(-c4ccc(S(=O)(=O)[O-])cc4)c4ccc([nH]4)c(-c4ccc(S(=O)(=O)[O-])cc4)c4nc(c(-c5ccc(S(=O)(=O)[O-])cc5)c5ccc2[nH]5)C=C4)C=C3)cc1)[C@@H]1CCC[C@H](S(C)(=O)=O)C1
REMARK SMILES IDX 10 1 9 2 7 3 8 4 5 5 6 6 4 7 3 8 2 10 1 11 75 12 76 13 84 14
REMARK SMILES IDX 77 15 79 16 78 17 80 18 81 19 82 20 83 21 11 22 12 23 13 24
REMARK SMILES IDX 14 25 15 26 16 27 74 28 17 29 73 30 18 31 19 32 20 33 67 34
REMARK SMILES IDX 21 35 72 36 66 37 68 38 22 39 71 40 65 41 64 42 23 44 53 45
REMARK SMILES IDX 34 46 52 47 35 48 38 49 51 50 69 51 36 52 37 53 50 55 70 56
REMARK SMILES IDX 39 57 24 58 25 59 33 60 26 61 32 62 27 63 28 64 29 65 30 66
REMARK SMILES IDX 31 67 54 68 55 69 63 70 56 71 62 72 57 73 58 74 59 75 60 76
REMARK SMILES IDX 61 77 40 78 41 79 49 80 42 81 48 82 43 83 44 84 45 85 46 86
REMARK SMILES IDX 47 87
REMARK H PARENT 3 9 68 43 38 54
REMARK Flexibility Score: inf
ROOT
ATOM      1  C   UNL     1       0.028   3.145  -7.211  1.00  0.00     0.274 C 
ENDROOT
BRANCH   1   2
ATOM      2  O   UNL     1       0.627   2.348  -6.170  1.00  0.00    -0.462 OA
BRANCH   2   3
ATOM      3  C   UNL     1       0.972   3.035  -5.048  1.00  0.00     0.314 C 
ATOM      4  O   UNL     1       0.756   4.229  -4.874  1.00  0.00    -0.252 OA
BRANCH   3   5
ATOM      5  C   UNL     1       1.795   2.214  -4.074  1.00  0.00     0.151 C 
ATOM      6  C   UNL     1       3.224   2.239  -4.623  1.00  0.00     0.026 C 
BRANCH   5   7
ATOM      7  C   UNL     1       1.223   0.799  -3.814  1.00  0.00     0.277 C 
BRANCH   7   8
ATOM      8  N   UNL     1       1.468   0.140  -2.493  1.00  0.00    -0.332 N 
ATOM      9  H   UNL     1       1.243  -0.851  -2.580  1.00  0.00     0.348 HD
BRANCH   8  10
ATOM     10  C   UNL     1       0.526   0.631  -1.470  1.00  0.00     0.259 C 
ATOM     11  C   UNL     1       0.423  -0.201  -0.195  1.00  0.00     0.071 C 
ENDBRANCH   8  10
BRANCH   8  12
ATOM     12  C   UNL     1       2.889   0.062  -2.121  1.00  0.00     0.185 C 
ATOM     13  C   UNL     1       3.273  -1.280  -1.465  1.00  0.00     0.065 C 
ATOM     14  C   UNL     1       3.408   1.219  -1.253  1.00  0.00     0.084 C 
ATOM     15  C   UNL     1       4.793  -1.367  -1.271  1.00  0.00     0.007 C 
ATOM     16  C   UNL     1       4.932   1.158  -1.122  1.00  0.00     0.114 C 
ATOM     17  C   UNL     1       5.361  -0.171  -0.500  1.00  0.00     0.020 C 
BRANCH  16  18
ATOM     18  S   UNL     1       5.497   2.594  -0.199  1.00  0.00     0.150 S 
ATOM     19  C   UNL     1       7.265   2.539  -0.333  1.00  0.00     0.158 C 
ATOM     20  O   UNL     1       5.068   3.771  -0.929  1.00  0.00    -0.229 OA
ATOM     21  O   UNL     1       5.153   2.408   1.196  1.00  0.00    -0.229 OA
ENDBRANCH  16  18
ENDBRANCH   8  12
ENDBRANCH   7   8
ENDBRANCH   5   7
ENDBRANCH   3   5
ENDBRANCH   2   3
ENDBRANCH   1   2
BRANCH   1  22
ATOM     22  C   UNL     1      -1.504   3.164  -7.155  1.00  0.00     0.275 C 
BRANCH  22  23
ATOM     23  O   UNL     1      -2.005   3.812  -5.972  1.00  0.00    -0.458 OA
BRANCH  23  24
ATOM     24  C   UNL     1      -2.204   2.979  -4.923  1.00  0.00     0.338 C 
ATOM     25  O   UNL     1      -2.065   1.767  -4.920  1.00  0.00    -0.246 OA
BRANCH  24  26
ATOM     26  C   UNL     1      -2.474   3.745  -3.694  1.00  0.00     0.060 A 
ATOM     27  C   UNL     1      -1.665   3.484  -2.586  1.00  0.00     0.016 A 
ATOM     28  C   UNL     1      -3.551   4.625  -3.588  1.00  0.00     0.016 A 
ATOM     29  C   UNL     1      -1.945   4.066  -1.355  1.00  0.00     0.010 A 
ATOM     30  C   UNL     1      -3.833   5.215  -2.350  1.00  0.00     0.010 A 
ATOM     31  C   UNL     1      -3.047   4.918  -1.221  1.00  0.00    -0.014 A 
BRANCH  31  32
ATOM     32  C   UNL     1      -3.408   5.424   0.125  1.00  0.00     0.031 A 
ATOM     33  C   UNL     1      -4.552   4.798   0.873  1.00  0.00     0.074 A 
ATOM     34  C   UNL     1      -2.676   6.397   0.697  1.00  0.00     0.049 A 
ATOM     35  N   UNL     1      -5.016   5.085   2.062  1.00  0.00    -0.248 NA
ATOM     36  C   UNL     1      -5.265   3.703   0.195  1.00  0.00     0.031 C 
ATOM     37  C   UNL     1      -1.514   7.048   0.090  1.00  0.00     0.029 A 
ATOM     38  N   UNL     1      -2.796   6.998   1.924  1.00  0.00    -0.354 N 
ATOM     39  C   UNL     1      -6.081   4.216   2.273  1.00  0.00     0.074 A 
ATOM     40  C   UNL     1      -6.208   3.407   1.079  1.00  0.00     0.031 C 
ATOM     41  C   UNL     1      -1.022   7.953   0.953  1.00  0.00     0.029 A 
ATOM     42  C   UNL     1      -1.849   7.967   2.156  1.00  0.00     0.049 A 
ATOM     43  H   UNL     1      -3.493   6.758   2.576  1.00  0.00     0.167 HD
ATOM     44  C   UNL     1      -6.878   4.099   3.362  1.00  0.00     0.031 A 
ATOM     45  C   UNL     1      -1.676   8.782   3.215  1.00  0.00     0.031 A 
ATOM     46  C   UNL     1      -6.755   4.909   4.546  1.00  0.00     0.049 A 
ATOM     47  C   UNL     1      -2.604   8.666   4.393  1.00  0.00     0.074 A 
ATOM     48  C   UNL     1      -7.516   4.868   5.702  1.00  0.00     0.029 A 
ATOM     49  N   UNL     1      -5.809   5.907   4.727  1.00  0.00    -0.354 N 
ATOM     50  N   UNL     1      -3.609   7.841   4.573  1.00  0.00    -0.248 NA
ATOM     51  C   UNL     1      -2.370   9.587   5.513  1.00  0.00     0.031 C 
ATOM     52  C   UNL     1      -7.057   5.870   6.565  1.00  0.00     0.029 A 
ATOM     53  C   UNL     1      -5.978   6.501   5.967  1.00  0.00     0.049 A 
ATOM     54  H   UNL     1      -5.119   6.157   4.071  1.00  0.00     0.167 HD
ATOM     55  C   UNL     1      -4.113   8.131   5.837  1.00  0.00     0.074 A 
ATOM     56  C   UNL     1      -3.293   9.195   6.380  1.00  0.00     0.031 C 
ATOM     57  C   UNL     1      -5.160   7.566   6.489  1.00  0.00     0.031 A 
BRANCH  44  58
ATOM     58  C   UNL     1      -7.980   3.076   3.304  1.00  0.00    -0.014 A 
ATOM     59  C   UNL     1      -7.704   1.701   3.402  1.00  0.00     0.010 A 
ATOM     60  C   UNL     1      -9.315   3.500   3.173  1.00  0.00     0.010 A 
ATOM     61  C   UNL     1      -8.739   0.765   3.329  1.00  0.00     0.020 A 
ATOM     62  C   UNL     1     -10.356   2.568   3.123  1.00  0.00     0.020 A 
ATOM     63  C   UNL     1     -10.059   1.205   3.183  1.00  0.00     0.054 A 
BRANCH  63  64
ATOM     64  S   UNL     1     -11.388  -0.028   3.100  1.00  0.00     0.124 S 
ATOM     65  O   UNL     1     -11.234  -0.545   1.743  1.00  0.00    -0.237 OA
ATOM     66  O   UNL     1     -11.033  -0.958   4.169  1.00  0.00    -0.237 OA
ATOM     67  O   UNL     1     -12.600   0.753   3.337  1.00  0.00    -0.744 OA
ENDBRANCH  63  64
ENDBRANCH  44  58
BRANCH  45  68
ATOM     68  C   UNL     1      -0.582   9.790   3.202  1.00  0.00    -0.014 A 
ATOM     69  C   UNL     1       0.545   9.638   4.028  1.00  0.00     0.010 A 
ATOM     70  C   UNL     1      -0.663  10.909   2.353  1.00  0.00     0.010 A 
ATOM     71  C   UNL     1       1.564  10.596   4.018  1.00  0.00     0.020 A 
ATOM     72  C   UNL     1       0.365  11.855   2.321  1.00  0.00     0.020 A 
ATOM     73  C   UNL     1       1.467  11.699   3.164  1.00  0.00     0.054 A 
BRANCH  73  74
ATOM     74  S   UNL     1       2.821  12.907   3.127  1.00  0.00     0.124 S 
ATOM     75  O   UNL     1       2.574  13.676   4.343  1.00  0.00    -0.237 OA
ATOM     76  O   UNL     1       4.009  12.058   3.147  1.00  0.00    -0.237 OA
ATOM     77  O   UNL     1       2.601  13.627   1.875  1.00  0.00    -0.744 OA
ENDBRANCH  73  74
ENDBRANCH  45  68
BRANCH  57  78
ATOM     78  C   UNL     1      -5.457   8.074   7.874  1.00  0.00    -0.014 A 
ATOM     79  C   UNL     1      -6.045   9.335   8.077  1.00  0.00     0.010 A 
ATOM     80  C   UNL     1      -5.165   7.266   8.988  1.00  0.00     0.010 A 
ATOM     81  C   UNL     1      -6.293   9.799   9.372  1.00  0.00     0.020 A 
ATOM     82  C   UNL     1      -5.434   7.716  10.283  1.00  0.00     0.020 A 
ATOM     83  C   UNL     1      -5.979   8.989  10.468  1.00  0.00     0.054 A 
BRANCH  83  84
ATOM     84  S   UNL     1      -6.323   9.601  12.140  1.00  0.00     0.124 S 
ATOM     85  O   UNL     1      -5.212  10.523  12.360  1.00  0.00    -0.237 OA
ATOM     86  O   UNL     1      -7.636  10.225  11.994  1.00  0.00    -0.237 OA
ATOM     87  O   UNL     1      -6.303   8.393  12.961  1.00  0.00    -0.744 OA
ENDBRANCH  83  84
ENDBRANCH  57  78
ENDBRANCH  31  32
ENDBRANCH  24  26
ENDBRANCH  23  24
ENDBRANCH  22  23
ENDBRANCH   1  22
TORSDOF 19
