REMARK SMILES CC[C@](O)(C(=O)OCCOC(=O)c1ccc(-c2c3nc(c(-c4ccc(S(=O)(=O)[O-])cc4)c4ccc([nH]4)c(-c4ccc(S(=O)(=O)[O-])cc4)c4nc(c(-c5ccc(S(=O)(=O)[O-])cc5)c5ccc2[nH]5)C=C4)C=C3)cc1)[C@@H](C)c1ccc2c(c1)OCCO2
REMARK SMILES IDX 9 1 8 2 7 3 5 4 6 5 3 6 2 7 1 8 73 9 74 10 75 11 76 12 80 13
REMARK SMILES IDX 77 14 79 15 78 16 81 17 84 18 82 19 83 20 4 21 10 23 11 24
REMARK SMILES IDX 12 25 13 26 14 27 72 28 15 29 71 30 16 31 17 32 18 33 65 34
REMARK SMILES IDX 19 35 70 36 64 37 66 38 20 39 69 40 63 41 62 42 21 44 51 45
REMARK SMILES IDX 32 46 50 47 33 48 36 49 49 50 67 51 34 52 35 53 48 55 68 56
REMARK SMILES IDX 37 57 22 58 23 59 31 60 24 61 30 62 25 63 26 64 27 65 28 66
REMARK SMILES IDX 29 67 52 68 53 69 61 70 54 71 60 72 55 73 56 74 57 75 58 76
REMARK SMILES IDX 59 77 38 78 39 79 47 80 40 81 46 82 41 83 42 84 43 85 44 86
REMARK SMILES IDX 45 87
REMARK H PARENT 4 22 66 43 36 54
REMARK Flexibility Score: inf
ROOT
ATOM      1  C   UNL     1      -0.741   5.908   0.944  1.00  0.00     0.275 C 
ENDROOT
BRANCH   1   2
ATOM      2  C   UNL     1      -1.380   5.062  -0.155  1.00  0.00     0.274 C 
BRANCH   2   3
ATOM      3  O   UNL     1      -0.895   3.701  -0.121  1.00  0.00    -0.460 OA
BRANCH   3   4
ATOM      4  C   UNL     1       0.115   3.445  -1.003  1.00  0.00     0.338 C 
ATOM      5  O   UNL     1       0.647   4.296  -1.708  1.00  0.00    -0.249 OA
BRANCH   4   6
ATOM      6  C   UNL     1       0.505   1.932  -1.040  1.00  0.00     0.168 C 
BRANCH   6   7
ATOM      7  C   UNL     1       0.413   1.626  -2.565  1.00  0.00     0.044 C 
ATOM      8  C   UNL     1       0.192   0.192  -3.023  1.00  0.00     0.007 C 
ENDBRANCH   6   7
BRANCH   6   9
ATOM      9  C   UNL     1       1.924   1.850  -0.366  1.00  0.00     0.059 C 
ATOM     10  C   UNL     1       1.865   1.922   1.169  1.00  0.00     0.016 C 
BRANCH   9  11
ATOM     11  C   UNL     1       2.898   0.756  -0.768  1.00  0.00    -0.038 A 
ATOM     12  C   UNL     1       2.537  -0.567  -1.031  1.00  0.00     0.008 A 
ATOM     13  C   UNL     1       4.252   1.113  -0.911  1.00  0.00     0.054 A 
ATOM     14  C   UNL     1       3.452  -1.438  -1.639  1.00  0.00     0.051 A 
ATOM     15  C   UNL     1       5.164   0.253  -1.503  1.00  0.00     0.161 A 
ATOM     16  C   UNL     1       4.740  -0.999  -1.939  1.00  0.00     0.161 A 
ATOM     17  O   UNL     1       6.425   0.749  -1.696  1.00  0.00    -0.486 OA
ATOM     18  O   UNL     1       5.535  -1.810  -2.711  1.00  0.00    -0.486 OA
ATOM     19  C   UNL     1       7.290  -0.181  -2.356  1.00  0.00     0.271 C 
ATOM     20  C   UNL     1       6.521  -1.003  -3.379  1.00  0.00     0.271 C 
ENDBRANCH   9  11
ENDBRANCH   6   9
BRANCH   6  21
ATOM     21  O   UNL     1      -0.439   1.109  -0.351  1.00  0.00    -0.378 OA
ATOM     22  H   UNL     1      -0.392   1.290   0.601  1.00  0.00     0.212 HD
ENDBRANCH   6  21
ENDBRANCH   4   6
ENDBRANCH   3   4
ENDBRANCH   2   3
ENDBRANCH   1   2
BRANCH   1  23
ATOM     23  O   UNL     1       0.686   5.914   0.782  1.00  0.00    -0.458 OA
BRANCH  23  24
ATOM     24  C   UNL     1       1.411   5.867   1.927  1.00  0.00     0.338 C 
ATOM     25  O   UNL     1       0.965   5.900   3.061  1.00  0.00    -0.246 OA
BRANCH  24  26
ATOM     26  C   UNL     1       2.857   5.726   1.623  1.00  0.00     0.060 A 
ATOM     27  C   UNL     1       3.305   5.163   0.428  1.00  0.00     0.016 A 
ATOM     28  C   UNL     1       3.792   6.088   2.595  1.00  0.00     0.016 A 
ATOM     29  C   UNL     1       4.658   4.867   0.250  1.00  0.00     0.010 A 
ATOM     30  C   UNL     1       5.159   5.884   2.368  1.00  0.00     0.010 A 
ATOM     31  C   UNL     1       5.613   5.234   1.208  1.00  0.00    -0.014 A 
BRANCH  31  32
ATOM     32  C   UNL     1       7.068   4.937   1.023  1.00  0.00     0.031 A 
ATOM     33  C   UNL     1       7.844   4.228   2.110  1.00  0.00     0.074 A 
ATOM     34  C   UNL     1       7.722   5.316  -0.095  1.00  0.00     0.049 A 
ATOM     35  N   UNL     1       9.140   4.133   2.275  1.00  0.00    -0.248 NA
ATOM     36  C   UNL     1       7.059   3.560   3.161  1.00  0.00     0.031 C 
ATOM     37  C   UNL     1       7.120   5.959  -1.265  1.00  0.00     0.029 A 
ATOM     38  N   UNL     1       9.053   5.215  -0.429  1.00  0.00    -0.354 N 
ATOM     39  C   UNL     1       9.323   3.475   3.487  1.00  0.00     0.074 A 
ATOM     40  C   UNL     1       8.005   3.180   4.008  1.00  0.00     0.031 C 
ATOM     41  C   UNL     1       8.062   6.149  -2.201  1.00  0.00     0.029 A 
ATOM     42  C   UNL     1       9.355   5.750  -1.660  1.00  0.00     0.049 A 
ATOM     43  H   UNL     1       9.726   4.800   0.158  1.00  0.00     0.167 HD
ATOM     44  C   UNL     1      10.483   3.158   4.115  1.00  0.00     0.031 A 
ATOM     45  C   UNL     1      10.537   5.957  -2.272  1.00  0.00     0.031 A 
ATOM     46  C   UNL     1      11.793   3.386   3.562  1.00  0.00     0.049 A 
ATOM     47  C   UNL     1      11.811   5.614  -1.556  1.00  0.00     0.074 A 
ATOM     48  C   UNL     1      13.026   3.077   4.114  1.00  0.00     0.029 A 
ATOM     49  N   UNL     1      12.043   3.953   2.323  1.00  0.00    -0.354 N 
ATOM     50  N   UNL     1      11.969   5.079  -0.370  1.00  0.00    -0.248 NA
ATOM     51  C   UNL     1      13.066   5.929  -2.252  1.00  0.00     0.031 C 
ATOM     52  C   UNL     1      14.022   3.489   3.222  1.00  0.00     0.029 A 
ATOM     53  C   UNL     1      13.408   4.012   2.096  1.00  0.00     0.049 A 
ATOM     54  H   UNL     1      11.352   4.267   1.696  1.00  0.00     0.167 HD
ATOM     55  C   UNL     1      13.342   4.990  -0.178  1.00  0.00     0.074 A 
ATOM     56  C   UNL     1      13.969   5.505  -1.378  1.00  0.00     0.031 C 
ATOM     57  C   UNL     1      14.021   4.531   0.901  1.00  0.00     0.031 A 
BRANCH  44  58
ATOM     58  C   UNL     1      10.394   2.574   5.501  1.00  0.00    -0.014 A 
ATOM     59  C   UNL     1       9.991   1.246   5.723  1.00  0.00     0.010 A 
ATOM     60  C   UNL     1      10.777   3.365   6.601  1.00  0.00     0.010 A 
ATOM     61  C   UNL     1       9.936   0.733   7.024  1.00  0.00     0.020 A 
ATOM     62  C   UNL     1      10.747   2.849   7.899  1.00  0.00     0.020 A 
ATOM     63  C   UNL     1      10.310   1.539   8.104  1.00  0.00     0.054 A 
BRANCH  63  64
ATOM     64  S   UNL     1      10.254   0.845   9.780  1.00  0.00     0.124 S 
ATOM     65  O   UNL     1       8.822   0.872  10.069  1.00  0.00    -0.237 OA
ATOM     66  O   UNL     1      10.832  -0.485   9.599  1.00  0.00    -0.237 OA
ATOM     67  O   UNL     1      11.066   1.770  10.566  1.00  0.00    -0.744 OA
ENDBRANCH  63  64
ENDBRANCH  44  58
BRANCH  45  68
ATOM     68  C   UNL     1      10.565   6.584  -3.622  1.00  0.00    -0.014 A 
ATOM     69  C   UNL     1      10.907   5.823  -4.752  1.00  0.00     0.010 A 
ATOM     70  C   UNL     1      10.211   7.936  -3.786  1.00  0.00     0.010 A 
ATOM     71  C   UNL     1      10.888   6.401  -6.024  1.00  0.00     0.020 A 
ATOM     72  C   UNL     1      10.163   8.509  -5.059  1.00  0.00     0.020 A 
ATOM     73  C   UNL     1      10.509   7.739  -6.170  1.00  0.00     0.054 A 
BRANCH  73  74
ATOM     74  S   UNL     1      10.402   8.447  -7.838  1.00  0.00     0.124 S 
ATOM     75  O   UNL     1      11.801   8.732  -8.136  1.00  0.00    -0.237 OA
ATOM     76  O   UNL     1       9.798   7.362  -8.607  1.00  0.00    -0.237 OA
ATOM     77  O   UNL     1       9.547   9.618  -7.654  1.00  0.00    -0.744 OA
ENDBRANCH  73  74
ENDBRANCH  45  68
BRANCH  57  78
ATOM     78  C   UNL     1      15.522   4.538   0.820  1.00  0.00    -0.014 A 
ATOM     79  C   UNL     1      16.250   5.733   0.953  1.00  0.00     0.010 A 
ATOM     80  C   UNL     1      16.214   3.327   0.639  1.00  0.00     0.010 A 
ATOM     81  C   UNL     1      17.645   5.721   0.875  1.00  0.00     0.020 A 
ATOM     82  C   UNL     1      17.610   3.309   0.581  1.00  0.00     0.020 A 
ATOM     83  C   UNL     1      18.316   4.509   0.684  1.00  0.00     0.054 A 
BRANCH  83  84
ATOM     84  S   UNL     1      20.129   4.512   0.612  1.00  0.00     0.124 S 
ATOM     85  O   UNL     1      20.378   5.017  -0.735  1.00  0.00    -0.237 OA
ATOM     86  O   UNL     1      20.494   5.417   1.700  1.00  0.00    -0.237 OA
ATOM     87  O   UNL     1      20.485   3.112   0.830  1.00  0.00    -0.744 OA
ENDBRANCH  83  84
ENDBRANCH  57  78
ENDBRANCH  31  32
ENDBRANCH  24  26
ENDBRANCH  23  24
ENDBRANCH   1  23
TORSDOF 18
