REMARK SMILES CCC[C@]1(C(=O)NC[C@@H]2CC[C@H](C(=O)OCCOC(=O)c3ccc(-c4c5nc(c(-c6ccc(S(=O)(=O)[O-])cc6)c6ccc([nH]6)c(-c6ccc(S(=O)(=O)[O-])cc6)c6nc(c(-c7ccc(S(=O)(=O)[O-])cc7)c7ccc4[nH]7)C=C6)C=C5)cc3)O2)CCC[NH2+]C1
REMARK SMILES IDX 16 1 15 2 13 3 14 4 12 5 9 6 10 7 81 8 11 9 8 10 7 11 5 12
REMARK SMILES IDX 6 13 4 15 82 16 86 17 83 18 85 19 84 20 3 23 2 24 1 25 17 26
REMARK SMILES IDX 18 27 19 28 20 29 21 30 22 31 80 32 23 33 79 34 24 35 25 36
REMARK SMILES IDX 26 37 73 38 27 39 78 40 72 41 74 42 28 43 77 44 71 45 70 46
REMARK SMILES IDX 29 48 59 49 40 50 58 51 41 52 44 53 57 54 75 55 42 56 43 57
REMARK SMILES IDX 56 59 76 60 45 61 30 62 31 63 39 64 32 65 38 66 33 67 34 68
REMARK SMILES IDX 35 69 36 70 37 71 60 72 61 73 69 74 62 75 68 76 63 77 64 78
REMARK SMILES IDX 65 79 66 80 67 81 46 82 47 83 55 84 48 85 54 86 49 87 50 88
REMARK SMILES IDX 51 89 52 90 53 91
REMARK H PARENT 7 14 85 21 85 22 74 47 44 58
REMARK Flexibility Score: inf
ROOT
ATOM      1  C   UNL     1      -0.604   5.421   0.834  1.00  0.00     0.274 C 
ENDROOT
BRANCH   1   2
ATOM      2  O   UNL     1      -1.590   4.681   1.588  1.00  0.00    -0.460 OA
BRANCH   2   3
ATOM      3  C   UNL     1      -1.831   5.114   2.854  1.00  0.00     0.335 C 
ATOM      4  O   UNL     1      -1.178   5.992   3.410  1.00  0.00    -0.249 OA
BRANCH   3   5
ATOM      5  C   UNL     1      -3.021   4.409   3.534  1.00  0.00     0.228 C 
ATOM      6  C   UNL     1      -2.727   2.342   4.592  1.00  0.00     0.138 C 
ATOM      7  C   UNL     1      -3.267   2.063   3.198  1.00  0.00     0.037 C 
ATOM      8  O   UNL     1      -2.615   3.763   4.744  1.00  0.00    -0.361 OA
ATOM      9  C   UNL     1      -3.807   3.389   2.733  1.00  0.00     0.047 C 
BRANCH   6  10
ATOM     10  C   UNL     1      -1.350   1.735   4.880  1.00  0.00     0.147 C 
BRANCH  10  11
ATOM     11  N   UNL     1      -1.267   0.321   4.566  1.00  0.00    -0.353 N 
ATOM     12  C   UNL     1      -0.457  -0.405   3.751  1.00  0.00     0.232 C 
ATOM     13  O   UNL     1      -0.681  -1.621   3.756  1.00  0.00    -0.274 OA
ATOM     14  H   UNL     1      -1.935  -0.226   5.041  1.00  0.00     0.163 HD
BRANCH  12  15
ATOM     15  C   UNL     1       0.685   0.205   2.893  1.00  0.00     0.098 C 
ATOM     16  C   UNL     1       0.177   1.268   1.898  1.00  0.00     0.028 C 
ATOM     17  C   UNL     1       1.735   0.841   3.851  1.00  0.00     0.277 C 
ATOM     18  C   UNL     1       1.331   2.011   1.232  1.00  0.00     0.063 C 
ATOM     19  N   UNL     1       2.783   1.617   3.169  1.00  0.00    -0.345 N 
ATOM     20  C   UNL     1       2.221   2.646   2.294  1.00  0.00     0.260 C 
ATOM     21  H   UNL     1       3.370   2.067   3.872  1.00  0.00     0.346 HD
ATOM     22  H   UNL     1       3.326   0.975   2.592  1.00  0.00     0.346 HD
BRANCH  15  23
ATOM     23  C   UNL     1       1.402  -0.965   2.119  1.00  0.00     0.022 C 
BRANCH  23  24
ATOM     24  C   UNL     1       0.612  -1.643   0.982  1.00  0.00    -0.002 C 
ATOM     25  C   UNL     1       0.934  -1.106  -0.408  1.00  0.00     0.004 C 
ENDBRANCH  23  24
ENDBRANCH  15  23
ENDBRANCH  12  15
ENDBRANCH  10  11
ENDBRANCH   6  10
ENDBRANCH   3   5
ENDBRANCH   2   3
ENDBRANCH   1   2
BRANCH   1  26
ATOM     26  C   UNL     1      -1.169   5.813  -0.532  1.00  0.00     0.275 C 
BRANCH  26  27
ATOM     27  O   UNL     1      -2.197   6.804  -0.365  1.00  0.00    -0.458 OA
BRANCH  27  28
ATOM     28  C   UNL     1      -3.449   6.305  -0.238  1.00  0.00     0.338 C 
ATOM     29  O   UNL     1      -3.806   5.149  -0.372  1.00  0.00    -0.246 OA
BRANCH  28  30
ATOM     30  C   UNL     1      -4.318   7.356   0.301  1.00  0.00     0.060 A 
ATOM     31  C   UNL     1      -4.722   7.233   1.631  1.00  0.00     0.016 A 
ATOM     32  C   UNL     1      -4.782   8.403  -0.492  1.00  0.00     0.016 A 
ATOM     33  C   UNL     1      -5.612   8.145   2.180  1.00  0.00     0.010 A 
ATOM     34  C   UNL     1      -5.670   9.329   0.063  1.00  0.00     0.010 A 
ATOM     35  C   UNL     1      -6.100   9.196   1.397  1.00  0.00    -0.014 A 
BRANCH  35  36
ATOM     36  C   UNL     1      -7.107  10.119   1.969  1.00  0.00     0.031 A 
ATOM     37  C   UNL     1      -8.530  10.050   1.496  1.00  0.00     0.074 A 
ATOM     38  C   UNL     1      -6.745  10.989   2.931  1.00  0.00     0.049 A 
ATOM     39  N   UNL     1      -9.538  10.824   1.800  1.00  0.00    -0.248 NA
ATOM     40  C   UNL     1      -8.864   8.968   0.554  1.00  0.00     0.031 C 
ATOM     41  C   UNL     1      -5.402  11.105   3.506  1.00  0.00     0.029 A 
ATOM     42  N   UNL     1      -7.476  11.939   3.596  1.00  0.00    -0.354 N 
ATOM     43  C   UNL     1     -10.615  10.350   1.062  1.00  0.00     0.074 A 
ATOM     44  C   UNL     1     -10.139   9.221   0.292  1.00  0.00     0.031 C 
ATOM     45  C   UNL     1      -5.408  12.068   4.441  1.00  0.00     0.029 A 
ATOM     46  C   UNL     1      -6.736  12.672   4.492  1.00  0.00     0.049 A 
ATOM     47  H   UNL     1      -8.438  12.082   3.446  1.00  0.00     0.167 HD
ATOM     48  C   UNL     1     -11.885  10.819   1.028  1.00  0.00     0.031 A 
ATOM     49  C   UNL     1      -7.080  13.735   5.244  1.00  0.00     0.031 A 
ATOM     50  C   UNL     1     -12.350  11.933   1.811  1.00  0.00     0.049 A 
ATOM     51  C   UNL     1      -8.485  14.262   5.157  1.00  0.00     0.074 A 
ATOM     52  C   UNL     1     -13.620  12.482   1.857  1.00  0.00     0.029 A 
ATOM     53  N   UNL     1     -11.565  12.666   2.688  1.00  0.00    -0.354 N 
ATOM     54  N   UNL     1      -9.488  13.814   4.439  1.00  0.00    -0.248 NA
ATOM     55  C   UNL     1      -8.804  15.438   5.976  1.00  0.00     0.031 C 
ATOM     56  C   UNL     1     -13.591  13.574   2.732  1.00  0.00     0.029 A 
ATOM     57  C   UNL     1     -12.316  13.675   3.266  1.00  0.00     0.049 A 
ATOM     58  H   UNL     1     -10.613  12.494   2.872  1.00  0.00     0.167 HD
ATOM     59  C   UNL     1     -10.561  14.649   4.727  1.00  0.00     0.074 A 
ATOM     60  C   UNL     1     -10.090  15.613   5.702  1.00  0.00     0.031 C 
ATOM     61  C   UNL     1     -11.821  14.625   4.228  1.00  0.00     0.031 A 
BRANCH  48  62
ATOM     62  C   UNL     1     -12.848  10.158   0.081  1.00  0.00    -0.014 A 
ATOM     63  C   UNL     1     -13.388   8.889   0.351  1.00  0.00     0.010 A 
ATOM     64  C   UNL     1     -13.248  10.840  -1.083  1.00  0.00     0.010 A 
ATOM     65  C   UNL     1     -14.290   8.301  -0.541  1.00  0.00     0.020 A 
ATOM     66  C   UNL     1     -14.166  10.265  -1.966  1.00  0.00     0.020 A 
ATOM     67  C   UNL     1     -14.670   8.991  -1.696  1.00  0.00     0.054 A 
BRANCH  67  68
ATOM     68  S   UNL     1     -15.864   8.219  -2.824  1.00  0.00     0.124 S 
ATOM     69  O   UNL     1     -15.043   7.206  -3.482  1.00  0.00    -0.237 OA
ATOM     70  O   UNL     1     -16.883   7.706  -1.911  1.00  0.00    -0.237 OA
ATOM     71  O   UNL     1     -16.297   9.322  -3.678  1.00  0.00    -0.744 OA
ENDBRANCH  67  68
ENDBRANCH  48  62
BRANCH  49  72
ATOM     72  C   UNL     1      -6.062  14.399   6.101  1.00  0.00    -0.014 A 
ATOM     73  C   UNL     1      -6.132  14.313   7.502  1.00  0.00     0.010 A 
ATOM     74  C   UNL     1      -5.005  15.118   5.512  1.00  0.00     0.010 A 
ATOM     75  C   UNL     1      -5.172  14.946   8.299  1.00  0.00     0.020 A 
ATOM     76  C   UNL     1      -4.029  15.729   6.304  1.00  0.00     0.020 A 
ATOM     77  C   UNL     1      -4.126  15.650   7.694  1.00  0.00     0.054 A 
BRANCH  77  78
ATOM     78  S   UNL     1      -2.861  16.422   8.741  1.00  0.00     0.124 S 
ATOM     79  O   UNL     1      -3.547  17.622   9.208  1.00  0.00    -0.237 OA
ATOM     80  O   UNL     1      -2.616  15.397   9.753  1.00  0.00    -0.237 OA
ATOM     81  O   UNL     1      -1.751  16.652   7.818  1.00  0.00    -0.744 OA
ENDBRANCH  77  78
ENDBRANCH  49  72
BRANCH  61  82
ATOM     82  C   UNL     1     -12.780  15.661   4.746  1.00  0.00    -0.014 A 
ATOM     83  C   UNL     1     -12.689  17.002   4.333  1.00  0.00     0.010 A 
ATOM     84  C   UNL     1     -13.807  15.278   5.627  1.00  0.00     0.010 A 
ATOM     85  C   UNL     1     -13.590  17.951   4.821  1.00  0.00     0.020 A 
ATOM     86  C   UNL     1     -14.724  16.220   6.098  1.00  0.00     0.020 A 
ATOM     87  C   UNL     1     -14.600  17.555   5.704  1.00  0.00     0.054 A 
BRANCH  87  88
ATOM     88  S   UNL     1     -15.778  18.797   6.300  1.00  0.00     0.124 S 
ATOM     89  O   UNL     1     -14.993  19.499   7.311  1.00  0.00    -0.237 OA
ATOM     90  O   UNL     1     -16.078  19.564   5.093  1.00  0.00    -0.237 OA
ATOM     91  O   UNL     1     -16.889  17.999   6.815  1.00  0.00    -0.744 OA
ENDBRANCH  87  88
ENDBRANCH  61  82
ENDBRANCH  35  36
ENDBRANCH  28  30
ENDBRANCH  27  28
ENDBRANCH  26  27
ENDBRANCH   1  26
TORSDOF 19
