REMARK SMILES CC[NH2+][C@]1(C(=O)OCCOC(=O)c2ccc(-c3c4nc(c(-c5ccc(S(=O)(=O)[O-])cc5)c5ccc([nH]5)c(-c5ccc(S(=O)(=O)[O-])cc5)c5nc(c(-c6ccc(S(=O)(=O)[O-])cc6)c6ccc3[nH]6)C=C5)C=C4)cc2)CCC[C@@H]1CC[N@H+]1C[C@H](C)OC[C@@H]1C
REMARK SMILES IDX 8 1 7 2 5 3 6 4 4 5 73 6 76 7 74 8 75 9 3 10 2 13 1 14 77 15
REMARK SMILES IDX 78 16 79 17 80 18 85 19 81 21 84 22 86 23 83 24 82 25 9 26
REMARK SMILES IDX 10 27 11 28 12 29 13 30 14 31 72 32 15 33 71 34 16 35 17 36
REMARK SMILES IDX 18 37 65 38 19 39 70 40 64 41 66 42 20 43 69 44 63 45 62 46
REMARK SMILES IDX 21 48 51 49 32 50 50 51 33 52 36 53 49 54 67 55 34 56 35 57
REMARK SMILES IDX 48 59 68 60 37 61 22 62 23 63 31 64 24 65 30 66 25 67 26 68
REMARK SMILES IDX 27 69 28 70 29 71 52 72 53 73 61 74 54 75 60 76 55 77 56 78
REMARK SMILES IDX 57 79 58 80 59 81 38 82 39 83 47 84 40 85 46 86 41 87 42 88
REMARK SMILES IDX 43 89 44 90 45 91
REMARK H PARENT 3 11 3 12 79 20 66 47 36 58
REMARK Flexibility Score: inf
ROOT
ATOM      1  C   UNL     1       0.663  -0.228  -1.580  1.00  0.00     0.274 C 
ENDROOT
BRANCH   1   2
ATOM      2  O   UNL     1       0.259   1.108  -1.950  1.00  0.00    -0.457 OA
BRANCH   2   3
ATOM      3  C   UNL     1       0.446   2.075  -1.006  1.00  0.00     0.368 C 
ATOM      4  O   UNL     1       0.879   1.858   0.120  1.00  0.00    -0.245 OA
BRANCH   3   5
ATOM      5  C   UNL     1      -0.054   3.469  -1.488  1.00  0.00     0.197 C 
ATOM      6  C   UNL     1       0.593   4.558  -0.588  1.00  0.00     0.081 C 
ATOM      7  C   UNL     1       0.521   3.898  -2.878  1.00  0.00     0.068 C 
ATOM      8  C   UNL     1       0.520   5.851  -1.372  1.00  0.00     0.008 C 
ATOM      9  C   UNL     1       0.503   5.439  -2.838  1.00  0.00     0.011 C 
BRANCH   5  10
ATOM     10  N   UNL     1      -1.543   3.497  -1.498  1.00  0.00    -0.332 N 
ATOM     11  H   UNL     1      -1.849   4.321  -2.015  1.00  0.00     0.347 HD
ATOM     12  H   UNL     1      -1.858   2.631  -1.935  1.00  0.00     0.347 HD
BRANCH  10  13
ATOM     13  C   UNL     1      -2.130   3.544  -0.156  1.00  0.00     0.257 C 
ATOM     14  C   UNL     1      -3.602   3.168  -0.206  1.00  0.00     0.071 C 
ENDBRANCH  10  13
ENDBRANCH   5  10
BRANCH   7  15
ATOM     15  C   UNL     1      -0.083   3.244  -4.151  1.00  0.00     0.072 C 
BRANCH  15  16
ATOM     16  C   UNL     1      -1.120   4.042  -4.965  1.00  0.00     0.263 C 
BRANCH  16  17
ATOM     17  N   UNL     1      -0.534   5.189  -5.678  1.00  0.00    -0.329 N 
ATOM     18  C   UNL     1       0.146   4.815  -6.938  1.00  0.00     0.294 C 
ATOM     19  C   UNL     1      -1.530   6.259  -5.931  1.00  0.00     0.207 C 
ATOM     20  H   UNL     1       0.180   5.553  -5.048  1.00  0.00     0.348 HD
ATOM     21  C   UNL     1      -0.810   4.579  -8.131  1.00  0.00     0.170 C 
ATOM     22  C   UNL     1      -2.441   5.964  -7.140  1.00  0.00     0.225 C 
ATOM     23  C   UNL     1      -0.808   7.604  -6.101  1.00  0.00     0.078 C 
ATOM     24  O   UNL     1      -1.689   5.697  -8.329  1.00  0.00    -0.366 OA
ATOM     25  C   UNL     1      -0.027   4.382  -9.423  1.00  0.00     0.045 C 
ENDBRANCH  16  17
ENDBRANCH  15  16
ENDBRANCH   7  15
ENDBRANCH   3   5
ENDBRANCH   2   3
ENDBRANCH   1   2
BRANCH   1  26
ATOM     26  C   UNL     1       2.014  -0.573  -2.202  1.00  0.00     0.275 C 
BRANCH  26  27
ATOM     27  O   UNL     1       3.001   0.340  -1.701  1.00  0.00    -0.458 OA
BRANCH  27  28
ATOM     28  C   UNL     1       3.888   0.817  -2.605  1.00  0.00     0.338 C 
ATOM     29  O   UNL     1       4.012   0.477  -3.768  1.00  0.00    -0.246 OA
BRANCH  28  30
ATOM     30  C   UNL     1       4.702   1.864  -1.958  1.00  0.00     0.060 A 
ATOM     31  C   UNL     1       4.068   2.896  -1.267  1.00  0.00     0.016 A 
ATOM     32  C   UNL     1       6.087   1.871  -2.096  1.00  0.00     0.016 A 
ATOM     33  C   UNL     1       4.799   3.966  -0.759  1.00  0.00     0.010 A 
ATOM     34  C   UNL     1       6.831   2.905  -1.515  1.00  0.00     0.010 A 
ATOM     35  C   UNL     1       6.194   3.978  -0.862  1.00  0.00    -0.014 A 
BRANCH  35  36
ATOM     36  C   UNL     1       6.981   5.131  -0.342  1.00  0.00     0.031 A 
ATOM     37  C   UNL     1       7.830   5.942  -1.287  1.00  0.00     0.074 A 
ATOM     38  C   UNL     1       6.931   5.472   0.962  1.00  0.00     0.049 A 
ATOM     39  N   UNL     1       8.732   6.850  -1.015  1.00  0.00    -0.248 NA
ATOM     40  C   UNL     1       7.648   5.688  -2.726  1.00  0.00     0.031 C 
ATOM     41  C   UNL     1       6.107   4.823   1.984  1.00  0.00     0.029 A 
ATOM     42  N   UNL     1       7.591   6.461   1.652  1.00  0.00    -0.354 N 
ATOM     43  C   UNL     1       9.267   7.231  -2.241  1.00  0.00     0.074 A 
ATOM     44  C   UNL     1       8.586   6.459  -3.258  1.00  0.00     0.031 C 
ATOM     45  C   UNL     1       6.286   5.449   3.159  1.00  0.00     0.029 A 
ATOM     46  C   UNL     1       7.298   6.487   2.996  1.00  0.00     0.049 A 
ATOM     47  H   UNL     1       8.215   7.091   1.225  1.00  0.00     0.167 HD
ATOM     48  C   UNL     1      10.240   8.138  -2.496  1.00  0.00     0.031 A 
ATOM     49  C   UNL     1       7.814   7.228   3.996  1.00  0.00     0.031 A 
ATOM     50  C   UNL     1      10.885   8.939  -1.489  1.00  0.00     0.049 A 
ATOM     51  C   UNL     1       8.915   8.207   3.694  1.00  0.00     0.074 A 
ATOM     52  C   UNL     1      11.889   9.878  -1.648  1.00  0.00     0.029 A 
ATOM     53  N   UNL     1      10.574   8.912  -0.139  1.00  0.00    -0.354 N 
ATOM     54  N   UNL     1       9.464   8.497   2.540  1.00  0.00    -0.248 NA
ATOM     55  C   UNL     1       9.478   8.944   4.835  1.00  0.00     0.031 C 
ATOM     56  C   UNL     1      12.206  10.399  -0.389  1.00  0.00     0.029 A 
ATOM     57  C   UNL     1      11.369   9.813   0.548  1.00  0.00     0.049 A 
ATOM     58  H   UNL     1       9.888   8.336   0.272  1.00  0.00     0.167 HD
ATOM     59  C   UNL     1      10.435   9.453   2.814  1.00  0.00     0.074 A 
ATOM     60  C   UNL     1      10.380   9.711   4.239  1.00  0.00     0.031 C 
ATOM     61  C   UNL     1      11.302  10.057   1.965  1.00  0.00     0.031 A 
BRANCH  48  62
ATOM     62  C   UNL     1      10.699   8.284  -3.921  1.00  0.00    -0.014 A 
ATOM     63  C   UNL     1       9.922   8.958  -4.878  1.00  0.00     0.010 A 
ATOM     64  C   UNL     1      11.954   7.768  -4.296  1.00  0.00     0.010 A 
ATOM     65  C   UNL     1      10.378   9.087  -6.193  1.00  0.00     0.020 A 
ATOM     66  C   UNL     1      12.423   7.915  -5.604  1.00  0.00     0.020 A 
ATOM     67  C   UNL     1      11.624   8.560  -6.549  1.00  0.00     0.054 A 
BRANCH  67  68
ATOM     68  S   UNL     1      12.207   8.764  -8.255  1.00  0.00     0.124 S 
ATOM     69  O   UNL     1      11.411   7.765  -8.965  1.00  0.00    -0.237 OA
ATOM     70  O   UNL     1      11.873  10.155  -8.547  1.00  0.00    -0.237 OA
ATOM     71  O   UNL     1      13.636   8.475  -8.169  1.00  0.00    -0.744 OA
ENDBRANCH  67  68
ENDBRANCH  48  62
BRANCH  49  72
ATOM     72  C   UNL     1       7.340   7.028   5.393  1.00  0.00    -0.014 A 
ATOM     73  C   UNL     1       6.584   8.018   6.044  1.00  0.00     0.010 A 
ATOM     74  C   UNL     1       7.647   5.839   6.081  1.00  0.00     0.010 A 
ATOM     75  C   UNL     1       6.155   7.829   7.362  1.00  0.00     0.020 A 
ATOM     76  C   UNL     1       7.197   5.635   7.388  1.00  0.00     0.020 A 
ATOM     77  C   UNL     1       6.465   6.637   8.025  1.00  0.00     0.054 A 
BRANCH  77  78
ATOM     78  S   UNL     1       5.856   6.383   9.716  1.00  0.00     0.124 S 
ATOM     79  O   UNL     1       6.816   7.150  10.502  1.00  0.00    -0.237 OA
ATOM     80  O   UNL     1       4.503   6.932   9.656  1.00  0.00    -0.237 OA
ATOM     81  O   UNL     1       5.922   4.932   9.884  1.00  0.00    -0.744 OA
ENDBRANCH  77  78
ENDBRANCH  49  72
BRANCH  61  82
ATOM     82  C   UNL     1      12.243  11.073   2.550  1.00  0.00    -0.014 A 
ATOM     83  C   UNL     1      13.360  10.674   3.305  1.00  0.00     0.010 A 
ATOM     84  C   UNL     1      12.027  12.441   2.310  1.00  0.00     0.010 A 
ATOM     85  C   UNL     1      14.229  11.630   3.836  1.00  0.00     0.020 A 
ATOM     86  C   UNL     1      12.906  13.399   2.821  1.00  0.00     0.020 A 
ATOM     87  C   UNL     1      13.994  12.988   3.595  1.00  0.00     0.054 A 
BRANCH  87  88
ATOM     88  S   UNL     1      15.153  14.211   4.265  1.00  0.00     0.124 S 
ATOM     89  O   UNL     1      14.755  14.270   5.668  1.00  0.00    -0.237 OA
ATOM     90  O   UNL     1      16.455  13.600   4.006  1.00  0.00    -0.237 OA
ATOM     91  O   UNL     1      14.872  15.415   3.486  1.00  0.00    -0.744 OA
ENDBRANCH  87  88
ENDBRANCH  61  82
ENDBRANCH  35  36
ENDBRANCH  28  30
ENDBRANCH  27  28
ENDBRANCH  26  27
ENDBRANCH   1  26
TORSDOF 19
