REMARK SMILES C[C@@H]1CCCN(c2ccc(NC(=O)Cc3cccs3)c(C(=O)OCCOC(=O)c3ccc(-c4c5nc(c(-c6ccc(S(=O)(=O)[O-])cc6)c6ccc([nH]6)c(-c6ccc(S(=O)(=O)[O-])cc6)c6nc(c(-c7ccc(S(=O)(=O)[O-])cc7)c7ccc4[nH]7)C=C6)C=C5)cc3)c2)C1
REMARK SMILES IDX 24 1 23 2 21 3 22 4 20 5 7 6 8 7 89 8 9 9 10 10 6 11 1 12
REMARK SMILES IDX 2 13 3 14 90 15 4 16 5 17 11 18 12 19 13 21 14 22 15 23
REMARK SMILES IDX 16 24 19 25 17 26 18 27 25 28 26 29 27 30 28 31 29 32 30 33
REMARK SMILES IDX 88 34 31 35 87 36 32 37 33 38 34 39 81 40 35 41 86 42 80 43
REMARK SMILES IDX 82 44 36 45 85 46 79 47 78 48 37 50 67 51 48 52 66 53 49 54
REMARK SMILES IDX 52 55 65 56 83 57 50 58 51 59 64 61 84 62 53 63 38 64 39 65
REMARK SMILES IDX 47 66 40 67 46 68 41 69 42 70 43 71 44 72 45 73 68 74 69 75
REMARK SMILES IDX 77 76 70 77 76 78 71 79 72 80 73 81 74 82 75 83 54 84 55 85
REMARK SMILES IDX 63 86 56 87 62 88 57 89 58 90 59 91 60 92 61 93
REMARK H PARENT 11 20 82 49 52 60
REMARK Flexibility Score: inf
ROOT
ATOM      1  C   UNL     1       3.712   0.935  -5.870  1.00  0.00     0.275 C 
ENDROOT
BRANCH   1   2
ATOM      2  O   UNL     1       3.225   1.322  -4.567  1.00  0.00    -0.458 OA
BRANCH   2   3
ATOM      3  C   UNL     1       3.904   2.292  -3.899  1.00  0.00     0.340 C 
ATOM      4  O   UNL     1       4.844   2.934  -4.339  1.00  0.00    -0.246 OA
BRANCH   3   5
ATOM      5  C   UNL     1       3.358   2.490  -2.520  1.00  0.00     0.085 A 
ATOM      6  C   UNL     1       1.940   1.678  -0.705  1.00  0.00     0.038 A 
ATOM      7  C   UNL     1       2.267   2.795   0.051  1.00  0.00     0.028 A 
ATOM      8  C   UNL     1       2.514   1.518  -1.971  1.00  0.00     0.043 A 
ATOM      9  C   UNL     1       3.135   3.754  -0.459  1.00  0.00     0.029 A 
ATOM     10  C   UNL     1       3.630   3.653  -1.763  1.00  0.00     0.055 A 
BRANCH   6  11
ATOM     11  N   UNL     1       1.100   0.701  -0.229  1.00  0.00    -0.371 N 
ATOM     12  C   UNL     1      -2.598   0.023   0.148  1.00  0.00     0.009 C 
ATOM     13  C   UNL     1      -1.149  -0.176  -0.285  1.00  0.00     0.005 C 
ATOM     14  C   UNL     1      -0.590  -1.502   0.266  1.00  0.00     0.007 C 
ATOM     15  C   UNL     1      -0.272   1.012   0.144  1.00  0.00     0.119 C 
ATOM     16  C   UNL     1       0.887  -1.689  -0.094  1.00  0.00     0.022 C 
ATOM     17  C   UNL     1       1.711  -0.486   0.343  1.00  0.00     0.116 C 
ENDBRANCH   6  11
BRANCH  10  18
ATOM     18  N   UNL     1       4.348   4.715  -2.329  1.00  0.00    -0.325 N 
ATOM     19  C   UNL     1       4.335   6.057  -2.090  1.00  0.00     0.229 C 
ATOM     20  H   UNL     1       4.981   4.440  -3.031  1.00  0.00     0.169 HD
ATOM     21  O   UNL     1       5.246   6.703  -2.623  1.00  0.00    -0.274 OA
BRANCH  19  22
ATOM     22  C   UNL     1       3.304   6.791  -1.234  1.00  0.00     0.147 C 
BRANCH  22  23
ATOM     23  C   UNL     1       1.837   6.704  -1.630  1.00  0.00     0.014 A 
ATOM     24  C   UNL     1       1.036   5.675  -2.095  1.00  0.00     0.016 A 
ATOM     25  S   UNL     1       0.870   8.126  -1.413  1.00  0.00    -0.148 S 
ATOM     26  C   UNL     1      -0.335   6.033  -2.254  1.00  0.00     0.012 A 
ATOM     27  C   UNL     1      -0.562   7.341  -1.909  1.00  0.00     0.065 A 
ENDBRANCH  22  23
ENDBRANCH  19  22
ENDBRANCH  10  18
ENDBRANCH   3   5
ENDBRANCH   2   3
ENDBRANCH   1   2
BRANCH   1  28
ATOM     28  C   UNL     1       2.805   1.429  -7.002  1.00  0.00     0.275 C 
BRANCH  28  29
ATOM     29  O   UNL     1       2.945   2.848  -7.193  1.00  0.00    -0.458 OA
BRANCH  29  30
ATOM     30  C   UNL     1       2.027   3.596  -6.541  1.00  0.00     0.338 C 
ATOM     31  O   UNL     1       1.055   3.188  -5.922  1.00  0.00    -0.246 OA
BRANCH  30  32
ATOM     32  C   UNL     1       2.489   4.993  -6.476  1.00  0.00     0.060 A 
ATOM     33  C   UNL     1       2.609   5.524  -5.198  1.00  0.00     0.016 A 
ATOM     34  C   UNL     1       2.769   5.786  -7.591  1.00  0.00     0.016 A 
ATOM     35  C   UNL     1       3.009   6.840  -5.023  1.00  0.00     0.010 A 
ATOM     36  C   UNL     1       3.178   7.121  -7.407  1.00  0.00     0.010 A 
ATOM     37  C   UNL     1       3.308   7.651  -6.114  1.00  0.00    -0.014 A 
BRANCH  37  38
ATOM     38  C   UNL     1       3.652   9.064  -5.821  1.00  0.00     0.031 A 
ATOM     39  C   UNL     1       2.555  10.086  -5.771  1.00  0.00     0.074 A 
ATOM     40  C   UNL     1       4.891   9.399  -5.412  1.00  0.00     0.049 A 
ATOM     41  N   UNL     1       2.630  11.368  -5.530  1.00  0.00    -0.248 NA
ATOM     42  C   UNL     1       1.188   9.589  -5.998  1.00  0.00     0.031 C 
ATOM     43  C   UNL     1       5.998   8.463  -5.220  1.00  0.00     0.029 A 
ATOM     44  N   UNL     1       5.415  10.615  -5.041  1.00  0.00    -0.354 N 
ATOM     45  C   UNL     1       1.326  11.840  -5.600  1.00  0.00     0.074 A 
ATOM     46  C   UNL     1       0.479  10.704  -5.899  1.00  0.00     0.031 C 
ATOM     47  C   UNL     1       7.066   9.137  -4.757  1.00  0.00     0.029 A 
ATOM     48  C   UNL     1       6.741  10.558  -4.678  1.00  0.00     0.049 A 
ATOM     49  H   UNL     1       4.890  11.448  -5.035  1.00  0.00     0.167 HD
ATOM     50  C   UNL     1       0.879  13.109  -5.447  1.00  0.00     0.031 A 
ATOM     51  C   UNL     1       7.603  11.543  -4.349  1.00  0.00     0.031 A 
ATOM     52  C   UNL     1       1.727  14.236  -5.163  1.00  0.00     0.049 A 
ATOM     53  C   UNL     1       7.109  12.968  -4.332  1.00  0.00     0.074 A 
ATOM     54  C   UNL     1       1.376  15.571  -5.059  1.00  0.00     0.029 A 
ATOM     55  N   UNL     1       3.094  14.165  -4.938  1.00  0.00    -0.354 N 
ATOM     56  N   UNL     1       5.888  13.422  -4.491  1.00  0.00    -0.248 NA
ATOM     57  C   UNL     1       8.114  14.019  -4.106  1.00  0.00     0.031 C 
ATOM     58  C   UNL     1       2.541  16.313  -4.838  1.00  0.00     0.029 A 
ATOM     59  C   UNL     1       3.607  15.434  -4.729  1.00  0.00     0.049 A 
ATOM     60  H   UNL     1       3.622  13.334  -4.929  1.00  0.00     0.167 HD
ATOM     61  C   UNL     1       5.975  14.805  -4.361  1.00  0.00     0.074 A 
ATOM     62  C   UNL     1       7.364  15.113  -4.092  1.00  0.00     0.031 C 
ATOM     63  C   UNL     1       4.992  15.734  -4.460  1.00  0.00     0.031 A 
BRANCH  50  64
ATOM     64  C   UNL     1      -0.585  13.355  -5.689  1.00  0.00    -0.014 A 
ATOM     65  C   UNL     1      -1.569  12.943  -4.774  1.00  0.00     0.010 A 
ATOM     66  C   UNL     1      -0.976  14.026  -6.862  1.00  0.00     0.010 A 
ATOM     67  C   UNL     1      -2.922  13.165  -5.049  1.00  0.00     0.020 A 
ATOM     68  C   UNL     1      -2.324  14.275  -7.127  1.00  0.00     0.020 A 
ATOM     69  C   UNL     1      -3.290  13.826  -6.226  1.00  0.00     0.054 A 
BRANCH  69  70
ATOM     70  S   UNL     1      -5.051  14.107  -6.555  1.00  0.00     0.124 S 
ATOM     71  O   UNL     1      -5.519  12.759  -6.865  1.00  0.00    -0.237 OA
ATOM     72  O   UNL     1      -5.528  14.662  -5.291  1.00  0.00    -0.237 OA
ATOM     73  O   UNL     1      -5.051  15.039  -7.680  1.00  0.00    -0.744 OA
ENDBRANCH  69  70
ENDBRANCH  50  64
BRANCH  51  74
ATOM     74  C   UNL     1       9.040  11.235  -4.090  1.00  0.00    -0.014 A 
ATOM     75  C   UNL     1       9.630  11.489  -2.838  1.00  0.00     0.010 A 
ATOM     76  C   UNL     1       9.846  10.722  -5.125  1.00  0.00     0.010 A 
ATOM     77  C   UNL     1      10.996  11.258  -2.635  1.00  0.00     0.020 A 
ATOM     78  C   UNL     1      11.202  10.458  -4.917  1.00  0.00     0.020 A 
ATOM     79  C   UNL     1      11.774  10.743  -3.677  1.00  0.00     0.054 A 
BRANCH  79  80
ATOM     80  S   UNL     1      13.537  10.425  -3.387  1.00  0.00     0.124 S 
ATOM     81  O   UNL     1      14.085  11.777  -3.333  1.00  0.00    -0.237 OA
ATOM     82  O   UNL     1      13.524   9.697  -2.121  1.00  0.00    -0.237 OA
ATOM     83  O   UNL     1      13.940   9.635  -4.548  1.00  0.00    -0.744 OA
ENDBRANCH  79  80
ENDBRANCH  51  74
BRANCH  63  84
ATOM     84  C   UNL     1       5.366  17.178  -4.240  1.00  0.00    -0.014 A 
ATOM     85  C   UNL     1       6.128  17.890  -5.184  1.00  0.00     0.010 A 
ATOM     86  C   UNL     1       4.888  17.852  -3.101  1.00  0.00     0.010 A 
ATOM     87  C   UNL     1       6.427  19.241  -4.978  1.00  0.00     0.020 A 
ATOM     88  C   UNL     1       5.158  19.210  -2.907  1.00  0.00     0.020 A 
ATOM     89  C   UNL     1       5.937  19.893  -3.842  1.00  0.00     0.054 A 
BRANCH  89  90
ATOM     90  S   UNL     1       6.294  21.659  -3.625  1.00  0.00     0.124 S 
ATOM     91  O   UNL     1       7.715  21.645  -3.290  1.00  0.00    -0.237 OA
ATOM     92  O   UNL     1       5.962  22.215  -4.935  1.00  0.00    -0.237 OA
ATOM     93  O   UNL     1       5.402  22.063  -2.540  1.00  0.00    -0.744 OA
ENDBRANCH  89  90
ENDBRANCH  63  84
ENDBRANCH  37  38
ENDBRANCH  30  32
ENDBRANCH  29  30
ENDBRANCH  28  29
ENDBRANCH   1  28
TORSDOF 18
