REMARK SMILES Cc1cc(C)cc(C2(C(=O)OCCOC(=O)c3ccc(-c4c5nc(c(-c6ccc(S(=O)(=O)[O-])cc6)c6ccc([nH]6)c(-c6ccc(S(=O)(=O)[O-])cc6)c6nc(c(-c7ccc(S(=O)(=O)[O-])cc7)c7ccc4[nH]7)C=C6)C=C5)cc3)CCOCC2)c1
REMARK SMILES IDX 13 1 12 2 11 3 9 4 10 5 8 6 77 7 81 8 78 9 80 10 79 11 7 12
REMARK SMILES IDX 1 13 2 14 3 15 82 16 4 17 5 18 6 19 14 20 15 21 16 22 17 23
REMARK SMILES IDX 18 24 76 25 19 26 75 27 20 28 21 29 22 30 69 31 23 32 74 33
REMARK SMILES IDX 68 34 70 35 24 36 73 37 67 38 66 39 25 41 55 42 36 43 54 44
REMARK SMILES IDX 37 45 40 46 53 47 71 48 38 49 39 50 52 52 72 53 41 54 26 55
REMARK SMILES IDX 27 56 35 57 28 58 34 59 29 60 30 61 31 62 32 63 33 64 56 65
REMARK SMILES IDX 57 66 65 67 58 68 64 69 59 70 60 71 61 72 62 73 63 74 42 75
REMARK SMILES IDX 43 76 51 77 44 78 50 79 45 80 46 81 47 82 48 83 49 84
REMARK H PARENT 70 40 40 51
REMARK Flexibility Score: inf
ROOT
ATOM      1  C   UNL     1      -4.231  -3.866   1.647  1.00  0.00     0.275 C 
ENDROOT
BRANCH   1   2
ATOM      2  C   UNL     1      -3.584  -4.545   0.441  1.00  0.00     0.274 C 
BRANCH   2   3
ATOM      3  O   UNL     1      -2.162  -4.378   0.529  1.00  0.00    -0.461 OA
BRANCH   3   4
ATOM      4  C   UNL     1      -1.479  -4.484  -0.640  1.00  0.00     0.316 C 
ATOM      5  O   UNL     1      -1.980  -4.896  -1.682  1.00  0.00    -0.251 OA
BRANCH   4   6
ATOM      6  C   UNL     1      -0.045  -3.900  -0.518  1.00  0.00     0.097 C 
ATOM      7  C   UNL     1       0.527  -4.154   0.898  1.00  0.00     0.052 C 
ATOM      8  C   UNL     1       0.837  -4.668  -1.526  1.00  0.00     0.052 C 
ATOM      9  C   UNL     1       0.653  -5.646   1.179  1.00  0.00     0.161 C 
ATOM     10  C   UNL     1       0.918  -6.142  -1.137  1.00  0.00     0.161 C 
ATOM     11  O   UNL     1       1.449  -6.284   0.180  1.00  0.00    -0.381 OA
BRANCH   6  12
ATOM     12  C   UNL     1      -0.044  -2.393  -0.841  1.00  0.00    -0.030 A 
ATOM     13  C   UNL     1       2.292   0.637  -0.736  1.00  0.00     0.044 C 
ATOM     14  C   UNL     1       1.083  -0.222  -0.988  1.00  0.00    -0.051 A 
ATOM     15  C   UNL     1      -0.119   0.369  -1.401  1.00  0.00     0.006 A 
ATOM     16  C   UNL     1       1.113  -1.600  -0.724  1.00  0.00     0.008 A 
ATOM     17  C   UNL     1      -1.283  -0.395  -1.529  1.00  0.00    -0.051 A 
ATOM     18  C   UNL     1      -2.623   0.192  -1.863  1.00  0.00     0.044 C 
ATOM     19  C   UNL     1      -1.228  -1.756  -1.241  1.00  0.00     0.008 A 
ENDBRANCH   6  12
ENDBRANCH   4   6
ENDBRANCH   3   4
ENDBRANCH   2   3
ENDBRANCH   1   2
BRANCH   1  20
ATOM     20  O   UNL     1      -3.915  -2.459   1.663  1.00  0.00    -0.458 OA
BRANCH  20  21
ATOM     21  C   UNL     1      -2.817  -2.115   2.393  1.00  0.00     0.338 C 
ATOM     22  O   UNL     1      -2.138  -2.857   3.072  1.00  0.00    -0.246 OA
BRANCH  21  23
ATOM     23  C   UNL     1      -2.497  -0.682   2.168  1.00  0.00     0.060 A 
ATOM     24  C   UNL     1      -1.153  -0.304   2.104  1.00  0.00     0.016 A 
ATOM     25  C   UNL     1      -3.497   0.286   2.029  1.00  0.00     0.016 A 
ATOM     26  C   UNL     1      -0.810   1.029   1.855  1.00  0.00     0.010 A 
ATOM     27  C   UNL     1      -3.151   1.626   1.801  1.00  0.00     0.010 A 
ATOM     28  C   UNL     1      -1.805   2.007   1.695  1.00  0.00    -0.014 A 
BRANCH  28  29
ATOM     29  C   UNL     1      -1.421   3.439   1.546  1.00  0.00     0.031 A 
ATOM     30  C   UNL     1      -0.971   4.183   2.763  1.00  0.00     0.074 A 
ATOM     31  C   UNL     1      -1.443   4.073   0.357  1.00  0.00     0.049 A 
ATOM     32  N   UNL     1      -0.540   5.411   2.857  1.00  0.00    -0.248 NA
ATOM     33  C   UNL     1      -1.015   3.449   4.037  1.00  0.00     0.031 C 
ATOM     34  C   UNL     1      -1.841   3.455  -0.894  1.00  0.00     0.029 A 
ATOM     35  N   UNL     1      -1.116   5.355  -0.016  1.00  0.00    -0.354 N 
ATOM     36  C   UNL     1      -0.246   5.597   4.197  1.00  0.00     0.074 A 
ATOM     37  C   UNL     1      -0.558   4.360   4.882  1.00  0.00     0.031 C 
ATOM     38  C   UNL     1      -1.692   4.316  -1.909  1.00  0.00     0.029 A 
ATOM     39  C   UNL     1      -1.259   5.595  -1.368  1.00  0.00     0.049 A 
ATOM     40  H   UNL     1      -0.807   6.038   0.622  1.00  0.00     0.167 HD
ATOM     41  C   UNL     1       0.221   6.710   4.807  1.00  0.00     0.031 A 
ATOM     42  C   UNL     1      -1.091   6.720  -2.092  1.00  0.00     0.031 A 
ATOM     43  C   UNL     1       0.430   7.966   4.141  1.00  0.00     0.049 A 
ATOM     44  C   UNL     1      -0.673   7.968  -1.371  1.00  0.00     0.074 A 
ATOM     45  C   UNL     1       0.846   9.166   4.685  1.00  0.00     0.029 A 
ATOM     46  N   UNL     1       0.206   8.193   2.790  1.00  0.00    -0.354 N 
ATOM     47  N   UNL     1      -0.374   8.116  -0.102  1.00  0.00    -0.248 NA
ATOM     48  C   UNL     1      -0.582   9.201  -2.164  1.00  0.00     0.031 C 
ATOM     49  C   UNL     1       0.811  10.136   3.677  1.00  0.00     0.029 A 
ATOM     50  C   UNL     1       0.440   9.524   2.489  1.00  0.00     0.049 A 
ATOM     51  H   UNL     1      -0.078   7.509   2.142  1.00  0.00     0.167 HD
ATOM     52  C   UNL     1      -0.048   9.456   0.054  1.00  0.00     0.074 A 
ATOM     53  C   UNL     1      -0.160  10.069  -1.255  1.00  0.00     0.031 C 
ATOM     54  C   UNL     1       0.308  10.118   1.182  1.00  0.00     0.031 A 
BRANCH  41  55
ATOM     55  C   UNL     1       0.449   6.613   6.287  1.00  0.00    -0.014 A 
ATOM     56  C   UNL     1       1.526   5.873   6.807  1.00  0.00     0.010 A 
ATOM     57  C   UNL     1      -0.446   7.243   7.168  1.00  0.00     0.010 A 
ATOM     58  C   UNL     1       1.680   5.731   8.187  1.00  0.00     0.020 A 
ATOM     59  C   UNL     1      -0.282   7.123   8.549  1.00  0.00     0.020 A 
ATOM     60  C   UNL     1       0.770   6.352   9.049  1.00  0.00     0.054 A 
BRANCH  60  61
ATOM     61  S   UNL     1       0.990   6.150  10.837  1.00  0.00     0.124 S 
ATOM     62  O   UNL     1       0.589   4.759  11.034  1.00  0.00    -0.237 OA
ATOM     63  O   UNL     1       2.413   6.425  11.017  1.00  0.00    -0.237 OA
ATOM     64  O   UNL     1       0.089   7.145  11.412  1.00  0.00    -0.744 OA
ENDBRANCH  60  61
ENDBRANCH  41  55
BRANCH  42  65
ATOM     65  C   UNL     1      -1.359   6.730  -3.562  1.00  0.00    -0.014 A 
ATOM     66  C   UNL     1      -0.321   6.949  -4.486  1.00  0.00     0.010 A 
ATOM     67  C   UNL     1      -2.663   6.523  -4.050  1.00  0.00     0.010 A 
ATOM     68  C   UNL     1      -0.584   6.974  -5.862  1.00  0.00     0.020 A 
ATOM     69  C   UNL     1      -2.925   6.516  -5.424  1.00  0.00     0.020 A 
ATOM     70  C   UNL     1      -1.885   6.755  -6.322  1.00  0.00     0.054 A 
BRANCH  70  71
ATOM     71  S   UNL     1      -2.196   6.746  -8.111  1.00  0.00     0.124 S 
ATOM     72  O   UNL     1      -2.092   8.163  -8.445  1.00  0.00    -0.237 OA
ATOM     73  O   UNL     1      -1.121   5.895  -8.615  1.00  0.00    -0.237 OA
ATOM     74  O   UNL     1      -3.536   6.173  -8.221  1.00  0.00    -0.744 OA
ENDBRANCH  70  71
ENDBRANCH  42  65
BRANCH  54  75
ATOM     75  C   UNL     1       0.618  11.582   1.044  1.00  0.00    -0.014 A 
ATOM     76  C   UNL     1      -0.402  12.524   0.820  1.00  0.00     0.010 A 
ATOM     77  C   UNL     1       1.944  12.024   1.192  1.00  0.00     0.010 A 
ATOM     78  C   UNL     1      -0.095  13.882   0.719  1.00  0.00     0.020 A 
ATOM     79  C   UNL     1       2.251  13.384   1.121  1.00  0.00     0.020 A 
ATOM     80  C   UNL     1       1.230  14.303   0.872  1.00  0.00     0.054 A 
BRANCH  80  81
ATOM     81  S   UNL     1       1.595  16.077   0.788  1.00  0.00     0.124 S 
ATOM     82  O   UNL     1       1.465  16.347  -0.641  1.00  0.00    -0.237 OA
ATOM     83  O   UNL     1       0.557  16.658   1.636  1.00  0.00    -0.237 OA
ATOM     84  O   UNL     1       2.953  16.176   1.321  1.00  0.00    -0.744 OA
ENDBRANCH  80  81
ENDBRANCH  54  75
ENDBRANCH  28  29
ENDBRANCH  21  23
ENDBRANCH  20  21
ENDBRANCH   1  20
TORSDOF 15
