REMARK SMILES C[N@H+]1Cc2ccccc2C[C@@H]1C(=O)NCCC(=O)NCC(=O)OCCOC(=O)c1ccc(-c2c3nc(c(-c4ccc(S(=O)(=O)[O-])cc4)c4ccc([nH]4)c(-c4ccc(S(=O)(=O)[O-])cc4)c4nc(c(-c5ccc(S(=O)(=O)[O-])cc5)c5ccc2[nH]5)C=C4)C=C3)cc1
REMARK SMILES IDX 24 1 23 2 21 3 22 4 20 5 19 6 17 7 18 8 16 10 15 11 14 12
REMARK SMILES IDX 12 13 13 14 11 16 1 17 2 18 3 19 4 21 10 22 5 23 9 24 6 25
REMARK SMILES IDX 8 26 7 27 25 28 26 29 27 30 28 31 29 32 30 33 88 34 31 35
REMARK SMILES IDX 87 36 32 37 33 38 34 39 81 40 35 41 86 42 80 43 82 44 36 45
REMARK SMILES IDX 85 46 79 47 78 48 37 50 67 51 48 52 66 53 49 54 52 55 65 56
REMARK SMILES IDX 83 57 50 58 51 59 64 61 84 62 53 63 38 64 39 65 47 66 40 67
REMARK SMILES IDX 46 68 41 69 42 70 43 71 44 72 45 73 68 74 69 75 77 76 70 77
REMARK SMILES IDX 76 78 71 79 72 80 73 81 74 82 75 83 54 84 55 85 63 86 56 87
REMARK SMILES IDX 62 88 57 89 58 90 59 91 60 92 61 93
REMARK H PARENT 19 9 14 15 2 20 82 49 52 60
REMARK Flexibility Score: inf
ROOT
ATOM      1  C   UNL     1      -6.278   2.317   2.331  1.00  0.00     0.274 C 
ENDROOT
BRANCH   1   2
ATOM      2  O   UNL     1      -5.678   3.455   1.687  1.00  0.00    -0.461 OA
BRANCH   2   3
ATOM      3  C   UNL     1      -5.449   3.326   0.349  1.00  0.00     0.325 C 
ATOM      4  O   UNL     1      -5.590   2.279  -0.275  1.00  0.00    -0.250 OA
BRANCH   3   5
ATOM      5  C   UNL     1      -5.178   4.672  -0.324  1.00  0.00     0.238 C 
BRANCH   5   6
ATOM      6  N   UNL     1      -4.829   5.756   0.575  1.00  0.00    -0.345 N 
ATOM      7  C   UNL     1      -3.586   6.165   0.932  1.00  0.00     0.222 C 
ATOM      8  O   UNL     1      -3.455   7.069   1.757  1.00  0.00    -0.275 OA
ATOM      9  H   UNL     1      -5.581   6.252   0.972  1.00  0.00     0.164 HD
BRANCH   7  10
ATOM     10  C   UNL     1      -2.385   5.479   0.336  1.00  0.00     0.121 C 
BRANCH  10  11
ATOM     11  C   UNL     1      -1.965   4.293   1.198  1.00  0.00     0.126 C 
BRANCH  11  12
ATOM     12  N   UNL     1      -2.351   2.946   0.794  1.00  0.00    -0.350 N 
ATOM     13  C   UNL     1      -2.114   2.464  -0.481  1.00  0.00     0.278 C 
ATOM     14  O   UNL     1      -2.368   3.103  -1.498  1.00  0.00    -0.268 OA
ATOM     15  H   UNL     1      -2.794   2.361   1.450  1.00  0.00     0.163 HD
BRANCH  13  16
ATOM     16  C   UNL     1      -1.262   1.189  -0.535  1.00  0.00     0.278 C 
ATOM     17  C   UNL     1      -3.099  -0.325   0.018  1.00  0.00     0.333 C 
ATOM     18  N   UNL     1      -1.724   0.080   0.348  1.00  0.00    -0.323 N 
ATOM     19  C   UNL     1      -0.833  -1.095   0.108  1.00  0.00     0.299 C 
ATOM     20  H   UNL     1      -1.695   0.395   1.318  1.00  0.00     0.348 HD
ATOM     21  C   UNL     1       0.655  -0.788   0.110  1.00  0.00     0.010 A 
ATOM     22  C   UNL     1       0.134   1.652  -0.070  1.00  0.00     0.111 C 
ATOM     23  C   UNL     1       1.595  -1.827   0.142  1.00  0.00     0.010 A 
ATOM     24  C   UNL     1       1.119   0.529  -0.008  1.00  0.00    -0.033 A 
ATOM     25  C   UNL     1       2.965  -1.548   0.103  1.00  0.00     0.001 A 
ATOM     26  C   UNL     1       2.491   0.808  -0.013  1.00  0.00     0.004 A 
ATOM     27  C   UNL     1       3.413  -0.231   0.037  1.00  0.00     0.000 A 
ENDBRANCH  13  16
ENDBRANCH  11  12
ENDBRANCH  10  11
ENDBRANCH   7  10
ENDBRANCH   5   6
ENDBRANCH   3   5
ENDBRANCH   2   3
ENDBRANCH   1   2
BRANCH   1  28
ATOM     28  C   UNL     1      -7.802   2.468   2.405  1.00  0.00     0.275 C 
BRANCH  28  29
ATOM     29  O   UNL     1      -8.425   2.320   1.113  1.00  0.00    -0.458 OA
BRANCH  29  30
ATOM     30  C   UNL     1      -8.581   3.465   0.412  1.00  0.00     0.338 C 
ATOM     31  O   UNL     1      -8.268   4.597   0.768  1.00  0.00    -0.246 OA
BRANCH  30  32
ATOM     32  C   UNL     1      -9.070   3.173  -0.940  1.00  0.00     0.060 A 
ATOM     33  C   UNL     1      -8.180   3.280  -2.010  1.00  0.00     0.016 A 
ATOM     34  C   UNL     1     -10.424   2.926  -1.169  1.00  0.00     0.016 A 
ATOM     35  C   UNL     1      -8.638   3.196  -3.317  1.00  0.00     0.010 A 
ATOM     36  C   UNL     1     -10.880   2.806  -2.485  1.00  0.00     0.010 A 
ATOM     37  C   UNL     1      -9.993   2.965  -3.565  1.00  0.00    -0.014 A 
BRANCH  37  38
ATOM     38  C   UNL     1     -10.478   2.963  -4.962  1.00  0.00     0.031 A 
ATOM     39  C   UNL     1     -11.309   4.112  -5.455  1.00  0.00     0.074 A 
ATOM     40  C   UNL     1     -10.118   1.969  -5.796  1.00  0.00     0.049 A 
ATOM     41  N   UNL     1     -11.941   4.245  -6.591  1.00  0.00    -0.248 NA
ATOM     42  C   UNL     1     -11.443   5.268  -4.551  1.00  0.00     0.031 C 
ATOM     43  C   UNL     1      -9.229   0.856  -5.455  1.00  0.00     0.029 A 
ATOM     44  N   UNL     1     -10.446   1.744  -7.107  1.00  0.00    -0.354 N 
ATOM     45  C   UNL     1     -12.572   5.481  -6.529  1.00  0.00     0.074 A 
ATOM     46  C   UNL     1     -12.250   6.060  -5.243  1.00  0.00     0.031 C 
ATOM     47  C   UNL     1      -9.070   0.074  -6.536  1.00  0.00     0.029 A 
ATOM     48  C   UNL     1      -9.897   0.593  -7.620  1.00  0.00     0.049 A 
ATOM     49  H   UNL     1     -11.020   2.348  -7.632  1.00  0.00     0.167 HD
ATOM     50  C   UNL     1     -13.354   6.074  -7.462  1.00  0.00     0.031 A 
ATOM     51  C   UNL     1     -10.073   0.004  -8.818  1.00  0.00     0.031 A 
ATOM     52  C   UNL     1     -13.661   5.487  -8.738  1.00  0.00     0.049 A 
ATOM     53  C   UNL     1     -11.012   0.640  -9.805  1.00  0.00     0.074 A 
ATOM     54  C   UNL     1     -14.494   5.966  -9.732  1.00  0.00     0.029 A 
ATOM     55  N   UNL     1     -13.128   4.293  -9.201  1.00  0.00    -0.354 N 
ATOM     56  N   UNL     1     -11.684   1.763  -9.695  1.00  0.00    -0.248 NA
ATOM     57  C   UNL     1     -11.232  -0.076 -11.068  1.00  0.00     0.031 C 
ATOM     58  C   UNL     1     -14.484   5.048 -10.789  1.00  0.00     0.029 A 
ATOM     59  C   UNL     1     -13.614   4.019 -10.466  1.00  0.00     0.049 A 
ATOM     60  H   UNL     1     -12.497   3.725  -8.703  1.00  0.00     0.167 HD
ATOM     61  C   UNL     1     -12.396   1.893 -10.880  1.00  0.00     0.074 A 
ATOM     62  C   UNL     1     -12.061   0.745 -11.699  1.00  0.00     0.031 C 
ATOM     63  C   UNL     1     -13.255   2.871 -11.258  1.00  0.00     0.031 A 
BRANCH  50  64
ATOM     64  C   UNL     1     -13.965   7.401  -7.110  1.00  0.00    -0.014 A 
ATOM     65  C   UNL     1     -13.201   8.581  -7.126  1.00  0.00     0.010 A 
ATOM     66  C   UNL     1     -15.330   7.470  -6.778  1.00  0.00     0.010 A 
ATOM     67  C   UNL     1     -13.786   9.805  -6.785  1.00  0.00     0.020 A 
ATOM     68  C   UNL     1     -15.923   8.694  -6.455  1.00  0.00     0.020 A 
ATOM     69  C   UNL     1     -15.142   9.852  -6.445  1.00  0.00     0.054 A 
BRANCH  69  70
ATOM     70  S   UNL     1     -15.884  11.453  -6.021  1.00  0.00     0.124 S 
ATOM     71  O   UNL     1     -15.389  11.662  -4.663  1.00  0.00    -0.237 OA
ATOM     72  O   UNL     1     -15.330  12.346  -7.036  1.00  0.00    -0.237 OA
ATOM     73  O   UNL     1     -17.320  11.208  -6.129  1.00  0.00    -0.744 OA
ENDBRANCH  69  70
ENDBRANCH  50  64
BRANCH  51  74
ATOM     74  C   UNL     1      -9.397  -1.285  -9.126  1.00  0.00    -0.014 A 
ATOM     75  C   UNL     1      -8.373  -1.346 -10.086  1.00  0.00     0.010 A 
ATOM     76  C   UNL     1      -9.785  -2.463  -8.461  1.00  0.00     0.010 A 
ATOM     77  C   UNL     1      -7.762  -2.567 -10.391  1.00  0.00     0.020 A 
ATOM     78  C   UNL     1      -9.159  -3.679  -8.745  1.00  0.00     0.020 A 
ATOM     79  C   UNL     1      -8.162  -3.727  -9.721  1.00  0.00     0.054 A 
BRANCH  79  80
ATOM     80  S   UNL     1      -7.338  -5.298 -10.099  1.00  0.00     0.124 S 
ATOM     81  O   UNL     1      -8.023  -5.713 -11.319  1.00  0.00    -0.237 OA
ATOM     82  O   UNL     1      -5.942  -4.899 -10.261  1.00  0.00    -0.237 OA
ATOM     83  O   UNL     1      -7.609  -6.115  -8.918  1.00  0.00    -0.744 OA
ENDBRANCH  79  80
ENDBRANCH  51  74
BRANCH  63  84
ATOM     84  C   UNL     1     -13.860   2.756 -12.628  1.00  0.00    -0.014 A 
ATOM     85  C   UNL     1     -14.920   1.867 -12.877  1.00  0.00     0.010 A 
ATOM     86  C   UNL     1     -13.394   3.586 -13.662  1.00  0.00     0.010 A 
ATOM     87  C   UNL     1     -15.490   1.794 -14.149  1.00  0.00     0.020 A 
ATOM     88  C   UNL     1     -13.975   3.528 -14.931  1.00  0.00     0.020 A 
ATOM     89  C   UNL     1     -15.012   2.623 -15.169  1.00  0.00     0.054 A 
BRANCH  89  90
ATOM     90  S   UNL     1     -15.799   2.549 -16.801  1.00  0.00     0.124 S 
ATOM     91  O   UNL     1     -15.198   1.348 -17.373  1.00  0.00    -0.237 OA
ATOM     92  O   UNL     1     -17.219   2.446 -16.472  1.00  0.00    -0.237 OA
ATOM     93  O   UNL     1     -15.403   3.807 -17.431  1.00  0.00    -0.744 OA
ENDBRANCH  89  90
ENDBRANCH  63  84
ENDBRANCH  37  38
ENDBRANCH  30  32
ENDBRANCH  29  30
ENDBRANCH  28  29
ENDBRANCH   1  28
TORSDOF 19
