REMARK SMILES CC(C)C[C@H](NC(=O)CNC(=O)[C@@H](NC(=O)OCc1ccccc1)C(C)C)C(=O)OCCOC(=O)c1ccc(-c2c3nc(c(-c4ccc(S(=O)(=O)[O-])cc4)c4ccc([nH]4)c(-c4ccc(S(=O)(=O)[O-])cc4)c4nc(c(-c5ccc(S(=O)(=O)[O-])cc5)c5ccc2[nH]5)C=C4)C=C3)cc1
REMARK SMILES IDX 28 1 29 2 5 3 4 4 2 5 1 6 3 7 6 8 7 9 8 11 9 12 10 13 11 14
REMARK SMILES IDX 12 16 13 17 14 18 15 19 16 21 17 22 18 23 19 24 20 25 24 26
REMARK SMILES IDX 21 27 23 28 22 29 25 30 26 31 27 32 30 33 31 34 32 35 33 36
REMARK SMILES IDX 34 37 35 38 36 39 37 40 95 41 38 42 94 43 39 44 40 45 41 46
REMARK SMILES IDX 88 47 42 48 93 49 87 50 89 51 43 52 92 53 86 54 85 55 44 57
REMARK SMILES IDX 74 58 55 59 73 60 56 61 59 62 72 63 90 64 57 65 58 66 71 68
REMARK SMILES IDX 91 69 60 70 45 71 46 72 54 73 47 74 53 75 48 76 49 77 50 78
REMARK SMILES IDX 51 79 52 80 75 81 76 82 84 83 77 84 83 85 78 86 79 87 80 88
REMARK SMILES IDX 81 89 82 90 61 91 62 92 70 93 63 94 69 95 64 96 65 97 66 98
REMARK SMILES IDX 67 99 68 100
REMARK H PARENT 6 10 10 15 14 20 89 56 59 67
REMARK Flexibility Score: inf
ROOT
ATOM      1  C   UNL     1      -3.466   1.120   1.183  1.00  0.00     0.328 C 
ATOM      2  O   UNL     1      -3.897   0.137   1.771  1.00  0.00    -0.250 OA
ENDROOT
BRANCH   1   3
ATOM      3  C   UNL     1      -2.041   1.631   1.344  1.00  0.00     0.192 C 
BRANCH   3   4
ATOM      4  C   UNL     1      -1.906   2.450   2.636  1.00  0.00     0.040 C 
BRANCH   4   5
ATOM      5  C   UNL     1      -3.048   2.727   3.640  1.00  0.00    -0.015 C 
ATOM      6  C   UNL     1      -3.625   1.503   4.360  1.00  0.00     0.007 C 
ATOM      7  C   UNL     1      -2.463   3.644   4.731  1.00  0.00     0.007 C 
ENDBRANCH   4   5
ENDBRANCH   3   4
BRANCH   3   8
ATOM      8  N   UNL     1      -1.637   2.366   0.124  1.00  0.00    -0.341 N 
ATOM      9  C   UNL     1      -0.424   2.683  -0.408  1.00  0.00     0.240 C 
ATOM     10  H   UNL     1      -2.398   2.690  -0.411  1.00  0.00     0.164 HD
ATOM     11  O   UNL     1      -0.389   3.010  -1.599  1.00  0.00    -0.273 OA
BRANCH   9  12
ATOM     12  C   UNL     1       0.875   2.624   0.401  1.00  0.00     0.216 C 
BRANCH  12  13
ATOM     13  N   UNL     1       0.889   3.560   1.507  1.00  0.00    -0.345 N 
ATOM     14  C   UNL     1       1.040   3.460   2.846  1.00  0.00     0.243 C 
ATOM     15  H   UNL     1       0.758   4.490   1.213  1.00  0.00     0.164 HD
ATOM     16  O   UNL     1       0.868   4.529   3.452  1.00  0.00    -0.273 OA
BRANCH  14  17
ATOM     17  C   UNL     1       1.436   2.178   3.649  1.00  0.00     0.177 C 
BRANCH  17  18
ATOM     18  N   UNL     1       1.114   0.883   3.039  1.00  0.00    -0.309 N 
ATOM     19  C   UNL     1       1.811   0.072   2.206  1.00  0.00     0.408 C 
ATOM     20  H   UNL     1       0.224   0.538   3.280  1.00  0.00     0.167 HD
ATOM     21  O   UNL     1       1.229  -0.845   1.637  1.00  0.00    -0.225 OA
BRANCH  19  22
ATOM     22  O   UNL     1       3.104   0.420   2.053  1.00  0.00    -0.445 OA
BRANCH  22  23
ATOM     23  C   UNL     1       3.894  -0.464   1.241  1.00  0.00     0.270 C 
BRANCH  23  24
ATOM     24  C   UNL     1       3.960  -1.874   1.779  1.00  0.00    -0.011 A 
ATOM     25  C   UNL     1       4.319  -2.127   3.110  1.00  0.00     0.007 A 
ATOM     26  C   UNL     1       3.613  -2.953   0.953  1.00  0.00     0.007 A 
ATOM     27  C   UNL     1       4.295  -3.428   3.614  1.00  0.00     0.000 A 
ATOM     28  C   UNL     1       3.599  -4.254   1.455  1.00  0.00     0.000 A 
ATOM     29  C   UNL     1       3.934  -4.490   2.787  1.00  0.00     0.000 A 
ENDBRANCH  23  24
ENDBRANCH  22  23
ENDBRANCH  19  22
ENDBRANCH  17  18
BRANCH  17  30
ATOM     30  C   UNL     1       2.844   2.290   4.286  1.00  0.00     0.015 C 
ATOM     31  C   UNL     1       2.988   3.538   5.173  1.00  0.00     0.010 C 
ATOM     32  C   UNL     1       3.162   1.077   5.170  1.00  0.00     0.010 C 
ENDBRANCH  17  30
ENDBRANCH  14  17
ENDBRANCH  12  13
ENDBRANCH   9  12
ENDBRANCH   3   8
ENDBRANCH   1   3
BRANCH   1  33
ATOM     33  O   UNL     1      -4.213   1.945   0.395  1.00  0.00    -0.461 OA
BRANCH  33  34
ATOM     34  C   UNL     1      -5.600   1.593   0.288  1.00  0.00     0.274 C 
BRANCH  34  35
ATOM     35  C   UNL     1      -5.870   0.614  -0.861  1.00  0.00     0.275 C 
BRANCH  35  36
ATOM     36  O   UNL     1      -5.340  -0.704  -0.617  1.00  0.00    -0.458 OA
BRANCH  36  37
ATOM     37  C   UNL     1      -4.045  -0.887  -0.983  1.00  0.00     0.338 C 
ATOM     38  O   UNL     1      -3.326  -0.062  -1.527  1.00  0.00    -0.246 OA
BRANCH  37  39
ATOM     39  C   UNL     1      -3.538  -2.174  -0.462  1.00  0.00     0.060 A 
ATOM     40  C   UNL     1      -2.318  -2.174   0.227  1.00  0.00     0.016 A 
ATOM     41  C   UNL     1      -4.215  -3.373  -0.685  1.00  0.00     0.016 A 
ATOM     42  C   UNL     1      -1.770  -3.366   0.697  1.00  0.00     0.010 A 
ATOM     43  C   UNL     1      -3.658  -4.572  -0.225  1.00  0.00     0.010 A 
ATOM     44  C   UNL     1      -2.426  -4.577   0.457  1.00  0.00    -0.014 A 
BRANCH  44  45
ATOM     45  C   UNL     1      -1.780  -5.858   0.836  1.00  0.00     0.031 A 
ATOM     46  C   UNL     1      -1.181  -6.724  -0.237  1.00  0.00     0.074 A 
ATOM     47  C   UNL     1      -1.717  -6.238   2.126  1.00  0.00     0.049 A 
ATOM     48  N   UNL     1      -0.660  -7.920  -0.142  1.00  0.00    -0.248 NA
ATOM     49  C   UNL     1      -1.170  -6.169  -1.601  1.00  0.00     0.031 C 
ATOM     50  C   UNL     1      -2.205  -5.456   3.263  1.00  0.00     0.029 A 
ATOM     51  N   UNL     1      -1.220  -7.383   2.696  1.00  0.00    -0.354 N 
ATOM     52  C   UNL     1      -0.282  -8.271  -1.433  1.00  0.00     0.074 A 
ATOM     53  C   UNL     1      -0.650  -7.170  -2.296  1.00  0.00     0.031 C 
ATOM     54  C   UNL     1      -1.987  -6.148   4.394  1.00  0.00     0.029 A 
ATOM     55  C   UNL     1      -1.392  -7.440   4.059  1.00  0.00     0.049 A 
ATOM     56  H   UNL     1      -0.781  -8.097   2.178  1.00  0.00     0.167 HD
ATOM     57  C   UNL     1       0.319  -9.409  -1.857  1.00  0.00     0.031 A 
ATOM     58  C   UNL     1      -1.132  -8.432   4.933  1.00  0.00     0.031 A 
ATOM     59  C   UNL     1       0.681 -10.500  -0.990  1.00  0.00     0.049 A 
ATOM     60  C   UNL     1      -0.536  -9.719   4.424  1.00  0.00     0.074 A 
ATOM     61  C   UNL     1       1.301 -11.693  -1.322  1.00  0.00     0.029 A 
ATOM     62  N   UNL     1       0.454 -10.535   0.378  1.00  0.00    -0.354 N 
ATOM     63  N   UNL     1      -0.183 -10.039   3.201  1.00  0.00    -0.248 NA
ATOM     64  C   UNL     1      -0.301 -10.780   5.414  1.00  0.00     0.031 C 
ATOM     65  C   UNL     1       1.395 -12.473  -0.165  1.00  0.00     0.029 A 
ATOM     66  C   UNL     1       0.898 -11.739   0.900  1.00  0.00     0.049 A 
ATOM     67  H   UNL     1       0.040  -9.812   0.900  1.00  0.00     0.167 HD
ATOM     68  C   UNL     1       0.340 -11.326   3.281  1.00  0.00     0.074 A 
ATOM     69  C   UNL     1       0.276 -11.716   4.674  1.00  0.00     0.031 C 
ATOM     70  C   UNL     1       0.828 -12.114   2.291  1.00  0.00     0.031 A 
BRANCH  57  71
ATOM     71  C   UNL     1       0.589  -9.549  -3.333  1.00  0.00    -0.014 A 
ATOM     72  C   UNL     1       1.582  -8.786  -3.973  1.00  0.00     0.010 A 
ATOM     73  C   UNL     1      -0.130 -10.500  -4.081  1.00  0.00     0.010 A 
ATOM     74  C   UNL     1       1.829  -8.948  -5.339  1.00  0.00     0.020 A 
ATOM     75  C   UNL     1       0.134 -10.686  -5.441  1.00  0.00     0.020 A 
ATOM     76  C   UNL     1       1.103  -9.899  -6.064  1.00  0.00     0.054 A 
BRANCH  76  77
ATOM     77  S   UNL     1       1.470 -10.113  -7.828  1.00  0.00     0.124 S 
ATOM     78  O   UNL     1       0.931  -8.881  -8.400  1.00  0.00    -0.237 OA
ATOM     79  O   UNL     1       2.926 -10.226  -7.840  1.00  0.00    -0.237 OA
ATOM     80  O   UNL     1       0.751 -11.332  -8.188  1.00  0.00    -0.744 OA
ENDBRANCH  76  77
ENDBRANCH  57  71
BRANCH  58  81
ATOM     81  C   UNL     1      -1.468  -8.269   6.376  1.00  0.00    -0.014 A 
ATOM     82  C   UNL     1      -0.455  -8.216   7.350  1.00  0.00     0.010 A 
ATOM     83  C   UNL     1      -2.812  -8.182   6.786  1.00  0.00     0.010 A 
ATOM     84  C   UNL     1      -0.780  -8.103   8.706  1.00  0.00     0.020 A 
ATOM     85  C   UNL     1      -3.140  -8.036   8.136  1.00  0.00     0.020 A 
ATOM     86  C   UNL     1      -2.121  -8.012   9.090  1.00  0.00     0.054 A 
BRANCH  86  87
ATOM     87  S   UNL     1      -2.517  -7.828  10.851  1.00  0.00     0.124 S 
ATOM     88  O   UNL     1      -2.221  -9.160  11.370  1.00  0.00    -0.237 OA
ATOM     89  O   UNL     1      -1.605  -6.767  11.270  1.00  0.00    -0.237 OA
ATOM     90  O   UNL     1      -3.931  -7.458  10.847  1.00  0.00    -0.744 OA
ENDBRANCH  86  87
ENDBRANCH  58  81
BRANCH  70  91
ATOM     91  C   UNL     1       1.373 -13.463   2.683  1.00  0.00    -0.014 A 
ATOM     92  C   UNL     1       0.524 -14.503   3.104  1.00  0.00     0.010 A 
ATOM     93  C   UNL     1       2.756 -13.706   2.587  1.00  0.00     0.010 A 
ATOM     94  C   UNL     1       1.053 -15.747   3.459  1.00  0.00     0.020 A 
ATOM     95  C   UNL     1       3.285 -14.958   2.910  1.00  0.00     0.020 A 
ATOM     96  C   UNL     1       2.431 -15.966   3.361  1.00  0.00     0.054 A 
BRANCH  96  97
ATOM     97  S   UNL     1       3.088 -17.599   3.797  1.00  0.00     0.124 S 
ATOM     98  O   UNL     1       2.964 -17.599   5.252  1.00  0.00    -0.237 OA
ATOM     99  O   UNL     1       2.187 -18.507   3.090  1.00  0.00    -0.237 OA
ATOM    100  O   UNL     1       4.458 -17.570   3.290  1.00  0.00    -0.744 OA
ENDBRANCH  96  97
ENDBRANCH  70  91
ENDBRANCH  44  45
ENDBRANCH  37  39
ENDBRANCH  36  37
ENDBRANCH  35  36
ENDBRANCH  34  35
ENDBRANCH  33  34
ENDBRANCH   1  33
TORSDOF 25
