REMARK SMILES O=C(OCCOC(=O)c1coc(-c2csc(-c3ccc(Cl)cn3)n2)c1)c1ccc(-c2c3nc(c(-c4ccc(S(=O)(=O)[O-])cc4)c4ccc([nH]4)c(-c4ccc(S(=O)(=O)[O-])cc4)c4nc(c(-c5ccc(S(=O)(=O)[O-])cc5)c5ccc2[nH]5)C=C4)C=C3)cc1
REMARK SMILES IDX 4 1 3 2 2 3 1 4 26 5 27 6 85 7 28 8 84 9 29 10 30 11 31 12
REMARK SMILES IDX 78 13 32 14 83 15 77 16 79 17 33 18 82 19 76 20 75 21 34 23
REMARK SMILES IDX 64 24 45 25 63 26 46 27 49 28 62 29 80 30 47 31 48 32 61 34
REMARK SMILES IDX 81 35 50 36 35 37 36 38 44 39 37 40 43 41 38 42 39 43 40 44
REMARK SMILES IDX 41 45 42 46 65 47 66 48 74 49 67 50 73 51 68 52 69 53 70 54
REMARK SMILES IDX 71 55 72 56 51 57 52 58 60 59 53 60 59 61 54 62 55 63 56 64
REMARK SMILES IDX 57 65 58 66 5 67 6 68 7 69 8 70 9 71 10 72 25 73 11 74 12 75
REMARK SMILES IDX 13 76 14 77 24 78 15 79 16 80 17 81 18 82 23 83 19 84 22 85
REMARK SMILES IDX 20 86 21 87
REMARK H PARENT 79 22 49 33
REMARK Flexibility Score: inf
ROOT
ATOM      1  C   UNL     1       4.051  -1.018  -1.362  1.00  0.00     0.275 C 
ENDROOT
BRANCH   1   2
ATOM      2  O   UNL     1       3.050  -1.205  -0.346  1.00  0.00    -0.458 OA
BRANCH   2   3
ATOM      3  C   UNL     1       2.945  -0.661   0.889  1.00  0.00     0.338 C 
ATOM      4  O   UNL     1       2.163  -1.163   1.694  1.00  0.00    -0.246 OA
BRANCH   3   5
ATOM      5  C   UNL     1       3.620   0.613   1.282  1.00  0.00     0.060 A 
ATOM      6  C   UNL     1       4.912   0.998   0.918  1.00  0.00     0.016 A 
ATOM      7  C   UNL     1       2.898   1.460   2.143  1.00  0.00     0.016 A 
ATOM      8  C   UNL     1       5.445   2.217   1.347  1.00  0.00     0.010 A 
ATOM      9  C   UNL     1       3.423   2.686   2.568  1.00  0.00     0.010 A 
ATOM     10  C   UNL     1       4.711   3.063   2.182  1.00  0.00    -0.014 A 
BRANCH  10  11
ATOM     11  C   UNL     1       5.383   4.231   2.796  1.00  0.00     0.031 A 
ATOM     12  C   UNL     1       5.901   4.094   4.199  1.00  0.00     0.074 A 
ATOM     13  C   UNL     1       5.602   5.354   2.088  1.00  0.00     0.049 A 
ATOM     14  N   UNL     1       6.638   4.920   4.893  1.00  0.00    -0.248 NA
ATOM     15  C   UNL     1       5.546   2.856   4.914  1.00  0.00     0.031 C 
ATOM     16  C   UNL     1       5.163   5.586   0.713  1.00  0.00     0.029 A 
ATOM     17  N   UNL     1       6.272   6.504   2.423  1.00  0.00    -0.354 N 
ATOM     18  C   UNL     1       6.852   4.294   6.114  1.00  0.00     0.074 A 
ATOM     19  C   UNL     1       6.120   3.048   6.091  1.00  0.00     0.031 C 
ATOM     20  C   UNL     1       5.594   6.795   0.312  1.00  0.00     0.029 A 
ATOM     21  C   UNL     1       6.330   7.426   1.404  1.00  0.00     0.049 A 
ATOM     22  H   UNL     1       6.673   6.655   3.309  1.00  0.00     0.167 HD
ATOM     23  C   UNL     1       7.608   4.708   7.158  1.00  0.00     0.031 A 
ATOM     24  C   UNL     1       6.926   8.634   1.357  1.00  0.00     0.031 A 
ATOM     25  C   UNL     1       8.311   5.958   7.188  1.00  0.00     0.049 A 
ATOM     26  C   UNL     1       7.710   9.104   2.555  1.00  0.00     0.074 A 
ATOM     27  C   UNL     1       9.091   6.488   8.199  1.00  0.00     0.029 A 
ATOM     28  N   UNL     1       8.310   6.881   6.152  1.00  0.00    -0.354 N 
ATOM     29  N   UNL     1       7.934   8.480   3.689  1.00  0.00    -0.248 NA
ATOM     30  C   UNL     1       8.338  10.428   2.461  1.00  0.00     0.031 C 
ATOM     31  C   UNL     1       9.531   7.752   7.787  1.00  0.00     0.029 A 
ATOM     32  C   UNL     1       9.062   7.986   6.503  1.00  0.00     0.049 A 
ATOM     33  H   UNL     1       7.843   6.765   5.293  1.00  0.00     0.167 HD
ATOM     34  C   UNL     1       8.762   9.320   4.426  1.00  0.00     0.074 A 
ATOM     35  C   UNL     1       8.999  10.494   3.610  1.00  0.00     0.031 C 
ATOM     36  C   UNL     1       9.289   9.134   5.662  1.00  0.00     0.031 A 
BRANCH  23  37
ATOM     37  C   UNL     1       7.661   3.795   8.351  1.00  0.00    -0.014 A 
ATOM     38  C   UNL     1       8.370   2.580   8.302  1.00  0.00     0.010 A 
ATOM     39  C   UNL     1       6.940   4.123   9.512  1.00  0.00     0.010 A 
ATOM     40  C   UNL     1       8.302   1.678   9.366  1.00  0.00     0.020 A 
ATOM     41  C   UNL     1       6.889   3.233  10.589  1.00  0.00     0.020 A 
ATOM     42  C   UNL     1       7.546   2.004  10.496  1.00  0.00     0.054 A 
BRANCH  42  43
ATOM     43  S   UNL     1       7.430   0.799  11.847  1.00  0.00     0.124 S 
ATOM     44  O   UNL     1       6.477  -0.166  11.304  1.00  0.00    -0.237 OA
ATOM     45  O   UNL     1       8.804   0.320  11.973  1.00  0.00    -0.237 OA
ATOM     46  O   UNL     1       6.943   1.590  12.974  1.00  0.00    -0.744 OA
ENDBRANCH  42  43
ENDBRANCH  23  37
BRANCH  24  47
ATOM     47  C   UNL     1       6.838   9.469   0.126  1.00  0.00    -0.014 A 
ATOM     48  C   UNL     1       7.967   9.668  -0.689  1.00  0.00     0.010 A 
ATOM     49  C   UNL     1       5.620  10.071  -0.240  1.00  0.00     0.010 A 
ATOM     50  C   UNL     1       7.885  10.466  -1.835  1.00  0.00     0.020 A 
ATOM     51  C   UNL     1       5.528  10.851  -1.397  1.00  0.00     0.020 A 
ATOM     52  C   UNL     1       6.665  11.053  -2.183  1.00  0.00     0.054 A 
BRANCH  52  53
ATOM     53  S   UNL     1       6.569  12.044  -3.701  1.00  0.00     0.124 S 
ATOM     54  O   UNL     1       7.264  13.266  -3.310  1.00  0.00    -0.237 OA
ATOM     55  O   UNL     1       7.265  11.202  -4.671  1.00  0.00    -0.237 OA
ATOM     56  O   UNL     1       5.132  12.183  -3.927  1.00  0.00    -0.744 OA
ENDBRANCH  52  53
ENDBRANCH  24  47
BRANCH  36  57
ATOM     57  C   UNL     1      10.213  10.199   6.185  1.00  0.00    -0.014 A 
ATOM     58  C   UNL     1       9.718  11.427   6.656  1.00  0.00     0.010 A 
ATOM     59  C   UNL     1      11.592   9.932   6.266  1.00  0.00     0.010 A 
ATOM     60  C   UNL     1      10.594  12.384   7.176  1.00  0.00     0.020 A 
ATOM     61  C   UNL     1      12.466  10.877   6.806  1.00  0.00     0.020 A 
ATOM     62  C   UNL     1      11.962  12.103   7.246  1.00  0.00     0.054 A 
BRANCH  62  63
ATOM     63  S   UNL     1      13.075  13.336   7.974  1.00  0.00     0.124 S 
ATOM     64  O   UNL     1      13.224  14.292   6.880  1.00  0.00    -0.237 OA
ATOM     65  O   UNL     1      12.317  13.815   9.128  1.00  0.00    -0.237 OA
ATOM     66  O   UNL     1      14.274  12.568   8.300  1.00  0.00    -0.744 OA
ENDBRANCH  62  63
ENDBRANCH  36  57
ENDBRANCH  10  11
ENDBRANCH   3   5
ENDBRANCH   2   3
ENDBRANCH   1   2
BRANCH   1  67
ATOM     67  C   UNL     1       3.711   0.046  -2.407  1.00  0.00     0.275 C 
BRANCH  67  68
ATOM     68  O   UNL     1       3.344   1.315  -1.851  1.00  0.00    -0.458 OA
BRANCH  68  69
ATOM     69  C   UNL     1       2.007   1.485  -1.613  1.00  0.00     0.341 C 
ATOM     70  O   UNL     1       1.148   0.643  -1.839  1.00  0.00    -0.246 OA
BRANCH  69  71
ATOM     71  C   UNL     1       1.718   2.755  -0.989  1.00  0.00     0.098 A 
ATOM     72  C   UNL     1       2.192   3.985  -1.386  1.00  0.00     0.211 A 
ATOM     73  C   UNL     1       0.912   3.010   0.160  1.00  0.00     0.068 A 
ATOM     74  O   UNL     1       1.730   4.963  -0.565  1.00  0.00    -0.462 OA
ATOM     75  C   UNL     1       1.020   4.357   0.436  1.00  0.00     0.154 A 
BRANCH  75  76
ATOM     76  C   UNL     1       0.522   5.065   1.651  1.00  0.00     0.117 A 
ATOM     77  C   UNL     1       0.361   6.434   1.665  1.00  0.00     0.099 A 
ATOM     78  N   UNL     1       0.283   4.420   2.858  1.00  0.00    -0.231 NA
ATOM     79  S   UNL     1      -0.128   6.947   3.219  1.00  0.00    -0.120 S 
ATOM     80  C   UNL     1       0.014   5.322   3.788  1.00  0.00     0.142 A 
BRANCH  80  81
ATOM     81  C   UNL     1      -0.070   5.107   5.237  1.00  0.00     0.099 A 
ATOM     82  C   UNL     1       1.072   5.213   6.035  1.00  0.00     0.033 A 
ATOM     83  N   UNL     1      -1.315   4.924   5.748  1.00  0.00    -0.252 NA
ATOM     84  C   UNL     1       0.934   5.152   7.422  1.00  0.00     0.024 A 
ATOM     85  C   UNL     1      -1.409   4.854   7.101  1.00  0.00     0.132 A 
ATOM     86  C   UNL     1      -0.331   4.974   7.967  1.00  0.00     0.059 A 
ATOM     87  Cl  UNL     1      -0.558   4.931   9.667  1.00  0.00    -0.083 Cl
ENDBRANCH  80  81
ENDBRANCH  75  76
ENDBRANCH  69  71
ENDBRANCH  68  69
ENDBRANCH  67  68
ENDBRANCH   1  67
TORSDOF 16
