REMARK SMILES O=C(Cc1ccc(O)cc1)N[C@H]1C=C[C@H](C(=O)OCCOC(=O)c2ccc(-c3c4nc(c(-c5ccc(S(=O)(=O)[O-])cc5)c5ccc([nH]5)c(-c5ccc(S(=O)(=O)[O-])cc5)c5nc(c(-c6ccc(S(=O)(=O)[O-])cc6)c6ccc3[nH]6)C=C5)C=C4)cc2)C1
REMARK SMILES IDX 19 1 18 2 16 3 17 4 15 5 12 6 13 7 84 8 14 9 11 10 1 11 2 12
REMARK SMILES IDX 3 14 4 15 5 16 10 17 6 18 9 19 7 20 8 21 20 23 21 24 22 25
REMARK SMILES IDX 23 26 24 27 25 28 83 29 26 30 82 31 27 32 28 33 29 34 76 35
REMARK SMILES IDX 30 36 81 37 75 38 77 39 31 40 80 41 74 42 73 43 32 45 62 46
REMARK SMILES IDX 43 47 61 48 44 49 47 50 60 51 78 52 45 53 46 54 59 56 79 57
REMARK SMILES IDX 48 58 33 59 34 60 42 61 35 62 41 63 36 64 37 65 38 66 39 67
REMARK SMILES IDX 40 68 63 69 64 70 72 71 65 72 71 73 66 74 67 75 68 76 69 77
REMARK SMILES IDX 70 78 49 79 50 80 58 81 51 82 57 83 52 84 53 85 54 86 55 87
REMARK SMILES IDX 56 88
REMARK H PARENT 11 13 8 22 77 44 47 55
REMARK Flexibility Score: inf
ROOT
ATOM      1  C   UNL     1      -0.536   7.362   0.060  1.00  0.00     0.274 C 
ENDROOT
BRANCH   1   2
ATOM      2  O   UNL     1       0.621   6.738   0.661  1.00  0.00    -0.462 OA
BRANCH   2   3
ATOM      3  C   UNL     1       0.528   5.391   0.848  1.00  0.00     0.312 C 
ATOM      4  O   UNL     1      -0.417   4.706   0.478  1.00  0.00    -0.252 OA
BRANCH   3   5
ATOM      5  C   UNL     1       1.758   4.844   1.580  1.00  0.00     0.124 C 
ATOM      6  C   UNL     1       1.874   2.537   0.848  1.00  0.00     0.106 C 
ATOM      7  C   UNL     1       1.396   2.624   2.265  1.00  0.00    -0.006 C 
ATOM      8  C   UNL     1       2.581   3.893   0.699  1.00  0.00     0.048 C 
ATOM      9  C   UNL     1       1.325   3.900   2.672  1.00  0.00    -0.014 C 
BRANCH   6  10
ATOM     10  N   UNL     1       2.741   1.398   0.701  1.00  0.00    -0.350 N 
ATOM     11  O   UNL     1       1.186   0.163  -0.449  1.00  0.00    -0.275 OA
ATOM     12  C   UNL     1       2.292   0.245   0.079  1.00  0.00     0.224 C 
ATOM     13  H   UNL     1       3.662   1.439   1.046  1.00  0.00     0.164 HD
BRANCH  12  14
ATOM     14  C   UNL     1       3.268  -0.916   0.110  1.00  0.00     0.135 C 
BRANCH  14  15
ATOM     15  C   UNL     1       3.988  -1.160  -1.194  1.00  0.00    -0.038 A 
ATOM     16  C   UNL     1       4.063  -2.460  -1.724  1.00  0.00     0.008 A 
ATOM     17  C   UNL     1       4.656  -0.121  -1.861  1.00  0.00     0.008 A 
ATOM     18  C   UNL     1       4.780  -2.715  -2.897  1.00  0.00     0.046 A 
ATOM     19  C   UNL     1       5.381  -0.380  -3.024  1.00  0.00     0.046 A 
ATOM     20  C   UNL     1       5.436  -1.670  -3.534  1.00  0.00     0.115 A 
BRANCH  20  21
ATOM     21  O   UNL     1       6.173  -1.875  -4.661  1.00  0.00    -0.508 OA
ATOM     22  H   UNL     1       6.232  -2.733  -5.032  1.00  0.00     0.293 HD
ENDBRANCH  20  21
ENDBRANCH  14  15
ENDBRANCH  12  14
ENDBRANCH   6  10
ENDBRANCH   3   5
ENDBRANCH   2   3
ENDBRANCH   1   2
BRANCH   1  23
ATOM     23  C   UNL     1      -0.271   7.734  -1.395  1.00  0.00     0.275 C 
BRANCH  23  24
ATOM     24  O   UNL     1      -0.055   6.539  -2.161  1.00  0.00    -0.458 OA
BRANCH  24  25
ATOM     25  C   UNL     1       1.113   6.475  -2.838  1.00  0.00     0.338 C 
ATOM     26  O   UNL     1       1.970   7.338  -2.922  1.00  0.00    -0.246 OA
BRANCH  25  27
ATOM     27  C   UNL     1       1.239   5.153  -3.472  1.00  0.00     0.060 A 
ATOM     28  C   UNL     1       1.210   4.007  -2.680  1.00  0.00     0.016 A 
ATOM     29  C   UNL     1       1.508   5.055  -4.836  1.00  0.00     0.016 A 
ATOM     30  C   UNL     1       1.564   2.775  -3.222  1.00  0.00     0.010 A 
ATOM     31  C   UNL     1       1.747   3.798  -5.401  1.00  0.00     0.010 A 
ATOM     32  C   UNL     1       1.820   2.647  -4.595  1.00  0.00    -0.014 A 
BRANCH  32  33
ATOM     33  C   UNL     1       2.186   1.325  -5.179  1.00  0.00     0.031 A 
ATOM     34  C   UNL     1       3.481   1.160  -5.933  1.00  0.00     0.074 A 
ATOM     35  C   UNL     1       1.370   0.262  -5.032  1.00  0.00     0.049 A 
ATOM     36  N   UNL     1       3.887   0.158  -6.672  1.00  0.00    -0.248 NA
ATOM     37  C   UNL     1       4.439   2.276  -5.860  1.00  0.00     0.031 C 
ATOM     38  C   UNL     1       0.110   0.249  -4.286  1.00  0.00     0.029 A 
ATOM     39  N   UNL     1       1.487  -1.025  -5.500  1.00  0.00    -0.354 N 
ATOM     40  C   UNL     1       5.122   0.540  -7.185  1.00  0.00     0.074 A 
ATOM     41  C   UNL     1       5.394   1.871  -6.686  1.00  0.00     0.031 C 
ATOM     42  C   UNL     1      -0.404  -0.990  -4.307  1.00  0.00     0.029 A 
ATOM     43  C   UNL     1       0.439  -1.838  -5.140  1.00  0.00     0.049 A 
ATOM     44  H   UNL     1       2.249  -1.335  -6.041  1.00  0.00     0.167 HD
ATOM     45  C   UNL     1       5.955  -0.154  -7.996  1.00  0.00     0.031 A 
ATOM     46  C   UNL     1       0.155  -3.111  -5.473  1.00  0.00     0.031 A 
ATOM     47  C   UNL     1       5.717  -1.501  -8.441  1.00  0.00     0.049 A 
ATOM     48  C   UNL     1       1.069  -3.846  -6.409  1.00  0.00     0.074 A 
ATOM     49  C   UNL     1       6.513  -2.294  -9.249  1.00  0.00     0.029 A 
ATOM     50  N   UNL     1       4.608  -2.259  -8.102  1.00  0.00    -0.354 N 
ATOM     51  N   UNL     1       2.201  -3.448  -6.937  1.00  0.00    -0.248 NA
ATOM     52  C   UNL     1       0.652  -5.196  -6.815  1.00  0.00     0.031 C 
ATOM     53  C   UNL     1       5.874  -3.527  -9.417  1.00  0.00     0.029 A 
ATOM     54  C   UNL     1       4.699  -3.512  -8.683  1.00  0.00     0.049 A 
ATOM     55  H   UNL     1       3.865  -1.952  -7.533  1.00  0.00     0.167 HD
ATOM     56  C   UNL     1       2.625  -4.492  -7.748  1.00  0.00     0.074 A 
ATOM     57  C   UNL     1       1.649  -5.554  -7.613  1.00  0.00     0.031 C 
ATOM     58  C   UNL     1       3.720  -4.558  -8.543  1.00  0.00     0.031 A 
BRANCH  45  59
ATOM     59  C   UNL     1       7.192   0.548  -8.486  1.00  0.00    -0.014 A 
ATOM     60  C   UNL     1       8.310   0.729  -7.654  1.00  0.00     0.010 A 
ATOM     61  C   UNL     1       7.243   1.006  -9.816  1.00  0.00     0.010 A 
ATOM     62  C   UNL     1       9.446   1.390  -8.135  1.00  0.00     0.020 A 
ATOM     63  C   UNL     1       8.383   1.649 -10.305  1.00  0.00     0.020 A 
ATOM     64  C   UNL     1       9.471   1.854  -9.455  1.00  0.00     0.054 A 
BRANCH  64  65
ATOM     65  S   UNL     1      10.958   2.698 -10.062  1.00  0.00     0.124 S 
ATOM     66  O   UNL     1      10.810   4.027  -9.474  1.00  0.00    -0.237 OA
ATOM     67  O   UNL     1      12.041   1.887  -9.513  1.00  0.00    -0.237 OA
ATOM     68  O   UNL     1      10.818   2.642 -11.516  1.00  0.00    -0.744 OA
ENDBRANCH  64  65
ENDBRANCH  45  59
BRANCH  46  69
ATOM     69  C   UNL     1      -1.094  -3.744  -4.969  1.00  0.00    -0.014 A 
ATOM     70  C   UNL     1      -1.041  -4.757  -3.997  1.00  0.00     0.010 A 
ATOM     71  C   UNL     1      -2.347  -3.315  -5.445  1.00  0.00     0.010 A 
ATOM     72  C   UNL     1      -2.220  -5.334  -3.514  1.00  0.00     0.020 A 
ATOM     73  C   UNL     1      -3.527  -3.871  -4.947  1.00  0.00     0.020 A 
ATOM     74  C   UNL     1      -3.456  -4.886  -3.991  1.00  0.00     0.054 A 
BRANCH  74  75
ATOM     75  S   UNL     1      -4.979  -5.600  -3.310  1.00  0.00     0.124 S 
ATOM     76  O   UNL     1      -5.094  -6.843  -4.065  1.00  0.00    -0.237 OA
ATOM     77  O   UNL     1      -4.660  -5.749  -1.892  1.00  0.00    -0.237 OA
ATOM     78  O   UNL     1      -5.990  -4.588  -3.608  1.00  0.00    -0.744 OA
ENDBRANCH  74  75
ENDBRANCH  46  69
BRANCH  58  79
ATOM     79  C   UNL     1       3.932  -5.831  -9.311  1.00  0.00    -0.014 A 
ATOM     80  C   UNL     1       3.185  -6.105 -10.470  1.00  0.00     0.010 A 
ATOM     81  C   UNL     1       4.916  -6.743  -8.892  1.00  0.00     0.010 A 
ATOM     82  C   UNL     1       3.403  -7.286 -11.185  1.00  0.00     0.020 A 
ATOM     83  C   UNL     1       5.149  -7.915  -9.615  1.00  0.00     0.020 A 
ATOM     84  C   UNL     1       4.381  -8.185 -10.750  1.00  0.00     0.054 A 
BRANCH  84  85
ATOM     85  S   UNL     1       4.678  -9.694 -11.713  1.00  0.00     0.124 S 
ATOM     86  O   UNL     1       3.572 -10.547 -11.287  1.00  0.00    -0.237 OA
ATOM     87  O   UNL     1       4.609  -9.217 -13.092  1.00  0.00    -0.237 OA
ATOM     88  O   UNL     1       6.003 -10.126 -11.275  1.00  0.00    -0.744 OA
ENDBRANCH  84  85
ENDBRANCH  58  79
ENDBRANCH  32  33
ENDBRANCH  25  27
ENDBRANCH  24  25
ENDBRANCH  23  24
ENDBRANCH   1  23
TORSDOF 18
