REMARK SMILES O=C(OCCOC(=O)c1ccccc1Nc1nc(Cl)nc(Nc2ccc(N3CCOCC3=O)cc2)n1)c1ccc(-c2c3nc(c(-c4ccc(S(=O)(=O)[O-])cc4)c4ccc([nH]4)c(-c4ccc(S(=O)(=O)[O-])cc4)c4nc(c(-c5ccc(S(=O)(=O)[O-])cc5)c5ccc2[nH]5)C=C4)C=C3)cc1
REMARK SMILES IDX 5 1 4 2 3 3 2 4 1 5 37 6 38 7 96 8 39 9 95 10 40 11 41 12
REMARK SMILES IDX 42 13 89 14 43 15 94 16 88 17 90 18 44 19 93 20 87 21 86 22
REMARK SMILES IDX 45 24 75 25 56 26 74 27 57 28 60 29 73 30 91 31 58 32 59 33
REMARK SMILES IDX 72 35 92 36 61 37 46 38 47 39 55 40 48 41 54 42 49 43 50 44
REMARK SMILES IDX 51 45 52 46 53 47 76 48 77 49 85 50 78 51 84 52 79 53 80 54
REMARK SMILES IDX 81 55 82 56 83 57 62 58 63 59 71 60 64 61 70 62 65 63 66 64
REMARK SMILES IDX 67 65 68 66 69 67 6 68 7 69 8 70 9 71 10 72 14 73 11 74
REMARK SMILES IDX 13 75 12 76 15 77 16 79 17 80 36 81 18 82 21 83 19 84 20 85
REMARK SMILES IDX 22 86 23 88 24 89 35 90 25 91 34 92 26 93 27 94 28 95 32 96
REMARK SMILES IDX 29 97 31 98 33 99 30 100
REMARK H PARENT 90 23 60 34 15 78 22 87
REMARK Flexibility Score: inf
ROOT
ATOM      1  C   UNL     1       4.210  -1.405  -1.655  1.00  0.00     0.275 C 
ENDROOT
BRANCH   1   2
ATOM      2  C   UNL     1       4.339  -1.380  -0.129  1.00  0.00     0.275 C 
BRANCH   2   3
ATOM      3  O   UNL     1       3.173  -0.872   0.542  1.00  0.00    -0.458 OA
BRANCH   3   4
ATOM      4  C   UNL     1       2.851   0.380   0.939  1.00  0.00     0.338 C 
ATOM      5  O   UNL     1       1.882   0.512   1.688  1.00  0.00    -0.246 OA
BRANCH   4   6
ATOM      6  C   UNL     1       3.526   1.636   0.461  1.00  0.00     0.060 A 
ATOM      7  C   UNL     1       4.783   1.730  -0.140  1.00  0.00     0.016 A 
ATOM      8  C   UNL     1       2.805   2.836   0.644  1.00  0.00     0.016 A 
ATOM      9  C   UNL     1       5.298   2.959  -0.559  1.00  0.00     0.010 A 
ATOM     10  C   UNL     1       3.313   4.072   0.227  1.00  0.00     0.010 A 
ATOM     11  C   UNL     1       4.574   4.137  -0.367  1.00  0.00    -0.014 A 
BRANCH  11  12
ATOM     12  C   UNL     1       5.212   5.423  -0.717  1.00  0.00     0.031 A 
ATOM     13  C   UNL     1       5.903   6.199   0.353  1.00  0.00     0.074 A 
ATOM     14  C   UNL     1       5.217   5.851  -1.991  1.00  0.00     0.049 A 
ATOM     15  N   UNL     1       6.603   7.294   0.243  1.00  0.00    -0.248 NA
ATOM     16  C   UNL     1       5.783   5.680   1.724  1.00  0.00     0.031 C 
ATOM     17  C   UNL     1       4.529   5.167  -3.072  1.00  0.00     0.029 A 
ATOM     18  N   UNL     1       5.795   6.932  -2.600  1.00  0.00    -0.354 N 
ATOM     19  C   UNL     1       6.998   7.609   1.534  1.00  0.00     0.074 A 
ATOM     20  C   UNL     1       6.450   6.596   2.410  1.00  0.00     0.031 C 
ATOM     21  C   UNL     1       4.700   5.844  -4.217  1.00  0.00     0.029 A 
ATOM     22  C   UNL     1       5.523   7.014  -3.948  1.00  0.00     0.049 A 
ATOM     23  H   UNL     1       6.351   7.588  -2.121  1.00  0.00     0.167 HD
ATOM     24  C   UNL     1       7.739   8.662   1.944  1.00  0.00     0.031 A 
ATOM     25  C   UNL     1       5.887   7.935  -4.861  1.00  0.00     0.031 A 
ATOM     26  C   UNL     1       8.220   9.686   1.057  1.00  0.00     0.049 A 
ATOM     27  C   UNL     1       6.789   9.048  -4.396  1.00  0.00     0.074 A 
ATOM     28  C   UNL     1       8.928  10.832   1.364  1.00  0.00     0.029 A 
ATOM     29  N   UNL     1       8.024   9.688  -0.319  1.00  0.00    -0.354 N 
ATOM     30  N   UNL     1       7.212   9.297  -3.176  1.00  0.00    -0.248 NA
ATOM     31  C   UNL     1       7.281   9.991  -5.407  1.00  0.00     0.031 C 
ATOM     32  C   UNL     1       9.125  11.549   0.177  1.00  0.00     0.029 A 
ATOM     33  C   UNL     1       8.588  10.822  -0.876  1.00  0.00     0.049 A 
ATOM     34  H   UNL     1       7.553   8.986  -0.823  1.00  0.00     0.167 HD
ATOM     35  C   UNL     1       8.001  10.435  -3.269  1.00  0.00     0.074 A 
ATOM     36  C   UNL     1       8.048  10.789  -4.675  1.00  0.00     0.031 C 
ATOM     37  C   UNL     1       8.607  11.143  -2.284  1.00  0.00     0.031 A 
BRANCH  24  38
ATOM     38  C   UNL     1       7.981   8.770   3.422  1.00  0.00    -0.014 A 
ATOM     39  C   UNL     1       8.838   7.873   4.087  1.00  0.00     0.010 A 
ATOM     40  C   UNL     1       7.279   9.731   4.170  1.00  0.00     0.010 A 
ATOM     41  C   UNL     1       8.939   7.896   5.481  1.00  0.00     0.020 A 
ATOM     42  C   UNL     1       7.397   9.774   5.561  1.00  0.00     0.020 A 
ATOM     43  C   UNL     1       8.206   8.838   6.209  1.00  0.00     0.054 A 
BRANCH  43  44
ATOM     44  S   UNL     1       8.322   8.823   8.018  1.00  0.00     0.124 S 
ATOM     45  O   UNL     1       7.520   7.650   8.360  1.00  0.00    -0.237 OA
ATOM     46  O   UNL     1       9.758   8.688   8.248  1.00  0.00    -0.237 OA
ATOM     47  O   UNL     1       7.748  10.107   8.413  1.00  0.00    -0.744 OA
ENDBRANCH  43  44
ENDBRANCH  24  38
BRANCH  25  48
ATOM     48  C   UNL     1       5.332   7.880  -6.248  1.00  0.00    -0.014 A 
ATOM     49  C   UNL     1       6.136   7.709  -7.387  1.00  0.00     0.010 A 
ATOM     50  C   UNL     1       3.942   8.024  -6.430  1.00  0.00     0.010 A 
ATOM     51  C   UNL     1       5.573   7.758  -8.674  1.00  0.00     0.020 A 
ATOM     52  C   UNL     1       3.371   8.024  -7.705  1.00  0.00     0.020 A 
ATOM     53  C   UNL     1       4.191   7.919  -8.826  1.00  0.00     0.054 A 
BRANCH  53  54
ATOM     54  S   UNL     1       3.459   8.146 -10.475  1.00  0.00     0.124 S 
ATOM     55  O   UNL     1       4.435   8.992 -11.158  1.00  0.00    -0.237 OA
ATOM     56  O   UNL     1       3.355   6.781 -10.978  1.00  0.00    -0.237 OA
ATOM     57  O   UNL     1       2.179   8.792 -10.197  1.00  0.00    -0.744 OA
ENDBRANCH  53  54
ENDBRANCH  25  48
BRANCH  37  58
ATOM     58  C   UNL     1       9.352  12.384  -2.693  1.00  0.00    -0.014 A 
ATOM     59  C   UNL     1       8.656  13.539  -3.094  1.00  0.00     0.010 A 
ATOM     60  C   UNL     1      10.754  12.421  -2.598  1.00  0.00     0.010 A 
ATOM     61  C   UNL     1       9.353  14.705  -3.415  1.00  0.00     0.020 A 
ATOM     62  C   UNL     1      11.452  13.593  -2.894  1.00  0.00     0.020 A 
ATOM     63  C   UNL     1      10.747  14.725  -3.310  1.00  0.00     0.054 A 
BRANCH  63  64
ATOM     64  S   UNL     1      11.625  16.270  -3.671  1.00  0.00     0.124 S 
ATOM     65  O   UNL     1      11.556  16.325  -5.128  1.00  0.00    -0.237 OA
ATOM     66  O   UNL     1      10.823  17.267  -2.965  1.00  0.00    -0.237 OA
ATOM     67  O   UNL     1      12.959  16.047  -3.117  1.00  0.00    -0.744 OA
ENDBRANCH  63  64
ENDBRANCH  37  58
ENDBRANCH  11  12
ENDBRANCH   4   6
ENDBRANCH   3   4
ENDBRANCH   2   3
ENDBRANCH   1   2
BRANCH   1  68
ATOM     68  O   UNL     1       3.734  -0.166  -2.203  1.00  0.00    -0.458 OA
BRANCH  68  69
ATOM     69  C   UNL     1       2.384  -0.116  -2.397  1.00  0.00     0.340 C 
ATOM     70  O   UNL     1       1.594  -1.010  -2.180  1.00  0.00    -0.246 OA
BRANCH  69  71
ATOM     71  C   UNL     1       1.969   1.247  -2.807  1.00  0.00     0.083 A 
ATOM     72  C   UNL     1       0.858   1.773  -2.126  1.00  0.00     0.018 A 
ATOM     73  C   UNL     1       2.624   1.986  -3.815  1.00  0.00     0.055 A 
ATOM     74  C   UNL     1       0.373   3.036  -2.449  1.00  0.00     0.001 A 
ATOM     75  C   UNL     1       2.023   3.191  -4.215  1.00  0.00     0.027 A 
ATOM     76  C   UNL     1       0.938   3.731  -3.511  1.00  0.00     0.002 A 
BRANCH  73  77
ATOM     77  N   UNL     1       3.838   1.531  -4.383  1.00  0.00    -0.323 N 
ATOM     78  H   UNL     1       4.073   0.595  -4.190  1.00  0.00     0.170 HD
BRANCH  77  79
ATOM     79  C   UNL     1       4.752   2.229  -5.181  1.00  0.00     0.233 A 
ATOM     80  N   UNL     1       5.913   2.500  -4.612  1.00  0.00    -0.182 NA
ATOM     81  N   UNL     1       4.457   2.523  -6.445  1.00  0.00    -0.176 NA
ATOM     82  C   UNL     1       6.729   3.197  -5.388  1.00  0.00     0.228 A 
ATOM     83  C   UNL     1       5.413   3.117  -7.168  1.00  0.00     0.233 A 
ATOM     84  Cl  UNL     1       8.184   3.721  -4.663  1.00  0.00    -0.041 Cl
ATOM     85  N   UNL     1       6.569   3.505  -6.661  1.00  0.00    -0.182 NA
BRANCH  83  86
ATOM     86  N   UNL     1       5.120   3.291  -8.517  1.00  0.00    -0.324 N 
ATOM     87  H   UNL     1       4.242   2.926  -8.770  1.00  0.00     0.170 HD
BRANCH  86  88
ATOM     88  C   UNL     1       5.801   3.873  -9.595  1.00  0.00     0.041 A 
ATOM     89  C   UNL     1       5.075   4.136 -10.762  1.00  0.00     0.028 A 
ATOM     90  C   UNL     1       7.140   4.277  -9.569  1.00  0.00     0.028 A 
ATOM     91  C   UNL     1       5.625   4.877 -11.813  1.00  0.00     0.028 A 
ATOM     92  C   UNL     1       7.709   4.995 -10.639  1.00  0.00     0.028 A 
ATOM     93  C   UNL     1       6.932   5.354 -11.742  1.00  0.00     0.044 A 
BRANCH  93  94
ATOM     94  N   UNL     1       7.381   6.331 -12.681  1.00  0.00    -0.308 N 
ATOM     95  C   UNL     1       6.547   7.548 -12.747  1.00  0.00     0.154 C 
ATOM     96  C   UNL     1       8.692   6.354 -13.152  1.00  0.00     0.253 C 
ATOM     97  C   UNL     1       6.934   8.530 -13.844  1.00  0.00     0.183 C 
ATOM     98  C   UNL     1       9.040   7.560 -14.042  1.00  0.00     0.260 C 
ATOM     99  O   UNL     1       9.511   5.444 -13.005  1.00  0.00    -0.272 OA
ATOM    100  O   UNL     1       8.341   8.772 -13.824  1.00  0.00    -0.370 OA
ENDBRANCH  93  94
ENDBRANCH  86  88
ENDBRANCH  83  86
ENDBRANCH  77  79
ENDBRANCH  73  77
ENDBRANCH  69  71
ENDBRANCH  68  69
ENDBRANCH   1  68
TORSDOF 19
