REMARK SMILES Cc1cc(C(=O)OCCOC(=O)c2ccc(-c3c4nc(c(-c5ccc(S(=O)(=O)[O-])cc5)c5ccc([nH]5)c(-c5ccc(S(=O)(=O)[O-])cc5)c5nc(c(-c6ccc(S(=O)(=O)[O-])cc6)c6ccc3[nH]6)C=C5)C=C4)cc2)ccc1NC(=O)N1C[C@@H](C)[C@H](C)C1
REMARK SMILES IDX 9 1 8 2 7 3 5 4 6 5 4 6 1 7 2 8 3 9 75 10 74 11 73 12 76 13
REMARK SMILES IDX 77 14 78 16 79 17 80 18 85 19 81 20 83 21 82 22 84 23 10 24
REMARK SMILES IDX 11 25 12 26 13 27 14 28 72 29 15 30 71 31 16 32 17 33 18 34
REMARK SMILES IDX 65 35 19 36 70 37 64 38 66 39 20 40 69 41 63 42 62 43 21 45
REMARK SMILES IDX 51 46 32 47 50 48 33 49 36 50 49 51 67 52 34 53 35 54 48 56
REMARK SMILES IDX 68 57 37 58 22 59 23 60 31 61 24 62 30 63 25 64 26 65 27 66
REMARK SMILES IDX 28 67 29 68 52 69 53 70 61 71 54 72 60 73 55 74 56 75 57 76
REMARK SMILES IDX 58 77 59 78 38 79 39 80 47 81 40 82 46 83 41 84 42 85 43 86
REMARK SMILES IDX 44 87 45 88
REMARK H PARENT 76 15 66 44 36 55
REMARK Flexibility Score: inf
ROOT
ATOM      1  C   UNL     1      -4.200  -3.571  -3.418  1.00  0.00     0.275 C 
ENDROOT
BRANCH   1   2
ATOM      2  C   UNL     1      -4.327  -2.419  -2.407  1.00  0.00     0.275 C 
BRANCH   2   3
ATOM      3  O   UNL     1      -3.160  -1.579  -2.441  1.00  0.00    -0.458 OA
BRANCH   3   4
ATOM      4  C   UNL     1      -2.832  -1.015  -1.262  1.00  0.00     0.338 C 
ATOM      5  O   UNL     1      -3.452  -1.106  -0.201  1.00  0.00    -0.246 OA
BRANCH   4   6
ATOM      6  C   UNL     1      -1.720  -0.075  -1.414  1.00  0.00     0.060 A 
ATOM      7  C   UNL     1       1.749   0.462   0.032  1.00  0.00     0.046 C 
ATOM      8  C   UNL     1       0.438   0.774  -0.635  1.00  0.00    -0.027 A 
ATOM      9  C   UNL     1      -0.475  -0.284  -0.806  1.00  0.00     0.021 A 
ATOM     10  C   UNL     1       0.014   2.058  -0.998  1.00  0.00     0.045 A 
ATOM     11  C   UNL     1      -1.157   2.212  -1.765  1.00  0.00     0.027 A 
ATOM     12  C   UNL     1      -2.033   1.158  -1.965  1.00  0.00     0.018 A 
BRANCH  10  13
ATOM     13  N   UNL     1       0.698   3.212  -0.556  1.00  0.00    -0.308 N 
ATOM     14  C   UNL     1       0.146   4.464  -0.424  1.00  0.00     0.321 C 
ATOM     15  H   UNL     1       1.649   3.111  -0.324  1.00  0.00     0.171 HD
ATOM     16  O   UNL     1       0.807   5.468  -0.681  1.00  0.00    -0.248 OA
ATOM     17  N   UNL     1      -1.164   4.525  -0.004  1.00  0.00    -0.324 N 
ATOM     18  C   UNL     1      -2.079   5.540  -0.475  1.00  0.00     0.125 C 
ATOM     19  C   UNL     1      -1.716   3.780   1.123  1.00  0.00     0.125 C 
ATOM     20  C   UNL     1      -3.317   5.436   0.419  1.00  0.00     0.010 C 
ATOM     21  C   UNL     1      -3.219   4.034   1.054  1.00  0.00     0.010 C 
ATOM     22  C   UNL     1      -4.615   5.627  -0.357  1.00  0.00     0.010 C 
ATOM     23  C   UNL     1      -3.893   3.963   2.419  1.00  0.00     0.010 C 
ENDBRANCH  10  13
ENDBRANCH   4   6
ENDBRANCH   3   4
ENDBRANCH   2   3
ENDBRANCH   1   2
BRANCH   1  24
ATOM     24  O   UNL     1      -3.339  -4.664  -3.031  1.00  0.00    -0.458 OA
BRANCH  24  25
ATOM     25  C   UNL     1      -2.135  -4.321  -2.518  1.00  0.00     0.338 C 
ATOM     26  O   UNL     1      -1.262  -3.721  -3.157  1.00  0.00    -0.246 OA
BRANCH  25  27
ATOM     27  C   UNL     1      -2.211  -4.454  -1.040  1.00  0.00     0.060 A 
ATOM     28  C   UNL     1      -1.301  -3.761  -0.234  1.00  0.00     0.016 A 
ATOM     29  C   UNL     1      -3.370  -4.999  -0.472  1.00  0.00     0.016 A 
ATOM     30  C   UNL     1      -1.624  -3.472   1.096  1.00  0.00     0.010 A 
ATOM     31  C   UNL     1      -3.715  -4.672   0.822  1.00  0.00     0.010 A 
ATOM     32  C   UNL     1      -2.858  -3.889   1.606  1.00  0.00    -0.014 A 
BRANCH  32  33
ATOM     33  C   UNL     1      -3.211  -3.842   3.022  1.00  0.00     0.031 A 
ATOM     34  C   UNL     1      -3.791  -2.672   3.720  1.00  0.00     0.074 A 
ATOM     35  C   UNL     1      -3.013  -5.019   3.654  1.00  0.00     0.049 A 
ATOM     36  N   UNL     1      -3.752  -2.512   5.003  1.00  0.00    -0.248 NA
ATOM     37  C   UNL     1      -4.446  -1.561   3.036  1.00  0.00     0.031 C 
ATOM     38  C   UNL     1      -3.435  -5.439   4.978  1.00  0.00     0.029 A 
ATOM     39  N   UNL     1      -2.125  -6.021   3.240  1.00  0.00    -0.354 N 
ATOM     40  C   UNL     1      -4.577  -1.454   5.332  1.00  0.00     0.074 A 
ATOM     41  C   UNL     1      -4.919  -0.846   4.067  1.00  0.00     0.031 C 
ATOM     42  C   UNL     1      -2.588  -6.398   5.395  1.00  0.00     0.029 A 
ATOM     43  C   UNL     1      -1.520  -6.487   4.402  1.00  0.00     0.049 A 
ATOM     44  H   UNL     1      -1.964  -6.331   2.319  1.00  0.00     0.167 HD
ATOM     45  C   UNL     1      -4.992  -1.297   6.625  1.00  0.00     0.031 A 
ATOM     46  C   UNL     1      -0.188  -6.312   4.643  1.00  0.00     0.031 A 
ATOM     47  C   UNL     1      -4.353  -2.274   7.502  1.00  0.00     0.049 A 
ATOM     48  C   UNL     1       0.025  -5.587   5.945  1.00  0.00     0.074 A 
ATOM     49  C   UNL     1      -4.769  -3.506   7.975  1.00  0.00     0.029 A 
ATOM     50  N   UNL     1      -2.987  -2.189   7.747  1.00  0.00    -0.354 N 
ATOM     51  N   UNL     1      -0.800  -4.702   6.433  1.00  0.00    -0.248 NA
ATOM     52  C   UNL     1       1.177  -5.835   6.803  1.00  0.00     0.031 C 
ATOM     53  C   UNL     1      -3.616  -4.218   8.393  1.00  0.00     0.029 A 
ATOM     54  C   UNL     1      -2.514  -3.397   8.220  1.00  0.00     0.049 A 
ATOM     55  H   UNL     1      -2.438  -1.384   7.606  1.00  0.00     0.167 HD
ATOM     56  C   UNL     1      -0.378  -4.357   7.689  1.00  0.00     0.074 A 
ATOM     57  C   UNL     1       0.885  -5.057   7.859  1.00  0.00     0.031 C 
ATOM     58  C   UNL     1      -1.108  -3.576   8.535  1.00  0.00     0.031 A 
BRANCH  45  59
ATOM     59  C   UNL     1      -6.198  -0.478   7.053  1.00  0.00    -0.014 A 
ATOM     60  C   UNL     1      -6.933  -0.876   8.195  1.00  0.00     0.010 A 
ATOM     61  C   UNL     1      -6.701   0.637   6.359  1.00  0.00     0.010 A 
ATOM     62  C   UNL     1      -8.152  -0.279   8.554  1.00  0.00     0.020 A 
ATOM     63  C   UNL     1      -7.934   1.233   6.693  1.00  0.00     0.020 A 
ATOM     64  C   UNL     1      -8.665   0.753   7.776  1.00  0.00     0.054 A 
BRANCH  64  65
ATOM     65  S   UNL     1     -10.297   1.435   8.184  1.00  0.00     0.124 S 
ATOM     66  O   UNL     1     -11.166   0.267   8.061  1.00  0.00    -0.237 OA
ATOM     67  O   UNL     1     -10.104   1.934   9.543  1.00  0.00    -0.237 OA
ATOM     68  O   UNL     1     -10.506   2.466   7.169  1.00  0.00    -0.744 OA
ENDBRANCH  64  65
ENDBRANCH  45  59
BRANCH  46  69
ATOM     69  C   UNL     1       0.704  -6.169   3.449  1.00  0.00    -0.014 A 
ATOM     70  C   UNL     1       0.710  -7.199   2.481  1.00  0.00     0.010 A 
ATOM     71  C   UNL     1       1.327  -4.952   3.126  1.00  0.00     0.010 A 
ATOM     72  C   UNL     1       1.229  -6.988   1.199  1.00  0.00     0.020 A 
ATOM     73  C   UNL     1       1.868  -4.742   1.846  1.00  0.00     0.020 A 
ATOM     74  C   UNL     1       1.788  -5.751   0.882  1.00  0.00     0.054 A 
BRANCH  74  75
ATOM     75  S   UNL     1       2.233  -5.417  -0.850  1.00  0.00     0.124 S 
ATOM     76  O   UNL     1       3.515  -6.103  -0.975  1.00  0.00    -0.237 OA
ATOM     77  O   UNL     1       1.118  -6.019  -1.576  1.00  0.00    -0.237 OA
ATOM     78  O   UNL     1       2.288  -3.957  -0.900  1.00  0.00    -0.744 OA
ENDBRANCH  74  75
ENDBRANCH  46  69
BRANCH  58  79
ATOM     79  C   UNL     1      -0.589  -3.028   9.833  1.00  0.00    -0.014 A 
ATOM     80  C   UNL     1       0.762  -2.704  10.038  1.00  0.00     0.010 A 
ATOM     81  C   UNL     1      -1.504  -2.685  10.853  1.00  0.00     0.010 A 
ATOM     82  C   UNL     1       1.194  -2.135  11.240  1.00  0.00     0.020 A 
ATOM     83  C   UNL     1      -1.089  -2.077  12.039  1.00  0.00     0.020 A 
ATOM     84  C   UNL     1       0.266  -1.830  12.235  1.00  0.00     0.054 A 
BRANCH  84  85
ATOM     85  S   UNL     1       0.816  -1.031  13.762  1.00  0.00     0.124 S 
ATOM     86  O   UNL     1       1.039  -2.179  14.637  1.00  0.00    -0.237 OA
ATOM     87  O   UNL     1       2.022  -0.317  13.348  1.00  0.00    -0.237 OA
ATOM     88  O   UNL     1      -0.313  -0.176  14.120  1.00  0.00    -0.744 OA
ENDBRANCH  84  85
ENDBRANCH  58  79
ENDBRANCH  32  33
ENDBRANCH  25  27
ENDBRANCH  24  25
ENDBRANCH   1  24
TORSDOF 15
