REMARK SMILES Nc1c(N2CCCC2)ncnc1N1CCC(C(=O)OCCOC(=O)c2ccc(-c3c4nc(c(-c5ccc(S(=O)(=O)[O-])cc5)c5ccc([nH]5)c(-c5ccc(S(=O)(=O)[O-])cc5)c5nc(c(-c6ccc(S(=O)(=O)[O-])cc6)c6ccc3[nH]6)C=C5)C=C4)cc2)CC1
REMARK SMILES IDX 21 1 20 2 19 3 17 4 18 5 16 6 13 7 14 8 86 9 15 10 85 11
REMARK SMILES IDX 12 12 2 13 3 14 9 15 11 16 10 17 1 18 4 21 5 22 8 23 6 24
REMARK SMILES IDX 7 25 22 26 23 27 24 28 25 29 26 30 84 31 27 32 83 33 28 34
REMARK SMILES IDX 29 35 30 36 77 37 31 38 82 39 76 40 78 41 32 42 81 43 75 44
REMARK SMILES IDX 74 45 33 47 63 48 44 49 62 50 45 51 48 52 61 53 79 54 46 55
REMARK SMILES IDX 47 56 60 58 80 59 49 60 34 61 35 62 43 63 36 64 42 65 37 66
REMARK SMILES IDX 38 67 39 68 40 69 41 70 64 71 65 72 73 73 66 74 72 75 67 76
REMARK SMILES IDX 68 77 69 78 70 79 71 80 50 81 51 82 59 83 52 84 58 85 53 86
REMARK SMILES IDX 54 87 55 88 56 89 57 90
REMARK H PARENT 1 19 1 20 78 46 48 57
REMARK Flexibility Score: inf
ROOT
ATOM      1  C   UNL     1       3.778  -2.565  -8.723  1.00  0.00     0.275 C 
ENDROOT
BRANCH   1   2
ATOM      2  C   UNL     1       2.490  -2.873  -7.956  1.00  0.00     0.274 C 
BRANCH   2   3
ATOM      3  O   UNL     1       2.391  -2.072  -6.764  1.00  0.00    -0.462 OA
BRANCH   3   4
ATOM      4  C   UNL     1       2.679  -2.705  -5.601  1.00  0.00     0.309 C 
ATOM      5  O   UNL     1       2.923  -3.902  -5.500  1.00  0.00    -0.252 OA
BRANCH   4   6
ATOM      6  C   UNL     1       2.709  -1.782  -4.404  1.00  0.00     0.103 C 
ATOM      7  N   UNL     1       1.951   0.015  -2.331  1.00  0.00    -0.355 N 
ATOM      8  C   UNL     1       2.827   0.498  -3.395  1.00  0.00     0.119 C 
ATOM      9  C   UNL     1       1.873  -1.427  -2.090  1.00  0.00     0.119 C 
ATOM     10  C   UNL     1       2.618  -0.283  -4.692  1.00  0.00     0.037 C 
ATOM     11  C   UNL     1       1.636  -2.180  -3.394  1.00  0.00     0.037 C 
BRANCH   7  12
ATOM     12  C   UNL     1       0.799   0.758  -2.051  1.00  0.00     0.157 A 
ATOM     13  C   UNL     1       0.367   0.880  -0.716  1.00  0.00     0.118 A 
ATOM     14  C   UNL     1      -0.829   1.584  -0.508  1.00  0.00     0.157 A 
ATOM     15  N   UNL     1      -1.556   2.055  -1.538  1.00  0.00    -0.217 NA
ATOM     16  N   UNL     1       0.119   1.296  -3.077  1.00  0.00    -0.217 NA
ATOM     17  C   UNL     1      -1.027   1.909  -2.760  1.00  0.00     0.226 A 
BRANCH  13  18
ATOM     18  N   UNL     1       1.138   0.362   0.338  1.00  0.00    -0.393 N 
ATOM     19  H   UNL     1       0.826   0.453   1.267  1.00  0.00     0.156 HD
ATOM     20  H   UNL     1       1.990  -0.092   0.147  1.00  0.00     0.156 HD
ENDBRANCH  13  18
BRANCH  14  21
ATOM     21  N   UNL     1      -1.346   1.785   0.747  1.00  0.00    -0.355 N 
ATOM     22  C   UNL     1      -0.624   2.327   1.881  1.00  0.00     0.118 C 
ATOM     23  C   UNL     1      -2.588   1.136   1.119  1.00  0.00     0.118 C 
ATOM     24  C   UNL     1      -1.193   1.517   3.042  1.00  0.00     0.023 C 
ATOM     25  C   UNL     1      -2.652   1.330   2.637  1.00  0.00     0.023 C 
ENDBRANCH  14  21
ENDBRANCH   7  12
ENDBRANCH   4   6
ENDBRANCH   3   4
ENDBRANCH   2   3
ENDBRANCH   1   2
BRANCH   1  26
ATOM     26  O   UNL     1       4.950  -2.994  -8.003  1.00  0.00    -0.458 OA
BRANCH  26  27
ATOM     27  C   UNL     1       5.538  -2.041  -7.242  1.00  0.00     0.338 C 
ATOM     28  O   UNL     1       5.191  -0.881  -7.112  1.00  0.00    -0.246 OA
BRANCH  27  29
ATOM     29  C   UNL     1       6.642  -2.630  -6.469  1.00  0.00     0.060 A 
ATOM     30  C   UNL     1       6.480  -2.759  -5.089  1.00  0.00     0.016 A 
ATOM     31  C   UNL     1       7.859  -2.946  -7.073  1.00  0.00     0.016 A 
ATOM     32  C   UNL     1       7.539  -3.188  -4.297  1.00  0.00     0.010 A 
ATOM     33  C   UNL     1       8.922  -3.390  -6.277  1.00  0.00     0.010 A 
ATOM     34  C   UNL     1       8.772  -3.499  -4.883  1.00  0.00    -0.014 A 
BRANCH  34  35
ATOM     35  C   UNL     1       9.908  -3.893  -4.017  1.00  0.00     0.031 A 
ATOM     36  C   UNL     1      11.017  -2.917  -3.742  1.00  0.00     0.074 A 
ATOM     37  C   UNL     1       9.910  -5.104  -3.428  1.00  0.00     0.049 A 
ATOM     38  N   UNL     1      12.106  -3.085  -3.037  1.00  0.00    -0.248 NA
ATOM     39  C   UNL     1      10.877  -1.574  -4.327  1.00  0.00     0.031 C 
ATOM     40  C   UNL     1       8.853  -6.108  -3.558  1.00  0.00     0.029 A 
ATOM     41  N   UNL     1      10.823  -5.686  -2.586  1.00  0.00    -0.354 N 
ATOM     42  C   UNL     1      12.787  -1.875  -3.099  1.00  0.00     0.074 A 
ATOM     43  C   UNL     1      11.998  -0.988  -3.927  1.00  0.00     0.031 C 
ATOM     44  C   UNL     1       9.165  -7.172  -2.800  1.00  0.00     0.029 A 
ATOM     45  C   UNL     1      10.465  -6.947  -2.173  1.00  0.00     0.049 A 
ATOM     46  H   UNL     1      11.656  -5.243  -2.304  1.00  0.00     0.167 HD
ATOM     47  C   UNL     1      13.960  -1.534  -2.516  1.00  0.00     0.031 A 
ATOM     48  C   UNL     1      11.117  -7.830  -1.392  1.00  0.00     0.031 A 
ATOM     49  C   UNL     1      14.747  -2.421  -1.702  1.00  0.00     0.049 A 
ATOM     50  C   UNL     1      12.466  -7.464  -0.839  1.00  0.00     0.074 A 
ATOM     51  C   UNL     1      15.966  -2.178  -1.092  1.00  0.00     0.029 A 
ATOM     52  N   UNL     1      14.392  -3.722  -1.380  1.00  0.00    -0.354 N 
ATOM     53  N   UNL     1      13.120  -6.332  -0.948  1.00  0.00    -0.248 NA
ATOM     54  C   UNL     1      13.171  -8.498  -0.068  1.00  0.00     0.031 C 
ATOM     55  C   UNL     1      16.365  -3.345  -0.432  1.00  0.00     0.029 A 
ATOM     56  C   UNL     1      15.375  -4.301  -0.595  1.00  0.00     0.049 A 
ATOM     57  H   UNL     1      13.563  -4.169  -1.667  1.00  0.00     0.167 HD
ATOM     58  C   UNL     1      14.309  -6.514  -0.253  1.00  0.00     0.074 A 
ATOM     59  C   UNL     1      14.279  -7.859   0.286  1.00  0.00     0.031 C 
ATOM     60  C   UNL     1      15.334  -5.644  -0.077  1.00  0.00     0.031 A 
BRANCH  47  61
ATOM     61  C   UNL     1      14.478  -0.145  -2.767  1.00  0.00    -0.014 A 
ATOM     62  C   UNL     1      13.910   0.967  -2.120  1.00  0.00     0.010 A 
ATOM     63  C   UNL     1      15.565   0.048  -3.638  1.00  0.00     0.010 A 
ATOM     64  C   UNL     1      14.400   2.252  -2.366  1.00  0.00     0.020 A 
ATOM     65  C   UNL     1      16.070   1.330  -3.872  1.00  0.00     0.020 A 
ATOM     66  C   UNL     1      15.473   2.427  -3.246  1.00  0.00     0.054 A 
BRANCH  66  67
ATOM     67  S   UNL     1      16.095   4.105  -3.541  1.00  0.00     0.124 S 
ATOM     68  O   UNL     1      15.049   4.668  -4.391  1.00  0.00    -0.237 OA
ATOM     69  O   UNL     1      16.175   4.660  -2.192  1.00  0.00    -0.237 OA
ATOM     70  O   UNL     1      17.381   3.887  -4.199  1.00  0.00    -0.744 OA
ENDBRANCH  66  67
ENDBRANCH  47  61
BRANCH  48  71
ATOM     71  C   UNL     1      10.505  -9.153  -1.104  1.00  0.00    -0.014 A 
ATOM     72  C   UNL     1       9.989  -9.435   0.172  1.00  0.00     0.010 A 
ATOM     73  C   UNL     1      10.406 -10.127  -2.115  1.00  0.00     0.010 A 
ATOM     74  C   UNL     1       9.382 -10.667   0.432  1.00  0.00     0.020 A 
ATOM     75  C   UNL     1       9.782 -11.351  -1.865  1.00  0.00     0.020 A 
ATOM     76  C   UNL     1       9.278 -11.616  -0.590  1.00  0.00     0.054 A 
BRANCH  76  77
ATOM     77  S   UNL     1       8.420 -13.178  -0.250  1.00  0.00     0.124 S 
ATOM     78  O   UNL     1       9.407 -13.900   0.546  1.00  0.00    -0.237 OA
ATOM     79  O   UNL     1       7.228 -12.735   0.469  1.00  0.00    -0.237 OA
ATOM     80  O   UNL     1       8.167 -13.725  -1.582  1.00  0.00    -0.744 OA
ENDBRANCH  76  77
ENDBRANCH  48  71
BRANCH  60  81
ATOM     81  C   UNL     1      16.507  -6.113   0.737  1.00  0.00    -0.014 A 
ATOM     82  C   UNL     1      17.465  -6.980   0.185  1.00  0.00     0.010 A 
ATOM     83  C   UNL     1      16.692  -5.621   2.042  1.00  0.00     0.010 A 
ATOM     84  C   UNL     1      18.584  -7.360   0.931  1.00  0.00     0.020 A 
ATOM     85  C   UNL     1      17.819  -5.984   2.783  1.00  0.00     0.020 A 
ATOM     86  C   UNL     1      18.755  -6.858   2.225  1.00  0.00     0.054 A 
BRANCH  86  87
ATOM     87  S   UNL     1      20.248  -7.315   3.149  1.00  0.00     0.124 S 
ATOM     88  O   UNL     1      19.954  -8.691   3.539  1.00  0.00    -0.237 OA
ATOM     89  O   UNL     1      21.304  -7.156   2.152  1.00  0.00    -0.237 OA
ATOM     90  O   UNL     1      20.285  -6.350   4.246  1.00  0.00    -0.744 OA
ENDBRANCH  86  87
ENDBRANCH  60  81
ENDBRANCH  34  35
ENDBRANCH  27  29
ENDBRANCH  26  27
ENDBRANCH   1  26
TORSDOF 17
