REMARK SMILES O=C(OCCOC(=O)c1ccc(-c2c3nc(c(-c4ccc(S(=O)(=O)[O-])cc4)c4ccc([nH]4)c(-c4ccc(S(=O)(=O)[O-])cc4)c4nc(c(-c5ccc(S(=O)(=O)[O-])cc5)c5ccc2[nH]5)C=C4)C=C3)cc1)C1=Cc2cc(S(F)(F)(F)(F)F)cc(Br)c2O[C@H]1C(F)(F)F
REMARK SMILES IDX 5 1 4 2 3 3 2 4 1 5 69 6 70 7 85 8 71 9 84 10 72 11 83 12
REMARK SMILES IDX 73 13 81 14 80 15 82 16 86 17 87 18 88 19 89 20 74 21 75 22
REMARK SMILES IDX 76 23 77 24 78 25 79 26 6 27 7 28 8 29 9 30 10 31 68 32
REMARK SMILES IDX 11 33 67 34 12 35 13 36 14 37 61 38 15 39 66 40 60 41 62 42
REMARK SMILES IDX 16 43 65 44 59 45 58 46 17 48 47 49 28 50 46 51 29 52 32 53
REMARK SMILES IDX 45 54 63 55 30 56 31 57 44 59 64 60 33 61 18 62 19 63 27 64
REMARK SMILES IDX 20 65 26 66 21 67 22 68 23 69 24 70 25 71 48 72 49 73 57 74
REMARK SMILES IDX 50 75 56 76 51 77 52 78 53 79 54 80 55 81 34 82 35 83 43 84
REMARK SMILES IDX 36 85 42 86 37 87 38 88 39 89 40 90 41 91
REMARK H PARENT 62 47 32 58
REMARK Flexibility Score: inf
ROOT
ATOM      1  C   UNL     1       4.819   0.488  -1.301  1.00  0.00     0.275 C 
ENDROOT
BRANCH   1   2
ATOM      2  C   UNL     1       4.313  -0.880  -0.876  1.00  0.00     0.275 C 
BRANCH   2   3
ATOM      3  O   UNL     1       2.893  -0.880  -0.876  1.00  0.00    -0.459 OA
BRANCH   3   4
ATOM      4  C   UNL     1       2.183   0.023  -0.042  1.00  0.00     0.338 C 
ATOM      5  O   UNL     1       0.912   0.023  -0.042  1.00  0.00    -0.246 OA
BRANCH   4   6
ATOM      6  C   UNL     1       2.943   0.990   0.852  1.00  0.00     0.087 C 
ATOM      7  C   UNL     1       4.303   0.990   0.852  1.00  0.00     0.027 C 
ATOM      8  C   UNL     1       2.183   1.957   1.745  1.00  0.00     0.316 C 
ATOM      9  C   UNL     1       5.063   0.023  -0.042  1.00  0.00     0.020 A 
ATOM     10  O   UNL     1       3.627   0.453  -1.885  1.00  0.00    -0.474 OA
ATOM     11  C   UNL     1       6.054  -0.708   0.593  1.00  0.00     0.036 A 
ATOM     12  C   UNL     1       4.751  -0.199  -1.313  1.00  0.00     0.142 A 
ATOM     13  C   UNL     1       6.864  -1.462  -0.288  1.00  0.00     0.109 A 
ATOM     14  C   UNL     1       5.506  -1.054  -2.080  1.00  0.00     0.062 A 
ATOM     15  C   UNL     1       6.538  -1.764  -1.532  1.00  0.00     0.044 A 
ATOM     16  Br  UNL     1       5.098  -1.257  -3.986  1.00  0.00    -0.047 Br
BRANCH   8  17
ATOM     17  C   UNL     1       0.689   1.753   1.556  1.00  0.00     0.430 C 
ATOM     18  F   UNL     1       0.447   1.356   0.310  1.00  0.00    -0.167 F 
ATOM     19  F   UNL     1       0.256   0.827   2.408  1.00  0.00    -0.167 F 
ATOM     20  F   UNL     1       0.054   2.899   1.788  1.00  0.00    -0.167 F 
ENDBRANCH   8  17
BRANCH  13  21
ATOM     21  S   UNL     1       8.459  -2.054   0.331  1.00  0.00     0.310 S 
ATOM     22  F   UNL     1       7.944  -2.006   1.831  1.00  0.00    -0.094 F 
ATOM     23  F   UNL     1       8.925  -0.560   0.517  1.00  0.00    -0.094 F 
ATOM     24  F   UNL     1       9.817  -2.575   0.878  1.00  0.00    -0.094 F 
ATOM     25  F   UNL     1       7.922  -3.538   0.271  1.00  0.00    -0.094 F 
ATOM     26  F   UNL     1       7.034  -1.536  -0.118  1.00  0.00    -0.094 F 
ENDBRANCH  13  21
ENDBRANCH   4   6
ENDBRANCH   3   4
ENDBRANCH   2   3
ENDBRANCH   1   2
BRANCH   1  27
ATOM     27  O   UNL     1       4.346   1.472  -0.393  1.00  0.00    -0.458 OA
BRANCH  27  28
ATOM     28  C   UNL     1       2.950   1.662  -0.217  1.00  0.00     0.338 C 
ATOM     29  O   UNL     1       2.124   0.953  -0.872  1.00  0.00    -0.246 OA
BRANCH  28  30
ATOM     30  C   UNL     1       2.443   2.715   0.756  1.00  0.00     0.060 A 
ATOM     31  C   UNL     1       1.301   2.423   1.482  1.00  0.00     0.016 A 
ATOM     32  C   UNL     1       2.981   3.929   0.776  1.00  0.00     0.016 A 
ATOM     33  C   UNL     1       0.628   3.566   1.976  1.00  0.00     0.010 A 
ATOM     34  C   UNL     1       2.334   4.970   1.395  1.00  0.00     0.010 A 
ATOM     35  C   UNL     1       1.169   4.766   2.081  1.00  0.00    -0.014 A 
BRANCH  35  36
ATOM     36  C   UNL     1       0.531   5.861   2.920  1.00  0.00     0.031 A 
ATOM     37  C   UNL     1       0.126   7.074   2.361  1.00  0.00     0.074 A 
ATOM     38  C   UNL     1       0.274   5.487   4.228  1.00  0.00     0.049 A 
ATOM     39  N   UNL     1      -0.583   8.042   2.944  1.00  0.00    -0.248 NA
ATOM     40  C   UNL     1       0.427   7.487   0.983  1.00  0.00     0.031 C 
ATOM     41  C   UNL     1       0.672   4.262   4.798  1.00  0.00     0.029 A 
ATOM     42  N   UNL     1      -0.393   6.205   5.197  1.00  0.00    -0.354 N 
ATOM     43  C   UNL     1      -0.792   9.041   2.084  1.00  0.00     0.074 A 
ATOM     44  C   UNL     1      -0.140   8.702   0.812  1.00  0.00     0.031 C 
ATOM     45  C   UNL     1       0.262   4.246   6.093  1.00  0.00     0.029 A 
ATOM     46  C   UNL     1      -0.400   5.460   6.355  1.00  0.00     0.049 A 
ATOM     47  H   UNL     1      -0.795   7.096   5.081  1.00  0.00     0.167 HD
ATOM     48  C   UNL     1      -1.503  10.221   2.311  1.00  0.00     0.031 A 
ATOM     49  C   UNL     1      -0.947   5.804   7.582  1.00  0.00     0.031 A 
ATOM     50  C   UNL     1      -2.087  10.546   3.525  1.00  0.00     0.049 A 
ATOM     51  C   UNL     1      -1.607   7.010   7.825  1.00  0.00     0.074 A 
ATOM     52  C   UNL     1      -2.813  11.728   3.768  1.00  0.00     0.029 A 
ATOM     53  N   UNL     1      -2.073   9.812   4.691  1.00  0.00    -0.354 N 
ATOM     54  N   UNL     1      -1.850   7.992   6.955  1.00  0.00    -0.248 NA
ATOM     55  C   UNL     1      -2.162   7.399   9.129  1.00  0.00     0.031 C 
ATOM     56  C   UNL     1      -3.223  11.711   5.064  1.00  0.00     0.029 A 
ATOM     57  C   UNL     1      -2.759  10.519   5.652  1.00  0.00     0.049 A 
ATOM     58  H   UNL     1      -1.646   8.934   4.814  1.00  0.00     0.167 HD
ATOM     59  C   UNL     1      -2.523   8.978   7.550  1.00  0.00     0.074 A 
ATOM     60  C   UNL     1      -2.727   8.614   8.959  1.00  0.00     0.031 C 
ATOM     61  C   UNL     1      -2.979  10.165   6.974  1.00  0.00     0.031 A 
BRANCH  48  62
ATOM     62  C   UNL     1      -1.644  11.206   1.161  1.00  0.00    -0.014 A 
ATOM     63  C   UNL     1      -2.341  10.760   0.050  1.00  0.00     0.010 A 
ATOM     64  C   UNL     1      -1.185  12.450   1.233  1.00  0.00     0.010 A 
ATOM     65  C   UNL     1      -2.253  11.624  -1.066  1.00  0.00     0.020 A 
ATOM     66  C   UNL     1      -1.254  13.285   0.144  1.00  0.00     0.020 A 
ATOM     67  C   UNL     1      -1.877  12.889  -1.007  1.00  0.00     0.054 A 
BRANCH  67  68
ATOM     68  S   UNL     1      -2.170  14.036  -2.376  1.00  0.00     0.124 S 
ATOM     69  O   UNL     1      -1.460  13.524  -3.632  1.00  0.00    -0.237 OA
ATOM     70  O   UNL     1      -3.673  14.137  -2.645  1.00  0.00    -0.237 OA
ATOM     71  O   UNL     1      -1.560  15.580  -1.966  1.00  0.00    -0.744 OA
ENDBRANCH  67  68
ENDBRANCH  48  62
BRANCH  49  72
ATOM     72  C   UNL     1      -0.820   4.812   8.726  1.00  0.00    -0.014 A 
ATOM     73  C   UNL     1      -1.934   4.335   9.398  1.00  0.00     0.010 A 
ATOM     74  C   UNL     1       0.408   4.474   9.102  1.00  0.00     0.010 A 
ATOM     75  C   UNL     1      -1.638   3.732  10.643  1.00  0.00     0.020 A 
ATOM     76  C   UNL     1       0.615   3.766  10.262  1.00  0.00     0.020 A 
ATOM     77  C   UNL     1      -0.439   3.314  11.007  1.00  0.00     0.054 A 
BRANCH  77  78
ATOM     78  S   UNL     1      -0.203   2.203  12.416  1.00  0.00     0.124 S 
ATOM     79  O   UNL     1      -0.736   2.870  13.686  1.00  0.00    -0.237 OA
ATOM     80  O   UNL     1      -0.963   0.897  12.169  1.00  0.00    -0.237 OA
ATOM     81  O   UNL     1       1.463   1.867  12.604  1.00  0.00    -0.744 OA
ENDBRANCH  77  78
ENDBRANCH  49  72
BRANCH  61  82
ATOM     82  C   UNL     1      -3.765  11.127   7.850  1.00  0.00    -0.014 A 
ATOM     83  C   UNL     1      -3.166  11.521   9.035  1.00  0.00     0.010 A 
ATOM     84  C   UNL     1      -5.012  11.479   7.559  1.00  0.00     0.010 A 
ATOM     85  C   UNL     1      -4.070  12.048   9.987  1.00  0.00     0.020 A 
ATOM     86  C   UNL     1      -5.796  12.114   8.492  1.00  0.00     0.020 A 
ATOM     87  C   UNL     1      -5.287  12.479   9.707  1.00  0.00     0.054 A 
BRANCH  87  88
ATOM     88  S   UNL     1      -6.228  13.500  10.867  1.00  0.00     0.124 S 
ATOM     89  O   UNL     1      -6.429  12.732  12.176  1.00  0.00    -0.237 OA
ATOM     90  O   UNL     1      -5.460  14.794  11.148  1.00  0.00    -0.237 OA
ATOM     91  O   UNL     1      -7.751  13.878  10.188  1.00  0.00    -0.744 OA
ENDBRANCH  87  88
ENDBRANCH  61  82
ENDBRANCH  35  36
ENDBRANCH  28  30
ENDBRANCH  27  28
ENDBRANCH   1  27
TORSDOF 16
