REMARK SMILES CC(C)Cc1ccc([C@H](CF)C(=O)OCCOC(=O)c2ccc(-c3c4nc(c(-c5ccc(S(=O)(=O)[O-])cc5)c5ccc([nH]5)c(-c5ccc(S(=O)(=O)[O-])cc5)c5nc(c(-c6ccc(S(=O)(=O)[O-])cc6)c6ccc3[nH]6)C=C5)C=C4)cc2)cc1
REMARK SMILES IDX 15 1 14 2 12 3 13 4 9 5 8 6 5 7 6 8 81 9 7 10 80 11 4 12
REMARK SMILES IDX 2 13 1 14 3 15 10 16 11 17 16 18 17 19 18 20 19 21 20 22
REMARK SMILES IDX 21 23 79 24 22 25 78 26 23 27 24 28 25 29 72 30 26 31 77 32
REMARK SMILES IDX 71 33 73 34 27 35 76 36 70 37 69 38 28 40 58 41 39 42 57 43
REMARK SMILES IDX 40 44 43 45 56 46 74 47 41 48 42 49 55 51 75 52 44 53 29 54
REMARK SMILES IDX 30 55 38 56 31 57 37 58 32 59 33 60 34 61 35 62 36 63 59 64
REMARK SMILES IDX 60 65 68 66 61 67 67 68 62 69 63 70 64 71 65 72 66 73 45 74
REMARK SMILES IDX 46 75 54 76 47 77 53 78 48 79 49 80 50 81 51 82 52 83
REMARK H PARENT 73 39 43 50
REMARK Flexibility Score: inf
ROOT
ATOM      1  C   UNL     1      -3.747   6.405  -2.328  1.00  0.00     0.274 C 
ENDROOT
BRANCH   1   2
ATOM      2  O   UNL     1      -2.857   5.555  -1.577  1.00  0.00    -0.462 OA
BRANCH   2   3
ATOM      3  C   UNL     1      -2.810   5.781  -0.235  1.00  0.00     0.316 C 
ATOM      4  O   UNL     1      -3.429   6.678   0.329  1.00  0.00    -0.251 OA
BRANCH   3   5
ATOM      5  C   UNL     1      -1.846   4.862   0.504  1.00  0.00     0.160 C 
BRANCH   5   6
ATOM      6  C   UNL     1      -0.537   5.567   0.798  1.00  0.00    -0.031 A 
ATOM      7  C   UNL     1       1.733   7.096   1.423  1.00  0.00    -0.048 A 
ATOM      8  C   UNL     1       1.372   6.875   0.088  1.00  0.00     0.004 A 
ATOM      9  C   UNL     1       0.995   6.486   2.442  1.00  0.00     0.004 A 
ATOM     10  C   UNL     1       0.247   6.113  -0.225  1.00  0.00     0.005 A 
ATOM     11  C   UNL     1      -0.132   5.729   2.131  1.00  0.00     0.005 A 
BRANCH   7  12
ATOM     12  C   UNL     1       2.841   8.061   1.767  1.00  0.00     0.038 C 
BRANCH  12  13
ATOM     13  C   UNL     1       2.441   9.530   1.510  1.00  0.00    -0.013 C 
ATOM     14  C   UNL     1       1.273   9.980   2.395  1.00  0.00     0.008 C 
ATOM     15  C   UNL     1       3.643  10.445   1.737  1.00  0.00     0.008 C 
ENDBRANCH  12  13
ENDBRANCH   7  12
ENDBRANCH   5   6
BRANCH   5  16
ATOM     16  C   UNL     1      -1.659   3.493  -0.129  1.00  0.00     0.234 C 
ATOM     17  F   UNL     1      -2.636   2.666   0.344  1.00  0.00    -0.250 F 
ENDBRANCH   5  16
ENDBRANCH   3   5
ENDBRANCH   2   3
ENDBRANCH   1   2
BRANCH   1  18
ATOM     18  C   UNL     1      -5.106   5.744  -2.575  1.00  0.00     0.275 C 
BRANCH  18  19
ATOM     19  O   UNL     1      -5.848   5.568  -1.355  1.00  0.00    -0.458 OA
BRANCH  19  20
ATOM     20  C   UNL     1      -5.690   4.359  -0.763  1.00  0.00     0.338 C 
ATOM     21  O   UNL     1      -5.031   3.423  -1.181  1.00  0.00    -0.246 OA
BRANCH  20  22
ATOM     22  C   UNL     1      -6.343   4.367   0.555  1.00  0.00     0.060 A 
ATOM     23  C   UNL     1      -5.535   4.371   1.694  1.00  0.00     0.016 A 
ATOM     24  C   UNL     1      -7.730   4.285   0.672  1.00  0.00     0.016 A 
ATOM     25  C   UNL     1      -6.104   4.290   2.961  1.00  0.00     0.010 A 
ATOM     26  C   UNL     1      -8.303   4.203   1.946  1.00  0.00     0.010 A 
ATOM     27  C   UNL     1      -7.493   4.192   3.096  1.00  0.00    -0.014 A 
BRANCH  27  28
ATOM     28  C   UNL     1      -8.085   4.011   4.442  1.00  0.00     0.031 A 
ATOM     29  C   UNL     1      -8.618   2.665   4.843  1.00  0.00     0.074 A 
ATOM     30  C   UNL     1      -8.123   5.043   5.306  1.00  0.00     0.049 A 
ATOM     31  N   UNL     1      -9.254   2.320   5.932  1.00  0.00    -0.248 NA
ATOM     32  C   UNL     1      -8.412   1.562   3.889  1.00  0.00     0.031 C 
ATOM     33  C   UNL     1      -7.586   6.381   5.051  1.00  0.00     0.029 A 
ATOM     34  N   UNL     1      -8.641   5.126   6.574  1.00  0.00    -0.354 N 
ATOM     35  C   UNL     1      -9.553   0.971   5.783  1.00  0.00     0.074 A 
ATOM     36  C   UNL     1      -9.033   0.560   4.496  1.00  0.00     0.031 C 
ATOM     37  C   UNL     1      -7.805   7.152   6.129  1.00  0.00     0.029 A 
ATOM     38  C   UNL     1      -8.538   6.380   7.128  1.00  0.00     0.049 A 
ATOM     39  H   UNL     1      -9.047   4.361   7.042  1.00  0.00     0.167 HD
ATOM     40  C   UNL     1     -10.208   0.152   6.641  1.00  0.00     0.031 A 
ATOM     41  C   UNL     1      -9.009   6.859   8.296  1.00  0.00     0.031 A 
ATOM     42  C   UNL     1     -10.709   0.564   7.925  1.00  0.00     0.049 A 
ATOM     43  C   UNL     1      -9.774   5.941   9.210  1.00  0.00     0.074 A 
ATOM     44  C   UNL     1     -11.370  -0.196   8.875  1.00  0.00     0.029 A 
ATOM     45  N   UNL     1     -10.605   1.847   8.440  1.00  0.00    -0.354 N 
ATOM     46  N   UNL     1     -10.053   4.668   9.053  1.00  0.00    -0.248 NA
ATOM     47  C   UNL     1     -10.289   6.523  10.457  1.00  0.00     0.031 C 
ATOM     48  C   UNL     1     -11.704   0.639   9.947  1.00  0.00     0.029 A 
ATOM     49  C   UNL     1     -11.208   1.907   9.685  1.00  0.00     0.049 A 
ATOM     50  H   UNL     1     -10.167   2.603   7.988  1.00  0.00     0.167 HD
ATOM     51  C   UNL     1     -10.760   4.294  10.190  1.00  0.00     0.074 A 
ATOM     52  C   UNL     1     -10.851   5.469  11.033  1.00  0.00     0.031 C 
ATOM     53  C   UNL     1     -11.287   3.086  10.509  1.00  0.00     0.031 A 
BRANCH  40  54
ATOM     54  C   UNL     1     -10.461  -1.263   6.196  1.00  0.00    -0.014 A 
ATOM     55  C   UNL     1      -9.431  -2.218   6.162  1.00  0.00     0.010 A 
ATOM     56  C   UNL     1     -11.767  -1.650   5.841  1.00  0.00     0.010 A 
ATOM     57  C   UNL     1      -9.695  -3.528   5.751  1.00  0.00     0.020 A 
ATOM     58  C   UNL     1     -12.040  -2.963   5.451  1.00  0.00     0.020 A 
ATOM     59  C   UNL     1     -10.998  -3.891   5.393  1.00  0.00     0.054 A 
BRANCH  59  60
ATOM     60  S   UNL     1     -11.322  -5.602   4.886  1.00  0.00     0.124 S 
ATOM     61  O   UNL     1     -10.762  -5.627   3.536  1.00  0.00    -0.237 OA
ATOM     62  O   UNL     1     -10.590  -6.379   5.883  1.00  0.00    -0.237 OA
ATOM     63  O   UNL     1     -12.777  -5.716   4.958  1.00  0.00    -0.744 OA
ENDBRANCH  59  60
ENDBRANCH  40  54
BRANCH  41  64
ATOM     64  C   UNL     1      -8.809   8.291   8.648  1.00  0.00    -0.014 A 
ATOM     65  C   UNL     1      -7.943   8.661   9.691  1.00  0.00     0.010 A 
ATOM     66  C   UNL     1      -9.492   9.296   7.937  1.00  0.00     0.010 A 
ATOM     67  C   UNL     1      -7.778  10.007  10.030  1.00  0.00     0.020 A 
ATOM     68  C   UNL     1      -9.310  10.644   8.256  1.00  0.00     0.020 A 
ATOM     69  C   UNL     1      -8.464  10.990   9.311  1.00  0.00     0.054 A 
BRANCH  69  70
ATOM     70  S   UNL     1      -8.205  12.735   9.736  1.00  0.00     0.124 S 
ATOM     71  O   UNL     1      -9.021  12.878  10.938  1.00  0.00    -0.237 OA
ATOM     72  O   UNL     1      -6.760  12.803   9.941  1.00  0.00    -0.237 OA
ATOM     73  O   UNL     1      -8.693  13.449   8.558  1.00  0.00    -0.744 OA
ENDBRANCH  69  70
ENDBRANCH  41  64
BRANCH  53  74
ATOM     74  C   UNL     1     -11.979   2.966  11.839  1.00  0.00    -0.014 A 
ATOM     75  C   UNL     1     -13.255   3.519  12.047  1.00  0.00     0.010 A 
ATOM     76  C   UNL     1     -11.361   2.251  12.880  1.00  0.00     0.010 A 
ATOM     77  C   UNL     1     -13.888   3.384  13.285  1.00  0.00     0.020 A 
ATOM     78  C   UNL     1     -12.001   2.093  14.112  1.00  0.00     0.020 A 
ATOM     79  C   UNL     1     -13.255   2.674  14.311  1.00  0.00     0.054 A 
BRANCH  79  80
ATOM     80  S   UNL     1     -14.111   2.477  15.898  1.00  0.00     0.124 S 
ATOM     81  O   UNL     1     -13.917   3.788  16.512  1.00  0.00    -0.237 OA
ATOM     82  O   UNL     1     -15.480   2.171  15.492  1.00  0.00    -0.237 OA
ATOM     83  O   UNL     1     -13.398   1.375  16.541  1.00  0.00    -0.744 OA
ENDBRANCH  79  80
ENDBRANCH  53  74
ENDBRANCH  27  28
ENDBRANCH  20  22
ENDBRANCH  19  20
ENDBRANCH  18  19
ENDBRANCH   1  18
TORSDOF 18
