REMARK SMILES O=C(NNS(=O)(=O)c1cccc(C(=O)OCCOC(=O)c2ccc(-c3c4nc(c(-c5ccc(S(=O)(=O)[O-])cc5)c5ccc([nH]5)c(-c5ccc(S(=O)(=O)[O-])cc5)c5nc(c(-c6ccc(S(=O)(=O)[O-])cc6)c6ccc3[nH]6)C=C5)C=C4)cc2)c1)c1ccc2c(c1)OCO2
REMARK SMILES IDX 16 1 15 2 13 3 14 4 12 5 8 6 9 7 81 8 10 9 11 10 5 11 6 12
REMARK SMILES IDX 7 13 4 14 3 16 1 17 2 18 82 20 83 21 87 22 84 23 86 24 85 25
REMARK SMILES IDX 88 26 90 27 89 28 17 29 18 30 19 31 20 32 21 33 22 34 80 35
REMARK SMILES IDX 23 36 79 37 24 38 25 39 26 40 73 41 27 42 78 43 72 44 74 45
REMARK SMILES IDX 28 46 77 47 71 48 70 49 29 51 59 52 40 53 58 54 41 55 44 56
REMARK SMILES IDX 57 57 75 58 42 59 43 60 56 62 76 63 45 64 30 65 31 66 39 67
REMARK SMILES IDX 32 68 38 69 33 70 34 71 35 72 36 73 37 74 60 75 61 76 69 77
REMARK SMILES IDX 62 78 68 79 63 80 64 81 65 82 66 83 67 84 46 85 47 86 55 87
REMARK SMILES IDX 48 88 54 89 49 90 50 91 51 92 52 93 53 94
REMARK H PARENT 4 15 3 19 74 50 44 61
REMARK Flexibility Score: inf
ROOT
ATOM      1  C   UNL     1       1.657   0.974  -6.324  1.00  0.00     0.275 C 
ENDROOT
BRANCH   1   2
ATOM      2  O   UNL     1       2.458   1.603  -5.301  1.00  0.00    -0.458 OA
BRANCH   2   3
ATOM      3  C   UNL     1       3.433   2.443  -5.733  1.00  0.00     0.338 C 
ATOM      4  O   UNL     1       3.701   2.716  -6.890  1.00  0.00    -0.246 OA
BRANCH   3   5
ATOM      5  C   UNL     1       4.096   3.093  -4.575  1.00  0.00     0.061 A 
ATOM      6  C   UNL     1       4.946   3.067  -2.324  1.00  0.00     0.084 A 
ATOM      7  C   UNL     1       5.244   4.432  -2.402  1.00  0.00     0.022 A 
ATOM      8  C   UNL     1       4.348   2.393  -3.394  1.00  0.00     0.037 A 
ATOM      9  C   UNL     1       5.020   5.116  -3.589  1.00  0.00     0.002 A 
ATOM     10  C   UNL     1       4.487   4.436  -4.683  1.00  0.00     0.016 A 
BRANCH   6  11
ATOM     11  S   UNL     1       5.339   2.236  -0.818  1.00  0.00     0.257 S 
ATOM     12  O   UNL     1       4.908   3.074   0.285  1.00  0.00    -0.205 OA
ATOM     13  O   UNL     1       6.691   1.749  -0.927  1.00  0.00    -0.205 OA
BRANCH  11  14
ATOM     14  N   UNL     1       4.345   0.871  -0.809  1.00  0.00    -0.123 NA
ATOM     15  H   UNL     1       4.453   0.422  -1.718  1.00  0.00     0.167 HD
BRANCH  14  16
ATOM     16  N   UNL     1       2.927   1.014  -0.580  1.00  0.00    -0.273 N 
ATOM     17  O   UNL     1       0.937   0.014  -0.099  1.00  0.00    -0.268 OA
ATOM     18  C   UNL     1       2.157   0.041   0.016  1.00  0.00     0.266 C 
ATOM     19  H   UNL     1       2.489   1.848  -0.864  1.00  0.00     0.186 HD
BRANCH  18  20
ATOM     20  C   UNL     1       2.832  -0.953   0.885  1.00  0.00     0.045 A 
ATOM     21  C   UNL     1       3.817  -0.536   1.812  1.00  0.00     0.018 A 
ATOM     22  C   UNL     1       2.396  -2.281   0.854  1.00  0.00     0.064 A 
ATOM     23  C   UNL     1       4.396  -1.451   2.694  1.00  0.00     0.051 A 
ATOM     24  C   UNL     1       2.967  -3.151   1.757  1.00  0.00     0.166 A 
ATOM     25  C   UNL     1       3.938  -2.749   2.649  1.00  0.00     0.165 A 
ATOM     26  O   UNL     1       2.643  -4.464   1.909  1.00  0.00    -0.454 OA
ATOM     27  O   UNL     1       4.337  -3.757   3.469  1.00  0.00    -0.454 OA
ATOM     28  C   UNL     1       3.407  -4.791   3.088  1.00  0.00     0.468 C 
ENDBRANCH  18  20
ENDBRANCH  14  16
ENDBRANCH  11  14
ENDBRANCH   6  11
ENDBRANCH   3   5
ENDBRANCH   2   3
ENDBRANCH   1   2
BRANCH   1  29
ATOM     29  C   UNL     1       0.258   1.587  -6.403  1.00  0.00     0.275 C 
BRANCH  29  30
ATOM     30  O   UNL     1       0.326   2.932  -6.907  1.00  0.00    -0.458 OA
BRANCH  30  31
ATOM     31  C   UNL     1       0.099   3.904  -5.996  1.00  0.00     0.338 C 
ATOM     32  O   UNL     1      -0.196   3.770  -4.821  1.00  0.00    -0.246 OA
BRANCH  31  33
ATOM     33  C   UNL     1       0.375   5.214  -6.601  1.00  0.00     0.060 A 
ATOM     34  C   UNL     1       1.703   5.620  -6.677  1.00  0.00     0.016 A 
ATOM     35  C   UNL     1      -0.647   6.094  -6.942  1.00  0.00     0.016 A 
ATOM     36  C   UNL     1       2.024   6.935  -6.992  1.00  0.00     0.010 A 
ATOM     37  C   UNL     1      -0.319   7.391  -7.357  1.00  0.00     0.010 A 
ATOM     38  C   UNL     1       1.018   7.840  -7.348  1.00  0.00    -0.014 A 
BRANCH  38  39
ATOM     39  C   UNL     1       1.351   9.260  -7.659  1.00  0.00     0.031 A 
ATOM     40  C   UNL     1       0.719  10.371  -6.859  1.00  0.00     0.074 A 
ATOM     41  C   UNL     1       2.224   9.568  -8.641  1.00  0.00     0.049 A 
ATOM     42  N   UNL     1       0.700  11.657  -7.099  1.00  0.00    -0.248 NA
ATOM     43  C   UNL     1       0.003   9.980  -5.634  1.00  0.00     0.031 C 
ATOM     44  C   UNL     1       2.975   8.603  -9.448  1.00  0.00     0.029 A 
ATOM     45  N   UNL     1       2.630  10.787  -9.127  1.00  0.00    -0.354 N 
ATOM     46  C   UNL     1      -0.085  12.219  -6.097  1.00  0.00     0.074 A 
ATOM     47  C   UNL     1      -0.520  11.134  -5.245  1.00  0.00     0.031 C 
ATOM     48  C   UNL     1       3.771   9.265 -10.301  1.00  0.00     0.029 A 
ATOM     49  C   UNL     1       3.515  10.695 -10.176  1.00  0.00     0.049 A 
ATOM     50  H   UNL     1       2.316  11.645  -8.759  1.00  0.00     0.167 HD
ATOM     51  C   UNL     1      -0.420  13.519  -5.911  1.00  0.00     0.031 A 
ATOM     52  C   UNL     1       4.025  11.643 -10.986  1.00  0.00     0.031 A 
ATOM     53  C   UNL     1       0.049  14.598  -6.741  1.00  0.00     0.049 A 
ATOM     54  C   UNL     1       3.601  13.072 -10.798  1.00  0.00     0.074 A 
ATOM     55  C   UNL     1      -0.234  15.950  -6.641  1.00  0.00     0.029 A 
ATOM     56  N   UNL     1       0.915  14.451  -7.815  1.00  0.00    -0.354 N 
ATOM     57  N   UNL     1       2.793  13.578  -9.897  1.00  0.00    -0.248 NA
ATOM     58  C   UNL     1       4.141  14.054 -11.747  1.00  0.00     0.031 C 
ATOM     59  C   UNL     1       0.428  16.614  -7.679  1.00  0.00     0.029 A 
ATOM     60  C   UNL     1       1.168  15.684  -8.392  1.00  0.00     0.049 A 
ATOM     61  H   UNL     1       1.293  13.595  -8.122  1.00  0.00     0.167 HD
ATOM     62  C   UNL     1       2.742  14.942 -10.160  1.00  0.00     0.074 A 
ATOM     63  C   UNL     1       3.611  15.183 -11.294  1.00  0.00     0.031 C 
ATOM     64  C   UNL     1       2.038  15.907  -9.519  1.00  0.00     0.031 A 
BRANCH  51  65
ATOM     65  C   UNL     1      -1.386  13.837  -4.799  1.00  0.00    -0.014 A 
ATOM     66  C   UNL     1      -1.010  13.762  -3.447  1.00  0.00     0.010 A 
ATOM     67  C   UNL     1      -2.698  14.234  -5.122  1.00  0.00     0.010 A 
ATOM     68  C   UNL     1      -1.941  14.030  -2.438  1.00  0.00     0.020 A 
ATOM     69  C   UNL     1      -3.623  14.530  -4.118  1.00  0.00     0.020 A 
ATOM     70  C   UNL     1      -3.245  14.403  -2.780  1.00  0.00     0.054 A 
BRANCH  70  71
ATOM     71  S   UNL     1      -4.436  14.742  -1.454  1.00  0.00     0.124 S 
ATOM     72  O   UNL     1      -4.755  13.395  -0.986  1.00  0.00    -0.237 OA
ATOM     73  O   UNL     1      -3.661  15.562  -0.526  1.00  0.00    -0.237 OA
ATOM     74  O   UNL     1      -5.525  15.438  -2.135  1.00  0.00    -0.744 OA
ENDBRANCH  70  71
ENDBRANCH  51  65
BRANCH  52  75
ATOM     75  C   UNL     1       4.953  11.255 -12.084  1.00  0.00    -0.014 A 
ATOM     76  C   UNL     1       6.314  11.599 -12.027  1.00  0.00     0.010 A 
ATOM     77  C   UNL     1       4.483  10.505 -13.179  1.00  0.00     0.010 A 
ATOM     78  C   UNL     1       7.188  11.201 -13.044  1.00  0.00     0.020 A 
ATOM     79  C   UNL     1       5.358  10.079 -14.182  1.00  0.00     0.020 A 
ATOM     80  C   UNL     1       6.705  10.438 -14.111  1.00  0.00     0.054 A 
BRANCH  80  81
ATOM     81  S   UNL     1       7.871   9.865 -15.379  1.00  0.00     0.124 S 
ATOM     82  O   UNL     1       8.104  11.082 -16.148  1.00  0.00    -0.237 OA
ATOM     83  O   UNL     1       9.001   9.394 -14.581  1.00  0.00    -0.237 OA
ATOM     84  O   UNL     1       7.130   8.815 -16.074  1.00  0.00    -0.744 OA
ENDBRANCH  80  81
ENDBRANCH  52  75
BRANCH  64  85
ATOM     85  C   UNL     1       2.213  17.321  -9.998  1.00  0.00    -0.014 A 
ATOM     86  C   UNL     1       1.620  17.766 -11.193  1.00  0.00     0.010 A 
ATOM     87  C   UNL     1       2.938  18.232  -9.209  1.00  0.00     0.010 A 
ATOM     88  C   UNL     1       1.772  19.093 -11.603  1.00  0.00     0.020 A 
ATOM     89  C   UNL     1       3.072  19.565  -9.604  1.00  0.00     0.020 A 
ATOM     90  C   UNL     1       2.498  19.985 -10.806  1.00  0.00     0.054 A 
BRANCH  90  91
ATOM     91  S   UNL     1       2.641  21.714 -11.333  1.00  0.00     0.124 S 
ATOM     92  O   UNL     1       3.620  21.622 -12.413  1.00  0.00    -0.237 OA
ATOM     93  O   UNL     1       1.278  22.039 -11.745  1.00  0.00    -0.237 OA
ATOM     94  O   UNL     1       3.103  22.405 -10.131  1.00  0.00    -0.744 OA
ENDBRANCH  90  91
ENDBRANCH  64  85
ENDBRANCH  38  39
ENDBRANCH  31  33
ENDBRANCH  30  31
ENDBRANCH  29  30
ENDBRANCH   1  29
TORSDOF 18
