REMARK SMILES COC(=O)c1ccc(Cl)c(-c2ccc(C(=O)OCCOC(=O)c3ccc(-c4c5nc(c(-c6ccc(S(=O)(=O)[O-])cc6)c6ccc([nH]6)c(-c6ccc(S(=O)(=O)[O-])cc6)c6nc(c(-c7ccc(S(=O)(=O)[O-])cc7)c7ccc4[nH]7)C=C6)C=C5)cc3)nc2)c1
REMARK SMILES IDX 18 1 17 2 15 3 16 4 14 5 11 6 12 7 84 8 13 9 83 10 10 11
REMARK SMILES IDX 5 12 6 13 85 14 7 15 8 16 9 17 3 18 4 19 2 20 1 21 19 22
REMARK SMILES IDX 20 23 21 24 22 25 23 26 24 27 82 28 25 29 81 30 26 31 27 32
REMARK SMILES IDX 28 33 75 34 29 35 80 36 74 37 76 38 30 39 79 40 73 41 72 42
REMARK SMILES IDX 31 44 61 45 42 46 60 47 43 48 46 49 59 50 77 51 44 52 45 53
REMARK SMILES IDX 58 55 78 56 47 57 32 58 33 59 41 60 34 61 40 62 35 63 36 64
REMARK SMILES IDX 37 65 38 66 39 67 62 68 63 69 71 70 64 71 70 72 65 73 66 74
REMARK SMILES IDX 67 75 68 76 69 77 48 78 49 79 57 80 50 81 56 82 51 83 52 84
REMARK SMILES IDX 53 85 54 86 55 87
REMARK H PARENT 76 43 46 54
REMARK Flexibility Score: inf
ROOT
ATOM      1  C   UNL     1       5.812 -11.441   4.046  1.00  0.00     0.275 C 
ENDROOT
BRANCH   1   2
ATOM      2  O   UNL     1       4.691 -10.646   3.603  1.00  0.00    -0.457 OA
BRANCH   2   3
ATOM      3  C   UNL     1       4.332  -9.637   4.444  1.00  0.00     0.357 C 
ATOM      4  O   UNL     1       4.813  -9.444   5.551  1.00  0.00    -0.244 OA
BRANCH   3   5
ATOM      5  C   UNL     1       3.337  -8.715   3.803  1.00  0.00     0.148 A 
ATOM      6  C   UNL     1       1.621  -6.830   2.719  1.00  0.00     0.002 A 
ATOM      7  C   UNL     1       1.607  -8.149   2.246  1.00  0.00     0.013 A 
ATOM      8  C   UNL     1       2.525  -6.543   3.735  1.00  0.00     0.120 A 
ATOM      9  C   UNL     1       2.483  -9.105   2.781  1.00  0.00     0.037 A 
ATOM     10  N   UNL     1       3.343  -7.451   4.301  1.00  0.00    -0.249 NA
BRANCH   6  11
ATOM     11  C   UNL     1       0.691  -5.794   2.252  1.00  0.00     0.003 A 
ATOM     12  C   UNL     1       0.320  -3.675   1.084  1.00  0.00     0.060 A 
ATOM     13  C   UNL     1      -1.004  -3.649   1.531  1.00  0.00     0.017 A 
ATOM     14  C   UNL     1       1.157  -4.748   1.429  1.00  0.00     0.026 A 
ATOM     15  C   UNL     1      -1.487  -4.686   2.328  1.00  0.00     0.022 A 
ATOM     16  C   UNL     1      -0.649  -5.745   2.690  1.00  0.00     0.048 A 
ATOM     17  Cl  UNL     1      -1.315  -6.960   3.729  1.00  0.00    -0.084 Cl
BRANCH  12  18
ATOM     18  C   UNL     1       0.872  -2.577   0.252  1.00  0.00     0.337 C 
ATOM     19  O   UNL     1       1.735  -2.740  -0.588  1.00  0.00    -0.246 OA
BRANCH  18  20
ATOM     20  O   UNL     1       0.305  -1.402   0.625  1.00  0.00    -0.465 OA
ATOM     21  C   UNL     1       0.857  -0.254  -0.023  1.00  0.00     0.282 C 
ENDBRANCH  18  20
ENDBRANCH  12  18
ENDBRANCH   6  11
ENDBRANCH   3   5
ENDBRANCH   2   3
ENDBRANCH   1   2
BRANCH   1  22
ATOM     22  C   UNL     1       7.121 -11.018   3.367  1.00  0.00     0.275 C 
BRANCH  22  23
ATOM     23  O   UNL     1       7.574  -9.721   3.800  1.00  0.00    -0.458 OA
BRANCH  23  24
ATOM     24  C   UNL     1       7.149  -8.691   3.031  1.00  0.00     0.338 C 
ATOM     25  O   UNL     1       6.449  -8.766   2.033  1.00  0.00    -0.246 OA
BRANCH  24  26
ATOM     26  C   UNL     1       7.555  -7.401   3.610  1.00  0.00     0.060 A 
ATOM     27  C   UNL     1       6.549  -6.600   4.141  1.00  0.00     0.016 A 
ATOM     28  C   UNL     1       8.850  -6.903   3.484  1.00  0.00     0.016 A 
ATOM     29  C   UNL     1       6.795  -5.273   4.469  1.00  0.00     0.010 A 
ATOM     30  C   UNL     1       9.114  -5.581   3.872  1.00  0.00     0.010 A 
ATOM     31  C   UNL     1       8.080  -4.741   4.330  1.00  0.00    -0.014 A 
BRANCH  31  32
ATOM     32  C   UNL     1       8.303  -3.295   4.603  1.00  0.00     0.031 A 
ATOM     33  C   UNL     1       8.724  -2.376   3.485  1.00  0.00     0.074 A 
ATOM     34  C   UNL     1       8.075  -2.795   5.834  1.00  0.00     0.049 A 
ATOM     35  N   UNL     1       9.044  -1.107   3.535  1.00  0.00    -0.248 NA
ATOM     36  C   UNL     1       8.800  -2.959   2.136  1.00  0.00     0.031 C 
ATOM     37  C   UNL     1       7.600  -3.564   6.988  1.00  0.00     0.029 A 
ATOM     38  N   UNL     1       8.202  -1.516   6.321  1.00  0.00    -0.354 N 
ATOM     39  C   UNL     1       9.398  -0.753   2.237  1.00  0.00     0.074 A 
ATOM     40  C   UNL     1       9.271  -1.944   1.425  1.00  0.00     0.031 C 
ATOM     41  C   UNL     1       7.455  -2.740   8.037  1.00  0.00     0.029 A 
ATOM     42  C   UNL     1       7.896  -1.403   7.657  1.00  0.00     0.049 A 
ATOM     43  H   UNL     1       8.486  -0.754   5.766  1.00  0.00     0.167 HD
ATOM     44  C   UNL     1       9.790   0.455   1.764  1.00  0.00     0.031 A 
ATOM     45  C   UNL     1       7.993  -0.351   8.495  1.00  0.00     0.031 A 
ATOM     46  C   UNL     1       9.894   1.641   2.575  1.00  0.00     0.049 A 
ATOM     47  C   UNL     1       8.495   0.962   7.960  1.00  0.00     0.074 A 
ATOM     48  C   UNL     1      10.271   2.916   2.189  1.00  0.00     0.029 A 
ATOM     49  N   UNL     1       9.617   1.701   3.933  1.00  0.00    -0.354 N 
ATOM     50  N   UNL     1       8.841   1.275   6.734  1.00  0.00    -0.248 NA
ATOM     51  C   UNL     1       8.620   2.065   8.922  1.00  0.00     0.031 C 
ATOM     52  C   UNL     1      10.281   3.732   3.325  1.00  0.00     0.029 A 
ATOM     53  C   UNL     1       9.839   2.985   4.405  1.00  0.00     0.049 A 
ATOM     54  H   UNL     1       9.309   0.944   4.481  1.00  0.00     0.167 HD
ATOM     55  C   UNL     1       9.196   2.619   6.772  1.00  0.00     0.074 A 
ATOM     56  C   UNL     1       9.005   3.062   8.138  1.00  0.00     0.031 C 
ATOM     57  C   UNL     1       9.639   3.414   5.766  1.00  0.00     0.031 A 
BRANCH  44  58
ATOM     58  C   UNL     1      10.178   0.550   0.310  1.00  0.00    -0.014 A 
ATOM     59  C   UNL     1       9.224   0.453  -0.718  1.00  0.00     0.010 A 
ATOM     60  C   UNL     1      11.523   0.790  -0.030  1.00  0.00     0.010 A 
ATOM     61  C   UNL     1       9.612   0.558  -2.058  1.00  0.00     0.020 A 
ATOM     62  C   UNL     1      11.911   0.926  -1.366  1.00  0.00     0.020 A 
ATOM     63  C   UNL     1      10.954   0.794  -2.373  1.00  0.00     0.054 A 
BRANCH  63  64
ATOM     64  S   UNL     1      11.423   0.958  -4.118  1.00  0.00     0.124 S 
ATOM     65  O   UNL     1      11.277  -0.413  -4.600  1.00  0.00    -0.237 OA
ATOM     66  O   UNL     1      10.439   1.910  -4.626  1.00  0.00    -0.237 OA
ATOM     67  O   UNL     1      12.796   1.455  -4.064  1.00  0.00    -0.744 OA
ENDBRANCH  63  64
ENDBRANCH  44  58
BRANCH  45  68
ATOM     68  C   UNL     1       7.646  -0.509   9.936  1.00  0.00    -0.014 A 
ATOM     69  C   UNL     1       6.547   0.168  10.493  1.00  0.00     0.010 A 
ATOM     70  C   UNL     1       8.426  -1.338  10.765  1.00  0.00     0.010 A 
ATOM     71  C   UNL     1       6.250   0.038  11.853  1.00  0.00     0.020 A 
ATOM     72  C   UNL     1       8.111  -1.499  12.117  1.00  0.00     0.020 A 
ATOM     73  C   UNL     1       7.033  -0.796  12.656  1.00  0.00     0.054 A 
BRANCH  73  74
ATOM     74  S   UNL     1       6.608  -0.975  14.411  1.00  0.00     0.124 S 
ATOM     75  O   UNL     1       7.001   0.323  14.952  1.00  0.00    -0.237 OA
ATOM     76  O   UNL     1       5.170  -1.231  14.362  1.00  0.00    -0.237 OA
ATOM     77  O   UNL     1       7.421  -2.107  14.848  1.00  0.00    -0.744 OA
ENDBRANCH  73  74
ENDBRANCH  45  68
BRANCH  57  78
ATOM     78  C   UNL     1       9.898   4.862   6.091  1.00  0.00    -0.014 A 
ATOM     79  C   UNL     1      10.986   5.255   6.891  1.00  0.00     0.010 A 
ATOM     80  C   UNL     1       9.060   5.851   5.541  1.00  0.00     0.010 A 
ATOM     81  C   UNL     1      11.209   6.607   7.165  1.00  0.00     0.020 A 
ATOM     82  C   UNL     1       9.300   7.205   5.786  1.00  0.00     0.020 A 
ATOM     83  C   UNL     1      10.364   7.574   6.610  1.00  0.00     0.054 A 
BRANCH  83  84
ATOM     84  S   UNL     1      10.699   9.324   6.948  1.00  0.00     0.124 S 
ATOM     85  O   UNL     1      10.304   9.444   8.349  1.00  0.00    -0.237 OA
ATOM     86  O   UNL     1      12.132   9.431   6.688  1.00  0.00    -0.237 OA
ATOM     87  O   UNL     1       9.844  10.031   5.998  1.00  0.00    -0.744 OA
ENDBRANCH  83  84
ENDBRANCH  57  78
ENDBRANCH  31  32
ENDBRANCH  24  26
ENDBRANCH  23  24
ENDBRANCH  22  23
ENDBRANCH   1  22
TORSDOF 17
