REMARK SMILES O=C(OCCOC(=O)c1cc(SCC(=O)N2CCOCC2)ccn1)c1ccc(-c2c3nc(c(-c4ccc(S(=O)(=O)[O-])cc4)c4ccc([nH]4)c(-c4ccc(S(=O)(=O)[O-])cc4)c4nc(c(-c5ccc(S(=O)(=O)[O-])cc5)c5ccc2[nH]5)C=C4)C=C3)cc1
REMARK SMILES IDX 4 1 3 2 2 3 1 4 25 5 26 6 84 7 27 8 83 9 28 10 29 11 30 12
REMARK SMILES IDX 77 13 31 14 82 15 76 16 78 17 32 18 81 19 75 20 74 21 33 23
REMARK SMILES IDX 63 24 44 25 62 26 45 27 48 28 61 29 79 30 46 31 47 32 60 34
REMARK SMILES IDX 80 35 49 36 34 37 35 38 43 39 36 40 42 41 37 42 38 43 39 44
REMARK SMILES IDX 40 45 41 46 64 47 65 48 73 49 66 50 72 51 67 52 68 53 69 54
REMARK SMILES IDX 70 55 71 56 50 57 51 58 59 59 52 60 58 61 53 62 54 63 55 64
REMARK SMILES IDX 56 65 57 66 5 67 6 68 7 69 8 70 9 71 10 72 24 73 11 74 23 75
REMARK SMILES IDX 22 76 12 77 13 78 14 79 15 80 16 81 17 82 21 83 18 84 20 85
REMARK SMILES IDX 19 86
REMARK H PARENT 78 22 48 33
REMARK Flexibility Score: inf
ROOT
ATOM      1  C   UNL     1       3.769  -0.544  -1.793  1.00  0.00     0.275 C 
ENDROOT
BRANCH   1   2
ATOM      2  O   UNL     1       2.500  -0.691  -1.121  1.00  0.00    -0.458 OA
BRANCH   2   3
ATOM      3  C   UNL     1       2.363  -1.107   0.163  1.00  0.00     0.338 C 
ATOM      4  O   UNL     1       1.584  -2.008   0.452  1.00  0.00    -0.246 OA
BRANCH   3   5
ATOM      5  C   UNL     1       2.971  -0.301   1.274  1.00  0.00     0.060 A 
ATOM      6  C   UNL     1       4.273   0.188   1.264  1.00  0.00     0.016 A 
ATOM      7  C   UNL     1       2.202  -0.114   2.444  1.00  0.00     0.016 A 
ATOM      8  C   UNL     1       4.787   0.835   2.386  1.00  0.00     0.010 A 
ATOM      9  C   UNL     1       2.719   0.550   3.574  1.00  0.00     0.010 A 
ATOM     10  C   UNL     1       4.025   1.025   3.549  1.00  0.00    -0.014 A 
BRANCH  10  11
ATOM     11  C   UNL     1       4.743   1.639   4.669  1.00  0.00     0.031 A 
ATOM     12  C   UNL     1       5.649   0.827   5.610  1.00  0.00     0.074 A 
ATOM     13  C   UNL     1       4.924   2.974   4.691  1.00  0.00     0.049 A 
ATOM     14  N   UNL     1       6.491   1.264   6.525  1.00  0.00    -0.248 NA
ATOM     15  C   UNL     1       5.522  -0.628   5.606  1.00  0.00     0.031 C 
ATOM     16  C   UNL     1       3.821   4.506   4.428  1.00  0.00     0.029 A 
ATOM     17  N   UNL     1       6.403   3.624   5.429  1.00  0.00    -0.354 N 
ATOM     18  C   UNL     1       6.956   0.190   7.264  1.00  0.00     0.074 A 
ATOM     19  C   UNL     1       6.319  -0.967   6.620  1.00  0.00     0.031 C 
ATOM     20  C   UNL     1       4.572   5.920   4.872  1.00  0.00     0.029 A 
ATOM     21  C   UNL     1       6.337   5.565   5.648  1.00  0.00     0.049 A 
ATOM     22  H   UNL     1       7.171   3.069   5.697  1.00  0.00     0.167 HD
ATOM     23  C   UNL     1       7.744   0.133   8.390  1.00  0.00     0.031 A 
ATOM     24  C   UNL     1       7.007   6.580   6.333  1.00  0.00     0.031 A 
ATOM     25  C   UNL     1       8.389   1.185   9.210  1.00  0.00     0.049 A 
ATOM     26  C   UNL     1       8.055   6.468   7.474  1.00  0.00     0.074 A 
ATOM     27  C   UNL     1       8.960   1.033  10.474  1.00  0.00     0.029 A 
ATOM     28  N   UNL     1       8.648   2.523   8.898  1.00  0.00    -0.354 N 
ATOM     29  N   UNL     1       8.266   5.409   8.194  1.00  0.00    -0.248 NA
ATOM     30  C   UNL     1       8.897   7.579   7.942  1.00  0.00     0.031 C 
ATOM     31  C   UNL     1       9.495   2.262  10.917  1.00  0.00     0.029 A 
ATOM     32  C   UNL     1       9.291   3.219   9.938  1.00  0.00     0.049 A 
ATOM     33  H   UNL     1       8.406   2.936   8.037  1.00  0.00     0.167 HD
ATOM     34  C   UNL     1       9.251   5.601   9.095  1.00  0.00     0.074 A 
ATOM     35  C   UNL     1       9.599   7.002   8.936  1.00  0.00     0.031 C 
ATOM     36  C   UNL     1       9.715   4.635   9.932  1.00  0.00     0.031 A 
BRANCH  23  37
ATOM     37  C   UNL     1       7.844  -1.275   8.940  1.00  0.00    -0.014 A 
ATOM     38  C   UNL     1       8.749  -2.207   8.399  1.00  0.00     0.010 A 
ATOM     39  C   UNL     1       6.952  -1.678   9.955  1.00  0.00     0.010 A 
ATOM     40  C   UNL     1       8.713  -3.541   8.818  1.00  0.00     0.020 A 
ATOM     41  C   UNL     1       6.928  -3.006  10.388  1.00  0.00     0.020 A 
ATOM     42  C   UNL     1       7.785  -3.934   9.791  1.00  0.00     0.054 A 
BRANCH  42  43
ATOM     43  S   UNL     1       7.687  -5.679  10.281  1.00  0.00     0.124 S 
ATOM     44  O   UNL     1       6.718  -6.202   9.321  1.00  0.00    -0.237 OA
ATOM     45  O   UNL     1       9.058  -6.153  10.108  1.00  0.00    -0.237 OA
ATOM     46  O   UNL     1       7.225  -5.615  11.665  1.00  0.00    -0.744 OA
ENDBRANCH  42  43
ENDBRANCH  23  37
BRANCH  24  47
ATOM     47  C   UNL     1       6.816   7.940   5.770  1.00  0.00    -0.014 A 
ATOM     48  C   UNL     1       7.758   8.376   4.812  1.00  0.00     0.010 A 
ATOM     49  C   UNL     1       5.774   8.793   6.153  1.00  0.00     0.010 A 
ATOM     50  C   UNL     1       7.654   9.640   4.234  1.00  0.00     0.020 A 
ATOM     51  C   UNL     1       5.654  10.057   5.558  1.00  0.00     0.020 A 
ATOM     52  C   UNL     1       6.599  10.472   4.610  1.00  0.00     0.054 A 
BRANCH  52  53
ATOM     53  S   UNL     1       6.422  12.090   3.805  1.00  0.00     0.124 S 
ATOM     54  O   UNL     1       7.150  12.960   4.722  1.00  0.00    -0.237 OA
ATOM     55  O   UNL     1       7.050  11.879   2.502  1.00  0.00    -0.237 OA
ATOM     56  O   UNL     1       4.974  12.277   3.767  1.00  0.00    -0.744 OA
ENDBRANCH  52  53
ENDBRANCH  24  47
BRANCH  36  57
ATOM     57  C   UNL     1      10.663   5.118  10.984  1.00  0.00    -0.014 A 
ATOM     58  C   UNL     1      10.168   5.835  12.089  1.00  0.00     0.010 A 
ATOM     59  C   UNL     1      12.035   4.837  10.904  1.00  0.00     0.010 A 
ATOM     60  C   UNL     1      11.033   6.290  13.085  1.00  0.00     0.020 A 
ATOM     61  C   UNL     1      12.906   5.287  11.904  1.00  0.00     0.020 A 
ATOM     62  C   UNL     1      12.400   6.021  12.982  1.00  0.00     0.054 A 
BRANCH  62  63
ATOM     63  S   UNL     1      13.507   6.604  14.297  1.00  0.00     0.124 S 
ATOM     64  O   UNL     1      13.672   8.013  13.951  1.00  0.00    -0.237 OA
ATOM     65  O   UNL     1      12.737   6.342  15.511  1.00  0.00    -0.237 OA
ATOM     66  O   UNL     1      14.700   5.776  14.133  1.00  0.00    -0.744 OA
ENDBRANCH  62  63
ENDBRANCH  36  57
ENDBRANCH  10  11
ENDBRANCH   3   5
ENDBRANCH   2   3
ENDBRANCH   1   2
BRANCH   1  67
ATOM     67  C   UNL     1       3.951   0.882  -2.329  1.00  0.00     0.275 C 
BRANCH  67  68
ATOM     68  O   UNL     1       3.672   1.870  -1.323  1.00  0.00    -0.457 OA
BRANCH  68  69
ATOM     69  C   UNL     1       2.382   2.308  -1.310  1.00  0.00     0.357 C 
ATOM     70  O   UNL     1       1.518   2.020  -2.126  1.00  0.00    -0.244 OA
BRANCH  69  71
ATOM     71  C   UNL     1       2.135   3.158  -0.114  1.00  0.00     0.149 A 
ATOM     72  C   UNL     1       3.002   4.197   0.219  1.00  0.00     0.051 A 
ATOM     73  N   UNL     1       0.955   2.912   0.520  1.00  0.00    -0.249 NA
ATOM     74  C   UNL     1       2.620   5.050   1.249  1.00  0.00     0.012 A 
ATOM     75  C   UNL     1       0.621   3.743   1.519  1.00  0.00     0.113 A 
ATOM     76  C   UNL     1       1.394   4.826   1.891  1.00  0.00     0.035 A 
BRANCH  74  77
ATOM     77  S   UNL     1       3.506   6.533   1.704  1.00  0.00    -0.116 SA
BRANCH  77  78
ATOM     78  C   UNL     1       5.245   6.036   2.024  1.00  0.00     0.175 C 
BRANCH  78  79
ATOM     79  C   UNL     1       5.459   4.669   2.677  1.00  0.00     0.233 C 
ATOM     80  O   UNL     1       5.575   3.672   1.951  1.00  0.00    -0.274 OA
ATOM     81  N   UNL     1       5.850   4.656   4.114  1.00  0.00    -0.337 N 
ATOM     82  C   UNL     1       4.976   4.396   6.100  1.00  0.00     0.148 C 
ATOM     83  C   UNL     1       7.616   4.488   3.982  1.00  0.00     0.148 C 
ATOM     84  C   UNL     1       6.274   3.987   7.423  1.00  0.00     0.181 C 
ATOM     85  C   UNL     1       8.524   4.236   5.471  1.00  0.00     0.181 C 
ATOM     86  O   UNL     1       7.862   3.636   6.822  1.00  0.00    -0.378 OA
ENDBRANCH  78  79
ENDBRANCH  77  78
ENDBRANCH  74  77
ENDBRANCH  69  71
ENDBRANCH  68  69
ENDBRANCH  67  68
ENDBRANCH   1  67
TORSDOF 17
