REMARK SMILES CCC[NH2+][C@]1(C(=O)OCCOC(=O)c2ccc(-c3c4nc(c(-c5ccc(S(=O)(=O)[O-])cc5)c5ccc([nH]5)c(-c5ccc(S(=O)(=O)[O-])cc5)c5nc(c(-c6ccc(S(=O)(=O)[O-])cc6)c6ccc3[nH]6)C=C5)C=C4)cc2)CCC[C@@H]([N@@H+](C)[C@@H](C)C2CC2)C1
REMARK SMILES IDX 9 1 8 2 6 3 7 4 5 5 74 6 85 7 75 8 77 9 76 10 4 11 3 14 2 15
REMARK SMILES IDX 1 16 78 17 79 18 80 20 81 21 82 22 83 23 84 24 10 25 11 26
REMARK SMILES IDX 12 27 13 28 14 29 15 30 73 31 16 32 72 33 17 34 18 35 19 36
REMARK SMILES IDX 66 37 20 38 71 39 65 40 67 41 21 42 70 43 64 44 63 45 22 47
REMARK SMILES IDX 52 48 33 49 51 50 34 51 37 52 50 53 68 54 35 55 36 56 49 58
REMARK SMILES IDX 69 59 38 60 23 61 24 62 32 63 25 64 31 65 26 66 27 67 28 68
REMARK SMILES IDX 29 69 30 70 53 71 54 72 62 73 55 74 61 75 56 76 57 77 58 78
REMARK SMILES IDX 59 79 60 80 39 81 40 82 48 83 41 84 47 85 42 86 43 87 44 88
REMARK SMILES IDX 45 89 46 90
REMARK H PARENT 4 12 4 13 78 19 67 46 37 57
REMARK Flexibility Score: inf
ROOT
ATOM      1  C   UNL     1      -0.955   0.145   1.343  1.00  0.00     0.274 C 
ENDROOT
BRANCH   1   2
ATOM      2  O   UNL     1      -0.415   0.714   2.552  1.00  0.00    -0.457 OA
BRANCH   2   3
ATOM      3  C   UNL     1       0.799   0.240   2.956  1.00  0.00     0.368 C 
ATOM      4  O   UNL     1       1.412  -0.649   2.368  1.00  0.00    -0.245 OA
BRANCH   3   5
ATOM      5  C   UNL     1       1.239   0.809   4.355  1.00  0.00     0.200 C 
ATOM      6  C   UNL     1       0.627   2.194   4.660  1.00  0.00     0.081 C 
ATOM      7  C   UNL     1       0.584  -0.237   5.266  1.00  0.00     0.146 C 
ATOM      8  C   UNL     1       0.587   2.575   6.146  1.00  0.00     0.013 C 
ATOM      9  C   UNL     1       0.593   0.045   6.756  1.00  0.00     0.190 C 
ATOM     10  C   UNL     1       0.082   1.462   7.077  1.00  0.00     0.065 C 
BRANCH   5  11
ATOM     11  N   UNL     1       2.730   0.746   4.392  1.00  0.00    -0.332 N 
ATOM     12  H   UNL     1       2.981  -0.227   4.567  1.00  0.00     0.347 HD
ATOM     13  H   UNL     1       3.006   1.145   3.495  1.00  0.00     0.347 HD
BRANCH  11  14
ATOM     14  C   UNL     1       3.463   1.550   5.357  1.00  0.00     0.261 C 
BRANCH  14  15
ATOM     15  C   UNL     1       4.907   1.091   5.604  1.00  0.00     0.058 C 
ATOM     16  C   UNL     1       5.817   1.147   4.393  1.00  0.00     0.010 C 
ENDBRANCH  14  15
ENDBRANCH  11  14
ENDBRANCH   5  11
BRANCH   9  17
ATOM     17  N   UNL     1      -0.015  -1.094   7.487  1.00  0.00    -0.332 N 
ATOM     18  C   UNL     1       0.412  -1.117   8.887  1.00  0.00     0.333 C 
ATOM     19  H   UNL     1       0.382  -1.851   6.930  1.00  0.00     0.348 HD
BRANCH  17  20
ATOM     20  C   UNL     1      -1.435  -1.477   7.338  1.00  0.00     0.184 C 
ATOM     21  C   UNL     1      -2.471  -0.438   7.792  1.00  0.00     0.075 C 
BRANCH  20  22
ATOM     22  C   UNL     1      -1.831  -2.019   5.972  1.00  0.00     0.047 C 
ATOM     23  C   UNL     1      -0.980  -2.970   5.154  1.00  0.00     0.010 C 
ATOM     24  C   UNL     1      -2.216  -3.478   5.823  1.00  0.00     0.010 C 
ENDBRANCH  20  22
ENDBRANCH  17  20
ENDBRANCH   9  17
ENDBRANCH   3   5
ENDBRANCH   2   3
ENDBRANCH   1   2
BRANCH   1  25
ATOM     25  C   UNL     1      -0.898   1.168   0.214  1.00  0.00     0.275 C 
BRANCH  25  26
ATOM     26  O   UNL     1       0.472   1.537  -0.004  1.00  0.00    -0.458 OA
BRANCH  26  27
ATOM     27  C   UNL     1       0.796   2.822   0.263  1.00  0.00     0.338 C 
ATOM     28  O   UNL     1       0.029   3.745   0.500  1.00  0.00    -0.246 OA
BRANCH  27  29
ATOM     29  C   UNL     1       2.263   2.958   0.275  1.00  0.00     0.060 A 
ATOM     30  C   UNL     1       3.025   2.072   1.028  1.00  0.00     0.016 A 
ATOM     31  C   UNL     1       2.884   4.024  -0.372  1.00  0.00     0.016 A 
ATOM     32  C   UNL     1       4.384   2.288   1.205  1.00  0.00     0.010 A 
ATOM     33  C   UNL     1       4.273   4.183  -0.266  1.00  0.00     0.010 A 
ATOM     34  C   UNL     1       5.040   3.338   0.558  1.00  0.00    -0.014 A 
BRANCH  34  35
ATOM     35  C   UNL     1       6.488   3.594   0.816  1.00  0.00     0.031 A 
ATOM     36  C   UNL     1       6.929   4.954   1.294  1.00  0.00     0.074 A 
ATOM     37  C   UNL     1       7.417   2.623   0.683  1.00  0.00     0.049 A 
ATOM     38  N   UNL     1       8.131   5.468   1.333  1.00  0.00    -0.248 NA
ATOM     39  C   UNL     1       5.875   5.860   1.779  1.00  0.00     0.031 C 
ATOM     40  C   UNL     1       7.154   1.225   0.334  1.00  0.00     0.029 A 
ATOM     41  N   UNL     1       8.782   2.664   0.849  1.00  0.00    -0.354 N 
ATOM     42  C   UNL     1       7.967   6.783   1.751  1.00  0.00     0.074 A 
ATOM     43  C   UNL     1       6.552   6.981   1.979  1.00  0.00     0.031 C 
ATOM     44  C   UNL     1       8.303   0.534   0.372  1.00  0.00     0.029 A 
ATOM     45  C   UNL     1       9.403   1.458   0.622  1.00  0.00     0.049 A 
ATOM     46  H   UNL     1       9.269   3.481   1.105  1.00  0.00     0.167 HD
ATOM     47  C   UNL     1       8.909   7.743   1.909  1.00  0.00     0.031 A 
ATOM     48  C   UNL     1      10.710   1.133   0.556  1.00  0.00     0.031 A 
ATOM     49  C   UNL     1      10.322   7.522   1.749  1.00  0.00     0.049 A 
ATOM     50  C   UNL     1      11.742   2.216   0.703  1.00  0.00     0.074 A 
ATOM     51  C   UNL     1      11.356   8.435   1.868  1.00  0.00     0.029 A 
ATOM     52  N   UNL     1      10.901   6.296   1.465  1.00  0.00    -0.354 N 
ATOM     53  N   UNL     1      11.568   3.489   0.965  1.00  0.00    -0.248 NA
ATOM     54  C   UNL     1      13.146   1.826   0.507  1.00  0.00     0.031 C 
ATOM     55  C   UNL     1      12.559   7.765   1.621  1.00  0.00     0.029 A 
ATOM     56  C   UNL     1      12.277   6.427   1.396  1.00  0.00     0.049 A 
ATOM     57  H   UNL     1      10.406   5.455   1.332  1.00  0.00     0.167 HD
ATOM     58  C   UNL     1      12.838   4.054   0.955  1.00  0.00     0.074 A 
ATOM     59  C   UNL     1      13.774   2.979   0.695  1.00  0.00     0.031 C 
ATOM     60  C   UNL     1      13.195   5.349   1.131  1.00  0.00     0.031 A 
BRANCH  47  61
ATOM     61  C   UNL     1       8.432   9.141   2.197  1.00  0.00    -0.014 A 
ATOM     62  C   UNL     1       7.945   9.517   3.461  1.00  0.00     0.010 A 
ATOM     63  C   UNL     1       8.494  10.103   1.171  1.00  0.00     0.010 A 
ATOM     64  C   UNL     1       7.488  10.821   3.679  1.00  0.00     0.020 A 
ATOM     65  C   UNL     1       8.062  11.412   1.393  1.00  0.00     0.020 A 
ATOM     66  C   UNL     1       7.542  11.758   2.641  1.00  0.00     0.054 A 
BRANCH  66  67
ATOM     67  S   UNL     1       6.949  13.444   2.949  1.00  0.00     0.124 S 
ATOM     68  O   UNL     1       5.500  13.264   2.917  1.00  0.00    -0.237 OA
ATOM     69  O   UNL     1       7.514  13.751   4.261  1.00  0.00    -0.237 OA
ATOM     70  O   UNL     1       7.506  14.215   1.840  1.00  0.00    -0.744 OA
ENDBRANCH  66  67
ENDBRANCH  47  61
BRANCH  48  71
ATOM     71  C   UNL     1      11.111  -0.268   0.246  1.00  0.00    -0.014 A 
ATOM     72  C   UNL     1      11.739  -1.069   1.215  1.00  0.00     0.010 A 
ATOM     73  C   UNL     1      10.839  -0.817  -1.022  1.00  0.00     0.010 A 
ATOM     74  C   UNL     1      12.084  -2.393   0.923  1.00  0.00     0.020 A 
ATOM     75  C   UNL     1      11.153  -2.148  -1.306  1.00  0.00     0.020 A 
ATOM     76  C   UNL     1      11.782  -2.926  -0.334  1.00  0.00     0.054 A 
BRANCH  76  77
ATOM     77  S   UNL     1      12.159  -4.669  -0.671  1.00  0.00     0.124 S 
ATOM     78  O   UNL     1      13.587  -4.619  -0.964  1.00  0.00    -0.237 OA
ATOM     79  O   UNL     1      11.792  -5.324   0.583  1.00  0.00    -0.237 OA
ATOM     80  O   UNL     1      11.296  -4.989  -1.806  1.00  0.00    -0.744 OA
ENDBRANCH  76  77
ENDBRANCH  48  71
BRANCH  60  81
ATOM     81  C   UNL     1      14.660   5.678   1.062  1.00  0.00    -0.014 A 
ATOM     82  C   UNL     1      15.329   5.740  -0.173  1.00  0.00     0.010 A 
ATOM     83  C   UNL     1      15.361   5.989   2.241  1.00  0.00     0.010 A 
ATOM     84  C   UNL     1      16.681   6.087  -0.226  1.00  0.00     0.020 A 
ATOM     85  C   UNL     1      16.708   6.356   2.190  1.00  0.00     0.020 A 
ATOM     86  C   UNL     1      17.363   6.392   0.957  1.00  0.00     0.054 A 
BRANCH  86  87
ATOM     87  S   UNL     1      19.104   6.890   0.860  1.00  0.00     0.124 S 
ATOM     88  O   UNL     1      19.773   5.613   0.627  1.00  0.00    -0.237 OA
ATOM     89  O   UNL     1      19.112   7.818  -0.269  1.00  0.00    -0.237 OA
ATOM     90  O   UNL     1      19.362   7.500   2.162  1.00  0.00    -0.744 OA
ENDBRANCH  86  87
ENDBRANCH  60  81
ENDBRANCH  34  35
ENDBRANCH  27  29
ENDBRANCH  26  27
ENDBRANCH  25  26
ENDBRANCH   1  25
TORSDOF 20
