REMARK SMILES CC(C)C[C@@H](C(=O)OCCOC(=O)c1ccc(-c2c3nc(c(-c4ccc(S(=O)(=O)[O-])cc4)c4ccc([nH]4)c(-c4ccc(S(=O)(=O)[O-])cc4)c4nc(c(-c5ccc(S(=O)(=O)[O-])cc5)c5ccc2[nH]5)C=C4)C=C3)cc1)[C@@H]1CCC[C@@H](C)C1
REMARK SMILES IDX 10 1 9 2 8 3 6 4 7 5 5 6 4 7 2 8 1 9 3 10 74 11 75 12 80 13
REMARK SMILES IDX 76 14 78 15 77 16 79 17 11 18 12 19 13 20 14 21 15 22 73 23
REMARK SMILES IDX 16 24 72 25 17 26 18 27 19 28 66 29 20 30 71 31 65 32 67 33
REMARK SMILES IDX 21 34 70 35 64 36 63 37 22 39 52 40 33 41 51 42 34 43 37 44
REMARK SMILES IDX 50 45 68 46 35 47 36 48 49 50 69 51 38 52 23 53 24 54 32 55
REMARK SMILES IDX 25 56 31 57 26 58 27 59 28 60 29 61 30 62 53 63 54 64 62 65
REMARK SMILES IDX 55 66 61 67 56 68 57 69 58 70 59 71 60 72 39 73 40 74 48 75
REMARK SMILES IDX 41 76 47 77 42 78 43 79 44 80 45 81 46 82
REMARK H PARENT 67 38 37 49
REMARK Flexibility Score: inf
ROOT
ATOM      1  C   UNL     1       1.995   5.261   4.910  1.00  0.00     0.275 C 
ENDROOT
BRANCH   1   2
ATOM      2  C   UNL     1       1.829   5.490   3.403  1.00  0.00     0.274 C 
BRANCH   2   3
ATOM      3  O   UNL     1       0.778   4.687   2.815  1.00  0.00    -0.462 OA
BRANCH   3   4
ATOM      4  C   UNL     1       1.202   3.543   2.231  1.00  0.00     0.309 C 
ATOM      5  O   UNL     1       2.375   3.174   2.234  1.00  0.00    -0.252 OA
BRANCH   4   6
ATOM      6  C   UNL     1       0.139   2.744   1.488  1.00  0.00     0.102 C 
BRANCH   6   7
ATOM      7  C   UNL     1       0.525   2.632  -0.016  1.00  0.00     0.018 C 
BRANCH   7   8
ATOM      8  C   UNL     1       0.247   3.797  -0.985  1.00  0.00    -0.017 C 
ATOM      9  C   UNL     1       0.880   5.122  -0.563  1.00  0.00     0.007 C 
ATOM     10  C   UNL     1       0.772   3.425  -2.380  1.00  0.00     0.007 C 
ENDBRANCH   7   8
ENDBRANCH   6   7
BRANCH   6  11
ATOM     11  C   UNL     1      -1.389   2.866   1.778  1.00  0.00     0.003 C 
ATOM     12  C   UNL     1      -2.120   4.175   1.435  1.00  0.00     0.004 C 
ATOM     13  C   UNL     1      -1.817   2.239   3.130  1.00  0.00     0.007 C 
ATOM     14  C   UNL     1      -2.555   5.048   2.604  1.00  0.00     0.001 C 
ATOM     15  C   UNL     1      -2.296   3.205   4.219  1.00  0.00    -0.014 C 
ATOM     16  C   UNL     1      -3.268   4.238   3.675  1.00  0.00     0.003 C 
ATOM     17  C   UNL     1      -2.871   2.435   5.407  1.00  0.00     0.007 C 
ENDBRANCH   6  11
ENDBRANCH   4   6
ENDBRANCH   3   4
ENDBRANCH   2   3
ENDBRANCH   1   2
BRANCH   1  18
ATOM     18  O   UNL     1       2.558   3.968   5.211  1.00  0.00    -0.458 OA
BRANCH  18  19
ATOM     19  C   UNL     1       1.629   3.017   5.407  1.00  0.00     0.338 C 
ATOM     20  O   UNL     1       0.413   3.169   5.377  1.00  0.00    -0.246 OA
BRANCH  19  21
ATOM     21  C   UNL     1       2.158   1.694   5.683  1.00  0.00     0.060 A 
ATOM     22  C   UNL     1       2.036   0.712   4.695  1.00  0.00     0.016 A 
ATOM     23  C   UNL     1       2.479   1.365   7.001  1.00  0.00     0.016 A 
ATOM     24  C   UNL     1       2.236  -0.621   5.030  1.00  0.00     0.010 A 
ATOM     25  C   UNL     1       2.701   0.030   7.329  1.00  0.00     0.010 A 
ATOM     26  C   UNL     1       2.577  -0.965   6.346  1.00  0.00    -0.014 A 
BRANCH  26  27
ATOM     27  C   UNL     1       2.931  -2.360   6.670  1.00  0.00     0.031 A 
ATOM     28  C   UNL     1       1.997  -3.245   7.434  1.00  0.00     0.074 A 
ATOM     29  C   UNL     1       4.142  -2.790   6.274  1.00  0.00     0.049 A 
ATOM     30  N   UNL     1       2.210  -4.448   7.897  1.00  0.00    -0.248 NA
ATOM     31  C   UNL     1       0.654  -2.716   7.716  1.00  0.00     0.031 C 
ATOM     32  C   UNL     1       5.101  -1.997   5.498  1.00  0.00     0.029 A 
ATOM     33  N   UNL     1       4.777  -3.984   6.474  1.00  0.00    -0.354 N 
ATOM     34  C   UNL     1       1.037  -4.819   8.542  1.00  0.00     0.074 A 
ATOM     35  C   UNL     1       0.114  -3.711   8.409  1.00  0.00     0.031 C 
ATOM     36  C   UNL     1       6.202  -2.730   5.284  1.00  0.00     0.029 A 
ATOM     37  C   UNL     1       6.047  -4.014   5.955  1.00  0.00     0.049 A 
ATOM     38  H   UNL     1       4.364  -4.745   6.942  1.00  0.00     0.167 HD
ATOM     39  C   UNL     1       0.771  -5.978   9.194  1.00  0.00     0.031 A 
ATOM     40  C   UNL     1       6.999  -4.959   6.043  1.00  0.00     0.031 A 
ATOM     41  C   UNL     1       1.717  -7.056   9.327  1.00  0.00     0.049 A 
ATOM     42  C   UNL     1       6.694  -6.210   6.807  1.00  0.00     0.074 A 
ATOM     43  C   UNL     1       1.562  -8.268   9.977  1.00  0.00     0.029 A 
ATOM     44  N   UNL     1       3.002  -7.048   8.801  1.00  0.00    -0.354 N 
ATOM     45  N   UNL     1       5.588  -6.538   7.432  1.00  0.00    -0.248 NA
ATOM     46  C   UNL     1       7.762  -7.212   6.886  1.00  0.00     0.031 C 
ATOM     47  C   UNL     1       2.765  -8.978   9.871  1.00  0.00     0.029 A 
ATOM     48  C   UNL     1       3.656  -8.224   9.123  1.00  0.00     0.049 A 
ATOM     49  H   UNL     1       3.391  -6.312   8.275  1.00  0.00     0.167 HD
ATOM     50  C   UNL     1       5.824  -7.790   7.980  1.00  0.00     0.074 A 
ATOM     51  C   UNL     1       7.172  -8.166   7.595  1.00  0.00     0.031 C 
ATOM     52  C   UNL     1       5.004  -8.559   8.737  1.00  0.00     0.031 A 
BRANCH  39  53
ATOM     53  C   UNL     1      -0.577  -6.114   9.849  1.00  0.00    -0.014 A 
ATOM     54  C   UNL     1      -1.732  -6.378   9.093  1.00  0.00     0.010 A 
ATOM     55  C   UNL     1      -0.685  -6.006  11.248  1.00  0.00     0.010 A 
ATOM     56  C   UNL     1      -2.978  -6.497   9.720  1.00  0.00     0.020 A 
ATOM     57  C   UNL     1      -1.925  -6.140  11.880  1.00  0.00     0.020 A 
ATOM     58  C   UNL     1      -3.067  -6.367  11.110  1.00  0.00     0.054 A 
BRANCH  58  59
ATOM     59  S   UNL     1      -4.691  -6.530  11.906  1.00  0.00     0.124 S 
ATOM     60  O   UNL     1      -5.292  -5.227  11.630  1.00  0.00    -0.237 OA
ATOM     61  O   UNL     1      -5.289  -7.659  11.198  1.00  0.00    -0.237 OA
ATOM     62  O   UNL     1      -4.365  -6.781  13.307  1.00  0.00    -0.744 OA
ENDBRANCH  58  59
ENDBRANCH  39  53
BRANCH  40  63
ATOM     63  C   UNL     1       8.321  -4.717   5.415  1.00  0.00    -0.014 A 
ATOM     64  C   UNL     1       8.668  -5.359   4.216  1.00  0.00     0.010 A 
ATOM     65  C   UNL     1       9.204  -3.772   5.972  1.00  0.00     0.010 A 
ATOM     66  C   UNL     1       9.877  -5.058   3.580  1.00  0.00     0.020 A 
ATOM     67  C   UNL     1      10.401  -3.453   5.328  1.00  0.00     0.020 A 
ATOM     68  C   UNL     1      10.733  -4.104   4.138  1.00  0.00     0.054 A 
BRANCH  68  69
ATOM     69  S   UNL     1      12.254  -3.658   3.255  1.00  0.00     0.124 S 
ATOM     70  O   UNL     1      13.157  -4.736   3.644  1.00  0.00    -0.237 OA
ATOM     71  O   UNL     1      11.828  -3.663   1.857  1.00  0.00    -0.237 OA
ATOM     72  O   UNL     1      12.582  -2.338   3.791  1.00  0.00    -0.744 OA
ENDBRANCH  68  69
ENDBRANCH  40  63
BRANCH  52  73
ATOM     73  C   UNL     1       5.554  -9.882   9.183  1.00  0.00    -0.014 A 
ATOM     74  C   UNL     1       6.462  -9.957  10.253  1.00  0.00     0.010 A 
ATOM     75  C   UNL     1       5.144 -11.060   8.535  1.00  0.00     0.010 A 
ATOM     76  C   UNL     1       6.978 -11.192  10.649  1.00  0.00     0.020 A 
ATOM     77  C   UNL     1       5.645 -12.298   8.941  1.00  0.00     0.020 A 
ATOM     78  C   UNL     1       6.571 -12.354   9.986  1.00  0.00     0.054 A 
BRANCH  78  79
ATOM     79  S   UNL     1       7.229 -13.954  10.532  1.00  0.00     0.124 S 
ATOM     80  O   UNL     1       8.539 -13.976   9.888  1.00  0.00    -0.237 OA
ATOM     81  O   UNL     1       7.245 -13.820  11.986  1.00  0.00    -0.237 OA
ATOM     82  O   UNL     1       6.261 -14.917  10.013  1.00  0.00    -0.744 OA
ENDBRANCH  78  79
ENDBRANCH  52  73
ENDBRANCH  26  27
ENDBRANCH  19  21
ENDBRANCH  18  19
ENDBRANCH   1  18
TORSDOF 17
