REMARK SMILES NS(=O)(=O)c1ccc(-n2nc(NC(=O)NCCCC(=O)OCCOC(=O)c3ccc(-c4c5nc(c(-c6ccc(S(=O)(=O)[O-])cc6)c6ccc([nH]6)c(-c6ccc(S(=O)(=O)[O-])cc6)c6nc(c(-c7ccc(S(=O)(=O)[O-])cc7)c7ccc4[nH]7)C=C6)C=C5)cc3)cc2-c2ccccc2)cc1
REMARK SMILES IDX 19 1 20 2 18 3 17 4 16 5 15 6 12 7 13 8 14 10 11 12 9 13
REMARK SMILES IDX 10 14 88 15 87 16 8 17 5 18 6 19 96 20 7 21 95 22 2 23 3 24
REMARK SMILES IDX 4 25 1 26 89 29 90 30 94 31 91 32 93 33 92 34 21 35 22 36
REMARK SMILES IDX 23 37 24 38 25 39 26 40 27 41 28 42 86 43 29 44 85 45 30 46
REMARK SMILES IDX 31 47 32 48 79 49 33 50 84 51 78 52 80 53 34 54 83 55 77 56
REMARK SMILES IDX 76 57 35 59 65 60 46 61 64 62 47 63 50 64 63 65 81 66 48 67
REMARK SMILES IDX 49 68 62 70 82 71 51 72 36 73 37 74 45 75 38 76 44 77 39 78
REMARK SMILES IDX 40 79 41 80 42 81 43 82 66 83 67 84 75 85 68 86 74 87 69 88
REMARK SMILES IDX 70 89 71 90 72 91 73 92 52 93 53 94 61 95 54 96 60 97 55 98
REMARK SMILES IDX 56 99 57 100 58 101 59 102
REMARK H PARENT 12 9 15 11 1 27 1 28 80 58 50 69
REMARK Flexibility Score: inf
ROOT
ATOM      1  C   UNL     1       7.245  -5.821   0.669  1.00  0.00     0.305 C 
ATOM      2  O   UNL     1       7.587  -5.189   1.662  1.00  0.00    -0.252 OA
ENDROOT
BRANCH   1   3
ATOM      3  C   UNL     1       6.872  -7.285   0.715  1.00  0.00     0.124 C 
BRANCH   3   4
ATOM      4  C   UNL     1       5.452  -7.667   0.310  1.00  0.00     0.033 C 
BRANCH   4   5
ATOM      5  C   UNL     1       5.062  -7.476  -1.157  1.00  0.00     0.118 C 
BRANCH   5   6
ATOM      6  N   UNL     1       5.854  -8.267  -2.089  1.00  0.00    -0.338 N 
ATOM      7  N   UNL     1       4.236  -9.097  -3.631  1.00  0.00    -0.291 N 
ATOM      8  C   UNL     1       5.500  -9.021  -3.155  1.00  0.00     0.320 C 
ATOM      9  H   UNL     1       3.995  -9.953  -4.053  1.00  0.00     0.173 HD
ATOM     10  O   UNL     1       6.365  -9.756  -3.645  1.00  0.00    -0.248 OA
ATOM     11  H   UNL     1       6.822  -8.250  -1.911  1.00  0.00     0.165 HD
BRANCH   7  12
ATOM     12  C   UNL     1       3.240  -8.151  -3.611  1.00  0.00     0.157 A 
ATOM     13  N   UNL     1       2.263  -6.354  -3.109  1.00  0.00    -0.231 N 
ATOM     14  N   UNL     1       3.464  -6.852  -3.462  1.00  0.00    -0.149 NA
ATOM     15  C   UNL     1       1.222  -7.190  -3.510  1.00  0.00     0.076 A 
ATOM     16  C   UNL     1       1.860  -8.386  -3.817  1.00  0.00     0.078 A 
BRANCH  13  17
ATOM     17  C   UNL     1       2.219  -5.123  -2.418  1.00  0.00     0.065 A 
ATOM     18  C   UNL     1       1.950  -2.572  -1.390  1.00  0.00     0.082 A 
ATOM     19  C   UNL     1       1.108  -3.598  -0.937  1.00  0.00     0.024 A 
ATOM     20  C   UNL     1       2.993  -2.845  -2.270  1.00  0.00     0.024 A 
ATOM     21  C   UNL     1       1.247  -4.884  -1.445  1.00  0.00     0.030 A 
ATOM     22  C   UNL     1       3.142  -4.131  -2.772  1.00  0.00     0.030 A 
BRANCH  18  23
ATOM     23  S   UNL     1       1.568  -0.898  -0.992  1.00  0.00     0.238 S 
ATOM     24  O   UNL     1       2.075  -0.583   0.295  1.00  0.00    -0.207 OA
ATOM     25  O   UNL     1       0.204  -0.656  -1.436  1.00  0.00    -0.207 OA
BRANCH  23  26
ATOM     26  N   UNL     1       2.490   0.054  -2.025  1.00  0.00    -0.225 NA
ATOM     27  H   UNL     1       2.306   1.040  -1.835  1.00  0.00     0.137 HD
ATOM     28  H   UNL     1       2.246  -0.157  -2.992  1.00  0.00     0.137 HD
ENDBRANCH  23  26
ENDBRANCH  18  23
ENDBRANCH  13  17
BRANCH  15  29
ATOM     29  C   UNL     1      -0.201  -6.813  -3.540  1.00  0.00     0.000 A 
ATOM     30  C   UNL     1      -0.598  -5.518  -3.920  1.00  0.00     0.010 A 
ATOM     31  C   UNL     1      -1.193  -7.714  -3.133  1.00  0.00     0.010 A 
ATOM     32  C   UNL     1      -1.927  -5.104  -3.801  1.00  0.00     0.001 A 
ATOM     33  C   UNL     1      -2.529  -7.307  -3.040  1.00  0.00     0.001 A 
ATOM     34  C   UNL     1      -2.892  -5.998  -3.353  1.00  0.00     0.000 A 
ENDBRANCH  15  29
ENDBRANCH   7  12
ENDBRANCH   5   6
ENDBRANCH   4   5
ENDBRANCH   3   4
ENDBRANCH   1   3
BRANCH   1  35
ATOM     35  O   UNL     1       7.251  -5.335  -0.600  1.00  0.00    -0.462 OA
BRANCH  35  36
ATOM     36  C   UNL     1       7.611  -3.948  -0.741  1.00  0.00     0.274 C 
BRANCH  36  37
ATOM     37  C   UNL     1       6.410  -3.010  -0.661  1.00  0.00     0.275 C 
BRANCH  37  38
ATOM     38  O   UNL     1       5.818  -2.955   0.640  1.00  0.00    -0.458 OA
BRANCH  38  39
ATOM     39  C   UNL     1       4.833  -3.859   0.848  1.00  0.00     0.338 C 
ATOM     40  O   UNL     1       4.594  -4.835   0.158  1.00  0.00    -0.246 OA
BRANCH  39  41
ATOM     41  C   UNL     1       3.916  -3.435   1.909  1.00  0.00     0.060 A 
ATOM     42  C   UNL     1       2.846  -4.290   2.232  1.00  0.00     0.016 A 
ATOM     43  C   UNL     1       3.951  -2.118   2.352  1.00  0.00     0.016 A 
ATOM     44  C   UNL     1       1.731  -3.780   2.880  1.00  0.00     0.010 A 
ATOM     45  C   UNL     1       2.824  -1.607   2.956  1.00  0.00     0.010 A 
ATOM     46  C   UNL     1       1.703  -2.421   3.173  1.00  0.00    -0.014 A 
BRANCH  46  47
ATOM     47  C   UNL     1       0.544  -1.788   3.783  1.00  0.00     0.031 A 
ATOM     48  C   UNL     1       0.597  -1.704   5.245  1.00  0.00     0.074 A 
ATOM     49  C   UNL     1      -0.375  -1.110   3.071  1.00  0.00     0.049 A 
ATOM     50  N   UNL     1      -0.182  -2.349   6.048  1.00  0.00    -0.248 NA
ATOM     51  C   UNL     1       1.692  -0.984   5.909  1.00  0.00     0.031 C 
ATOM     52  C   UNL     1      -0.498  -1.087   1.628  1.00  0.00     0.029 A 
ATOM     53  N   UNL     1      -1.292  -0.177   3.461  1.00  0.00    -0.354 N 
ATOM     54  C   UNL     1       0.136  -1.866   7.301  1.00  0.00     0.074 A 
ATOM     55  C   UNL     1       1.453  -1.294   7.183  1.00  0.00     0.031 C 
ATOM     56  C   UNL     1      -1.184   0.001   1.232  1.00  0.00     0.029 A 
ATOM     57  C   UNL     1      -1.692   0.654   2.414  1.00  0.00     0.049 A 
ATOM     58  H   UNL     1      -1.633  -0.098   4.381  1.00  0.00     0.167 HD
ATOM     59  C   UNL     1      -0.845  -1.616   8.210  1.00  0.00     0.031 A 
ATOM     60  C   UNL     1      -2.429   1.787   2.462  1.00  0.00     0.031 A 
ATOM     61  C   UNL     1      -2.111  -2.189   7.804  1.00  0.00     0.049 A 
ATOM     62  C   UNL     1      -3.331   1.626   3.620  1.00  0.00     0.074 A 
ATOM     63  C   UNL     1      -2.543  -3.454   7.457  1.00  0.00     0.029 A 
ATOM     64  N   UNL     1      -3.061  -1.309   7.332  1.00  0.00    -0.354 N 
ATOM     65  N   UNL     1      -4.245   0.693   3.662  1.00  0.00    -0.248 NA
ATOM     66  C   UNL     1      -2.935   2.160   4.914  1.00  0.00     0.031 C 
ATOM     67  C   UNL     1      -3.552  -3.260   6.471  1.00  0.00     0.029 A 
ATOM     68  C   UNL     1      -3.740  -1.888   6.290  1.00  0.00     0.049 A 
ATOM     69  H   UNL     1      -3.227  -0.406   7.687  1.00  0.00     0.167 HD
ATOM     70  C   UNL     1      -4.148   0.182   4.948  1.00  0.00     0.074 A 
ATOM     71  C   UNL     1      -3.470   1.228   5.710  1.00  0.00     0.031 C 
ATOM     72  C   UNL     1      -4.343  -1.149   5.192  1.00  0.00     0.031 A 
BRANCH  59  73
ATOM     73  C   UNL     1      -0.767  -0.483   9.204  1.00  0.00    -0.014 A 
ATOM     74  C   UNL     1      -1.777  -0.374  10.176  1.00  0.00     0.010 A 
ATOM     75  C   UNL     1       0.103   0.619   9.059  1.00  0.00     0.010 A 
ATOM     76  C   UNL     1      -1.949   0.806  10.910  1.00  0.00     0.020 A 
ATOM     77  C   UNL     1      -0.023   1.776   9.822  1.00  0.00     0.020 A 
ATOM     78  C   UNL     1      -1.078   1.878  10.714  1.00  0.00     0.054 A 
BRANCH  78  79
ATOM     79  S   UNL     1      -1.379   3.442  11.565  1.00  0.00     0.124 S 
ATOM     80  O   UNL     1      -2.598   3.903  10.910  1.00  0.00    -0.237 OA
ATOM     81  O   UNL     1      -1.523   3.016  12.954  1.00  0.00    -0.237 OA
ATOM     82  O   UNL     1      -0.178   4.223  11.279  1.00  0.00    -0.744 OA
ENDBRANCH  78  79
ENDBRANCH  59  73
BRANCH  60  83
ATOM     83  C   UNL     1      -2.225   3.019   1.660  1.00  0.00    -0.014 A 
ATOM     84  C   UNL     1      -3.182   4.046   1.616  1.00  0.00     0.010 A 
ATOM     85  C   UNL     1      -0.950   3.294   1.110  1.00  0.00     0.010 A 
ATOM     86  C   UNL     1      -2.860   5.316   1.096  1.00  0.00     0.020 A 
ATOM     87  C   UNL     1      -0.623   4.553   0.588  1.00  0.00     0.020 A 
ATOM     88  C   UNL     1      -1.575   5.567   0.604  1.00  0.00     0.054 A 
BRANCH  88  89
ATOM     89  S   UNL     1      -1.118   7.254   0.100  1.00  0.00     0.124 S 
ATOM     90  O   UNL     1      -1.873   7.427  -1.137  1.00  0.00    -0.237 OA
ATOM     91  O   UNL     1      -1.568   8.059   1.233  1.00  0.00    -0.237 OA
ATOM     92  O   UNL     1       0.334   7.184  -0.066  1.00  0.00    -0.744 OA
ENDBRANCH  88  89
ENDBRANCH  60  83
BRANCH  72  93
ATOM     93  C   UNL     1      -5.018  -1.987   4.123  1.00  0.00    -0.014 A 
ATOM     94  C   UNL     1      -4.423  -2.281   2.880  1.00  0.00     0.010 A 
ATOM     95  C   UNL     1      -6.207  -2.656   4.465  1.00  0.00     0.010 A 
ATOM     96  C   UNL     1      -4.998  -3.219   2.007  1.00  0.00     0.020 A 
ATOM     97  C   UNL     1      -6.778  -3.602   3.606  1.00  0.00     0.020 A 
ATOM     98  C   UNL     1      -6.171  -3.881   2.381  1.00  0.00     0.054 A 
BRANCH  98  99
ATOM     99  S   UNL     1      -6.853  -5.171   1.297  1.00  0.00     0.124 S 
ATOM    100  O   UNL     1      -7.386  -4.401   0.177  1.00  0.00    -0.237 OA
ATOM    101  O   UNL     1      -5.685  -5.996   0.990  1.00  0.00    -0.237 OA
ATOM    102  O   UNL     1      -7.859  -5.830   2.129  1.00  0.00    -0.744 OA
ENDBRANCH  98  99
ENDBRANCH  72  93
ENDBRANCH  46  47
ENDBRANCH  39  41
ENDBRANCH  38  39
ENDBRANCH  37  38
ENDBRANCH  36  37
ENDBRANCH  35  36
ENDBRANCH   1  35
TORSDOF 22
