REMARK SMILES CCN(CC(C)(C)O)C(=O)Nc1ccc(C(=O)OCCOC(=O)c2ccc(-c3c4nc(c(-c5ccc(S(=O)(=O)[O-])cc5)c5ccc([nH]5)c(-c5ccc(S(=O)(=O)[O-])cc5)c5nc(c(-c6ccc(S(=O)(=O)[O-])cc6)c6ccc3[nH]6)C=C5)C=C4)cc2)c(O)c1
REMARK SMILES IDX 19 1 18 2 16 3 17 4 15 5 12 6 13 7 86 8 14 9 84 10 11 11
REMARK SMILES IDX 9 12 10 13 3 15 2 16 1 17 4 18 5 19 6 20 7 21 8 22 85 24
REMARK SMILES IDX 20 26 21 27 22 28 23 29 24 30 25 31 83 32 26 33 82 34 27 35
REMARK SMILES IDX 28 36 29 37 76 38 30 39 81 40 75 41 77 42 31 43 80 44 74 45
REMARK SMILES IDX 73 46 32 48 62 49 43 50 61 51 44 52 47 53 60 54 78 55 45 56
REMARK SMILES IDX 46 57 59 59 79 60 48 61 33 62 34 63 42 64 35 65 41 66 36 67
REMARK SMILES IDX 37 68 38 69 39 70 40 71 63 72 64 73 72 74 65 75 71 76 66 77
REMARK SMILES IDX 67 78 68 79 69 80 70 81 49 82 50 83 58 84 51 85 57 86 52 87
REMARK SMILES IDX 53 88 54 89 55 90 56 91
REMARK H PARENT 11 14 8 23 85 25 77 47 47 58
REMARK Flexibility Score: inf
ROOT
ATOM      1  C   UNL     1      -1.523  -0.065  10.503  1.00  0.00     0.275 C 
ENDROOT
BRANCH   1   2
ATOM      2  O   UNL     1      -0.451   0.083   9.550  1.00  0.00    -0.458 OA
BRANCH   2   3
ATOM      3  C   UNL     1       0.070  -1.076   9.073  1.00  0.00     0.342 C 
ATOM      4  O   UNL     1      -0.182  -2.199   9.481  1.00  0.00    -0.246 OA
BRANCH   3   5
ATOM      5  C   UNL     1       0.899  -0.815   7.871  1.00  0.00     0.101 A 
ATOM      6  C   UNL     1       2.164  -0.444   5.370  1.00  0.00     0.046 A 
ATOM      7  C   UNL     1       1.681  -1.689   5.744  1.00  0.00     0.027 A 
ATOM      8  C   UNL     1       2.154   0.578   6.330  1.00  0.00     0.073 A 
ATOM      9  C   UNL     1       1.042  -1.876   6.974  1.00  0.00     0.022 A 
ATOM     10  C   UNL     1       1.509   0.403   7.561  1.00  0.00     0.132 A 
BRANCH   6  11
ATOM     11  N   UNL     1       2.754  -0.162   4.131  1.00  0.00    -0.308 N 
ATOM     12  C   UNL     1       2.705  -0.578   2.844  1.00  0.00     0.321 C 
ATOM     13  O   UNL     1       3.706  -0.269   2.180  1.00  0.00    -0.248 OA
ATOM     14  H   UNL     1       3.410   0.566   4.227  1.00  0.00     0.171 HD
BRANCH  12  15
ATOM     15  N   UNL     1       1.609  -1.134   2.233  1.00  0.00    -0.322 N 
BRANCH  15  16
ATOM     16  C   UNL     1       1.647  -1.232   0.763  1.00  0.00     0.118 C 
ATOM     17  C   UNL     1       1.528   0.122   0.073  1.00  0.00     0.027 C 
ENDBRANCH  15  16
BRANCH  15  18
ATOM     18  C   UNL     1       0.350  -1.601   2.823  1.00  0.00     0.155 C 
BRANCH  18  19
ATOM     19  C   UNL     1       0.190  -3.160   2.802  1.00  0.00     0.077 C 
ATOM     20  C   UNL     1       1.513  -3.943   2.849  1.00  0.00     0.043 C 
ATOM     21  C   UNL     1      -0.764  -3.583   3.916  1.00  0.00     0.043 C 
BRANCH  19  22
ATOM     22  O   UNL     1      -0.456  -3.545   1.575  1.00  0.00    -0.389 OA
ATOM     23  H   UNL     1       0.106  -3.301   0.823  1.00  0.00     0.211 HD
ENDBRANCH  19  22
ENDBRANCH  18  19
ENDBRANCH  15  18
ENDBRANCH  12  15
ENDBRANCH   6  11
BRANCH  10  24
ATOM     24  O   UNL     1       1.523   1.482   8.403  1.00  0.00    -0.507 OA
ATOM     25  H   UNL     1       1.108   1.426   9.242  1.00  0.00     0.293 HD
ENDBRANCH  10  24
ENDBRANCH   3   5
ENDBRANCH   2   3
ENDBRANCH   1   2
BRANCH   1  26
ATOM     26  C   UNL     1      -2.885   0.157   9.838  1.00  0.00     0.275 C 
BRANCH  26  27
ATOM     27  O   UNL     1      -3.291  -0.964   9.028  1.00  0.00    -0.458 OA
BRANCH  27  28
ATOM     28  C   UNL     1      -3.055  -0.837   7.702  1.00  0.00     0.338 C 
ATOM     29  O   UNL     1      -2.457   0.067   7.144  1.00  0.00    -0.246 OA
BRANCH  28  30
ATOM     30  C   UNL     1      -3.631  -1.979   6.974  1.00  0.00     0.060 A 
ATOM     31  C   UNL     1      -2.836  -3.095   6.733  1.00  0.00     0.016 A 
ATOM     32  C   UNL     1      -4.899  -1.884   6.397  1.00  0.00     0.016 A 
ATOM     33  C   UNL     1      -3.288  -4.084   5.851  1.00  0.00     0.010 A 
ATOM     34  C   UNL     1      -5.362  -2.908   5.555  1.00  0.00     0.010 A 
ATOM     35  C   UNL     1      -4.547  -4.007   5.229  1.00  0.00    -0.014 A 
BRANCH  35  36
ATOM     36  C   UNL     1      -4.990  -5.024   4.215  1.00  0.00     0.031 A 
ATOM     37  C   UNL     1      -5.478  -4.589   2.845  1.00  0.00     0.074 A 
ATOM     38  C   UNL     1      -4.952  -6.348   4.481  1.00  0.00     0.049 A 
ATOM     39  N   UNL     1      -6.142  -5.274   1.946  1.00  0.00    -0.248 NA
ATOM     40  C   UNL     1      -5.182  -3.206   2.436  1.00  0.00     0.031 C 
ATOM     41  C   UNL     1      -4.441  -6.960   5.710  1.00  0.00     0.029 A 
ATOM     42  N   UNL     1      -5.356  -7.428   3.726  1.00  0.00    -0.354 N 
ATOM     43  C   UNL     1      -6.398  -4.392   0.897  1.00  0.00     0.074 A 
ATOM     44  C   UNL     1      -5.809  -3.123   1.268  1.00  0.00     0.031 C 
ATOM     45  C   UNL     1      -4.528  -8.294   5.611  1.00  0.00     0.029 A 
ATOM     46  C   UNL     1      -5.210  -8.637   4.369  1.00  0.00     0.049 A 
ATOM     47  H   UNL     1      -5.715  -7.343   2.813  1.00  0.00     0.167 HD
ATOM     48  C   UNL     1      -7.064  -4.614  -0.264  1.00  0.00     0.031 A 
ATOM     49  C   UNL     1      -5.633  -9.877   4.048  1.00  0.00     0.031 A 
ATOM     50  C   UNL     1      -7.606  -5.889  -0.663  1.00  0.00     0.049 A 
ATOM     51  C   UNL     1      -6.429 -10.092   2.791  1.00  0.00     0.074 A 
ATOM     52  C   UNL     1      -8.329  -6.199  -1.805  1.00  0.00     0.029 A 
ATOM     53  N   UNL     1      -7.456  -7.071   0.043  1.00  0.00    -0.354 N 
ATOM     54  N   UNL     1      -6.768  -9.219   1.874  1.00  0.00    -0.248 NA
ATOM     55  C   UNL     1      -6.920 -11.455   2.537  1.00  0.00     0.031 C 
ATOM     56  C   UNL     1      -8.640  -7.561  -1.775  1.00  0.00     0.029 A 
ATOM     57  C   UNL     1      -8.067  -8.110  -0.640  1.00  0.00     0.049 A 
ATOM     58  H   UNL     1      -6.985  -7.160   0.902  1.00  0.00     0.167 HD
ATOM     59  C   UNL     1      -7.494  -9.933   0.926  1.00  0.00     0.074 A 
ATOM     60  C   UNL     1      -7.534 -11.309   1.371  1.00  0.00     0.031 C 
ATOM     61  C   UNL     1      -8.080  -9.482  -0.208  1.00  0.00     0.031 A 
BRANCH  48  62
ATOM     62  C   UNL     1      -7.286  -3.449  -1.196  1.00  0.00    -0.014 A 
ATOM     63  C   UNL     1      -6.249  -2.941  -1.997  1.00  0.00     0.010 A 
ATOM     64  C   UNL     1      -8.584  -2.921  -1.344  1.00  0.00     0.010 A 
ATOM     65  C   UNL     1      -6.501  -1.913  -2.913  1.00  0.00     0.020 A 
ATOM     66  C   UNL     1      -8.845  -1.911  -2.275  1.00  0.00     0.020 A 
ATOM     67  C   UNL     1      -7.798  -1.405  -3.046  1.00  0.00     0.054 A 
BRANCH  67  68
ATOM     68  S   UNL     1      -8.107  -0.104  -4.275  1.00  0.00     0.124 S 
ATOM     69  O   UNL     1      -7.497   1.061  -3.639  1.00  0.00    -0.237 OA
ATOM     70  O   UNL     1      -7.415  -0.608  -5.458  1.00  0.00    -0.237 OA
ATOM     71  O   UNL     1      -9.563  -0.064  -4.379  1.00  0.00    -0.744 OA
ENDBRANCH  67  68
ENDBRANCH  48  62
BRANCH  49  72
ATOM     72  C   UNL     1      -5.399 -11.007   4.992  1.00  0.00    -0.014 A 
ATOM     73  C   UNL     1      -4.545 -12.069   4.652  1.00  0.00     0.010 A 
ATOM     74  C   UNL     1      -6.050 -11.026   6.240  1.00  0.00     0.010 A 
ATOM     75  C   UNL     1      -4.360 -13.138   5.535  1.00  0.00     0.020 A 
ATOM     76  C   UNL     1      -5.840 -12.073   7.139  1.00  0.00     0.020 A 
ATOM     77  C   UNL     1      -5.010 -13.133   6.773  1.00  0.00     0.054 A 
BRANCH  77  78
ATOM     78  S   UNL     1      -4.731 -14.505   7.926  1.00  0.00     0.124 S 
ATOM     79  O   UNL     1      -5.600 -15.540   7.377  1.00  0.00    -0.237 OA
ATOM     80  O   UNL     1      -3.296 -14.746   7.794  1.00  0.00    -0.237 OA
ATOM     81  O   UNL     1      -5.145 -13.954   9.214  1.00  0.00    -0.744 OA
ENDBRANCH  77  78
ENDBRANCH  49  72
BRANCH  61  82
ATOM     82  C   UNL     1      -8.762 -10.489  -1.093  1.00  0.00    -0.014 A 
ATOM     83  C   UNL     1     -10.022 -11.017  -0.765  1.00  0.00     0.010 A 
ATOM     84  C   UNL     1      -8.159 -10.856  -2.311  1.00  0.00     0.010 A 
ATOM     85  C   UNL     1     -10.663 -11.905  -1.634  1.00  0.00     0.020 A 
ATOM     86  C   UNL     1      -8.805 -11.727  -3.191  1.00  0.00     0.020 A 
ATOM     87  C   UNL     1     -10.051 -12.253  -2.843  1.00  0.00     0.054 A 
BRANCH  87  88
ATOM     88  S   UNL     1     -10.932 -13.354  -3.985  1.00  0.00     0.124 S 
ATOM     89  O   UNL     1     -10.784 -14.652  -3.332  1.00  0.00    -0.237 OA
ATOM     90  O   UNL     1     -12.285 -12.802  -3.984  1.00  0.00    -0.237 OA
ATOM     91  O   UNL     1     -10.205 -13.203  -5.243  1.00  0.00    -0.744 OA
ENDBRANCH  87  88
ENDBRANCH  61  82
ENDBRANCH  35  36
ENDBRANCH  28  30
ENDBRANCH  27  28
ENDBRANCH  26  27
ENDBRANCH   1  26
TORSDOF 21
