REMARK SMILES O=C(CSc1nc(-c2cccc(Br)c2)c[nH]1)OCCOC(=O)c1ccc(-c2c3nc(c(-c4ccc(S(=O)(=O)[O-])cc4)c4ccc([nH]4)c(-c4ccc(S(=O)(=O)[O-])cc4)c4nc(c(-c5ccc(S(=O)(=O)[O-])cc5)c5ccc2[nH]5)C=C4)C=C3)cc1
REMARK SMILES IDX 18 1 17 2 2 3 1 4 3 5 4 6 5 7 6 8 16 9 7 10 15 11 8 13 9 14
REMARK SMILES IDX 14 15 10 16 12 17 11 18 13 19 19 20 20 21 21 22 22 23 23 24
REMARK SMILES IDX 24 25 82 26 25 27 81 28 26 29 27 30 28 31 75 32 29 33 80 34
REMARK SMILES IDX 74 35 76 36 30 37 79 38 73 39 72 40 31 42 61 43 42 44 60 45
REMARK SMILES IDX 43 46 46 47 59 48 77 49 44 50 45 51 58 53 78 54 47 55 32 56
REMARK SMILES IDX 33 57 41 58 34 59 40 60 35 61 36 62 37 63 38 64 39 65 62 66
REMARK SMILES IDX 63 67 71 68 64 69 70 70 65 71 66 72 67 73 68 74 69 75 48 76
REMARK SMILES IDX 49 77 57 78 50 79 56 80 51 81 52 82 53 83 54 84 55 85
REMARK H PARENT 16 12 76 41 46 52
REMARK Flexibility Score: inf
ROOT
ATOM      1  C   UNL     1       4.596  -0.425  -0.794  1.00  0.00     0.274 C 
ENDROOT
BRANCH   1   2
ATOM      2  O   UNL     1       3.271  -0.851  -0.408  1.00  0.00    -0.461 OA
BRANCH   2   3
ATOM      3  C   UNL     1       2.623  -0.480   0.726  1.00  0.00     0.316 C 
ATOM      4  O   UNL     1       1.453  -0.821   0.890  1.00  0.00    -0.251 OA
BRANCH   3   5
ATOM      5  C   UNL     1       3.380   0.296   1.781  1.00  0.00     0.200 C 
BRANCH   5   6
ATOM      6  S   UNL     1       4.433  -0.822   2.746  1.00  0.00    -0.076 SA
BRANCH   6   7
ATOM      7  C   UNL     1       3.225  -1.562   3.716  1.00  0.00     0.166 A 
ATOM      8  N   UNL     1       2.341  -0.960   4.467  1.00  0.00    -0.223 NA
ATOM      9  N   UNL     1       3.115  -2.918   3.764  1.00  0.00    -0.339 N 
ATOM     10  C   UNL     1       1.658  -1.983   5.077  1.00  0.00     0.089 A 
ATOM     11  C   UNL     1       2.109  -3.211   4.640  1.00  0.00     0.113 A 
ATOM     12  H   UNL     1       3.660  -3.567   3.262  1.00  0.00     0.168 HD
BRANCH  10  13
ATOM     13  C   UNL     1       0.639  -1.788   6.079  1.00  0.00     0.003 A 
ATOM     14  C   UNL     1      -0.556  -1.136   5.761  1.00  0.00     0.010 A 
ATOM     15  C   UNL     1       0.857  -2.246   7.383  1.00  0.00     0.026 A 
ATOM     16  C   UNL     1      -1.536  -0.956   6.742  1.00  0.00     0.002 A 
ATOM     17  C   UNL     1      -0.121  -2.058   8.356  1.00  0.00     0.018 A 
ATOM     18  C   UNL     1      -1.318  -1.416   8.042  1.00  0.00     0.016 A 
ATOM     19  Br  UNL     1       0.181  -2.690  10.112  1.00  0.00    -0.051 Br
ENDBRANCH  10  13
ENDBRANCH   6   7
ENDBRANCH   5   6
ENDBRANCH   3   5
ENDBRANCH   2   3
ENDBRANCH   1   2
BRANCH   1  20
ATOM     20  C   UNL     1       4.542   0.791  -1.718  1.00  0.00     0.275 C 
BRANCH  20  21
ATOM     21  O   UNL     1       4.019   1.926  -1.006  1.00  0.00    -0.458 OA
BRANCH  21  22
ATOM     22  C   UNL     1       2.703   2.188  -1.218  1.00  0.00     0.338 C 
ATOM     23  O   UNL     1       1.979   1.637  -2.029  1.00  0.00    -0.246 OA
BRANCH  22  24
ATOM     24  C   UNL     1       2.215   3.132  -0.187  1.00  0.00     0.060 A 
ATOM     25  C   UNL     1       0.916   2.950   0.299  1.00  0.00     0.016 A 
ATOM     26  C   UNL     1       3.009   4.174   0.307  1.00  0.00     0.016 A 
ATOM     27  C   UNL     1       0.395   3.832   1.247  1.00  0.00     0.010 A 
ATOM     28  C   UNL     1       2.486   5.053   1.264  1.00  0.00     0.010 A 
ATOM     29  C   UNL     1       1.166   4.904   1.718  1.00  0.00    -0.014 A 
BRANCH  29  30
ATOM     30  C   UNL     1       0.544   5.911   2.616  1.00  0.00     0.031 A 
ATOM     31  C   UNL     1       0.073   7.223   2.048  1.00  0.00     0.074 A 
ATOM     32  C   UNL     1       0.354   5.639   3.920  1.00  0.00     0.049 A 
ATOM     33  N   UNL     1      -0.583   8.191   2.638  1.00  0.00    -0.248 NA
ATOM     34  C   UNL     1       0.376   7.479   0.631  1.00  0.00     0.031 C 
ATOM     35  C   UNL     1       0.764   4.409   4.599  1.00  0.00     0.029 A 
ATOM     36  N   UNL     1      -0.244   6.384   4.907  1.00  0.00    -0.354 N 
ATOM     37  C   UNL     1      -0.793   9.157   1.662  1.00  0.00     0.074 A 
ATOM     38  C   UNL     1      -0.147   8.684   0.456  1.00  0.00     0.031 C 
ATOM     39  C   UNL     1       0.402   4.484   5.892  1.00  0.00     0.029 A 
ATOM     40  C   UNL     1      -0.256   5.766   6.134  1.00  0.00     0.049 A 
ATOM     41  H   UNL     1      -0.628   7.277   4.749  1.00  0.00     0.167 HD
ATOM     42  C   UNL     1      -1.480  10.321   1.750  1.00  0.00     0.031 A 
ATOM     43  C   UNL     1      -0.745   6.184   7.319  1.00  0.00     0.031 A 
ATOM     44  C   UNL     1      -2.102  10.812   2.952  1.00  0.00     0.049 A 
ATOM     45  C   UNL     1      -1.460   7.508   7.404  1.00  0.00     0.074 A 
ATOM     46  C   UNL     1      -2.826  11.978   3.133  1.00  0.00     0.029 A 
ATOM     47  N   UNL     1      -2.068  10.170   4.180  1.00  0.00    -0.354 N 
ATOM     48  N   UNL     1      -1.699   8.382   6.455  1.00  0.00    -0.248 NA
ATOM     49  C   UNL     1      -1.992   7.890   8.721  1.00  0.00     0.031 C 
ATOM     50  C   UNL     1      -3.190  12.064   4.481  1.00  0.00     0.029 A 
ATOM     51  C   UNL     1      -2.739  10.925   5.128  1.00  0.00     0.049 A 
ATOM     52  H   UNL     1      -1.631   9.305   4.353  1.00  0.00     0.167 HD
ATOM     53  C   UNL     1      -2.429   9.404   7.056  1.00  0.00     0.074 A 
ATOM     54  C   UNL     1      -2.611   9.028   8.442  1.00  0.00     0.031 C 
ATOM     55  C   UNL     1      -2.905  10.550   6.509  1.00  0.00     0.031 A 
BRANCH  42  56
ATOM     56  C   UNL     1      -1.596  11.151   0.499  1.00  0.00    -0.014 A 
ATOM     57  C   UNL     1      -2.436  10.746  -0.554  1.00  0.00     0.010 A 
ATOM     58  C   UNL     1      -0.900  12.368   0.393  1.00  0.00     0.010 A 
ATOM     59  C   UNL     1      -2.553  11.528  -1.706  1.00  0.00     0.020 A 
ATOM     60  C   UNL     1      -1.034  13.165  -0.747  1.00  0.00     0.020 A 
ATOM     61  C   UNL     1      -1.849  12.733  -1.796  1.00  0.00     0.054 A 
BRANCH  61  62
ATOM     62  S   UNL     1      -2.043  13.743  -3.290  1.00  0.00     0.124 S 
ATOM     63  O   UNL     1      -1.279  12.977  -4.272  1.00  0.00    -0.237 OA
ATOM     64  O   UNL     1      -3.490  13.750  -3.487  1.00  0.00    -0.237 OA
ATOM     65  O   UNL     1      -1.462  15.030  -2.916  1.00  0.00    -0.744 OA
ENDBRANCH  61  62
ENDBRANCH  42  56
BRANCH  43  66
ATOM     66  C   UNL     1      -0.578   5.340   8.533  1.00  0.00    -0.014 A 
ATOM     67  C   UNL     1      -1.681   4.706   9.130  1.00  0.00     0.010 A 
ATOM     68  C   UNL     1       0.694   5.192   9.116  1.00  0.00     0.010 A 
ATOM     69  C   UNL     1      -1.522   3.967  10.306  1.00  0.00     0.020 A 
ATOM     70  C   UNL     1       0.862   4.432  10.276  1.00  0.00     0.020 A 
ATOM     71  C   UNL     1      -0.251   3.839  10.874  1.00  0.00     0.054 A 
BRANCH  71  72
ATOM     72  S   UNL     1      -0.061   2.860  12.390  1.00  0.00     0.124 S 
ATOM     73  O   UNL     1      -0.584   3.771  13.404  1.00  0.00    -0.237 OA
ATOM     74  O   UNL     1      -0.882   1.684  12.114  1.00  0.00    -0.237 OA
ATOM     75  O   UNL     1       1.377   2.609  12.456  1.00  0.00    -0.744 OA
ENDBRANCH  71  72
ENDBRANCH  43  66
BRANCH  55  76
ATOM     76  C   UNL     1      -3.688  11.471   7.409  1.00  0.00    -0.014 A 
ATOM     77  C   UNL     1      -3.055  12.208   8.426  1.00  0.00     0.010 A 
ATOM     78  C   UNL     1      -5.075  11.616   7.222  1.00  0.00     0.010 A 
ATOM     79  C   UNL     1      -3.802  13.032   9.273  1.00  0.00     0.020 A 
ATOM     80  C   UNL     1      -5.821  12.462   8.049  1.00  0.00     0.020 A 
ATOM     81  C   UNL     1      -5.182  13.148   9.084  1.00  0.00     0.054 A 
BRANCH  81  82
ATOM     82  S   UNL     1      -6.131  14.230  10.189  1.00  0.00     0.124 S 
ATOM     83  O   UNL     1      -6.223  13.421  11.401  1.00  0.00    -0.237 OA
ATOM     84  O   UNL     1      -5.284  15.416  10.287  1.00  0.00    -0.237 OA
ATOM     85  O   UNL     1      -7.391  14.431   9.477  1.00  0.00    -0.744 OA
ENDBRANCH  81  82
ENDBRANCH  55  76
ENDBRANCH  29  30
ENDBRANCH  22  24
ENDBRANCH  21  22
ENDBRANCH  20  21
ENDBRANCH   1  20
TORSDOF 17
