REMARK SMILES O=C(OCCOC(=O)c1ccc(-c2c3nc(c(-c4ccc(S(=O)(=O)[O-])cc4)c4ccc([nH]4)c(-c4ccc(S(=O)(=O)[O-])cc4)c4nc(c(-c5ccc(S(=O)(=O)[O-])cc5)c5ccc2[nH]5)C=C4)C=C3)cc1)C1=Cc2c(Cl)cc(Cl)cc2O[C@@H]1C(F)(F)F
REMARK SMILES IDX 5 1 4 2 3 3 2 4 1 5 69 6 70 7 80 8 71 9 79 10 72 11 78 12
REMARK SMILES IDX 73 13 74 14 77 15 75 16 76 17 81 18 82 19 83 20 84 21 6 22
REMARK SMILES IDX 7 23 8 24 9 25 10 26 68 27 11 28 67 29 12 30 13 31 14 32
REMARK SMILES IDX 61 33 15 34 66 35 60 36 62 37 16 38 65 39 59 40 58 41 17 43
REMARK SMILES IDX 47 44 28 45 46 46 29 47 32 48 45 49 63 50 30 51 31 52 44 54
REMARK SMILES IDX 64 55 33 56 18 57 19 58 27 59 20 60 26 61 21 62 22 63 23 64
REMARK SMILES IDX 24 65 25 66 48 67 49 68 57 69 50 70 56 71 51 72 52 73 53 74
REMARK SMILES IDX 54 75 55 76 34 77 35 78 43 79 36 80 42 81 37 82 38 83 39 84
REMARK SMILES IDX 40 85 41 86
REMARK H PARENT 62 42 32 53
REMARK Flexibility Score: inf
ROOT
ATOM      1  C   UNL     1       4.850   0.453  -0.834  1.00  0.00     0.275 C 
ENDROOT
BRANCH   1   2
ATOM      2  C   UNL     1       4.015   0.064   1.128  1.00  0.00     0.275 C 
BRANCH   2   3
ATOM      3  O   UNL     1       3.095   0.992   1.950  1.00  0.00    -0.459 OA
BRANCH   3   4
ATOM      4  C   UNL     1       3.323   2.290   1.714  1.00  0.00     0.338 C 
ATOM      5  O   UNL     1       2.698   3.252   2.079  1.00  0.00    -0.246 OA
BRANCH   4   6
ATOM      6  C   UNL     1       4.208   2.067   0.591  1.00  0.00     0.087 C 
ATOM      7  C   UNL     1       5.559   1.721   0.970  1.00  0.00     0.029 C 
ATOM      8  C   UNL     1       2.987   0.952  -0.371  1.00  0.00     0.316 C 
ATOM      9  C   UNL     1       6.243   0.073   0.806  1.00  0.00     0.036 A 
ATOM     10  O   UNL     1       3.643  -0.876  -0.468  1.00  0.00    -0.475 OA
ATOM     11  C   UNL     1       7.484  -0.194   1.323  1.00  0.00     0.053 A 
ATOM     12  C   UNL     1       5.296  -1.268   0.237  1.00  0.00     0.130 A 
ATOM     13  Cl  UNL     1       8.545   1.017   1.911  1.00  0.00    -0.083 Cl
ATOM     14  C   UNL     1       7.836  -1.548   1.379  1.00  0.00     0.042 A 
ATOM     15  C   UNL     1       5.714  -2.567   0.320  1.00  0.00     0.067 A 
ATOM     16  C   UNL     1       6.997  -2.656   0.925  1.00  0.00     0.046 A 
ATOM     17  Cl  UNL     1       7.664  -4.236   1.203  1.00  0.00    -0.084 Cl
BRANCH   8  18
ATOM     18  C   UNL     1       2.846   2.203  -1.384  1.00  0.00     0.430 C 
ATOM     19  F   UNL     1       2.018   2.047  -2.381  1.00  0.00    -0.167 F 
ATOM     20  F   UNL     1       2.298   3.246  -0.694  1.00  0.00    -0.167 F 
ATOM     21  F   UNL     1       4.001   2.699  -1.894  1.00  0.00    -0.167 F 
ENDBRANCH   8  18
ENDBRANCH   4   6
ENDBRANCH   3   4
ENDBRANCH   2   3
ENDBRANCH   1   2
BRANCH   1  22
ATOM     22  O   UNL     1       3.934   0.257  -2.335  1.00  0.00    -0.458 OA
BRANCH  22  23
ATOM     23  C   UNL     1       3.024  -0.623  -2.925  1.00  0.00     0.338 C 
ATOM     24  O   UNL     1       2.681  -1.733  -2.558  1.00  0.00    -0.246 OA
BRANCH  23  25
ATOM     25  C   UNL     1       2.244   0.139  -3.966  1.00  0.00     0.060 A 
ATOM     26  C   UNL     1       0.911   0.541  -3.694  1.00  0.00     0.016 A 
ATOM     27  C   UNL     1       2.970   0.801  -4.951  1.00  0.00     0.016 A 
ATOM     28  C   UNL     1       0.455   1.798  -4.176  1.00  0.00     0.010 A 
ATOM     29  C   UNL     1       2.503   2.025  -5.439  1.00  0.00     0.010 A 
ATOM     30  C   UNL     1       1.306   2.598  -4.965  1.00  0.00    -0.014 A 
BRANCH  30  31
ATOM     31  C   UNL     1       0.938   3.959  -5.470  1.00  0.00     0.031 A 
ATOM     32  C   UNL     1       0.284   3.978  -6.817  1.00  0.00     0.074 A 
ATOM     33  C   UNL     1       1.289   5.132  -4.885  1.00  0.00     0.049 A 
ATOM     34  N   UNL     1       0.047   4.983  -7.613  1.00  0.00    -0.248 NA
ATOM     35  C   UNL     1      -0.112   2.664  -7.352  1.00  0.00     0.031 C 
ATOM     36  C   UNL     1       1.929   5.293  -3.579  1.00  0.00     0.029 A 
ATOM     37  N   UNL     1       1.175   6.437  -5.338  1.00  0.00    -0.354 N 
ATOM     38  C   UNL     1      -0.494   4.417  -8.756  1.00  0.00     0.074 A 
ATOM     39  C   UNL     1      -0.519   2.985  -8.566  1.00  0.00     0.031 C 
ATOM     40  C   UNL     1       2.162   6.602  -3.345  1.00  0.00     0.029 A 
ATOM     41  C   UNL     1       1.724   7.390  -4.496  1.00  0.00     0.049 A 
ATOM     42  H   UNL     1       0.739   6.668  -6.190  1.00  0.00     0.167 HD
ATOM     43  C   UNL     1      -0.940   5.029  -9.872  1.00  0.00     0.031 A 
ATOM     44  C   UNL     1       1.873   8.730  -4.645  1.00  0.00     0.031 A 
ATOM     45  C   UNL     1      -0.921   6.444 -10.079  1.00  0.00     0.049 A 
ATOM     46  C   UNL     1       1.398   9.385  -5.931  1.00  0.00     0.074 A 
ATOM     47  C   UNL     1      -1.399   7.152 -11.165  1.00  0.00     0.029 A 
ATOM     48  N   UNL     1      -0.388   7.365  -9.193  1.00  0.00    -0.354 N 
ATOM     49  N   UNL     1       0.797   8.839  -6.963  1.00  0.00    -0.248 NA
ATOM     50  C   UNL     1       1.623  10.835  -6.077  1.00  0.00     0.031 C 
ATOM     51  C   UNL     1      -1.099   8.501 -10.965  1.00  0.00     0.029 A 
ATOM     52  C   UNL     1      -0.494   8.636  -9.725  1.00  0.00     0.049 A 
ATOM     53  H   UNL     1       0.006   7.147  -8.318  1.00  0.00     0.167 HD
ATOM     54  C   UNL     1       0.549   9.880  -7.857  1.00  0.00     0.074 A 
ATOM     55  C   UNL     1       1.041  11.092  -7.241  1.00  0.00     0.031 C 
ATOM     56  C   UNL     1      -0.026   9.837  -9.084  1.00  0.00     0.031 A 
BRANCH  43  57
ATOM     57  C   UNL     1      -1.465   4.144 -10.961  1.00  0.00    -0.014 A 
ATOM     58  C   UNL     1      -2.688   3.466 -10.810  1.00  0.00     0.010 A 
ATOM     59  C   UNL     1      -0.728   3.996 -12.148  1.00  0.00     0.010 A 
ATOM     60  C   UNL     1      -3.154   2.632 -11.823  1.00  0.00     0.020 A 
ATOM     61  C   UNL     1      -1.208   3.187 -13.177  1.00  0.00     0.020 A 
ATOM     62  C   UNL     1      -2.414   2.504 -13.003  1.00  0.00     0.054 A 
BRANCH  62  63
ATOM     63  S   UNL     1      -3.082   1.465 -14.328  1.00  0.00     0.124 S 
ATOM     64  O   UNL     1      -2.909   0.124 -13.774  1.00  0.00    -0.237 OA
ATOM     65  O   UNL     1      -4.463   1.930 -14.428  1.00  0.00    -0.237 OA
ATOM     66  O   UNL     1      -2.235   1.779 -15.475  1.00  0.00    -0.744 OA
ENDBRANCH  62  63
ENDBRANCH  43  57
BRANCH  44  67
ATOM     67  C   UNL     1       2.532   9.590  -3.600  1.00  0.00    -0.014 A 
ATOM     68  C   UNL     1       1.817  10.623  -2.957  1.00  0.00     0.010 A 
ATOM     69  C   UNL     1       3.909   9.473  -3.332  1.00  0.00     0.010 A 
ATOM     70  C   UNL     1       2.467  11.542  -2.118  1.00  0.00     0.020 A 
ATOM     71  C   UNL     1       4.558  10.370  -2.467  1.00  0.00     0.020 A 
ATOM     72  C   UNL     1       3.838  11.414  -1.884  1.00  0.00     0.054 A 
BRANCH  72  73
ATOM     73  S   UNL     1       4.665  12.621  -0.803  1.00  0.00     0.124 S 
ATOM     74  O   UNL     1       4.678  13.820  -1.635  1.00  0.00    -0.237 OA
ATOM     75  O   UNL     1       3.780  12.667   0.358  1.00  0.00    -0.237 OA
ATOM     76  O   UNL     1       5.974  12.019  -0.555  1.00  0.00    -0.744 OA
ENDBRANCH  72  73
ENDBRANCH  44  67
BRANCH  56  77
ATOM     77  C   UNL     1      -0.201  11.127  -9.843  1.00  0.00    -0.014 A 
ATOM     78  C   UNL     1       0.896  11.779 -10.431  1.00  0.00     0.010 A 
ATOM     79  C   UNL     1      -1.499  11.618 -10.081  1.00  0.00     0.010 A 
ATOM     80  C   UNL     1       0.699  12.903 -11.239  1.00  0.00     0.020 A 
ATOM     81  C   UNL     1      -1.703  12.721 -10.912  1.00  0.00     0.020 A 
ATOM     82  C   UNL     1      -0.601  13.361 -11.483  1.00  0.00     0.054 A 
BRANCH  82  83
ATOM     83  S   UNL     1      -0.833  14.763 -12.609  1.00  0.00     0.124 S 
ATOM     84  O   UNL     1      -0.331  15.880 -11.813  1.00  0.00    -0.237 OA
ATOM     85  O   UNL     1      -0.013  14.390 -13.758  1.00  0.00    -0.237 OA
ATOM     86  O   UNL     1      -2.273  14.775 -12.857  1.00  0.00    -0.744 OA
ENDBRANCH  82  83
ENDBRANCH  56  77
ENDBRANCH  30  31
ENDBRANCH  23  25
ENDBRANCH  22  23
ENDBRANCH   1  22
TORSDOF 15
