REMARK SMILES COc1cccc([C@@H]2CC(c3cccc(C)c3)=NN2C(=O)CCC(=O)OCCOC(=O)c2ccc(-c3c4nc(c(-c5ccc(S(=O)(=O)[O-])cc5)c5ccc([nH]5)c(-c5ccc(S(=O)(=O)[O-])cc5)c5nc(c(-c6ccc(S(=O)(=O)[O-])cc6)c6ccc3[nH]6)C=C5)C=C4)cc2)c1
REMARK SMILES IDX 27 1 26 2 24 3 25 4 23 5 22 6 20 7 21 8 19 9 8 10 9 11 10 12
REMARK SMILES IDX 18 13 7 14 3 15 4 16 92 17 5 18 6 19 2 20 1 21 11 22 12 23
REMARK SMILES IDX 17 24 13 25 15 26 14 27 16 28 28 29 29 30 30 31 31 32 32 33
REMARK SMILES IDX 33 34 91 35 34 36 90 37 35 38 36 39 37 40 84 41 38 42 89 43
REMARK SMILES IDX 83 44 85 45 39 46 88 47 82 48 81 49 40 51 70 52 51 53 69 54
REMARK SMILES IDX 52 55 55 56 68 57 86 58 53 59 54 60 67 62 87 63 56 64 41 65
REMARK SMILES IDX 42 66 50 67 43 68 49 69 44 70 45 71 46 72 47 73 48 74 71 75
REMARK SMILES IDX 72 76 80 77 73 78 79 79 74 80 75 81 76 82 77 83 78 84 57 85
REMARK SMILES IDX 58 86 66 87 59 88 65 89 60 90 61 91 62 92 63 93 64 94
REMARK H PARENT 85 50 55 61
REMARK Flexibility Score: inf
ROOT
ATOM      1  C   UNL     1       1.498  -2.417   0.740  1.00  0.00     0.274 C 
ENDROOT
BRANCH   1   2
ATOM      2  O   UNL     1       2.393  -2.137   1.843  1.00  0.00    -0.462 OA
BRANCH   2   3
ATOM      3  C   UNL     1       1.805  -1.672   2.979  1.00  0.00     0.306 C 
ATOM      4  O   UNL     1       0.595  -1.549   3.128  1.00  0.00    -0.252 OA
BRANCH   3   5
ATOM      5  C   UNL     1       2.802  -1.227   4.026  1.00  0.00     0.132 C 
BRANCH   5   6
ATOM      6  C   UNL     1       3.810  -2.283   4.481  1.00  0.00     0.114 C 
BRANCH   6   7
ATOM      7  C   UNL     1       5.154  -2.036   3.821  1.00  0.00     0.243 C 
ATOM      8  O   UNL     1       5.755  -0.989   4.087  1.00  0.00    -0.273 OA
BRANCH   7   9
ATOM      9  N   UNL     1       5.592  -2.942   2.868  1.00  0.00    -0.225 N 
ATOM     10  C   UNL     1       5.007  -4.234   2.485  1.00  0.00     0.147 C 
ATOM     11  C   UNL     1       5.434  -4.418   1.031  1.00  0.00     0.091 C 
ATOM     12  C   UNL     1       6.366  -3.256   0.895  1.00  0.00     0.071 C 
ATOM     13  N   UNL     1       6.484  -2.479   1.922  1.00  0.00    -0.174 NA
BRANCH  10  14
ATOM     14  C   UNL     1       5.396  -5.397   3.385  1.00  0.00    -0.019 A 
ATOM     15  C   UNL     1       4.675  -7.230   4.852  1.00  0.00     0.119 A 
ATOM     16  C   UNL     1       5.984  -7.693   4.908  1.00  0.00     0.046 A 
ATOM     17  C   UNL     1       4.403  -6.075   4.120  1.00  0.00     0.052 A 
ATOM     18  C   UNL     1       6.998  -7.017   4.228  1.00  0.00     0.004 A 
ATOM     19  C   UNL     1       6.708  -5.877   3.471  1.00  0.00     0.006 A 
BRANCH  15  20
ATOM     20  O   UNL     1       3.752  -7.973   5.535  1.00  0.00    -0.497 OA
ATOM     21  C   UNL     1       2.381  -7.688   5.276  1.00  0.00     0.278 C 
ENDBRANCH  15  20
ENDBRANCH  10  14
BRANCH  12  22
ATOM     22  C   UNL     1       7.005  -2.971  -0.387  1.00  0.00    -0.002 A 
ATOM     23  C   UNL     1       8.370  -3.181  -0.550  1.00  0.00     0.010 A 
ATOM     24  C   UNL     1       6.223  -2.428  -1.412  1.00  0.00     0.013 A 
ATOM     25  C   UNL     1       8.958  -2.865  -1.773  1.00  0.00     0.001 A 
ATOM     26  C   UNL     1       6.813  -2.095  -2.634  1.00  0.00    -0.050 A 
ATOM     27  C   UNL     1       8.185  -2.327  -2.808  1.00  0.00     0.003 A 
ATOM     28  C   UNL     1       6.007  -1.470  -3.733  1.00  0.00     0.044 C 
ENDBRANCH  12  22
ENDBRANCH   7   9
ENDBRANCH   6   7
ENDBRANCH   5   6
ENDBRANCH   3   5
ENDBRANCH   2   3
ENDBRANCH   1   2
BRANCH   1  29
ATOM     29  C   UNL     1       1.086  -3.894   0.621  1.00  0.00     0.275 C 
BRANCH  29  30
ATOM     30  O   UNL     1       0.128  -4.314   1.615  1.00  0.00    -0.458 OA
BRANCH  30  31
ATOM     31  C   UNL     1       0.707  -4.668   2.778  1.00  0.00     0.338 C 
ATOM     32  O   UNL     1       1.901  -4.630   3.012  1.00  0.00    -0.246 OA
BRANCH  31  33
ATOM     33  C   UNL     1      -0.198  -5.117   3.829  1.00  0.00     0.060 A 
ATOM     34  C   UNL     1      -0.133  -4.448   5.057  1.00  0.00     0.016 A 
ATOM     35  C   UNL     1      -0.897  -6.316   3.693  1.00  0.00     0.016 A 
ATOM     36  C   UNL     1      -0.799  -4.966   6.160  1.00  0.00     0.010 A 
ATOM     37  C   UNL     1      -1.566  -6.835   4.801  1.00  0.00     0.010 A 
ATOM     38  C   UNL     1      -1.527  -6.157   6.033  1.00  0.00    -0.014 A 
BRANCH  38  39
ATOM     39  C   UNL     1      -2.410  -6.579   7.137  1.00  0.00     0.031 A 
ATOM     40  C   UNL     1      -1.976  -7.565   8.174  1.00  0.00     0.074 A 
ATOM     41  C   UNL     1      -3.631  -6.018   7.175  1.00  0.00     0.049 A 
ATOM     42  N   UNL     1      -2.665  -8.064   9.166  1.00  0.00    -0.248 NA
ATOM     43  C   UNL     1      -0.594  -8.054   8.091  1.00  0.00     0.031 C 
ATOM     44  C   UNL     1      -4.116  -5.006   6.230  1.00  0.00     0.029 A 
ATOM     45  N   UNL     1      -4.679  -6.208   8.031  1.00  0.00    -0.354 N 
ATOM     46  C   UNL     1      -1.806  -8.934   9.827  1.00  0.00     0.074 A 
ATOM     47  C   UNL     1      -0.546  -8.902   9.113  1.00  0.00     0.031 C 
ATOM     48  C   UNL     1      -5.369  -4.666   6.559  1.00  0.00     0.029 A 
ATOM     49  C   UNL     1      -5.782  -5.457   7.712  1.00  0.00     0.049 A 
ATOM     50  H   UNL     1      -4.645  -6.822   8.800  1.00  0.00     0.167 HD
ATOM     51  C   UNL     1      -2.057  -9.686  10.926  1.00  0.00     0.031 A 
ATOM     52  C   UNL     1      -7.001  -5.421   8.276  1.00  0.00     0.031 A 
ATOM     53  C   UNL     1      -3.326  -9.708  11.610  1.00  0.00     0.049 A 
ATOM     54  C   UNL     1      -7.264  -6.289   9.466  1.00  0.00     0.074 A 
ATOM     55  C   UNL     1      -3.696 -10.441  12.725  1.00  0.00     0.029 A 
ATOM     56  N   UNL     1      -4.434  -8.956  11.243  1.00  0.00    -0.354 N 
ATOM     57  N   UNL     1      -6.452  -7.131  10.059  1.00  0.00    -0.248 NA
ATOM     58  C   UNL     1      -8.598  -6.198  10.066  1.00  0.00     0.031 C 
ATOM     59  C   UNL     1      -5.037 -10.154  13.012  1.00  0.00     0.029 A 
ATOM     60  C   UNL     1      -5.491  -9.213  12.101  1.00  0.00     0.049 A 
ATOM     61  H   UNL     1      -4.465  -8.331  10.483  1.00  0.00     0.167 HD
ATOM     62  C   UNL     1      -7.174  -7.668  11.114  1.00  0.00     0.074 A 
ATOM     63  C   UNL     1      -8.484  -7.043  11.082  1.00  0.00     0.031 C 
ATOM     64  C   UNL     1      -6.790  -8.593  12.028  1.00  0.00     0.031 A 
BRANCH  51  65
ATOM     65  C   UNL     1      -0.949 -10.571  11.434  1.00  0.00    -0.014 A 
ATOM     66  C   UNL     1       0.152 -10.036  12.126  1.00  0.00     0.010 A 
ATOM     67  C   UNL     1      -1.028 -11.963  11.248  1.00  0.00     0.010 A 
ATOM     68  C   UNL     1       1.172 -10.874  12.592  1.00  0.00     0.020 A 
ATOM     69  C   UNL     1      -0.019 -12.806  11.728  1.00  0.00     0.020 A 
ATOM     70  C   UNL     1       1.084 -12.254  12.382  1.00  0.00     0.054 A 
BRANCH  70  71
ATOM     71  S   UNL     1       2.409 -13.326  13.005  1.00  0.00     0.124 S 
ATOM     72  O   UNL     1       3.444 -13.145  11.991  1.00  0.00    -0.237 OA
ATOM     73  O   UNL     1       2.706 -12.751  14.314  1.00  0.00    -0.237 OA
ATOM     74  O   UNL     1       1.794 -14.651  13.038  1.00  0.00    -0.744 OA
ENDBRANCH  70  71
ENDBRANCH  51  65
BRANCH  52  75
ATOM     75  C   UNL     1      -8.031  -4.522   7.700  1.00  0.00    -0.014 A 
ATOM     76  C   UNL     1      -8.337  -3.302   8.322  1.00  0.00     0.010 A 
ATOM     77  C   UNL     1      -8.621  -4.834   6.461  1.00  0.00     0.010 A 
ATOM     78  C   UNL     1      -9.208  -2.398   7.708  1.00  0.00     0.020 A 
ATOM     79  C   UNL     1      -9.476  -3.924   5.835  1.00  0.00     0.020 A 
ATOM     80  C   UNL     1      -9.765  -2.712   6.464  1.00  0.00     0.054 A 
BRANCH  80  81
ATOM     81  S   UNL     1     -10.799  -1.479   5.625  1.00  0.00     0.124 S 
ATOM     82  O   UNL     1     -12.086  -1.662   6.287  1.00  0.00    -0.237 OA
ATOM     83  O   UNL     1     -10.108  -0.226   5.919  1.00  0.00    -0.237 OA
ATOM     84  O   UNL     1     -10.748  -1.892   4.224  1.00  0.00    -0.744 OA
ENDBRANCH  80  81
ENDBRANCH  52  75
BRANCH  64  85
ATOM     85  C   UNL     1      -7.810  -8.966  13.064  1.00  0.00    -0.014 A 
ATOM     86  C   UNL     1      -8.875  -9.827  12.747  1.00  0.00     0.010 A 
ATOM     87  C   UNL     1      -7.701  -8.448  14.366  1.00  0.00     0.010 A 
ATOM     88  C   UNL     1      -9.842 -10.130  13.707  1.00  0.00     0.020 A 
ATOM     89  C   UNL     1      -8.657  -8.764  15.334  1.00  0.00     0.020 A 
ATOM     90  C   UNL     1      -9.732  -9.588  14.992  1.00  0.00     0.054 A 
BRANCH  90  91
ATOM     91  S   UNL     1     -10.994  -9.998  16.228  1.00  0.00     0.124 S 
ATOM     92  O   UNL     1     -12.079  -9.091  15.863  1.00  0.00    -0.237 OA
ATOM     93  O   UNL     1     -11.248 -11.415  15.977  1.00  0.00    -0.237 OA
ATOM     94  O   UNL     1     -10.336  -9.705  17.499  1.00  0.00    -0.744 OA
ENDBRANCH  90  91
ENDBRANCH  64  85
ENDBRANCH  38  39
ENDBRANCH  31  33
ENDBRANCH  30  31
ENDBRANCH  29  30
ENDBRANCH   1  29
TORSDOF 20
