REMARK SMILES Cc1c(NC(=S)NC(=O)CSc2ccc(Cl)cc2)cccc1C(=O)OCCOC(=O)c1ccc(-c2c3nc(c(-c4ccc(S(=O)(=O)[O-])cc4)c4ccc([nH]4)c(-c4ccc(S(=O)(=O)[O-])cc4)c4nc(c(-c5ccc(S(=O)(=O)[O-])cc5)c5ccc2[nH]5)C=C4)C=C3)cc1
REMARK SMILES IDX 25 1 23 2 24 3 22 4 1 5 2 6 3 7 19 8 21 9 20 10 4 11 5 13
REMARK SMILES IDX 6 14 7 15 8 16 9 18 10 19 11 20 12 21 13 22 18 23 14 24
REMARK SMILES IDX 17 25 15 26 16 27 26 28 27 29 28 30 29 31 30 32 31 33 32 34
REMARK SMILES IDX 90 35 33 36 89 37 34 38 35 39 36 40 83 41 37 42 88 43 82 44
REMARK SMILES IDX 84 45 38 46 87 47 81 48 80 49 39 51 69 52 50 53 68 54 51 55
REMARK SMILES IDX 54 56 67 57 85 58 52 59 53 60 66 62 86 63 55 64 40 65 41 66
REMARK SMILES IDX 49 67 42 68 48 69 43 70 44 71 45 72 46 73 47 74 70 75 71 76
REMARK SMILES IDX 79 77 72 78 78 79 73 80 74 81 75 82 76 83 77 84 56 85 57 86
REMARK SMILES IDX 65 87 58 88 64 89 59 90 60 91 61 92 62 93 63 94
REMARK H PARENT 4 12 7 17 84 50 54 61
REMARK Flexibility Score: inf
ROOT
ATOM      1  O   UNL     1       2.780   2.018  -2.145  1.00  0.00    -0.458 OA
ENDROOT
BRANCH   1   2
ATOM      2  C   UNL     1       2.489   1.303  -1.036  1.00  0.00     0.338 C 
ATOM      3  O   UNL     1       3.055   1.405   0.046  1.00  0.00    -0.246 OA
BRANCH   2   4
ATOM      4  C   UNL     1       1.491   0.252  -1.317  1.00  0.00     0.065 A 
ATOM      5  C   UNL     1       3.115  -1.476  -0.406  1.00  0.00     0.047 C 
ATOM      6  C   UNL     1       1.765  -1.081  -0.956  1.00  0.00    -0.013 A 
ATOM      7  C   UNL     1       0.734  -2.040  -1.095  1.00  0.00     0.044 A 
ATOM      8  C   UNL     1      -0.454  -1.703  -1.745  1.00  0.00     0.026 A 
ATOM      9  C   UNL     1       0.247   0.596  -1.859  1.00  0.00     0.016 A 
ATOM     10  C   UNL     1      -0.714  -0.381  -2.093  1.00  0.00     0.003 A 
BRANCH   7  11
ATOM     11  N   UNL     1       0.951  -3.321  -0.565  1.00  0.00    -0.332 N 
ATOM     12  H   UNL     1       1.900  -3.499  -0.373  1.00  0.00     0.169 HD
BRANCH  11  13
ATOM     13  C   UNL     1       0.160  -4.355  -0.262  1.00  0.00     0.177 C 
ATOM     14  S   UNL     1       0.895  -5.864  -0.166  1.00  0.00    -0.040 S 
BRANCH  13  15
ATOM     15  N   UNL     1      -1.179  -4.313   0.007  1.00  0.00    -0.302 N 
ATOM     16  C   UNL     1      -2.247  -3.502   0.363  1.00  0.00     0.236 C 
ATOM     17  H   UNL     1      -1.526  -5.229  -0.090  1.00  0.00     0.172 HD
ATOM     18  O   UNL     1      -3.365  -4.028   0.227  1.00  0.00    -0.274 OA
BRANCH  16  19
ATOM     19  C   UNL     1      -2.162  -2.073   0.856  1.00  0.00     0.175 C 
BRANCH  19  20
ATOM     20  S   UNL     1      -0.740  -1.698   1.913  1.00  0.00    -0.116 SA
BRANCH  20  21
ATOM     21  C   UNL     1      -1.586  -1.519   3.460  1.00  0.00     0.008 A 
ATOM     22  C   UNL     1      -1.921  -0.255   3.953  1.00  0.00     0.016 A 
ATOM     23  C   UNL     1      -1.944  -2.666   4.172  1.00  0.00     0.016 A 
ATOM     24  C   UNL     1      -2.636  -0.141   5.148  1.00  0.00     0.021 A 
ATOM     25  C   UNL     1      -2.658  -2.553   5.363  1.00  0.00     0.021 A 
ATOM     26  C   UNL     1      -3.008  -1.292   5.842  1.00  0.00     0.041 A 
ATOM     27  Cl  UNL     1      -3.924  -1.162   7.291  1.00  0.00    -0.084 Cl
ENDBRANCH  20  21
ENDBRANCH  19  20
ENDBRANCH  16  19
ENDBRANCH  13  15
ENDBRANCH  11  13
ENDBRANCH   7  11
ENDBRANCH   2   4
ENDBRANCH   1   2
BRANCH   1  28
ATOM     28  C   UNL     1       3.790   3.020  -1.953  1.00  0.00     0.275 C 
BRANCH  28  29
ATOM     29  C   UNL     1       3.530   4.255  -2.834  1.00  0.00     0.275 C 
BRANCH  29  30
ATOM     30  O   UNL     1       2.361   5.066  -2.572  1.00  0.00    -0.458 OA
BRANCH  30  31
ATOM     31  C   UNL     1       1.218   4.418  -2.206  1.00  0.00     0.338 C 
ATOM     32  O   UNL     1       0.560   3.737  -2.968  1.00  0.00    -0.246 OA
BRANCH  31  33
ATOM     33  C   UNL     1       1.153   4.405  -0.715  1.00  0.00     0.060 A 
ATOM     34  C   UNL     1       0.271   3.543  -0.043  1.00  0.00     0.016 A 
ATOM     35  C   UNL     1       2.225   4.989  -0.037  1.00  0.00     0.016 A 
ATOM     36  C   UNL     1       0.521   3.182   1.277  1.00  0.00     0.010 A 
ATOM     37  C   UNL     1       2.592   4.473   1.171  1.00  0.00     0.010 A 
ATOM     38  C   UNL     1       1.706   3.627   1.852  1.00  0.00    -0.014 A 
BRANCH  38  39
ATOM     39  C   UNL     1       1.986   3.603   3.274  1.00  0.00     0.031 A 
ATOM     40  C   UNL     1       2.575   2.422   3.923  1.00  0.00     0.074 A 
ATOM     41  C   UNL     1       1.832   4.853   3.776  1.00  0.00     0.049 A 
ATOM     42  N   UNL     1       2.741   2.339   5.190  1.00  0.00    -0.248 NA
ATOM     43  C   UNL     1       3.020   1.207   3.238  1.00  0.00     0.031 C 
ATOM     44  C   UNL     1       2.268   5.505   4.993  1.00  0.00     0.029 A 
ATOM     45  N   UNL     1       1.010   5.821   3.181  1.00  0.00    -0.354 N 
ATOM     46  C   UNL     1       3.563   1.260   5.454  1.00  0.00     0.074 A 
ATOM     47  C   UNL     1       3.636   0.529   4.219  1.00  0.00     0.031 C 
ATOM     48  C   UNL     1       1.470   6.576   5.209  1.00  0.00     0.029 A 
ATOM     49  C   UNL     1       0.421   6.565   4.185  1.00  0.00     0.049 A 
ATOM     50  H   UNL     1       0.876   5.949   2.214  1.00  0.00     0.167 HD
ATOM     51  C   UNL     1       4.182   1.235   6.667  1.00  0.00     0.031 A 
ATOM     52  C   UNL     1      -0.907   6.306   4.395  1.00  0.00     0.031 A 
ATOM     53  C   UNL     1       3.625   2.304   7.495  1.00  0.00     0.049 A 
ATOM     54  C   UNL     1      -1.039   5.549   5.697  1.00  0.00     0.074 A 
ATOM     55  C   UNL     1       4.037   3.608   7.707  1.00  0.00     0.029 A 
ATOM     56  N   UNL     1       2.275   2.247   7.822  1.00  0.00    -0.354 N 
ATOM     57  N   UNL     1      -0.213   4.623   6.120  1.00  0.00    -0.248 NA
ATOM     58  C   UNL     1      -2.013   5.958   6.700  1.00  0.00     0.031 C 
ATOM     59  C   UNL     1       2.873   4.367   8.021  1.00  0.00     0.029 A 
ATOM     60  C   UNL     1       1.771   3.523   7.994  1.00  0.00     0.049 A 
ATOM     61  H   UNL     1       1.754   1.417   7.917  1.00  0.00     0.167 HD
ATOM     62  C   UNL     1      -0.431   4.429   7.461  1.00  0.00     0.074 A 
ATOM     63  C   UNL     1      -1.594   5.253   7.762  1.00  0.00     0.031 C 
ATOM     64  C   UNL     1       0.364   3.709   8.308  1.00  0.00     0.031 A 
BRANCH  51  65
ATOM     65  C   UNL     1       5.433   0.476   7.049  1.00  0.00    -0.014 A 
ATOM     66  C   UNL     1       6.126   0.900   8.207  1.00  0.00     0.010 A 
ATOM     67  C   UNL     1       6.031  -0.568   6.317  1.00  0.00     0.010 A 
ATOM     68  C   UNL     1       7.360   0.362   8.590  1.00  0.00     0.020 A 
ATOM     69  C   UNL     1       7.271  -1.126   6.698  1.00  0.00     0.020 A 
ATOM     70  C   UNL     1       7.934  -0.647   7.827  1.00  0.00     0.054 A 
BRANCH  70  71
ATOM     71  S   UNL     1       9.545  -1.303   8.343  1.00  0.00     0.124 S 
ATOM     72  O   UNL     1      10.412  -0.132   8.229  1.00  0.00    -0.237 OA
ATOM     73  O   UNL     1       9.281  -1.756   9.706  1.00  0.00    -0.237 OA
ATOM     74  O   UNL     1       9.814  -2.366   7.378  1.00  0.00    -0.744 OA
ENDBRANCH  70  71
ENDBRANCH  51  65
BRANCH  52  75
ATOM     75  C   UNL     1      -1.718   6.100   3.131  1.00  0.00    -0.014 A 
ATOM     76  C   UNL     1      -1.634   7.105   2.130  1.00  0.00     0.010 A 
ATOM     77  C   UNL     1      -2.334   4.889   2.771  1.00  0.00     0.010 A 
ATOM     78  C   UNL     1      -2.027   6.872   0.804  1.00  0.00     0.020 A 
ATOM     79  C   UNL     1      -2.760   4.658   1.440  1.00  0.00     0.020 A 
ATOM     80  C   UNL     1      -2.571   5.639   0.459  1.00  0.00     0.054 A 
BRANCH  80  81
ATOM     81  S   UNL     1      -2.821   5.275  -1.314  1.00  0.00     0.124 S 
ATOM     82  O   UNL     1      -4.091   5.938  -1.593  1.00  0.00    -0.237 OA
ATOM     83  O   UNL     1      -1.645   5.892  -1.923  1.00  0.00    -0.237 OA
ATOM     84  O   UNL     1      -2.852   3.814  -1.359  1.00  0.00    -0.744 OA
ENDBRANCH  80  81
ENDBRANCH  52  75
BRANCH  64  85
ATOM     85  C   UNL     1      -0.123   3.170   9.626  1.00  0.00    -0.014 A 
ATOM     86  C   UNL     1      -1.483   2.997   9.917  1.00  0.00     0.010 A 
ATOM     87  C   UNL     1       0.811   2.654  10.556  1.00  0.00     0.010 A 
ATOM     88  C   UNL     1      -1.896   2.448  11.130  1.00  0.00     0.020 A 
ATOM     89  C   UNL     1       0.410   2.030  11.733  1.00  0.00     0.020 A 
ATOM     90  C   UNL     1      -0.945   1.976  12.033  1.00  0.00     0.054 A 
BRANCH  90  91
ATOM     91  S   UNL     1      -1.496   1.268  13.595  1.00  0.00     0.124 S 
ATOM     92  O   UNL     1      -1.690   2.467  14.407  1.00  0.00    -0.237 OA
ATOM     93  O   UNL     1      -2.719   0.561  13.219  1.00  0.00    -0.237 OA
ATOM     94  O   UNL     1      -0.385   0.410  13.996  1.00  0.00    -0.744 OA
ENDBRANCH  90  91
ENDBRANCH  64  85
ENDBRANCH  38  39
ENDBRANCH  31  33
ENDBRANCH  30  31
ENDBRANCH  29  30
ENDBRANCH  28  29
ENDBRANCH   1  28
TORSDOF 20
