REMARK SMILES CC(C)Cc1cc2c(cc1Cl)C=C(C(=O)OCCOC(=O)c1ccc(-c3c4nc(c(-c5ccc(S(=O)(=O)[O-])cc5)c5ccc([nH]5)c(-c5ccc(S(=O)(=O)[O-])cc5)c5nc(c(-c6ccc(S(=O)(=O)[O-])cc6)c6ccc3[nH]6)C=C5)C=C4)cc1)[C@@H](C(F)(F)F)O2
REMARK SMILES IDX 18 1 17 2 16 3 14 4 15 5 13 6 5 7 6 8 10 9 7 10 9 11 11 12
REMARK SMILES IDX 8 13 87 14 12 15 82 16 4 17 2 18 1 19 3 20 83 21 84 22 85 23
REMARK SMILES IDX 86 24 19 25 20 26 21 27 22 28 23 29 81 30 24 31 80 32 25 33
REMARK SMILES IDX 26 34 27 35 74 36 28 37 79 38 73 39 75 40 29 41 78 42 72 43
REMARK SMILES IDX 71 44 30 46 60 47 41 48 59 49 42 50 45 51 58 52 76 53 43 54
REMARK SMILES IDX 44 55 57 57 77 58 46 59 31 60 32 61 40 62 33 63 39 64 34 65
REMARK SMILES IDX 35 66 36 67 37 68 38 69 61 70 62 71 70 72 63 73 69 74 64 75
REMARK SMILES IDX 65 76 66 77 67 78 68 79 47 80 48 81 56 82 49 83 55 84 50 85
REMARK SMILES IDX 51 86 52 87 53 88 54 89
REMARK H PARENT 75 45 45 56
REMARK Flexibility Score: inf
ROOT
ATOM      1  C   UNL     1      -5.292   6.877  -6.149  1.00  0.00     0.275 C 
ENDROOT
BRANCH   1   2
ATOM      2  C   UNL     1      -4.636   5.761  -6.965  1.00  0.00     0.275 C 
BRANCH   2   3
ATOM      3  O   UNL     1      -4.473   4.555  -6.184  1.00  0.00    -0.459 OA
BRANCH   3   4
ATOM      4  C   UNL     1      -3.211   4.296  -5.776  1.00  0.00     0.338 C 
ATOM      5  O   UNL     1      -2.216   4.963  -6.017  1.00  0.00    -0.246 OA
BRANCH   4   6
ATOM      6  C   UNL     1      -3.166   3.090  -4.931  1.00  0.00     0.087 C 
ATOM      7  C   UNL     1      -1.629  -0.100  -1.358  1.00  0.00    -0.025 A 
ATOM      8  C   UNL     1      -2.125  -0.260  -2.673  1.00  0.00     0.052 A 
ATOM      9  C   UNL     1      -1.656   1.180  -0.783  1.00  0.00     0.045 A 
ATOM     10  C   UNL     1      -2.568   0.838  -3.415  1.00  0.00     0.128 A 
ATOM     11  C   UNL     1      -2.050   2.279  -1.540  1.00  0.00     0.032 A 
ATOM     12  Cl  UNL     1      -1.214   1.480   0.860  1.00  0.00    -0.084 Cl
ATOM     13  C   UNL     1      -2.481   2.106  -2.857  1.00  0.00     0.019 A 
ATOM     14  O   UNL     1      -3.028   0.605  -4.682  1.00  0.00    -0.475 OA
ATOM     15  C   UNL     1      -2.740   3.263  -3.678  1.00  0.00     0.027 C 
ATOM     16  C   UNL     1      -3.470   1.736  -5.502  1.00  0.00     0.316 C 
BRANCH   7  17
ATOM     17  C   UNL     1      -1.044  -1.296  -0.639  1.00  0.00     0.040 C 
BRANCH  17  18
ATOM     18  C   UNL     1       0.470  -1.506  -0.882  1.00  0.00    -0.013 C 
ATOM     19  C   UNL     1       1.353  -0.388  -0.319  1.00  0.00     0.008 C 
ATOM     20  C   UNL     1       0.906  -2.835  -0.257  1.00  0.00     0.008 C 
ENDBRANCH  17  18
ENDBRANCH   7  17
BRANCH  16  21
ATOM     21  C   UNL     1      -2.903   1.531  -6.915  1.00  0.00     0.430 C 
ATOM     22  F   UNL     1      -3.284   0.330  -7.418  1.00  0.00    -0.167 F 
ATOM     23  F   UNL     1      -3.355   2.465  -7.786  1.00  0.00    -0.167 F 
ATOM     24  F   UNL     1      -1.553   1.570  -6.938  1.00  0.00    -0.167 F 
ENDBRANCH  16  21
ENDBRANCH   4   6
ENDBRANCH   3   4
ENDBRANCH   2   3
ENDBRANCH   1   2
BRANCH   1  25
ATOM     25  O   UNL     1      -4.385   7.387  -5.156  1.00  0.00    -0.458 OA
BRANCH  25  26
ATOM     26  C   UNL     1      -4.593   6.928  -3.902  1.00  0.00     0.338 C 
ATOM     27  O   UNL     1      -5.461   6.158  -3.530  1.00  0.00    -0.246 OA
BRANCH  26  28
ATOM     28  C   UNL     1      -3.524   7.403  -3.014  1.00  0.00     0.060 A 
ATOM     29  C   UNL     1      -3.755   8.382  -2.056  1.00  0.00     0.016 A 
ATOM     30  C   UNL     1      -2.322   6.708  -3.021  1.00  0.00     0.016 A 
ATOM     31  C   UNL     1      -2.756   8.655  -1.112  1.00  0.00     0.010 A 
ATOM     32  C   UNL     1      -1.429   6.839  -1.964  1.00  0.00     0.010 A 
ATOM     33  C   UNL     1      -1.596   7.855  -1.021  1.00  0.00    -0.014 A 
BRANCH  33  34
ATOM     34  C   UNL     1      -0.553   8.094   0.023  1.00  0.00     0.031 A 
ATOM     35  C   UNL     1       0.905   8.267  -0.356  1.00  0.00     0.074 A 
ATOM     36  C   UNL     1      -0.907   8.142   1.326  1.00  0.00     0.049 A 
ATOM     37  N   UNL     1       1.927   8.537   0.418  1.00  0.00    -0.248 NA
ATOM     38  C   UNL     1       1.280   8.074  -1.768  1.00  0.00     0.031 C 
ATOM     39  C   UNL     1      -2.252   7.887   1.847  1.00  0.00     0.029 A 
ATOM     40  N   UNL     1      -0.177   8.455   2.450  1.00  0.00    -0.354 N 
ATOM     41  C   UNL     1       3.047   8.521  -0.408  1.00  0.00     0.074 A 
ATOM     42  C   UNL     1       2.601   8.123  -1.720  1.00  0.00     0.031 C 
ATOM     43  C   UNL     1      -2.277   8.157   3.160  1.00  0.00     0.029 A 
ATOM     44  C   UNL     1      -0.940   8.552   3.593  1.00  0.00     0.049 A 
ATOM     45  H   UNL     1       0.797   8.597   2.438  1.00  0.00     0.167 HD
ATOM     46  C   UNL     1       4.325   8.865  -0.125  1.00  0.00     0.031 A 
ATOM     47  C   UNL     1      -0.616   8.943   4.843  1.00  0.00     0.031 A 
ATOM     48  C   UNL     1       4.756   9.331   1.165  1.00  0.00     0.049 A 
ATOM     49  C   UNL     1       0.793   9.384   5.128  1.00  0.00     0.074 A 
ATOM     50  C   UNL     1       6.010   9.783   1.536  1.00  0.00     0.029 A 
ATOM     51  N   UNL     1       3.945   9.428   2.284  1.00  0.00    -0.354 N 
ATOM     52  N   UNL     1       1.815   9.443   4.308  1.00  0.00    -0.248 NA
ATOM     53  C   UNL     1       1.092   9.829   6.496  1.00  0.00     0.031 C 
ATOM     54  C   UNL     1       5.972  10.100   2.894  1.00  0.00     0.029 A 
ATOM     55  C   UNL     1       4.676   9.918   3.352  1.00  0.00     0.049 A 
ATOM     56  H   UNL     1       2.991   9.184   2.316  1.00  0.00     0.167 HD
ATOM     57  C   UNL     1       2.873   9.947   5.055  1.00  0.00     0.074 A 
ATOM     58  C   UNL     1       2.362  10.200   6.387  1.00  0.00     0.031 C 
ATOM     59  C   UNL     1       4.153  10.174   4.671  1.00  0.00     0.031 A 
BRANCH  46  60
ATOM     60  C   UNL     1       5.347   8.823  -1.237  1.00  0.00    -0.014 A 
ATOM     61  C   UNL     1       6.454   7.958  -1.148  1.00  0.00     0.010 A 
ATOM     62  C   UNL     1       5.273   9.723  -2.316  1.00  0.00     0.010 A 
ATOM     63  C   UNL     1       7.481   8.018  -2.095  1.00  0.00     0.020 A 
ATOM     64  C   UNL     1       6.278   9.760  -3.286  1.00  0.00     0.020 A 
ATOM     65  C   UNL     1       7.390   8.926  -3.154  1.00  0.00     0.054 A 
BRANCH  65  66
ATOM     66  S   UNL     1       8.747   9.016  -4.354  1.00  0.00     0.124 S 
ATOM     67  O   UNL     1       9.781   9.714  -3.597  1.00  0.00    -0.237 OA
ATOM     68  O   UNL     1       9.014   7.609  -4.642  1.00  0.00    -0.237 OA
ATOM     69  O   UNL     1       8.170   9.770  -5.466  1.00  0.00    -0.744 OA
ENDBRANCH  65  66
ENDBRANCH  46  60
BRANCH  47  70
ATOM     70  C   UNL     1      -1.686   9.022   5.880  1.00  0.00    -0.014 A 
ATOM     71  C   UNL     1      -2.316   7.856   6.355  1.00  0.00     0.010 A 
ATOM     72  C   UNL     1      -2.154  10.274   6.320  1.00  0.00     0.010 A 
ATOM     73  C   UNL     1      -3.429   7.941   7.196  1.00  0.00     0.020 A 
ATOM     74  C   UNL     1      -3.248  10.362   7.189  1.00  0.00     0.020 A 
ATOM     75  C   UNL     1      -3.899   9.195   7.593  1.00  0.00     0.054 A 
BRANCH  75  76
ATOM     76  S   UNL     1      -5.390   9.283   8.624  1.00  0.00     0.124 S 
ATOM     77  O   UNL     1      -6.441   8.980   7.656  1.00  0.00    -0.237 OA
ATOM     78  O   UNL     1      -5.145   8.252   9.630  1.00  0.00    -0.237 OA
ATOM     79  O   UNL     1      -5.380  10.654   9.127  1.00  0.00    -0.744 OA
ENDBRANCH  75  76
ENDBRANCH  47  70
BRANCH  59  80
ATOM     80  C   UNL     1       5.119  10.730   5.684  1.00  0.00    -0.014 A 
ATOM     81  C   UNL     1       5.664  12.014   5.493  1.00  0.00     0.010 A 
ATOM     82  C   UNL     1       5.604   9.928   6.731  1.00  0.00     0.010 A 
ATOM     83  C   UNL     1       6.707  12.469   6.302  1.00  0.00     0.020 A 
ATOM     84  C   UNL     1       6.625  10.393   7.564  1.00  0.00     0.020 A 
ATOM     85  C   UNL     1       7.189  11.649   7.326  1.00  0.00     0.054 A 
BRANCH  85  86
ATOM     86  S   UNL     1       8.574  12.238   8.337  1.00  0.00     0.124 S 
ATOM     87  O   UNL     1       9.709  12.066   7.435  1.00  0.00    -0.237 OA
ATOM     88  O   UNL     1       8.199  13.622   8.621  1.00  0.00    -0.237 OA
ATOM     89  O   UNL     1       8.556  11.347   9.495  1.00  0.00    -0.744 OA
ENDBRANCH  85  86
ENDBRANCH  59  80
ENDBRANCH  33  34
ENDBRANCH  26  28
ENDBRANCH  25  26
ENDBRANCH   1  25
TORSDOF 17
