REMARK SMILES Cc1cccc(-c2cccc(C(=O)OCCOC(=O)c3ccc(-c4c5nc(c(-c6ccc(S(=O)(=O)[O-])cc6)c6ccc([nH]6)c(-c6ccc(S(=O)(=O)[O-])cc6)c6nc(c(-c7ccc(S(=O)(=O)[O-])cc7)c7ccc4[nH]7)C=C6)C=C5)cc3)c2)c1
REMARK SMILES IDX 16 1 15 2 14 3 12 4 13 5 11 6 7 7 8 8 80 9 9 10 10 11 6 12
REMARK SMILES IDX 1 13 2 14 3 15 81 16 4 17 5 18 17 19 18 20 19 21 20 22 21 23
REMARK SMILES IDX 79 24 22 25 78 26 23 27 24 28 25 29 72 30 26 31 77 32 71 33
REMARK SMILES IDX 73 34 27 35 76 36 70 37 69 38 28 40 58 41 39 42 57 43 40 44
REMARK SMILES IDX 43 45 56 46 74 47 41 48 42 49 55 51 75 52 44 53 29 54 30 55
REMARK SMILES IDX 38 56 31 57 37 58 32 59 33 60 34 61 35 62 36 63 59 64 60 65
REMARK SMILES IDX 68 66 61 67 67 68 62 69 63 70 64 71 65 72 66 73 45 74 46 75
REMARK SMILES IDX 54 76 47 77 53 78 48 79 49 80 50 81 51 82 52 83
REMARK H PARENT 73 39 43 50
REMARK Flexibility Score: inf
ROOT
ATOM      1  C   UNL     1      -8.184   4.587   1.524  1.00  0.00     0.275 C 
ENDROOT
BRANCH   1   2
ATOM      2  C   UNL     1      -6.996   5.312   0.862  1.00  0.00     0.275 C 
BRANCH   2   3
ATOM      3  O   UNL     1      -5.917   4.491   0.379  1.00  0.00    -0.458 OA
BRANCH   3   4
ATOM      4  C   UNL     1      -4.834   5.259   0.059  1.00  0.00     0.338 C 
ATOM      5  O   UNL     1      -4.798   6.483   0.158  1.00  0.00    -0.246 OA
BRANCH   4   6
ATOM      6  C   UNL     1      -3.707   4.550  -0.600  1.00  0.00     0.060 A 
ATOM      7  C   UNL     1      -1.983   2.829  -0.835  1.00  0.00    -0.018 A 
ATOM      8  C   UNL     1      -1.450   3.568  -1.912  1.00  0.00     0.009 A 
ATOM      9  C   UNL     1      -3.143   3.328  -0.189  1.00  0.00     0.024 A 
ATOM     10  C   UNL     1      -2.010   4.771  -2.324  1.00  0.00     0.002 A 
ATOM     11  C   UNL     1      -3.124   5.263  -1.662  1.00  0.00     0.016 A 
BRANCH   7  12
ATOM     12  C   UNL     1      -1.300   1.567  -0.458  1.00  0.00    -0.018 A 
ATOM     13  C   UNL     1       2.282   0.261   0.019  1.00  0.00     0.044 C 
ATOM     14  C   UNL     1       0.785   0.305  -0.074  1.00  0.00    -0.051 A 
ATOM     15  C   UNL     1       0.047  -0.874   0.040  1.00  0.00     0.003 A 
ATOM     16  C   UNL     1       0.105   1.512  -0.313  1.00  0.00     0.012 A 
ATOM     17  C   UNL     1      -1.341  -0.840  -0.070  1.00  0.00     0.001 A 
ATOM     18  C   UNL     1      -2.003   0.366  -0.326  1.00  0.00     0.009 A 
ENDBRANCH   7  12
ENDBRANCH   4   6
ENDBRANCH   3   4
ENDBRANCH   2   3
ENDBRANCH   1   2
BRANCH   1  19
ATOM     19  O   UNL     1      -7.952   3.438   2.367  1.00  0.00    -0.458 OA
BRANCH  19  20
ATOM     20  C   UNL     1      -7.498   3.590   3.636  1.00  0.00     0.338 C 
ATOM     21  O   UNL     1      -8.017   3.155   4.648  1.00  0.00    -0.246 OA
BRANCH  20  22
ATOM     22  C   UNL     1      -6.322   4.442   3.679  1.00  0.00     0.060 A 
ATOM     23  C   UNL     1      -5.094   3.945   3.225  1.00  0.00     0.016 A 
ATOM     24  C   UNL     1      -6.520   5.769   4.060  1.00  0.00     0.016 A 
ATOM     25  C   UNL     1      -3.992   4.775   3.228  1.00  0.00     0.010 A 
ATOM     26  C   UNL     1      -5.456   6.626   3.956  1.00  0.00     0.010 A 
ATOM     27  C   UNL     1      -4.189   6.086   3.654  1.00  0.00    -0.014 A 
BRANCH  27  28
ATOM     28  C   UNL     1      -3.136   6.785   4.361  1.00  0.00     0.031 A 
ATOM     29  C   UNL     1      -2.373   7.849   3.717  1.00  0.00     0.074 A 
ATOM     30  C   UNL     1      -3.226   6.506   5.680  1.00  0.00     0.049 A 
ATOM     31  N   UNL     1      -1.364   8.435   4.253  1.00  0.00    -0.248 NA
ATOM     32  C   UNL     1      -2.653   8.318   2.361  1.00  0.00     0.031 C 
ATOM     33  C   UNL     1      -2.811   7.231   6.862  1.00  0.00     0.029 A 
ATOM     34  N   UNL     1      -3.673   5.279   6.187  1.00  0.00    -0.354 N 
ATOM     35  C   UNL     1      -1.141   9.579   3.518  1.00  0.00     0.074 A 
ATOM     36  C   UNL     1      -1.827   9.366   2.269  1.00  0.00     0.031 C 
ATOM     37  C   UNL     1      -2.748   6.359   7.891  1.00  0.00     0.029 A 
ATOM     38  C   UNL     1      -2.950   5.017   7.339  1.00  0.00     0.049 A 
ATOM     39  H   UNL     1      -4.373   4.708   5.796  1.00  0.00     0.167 HD
ATOM     40  C   UNL     1      -0.605  10.659   4.158  1.00  0.00     0.031 A 
ATOM     41  C   UNL     1      -1.979   4.055   7.245  1.00  0.00     0.031 A 
ATOM     42  C   UNL     1      -0.240  10.288   5.530  1.00  0.00     0.049 A 
ATOM     43  C   UNL     1      -0.617   4.709   7.375  1.00  0.00     0.074 A 
ATOM     44  C   UNL     1      -0.884  10.472   6.743  1.00  0.00     0.029 A 
ATOM     45  N   UNL     1       0.692   9.271   5.729  1.00  0.00    -0.354 N 
ATOM     46  N   UNL     1      -0.297   5.878   6.877  1.00  0.00    -0.248 NA
ATOM     47  C   UNL     1       0.412   4.162   8.251  1.00  0.00     0.031 C 
ATOM     48  C   UNL     1      -0.425   9.457   7.632  1.00  0.00     0.029 A 
ATOM     49  C   UNL     1       0.497   8.668   6.959  1.00  0.00     0.049 A 
ATOM     50  H   UNL     1       1.392   9.018   5.085  1.00  0.00     0.167 HD
ATOM     51  C   UNL     1       0.859   6.312   7.479  1.00  0.00     0.074 A 
ATOM     52  C   UNL     1       1.290   5.178   8.285  1.00  0.00     0.031 C 
ATOM     53  C   UNL     1       1.368   7.579   7.382  1.00  0.00     0.031 A 
BRANCH  40  54
ATOM     54  C   UNL     1      -0.751  12.089   3.676  1.00  0.00    -0.014 A 
ATOM     55  C   UNL     1      -0.651  13.147   4.606  1.00  0.00     0.010 A 
ATOM     56  C   UNL     1      -1.047  12.466   2.351  1.00  0.00     0.010 A 
ATOM     57  C   UNL     1      -0.899  14.484   4.253  1.00  0.00     0.020 A 
ATOM     58  C   UNL     1      -1.318  13.796   1.985  1.00  0.00     0.020 A 
ATOM     59  C   UNL     1      -1.247  14.800   2.942  1.00  0.00     0.054 A 
BRANCH  59  60
ATOM     60  S   UNL     1      -1.582  16.527   2.504  1.00  0.00     0.124 S 
ATOM     61  O   UNL     1      -2.710  16.860   3.370  1.00  0.00    -0.237 OA
ATOM     62  O   UNL     1      -0.320  17.185   2.832  1.00  0.00    -0.237 OA
ATOM     63  O   UNL     1      -1.896  16.470   1.077  1.00  0.00    -0.744 OA
ENDBRANCH  59  60
ENDBRANCH  40  54
BRANCH  41  64
ATOM     64  C   UNL     1      -2.342   2.854   6.398  1.00  0.00    -0.014 A 
ATOM     65  C   UNL     1      -3.560   2.184   6.691  1.00  0.00     0.010 A 
ATOM     66  C   UNL     1      -1.696   2.505   5.199  1.00  0.00     0.010 A 
ATOM     67  C   UNL     1      -4.164   1.297   5.787  1.00  0.00     0.020 A 
ATOM     68  C   UNL     1      -2.289   1.593   4.290  1.00  0.00     0.020 A 
ATOM     69  C   UNL     1      -3.533   1.015   4.579  1.00  0.00     0.054 A 
BRANCH  69  70
ATOM     70  S   UNL     1      -4.466   0.082   3.315  1.00  0.00     0.124 S 
ATOM     71  O   UNL     1      -4.240  -1.305   3.703  1.00  0.00    -0.237 OA
ATOM     72  O   UNL     1      -5.832   0.571   3.486  1.00  0.00    -0.237 OA
ATOM     73  O   UNL     1      -3.847   0.503   2.063  1.00  0.00    -0.744 OA
ENDBRANCH  69  70
ENDBRANCH  41  64
BRANCH  53  74
ATOM     74  C   UNL     1       2.782   7.959   7.749  1.00  0.00    -0.014 A 
ATOM     75  C   UNL     1       3.839   7.040   7.777  1.00  0.00     0.010 A 
ATOM     76  C   UNL     1       3.114   9.333   7.864  1.00  0.00     0.010 A 
ATOM     77  C   UNL     1       5.160   7.465   7.949  1.00  0.00     0.020 A 
ATOM     78  C   UNL     1       4.431   9.771   7.971  1.00  0.00     0.020 A 
ATOM     79  C   UNL     1       5.448   8.828   8.033  1.00  0.00     0.054 A 
BRANCH  79  80
ATOM     80  S   UNL     1       7.170   9.366   8.125  1.00  0.00     0.124 S 
ATOM     81  O   UNL     1       7.424   9.301   9.562  1.00  0.00    -0.237 OA
ATOM     82  O   UNL     1       7.867   8.366   7.319  1.00  0.00    -0.237 OA
ATOM     83  O   UNL     1       7.140  10.708   7.551  1.00  0.00    -0.744 OA
ENDBRANCH  79  80
ENDBRANCH  53  74
ENDBRANCH  27  28
ENDBRANCH  20  22
ENDBRANCH  19  20
ENDBRANCH   1  19
TORSDOF 15
