REMARK SMILES CC[NH2+][C@@]1(C(=O)OCCOC(=O)c2ccc(-c3c4nc(c(-c5ccc(S(=O)(=O)[O-])cc5)c5ccc([nH]5)c(-c5ccc(S(=O)(=O)[O-])cc5)c5nc(c(-c6ccc(S(=O)(=O)[O-])cc6)c6ccc3[nH]6)C=C5)C=C4)cc2)CC[C@H](Oc2ccc3c(c2)OCO3)C1
REMARK SMILES IDX 9 1 8 2 7 3 5 4 6 5 4 6 73 7 86 8 74 9 75 10 3 11 2 14 1 15
REMARK SMILES IDX 76 16 77 17 78 18 82 19 79 20 81 21 80 22 83 23 85 24 84 25
REMARK SMILES IDX 10 26 11 27 12 28 13 29 14 30 72 31 15 32 71 33 16 34 17 35
REMARK SMILES IDX 18 36 65 37 19 38 70 39 64 40 66 41 20 42 69 43 63 44 62 45
REMARK SMILES IDX 21 47 51 48 32 49 50 50 33 51 36 52 49 53 67 54 34 55 35 56
REMARK SMILES IDX 48 58 68 59 37 60 22 61 23 62 31 63 24 64 30 65 25 66 26 67
REMARK SMILES IDX 27 68 28 69 29 70 52 71 53 72 61 73 54 74 60 75 55 76 56 77
REMARK SMILES IDX 57 78 58 79 59 80 38 81 39 82 47 83 40 84 46 85 41 86 42 87
REMARK SMILES IDX 43 88 44 89 45 90
REMARK H PARENT 3 12 3 13 66 46 36 57
REMARK Flexibility Score: inf
ROOT
ATOM      1  C   UNL     1       4.019   0.626   6.135  1.00  0.00     0.275 C 
ENDROOT
BRANCH   1   2
ATOM      2  C   UNL     1       2.591   1.150   6.205  1.00  0.00     0.274 C 
BRANCH   2   3
ATOM      3  O   UNL     1       1.775   0.446   5.249  1.00  0.00    -0.457 OA
BRANCH   3   4
ATOM      4  C   UNL     1       0.983   1.205   4.444  1.00  0.00     0.368 C 
ATOM      5  O   UNL     1       1.034   2.430   4.395  1.00  0.00    -0.245 OA
BRANCH   4   6
ATOM      6  C   UNL     1       0.018   0.336   3.559  1.00  0.00     0.198 C 
ATOM      7  C   UNL     1      -1.373   0.986   3.674  1.00  0.00     0.085 C 
ATOM      8  C   UNL     1      -0.267  -1.060   4.136  1.00  0.00     0.126 C 
ATOM      9  C   UNL     1      -1.866   0.547   5.057  1.00  0.00     0.052 C 
ATOM     10  C   UNL     1      -1.191  -0.804   5.338  1.00  0.00     0.180 C 
BRANCH   6  11
ATOM     11  N   UNL     1       0.602   0.306   2.201  1.00  0.00    -0.332 N 
ATOM     12  H   UNL     1       0.756   1.273   1.915  1.00  0.00     0.347 HD
ATOM     13  H   UNL     1       1.442  -0.265   2.295  1.00  0.00     0.347 HD
BRANCH  11  14
ATOM     14  C   UNL     1      -0.165  -0.343   1.143  1.00  0.00     0.257 C 
ATOM     15  C   UNL     1       0.529  -0.110  -0.194  1.00  0.00     0.071 C 
ENDBRANCH  11  14
ENDBRANCH   6  11
BRANCH  10  16
ATOM     16  O   UNL     1      -0.351  -0.714   6.486  1.00  0.00    -0.490 OA
BRANCH  16  17
ATOM     17  C   UNL     1      -0.834  -1.070   7.706  1.00  0.00     0.123 A 
ATOM     18  C   UNL     1      -2.191  -1.144   8.059  1.00  0.00     0.050 A 
ATOM     19  C   UNL     1       0.160  -1.328   8.656  1.00  0.00     0.097 A 
ATOM     20  C   UNL     1      -2.562  -1.486   9.366  1.00  0.00     0.054 A 
ATOM     21  C   UNL     1      -0.232  -1.665   9.930  1.00  0.00     0.169 A 
ATOM     22  C   UNL     1      -1.559  -1.743  10.277  1.00  0.00     0.166 A 
ATOM     23  O   UNL     1       0.597  -1.950  10.968  1.00  0.00    -0.453 OA
ATOM     24  O   UNL     1      -1.732  -2.086  11.581  1.00  0.00    -0.454 OA
ATOM     25  C   UNL     1      -0.361  -2.253  12.000  1.00  0.00     0.468 C 
ENDBRANCH  16  17
ENDBRANCH  10  16
ENDBRANCH   4   6
ENDBRANCH   3   4
ENDBRANCH   2   3
ENDBRANCH   1   2
BRANCH   1  26
ATOM     26  O   UNL     1       4.545   0.905   4.828  1.00  0.00    -0.458 OA
BRANCH  26  27
ATOM     27  C   UNL     1       4.527  -0.143   3.975  1.00  0.00     0.338 C 
ATOM     28  O   UNL     1       4.283  -1.310   4.225  1.00  0.00    -0.246 OA
BRANCH  27  29
ATOM     29  C   UNL     1       4.790   0.340   2.615  1.00  0.00     0.060 A 
ATOM     30  C   UNL     1       3.842   1.143   1.981  1.00  0.00     0.016 A 
ATOM     31  C   UNL     1       5.902  -0.131   1.921  1.00  0.00     0.016 A 
ATOM     32  C   UNL     1       3.949   1.383   0.614  1.00  0.00     0.010 A 
ATOM     33  C   UNL     1       6.060   0.206   0.575  1.00  0.00     0.010 A 
ATOM     34  C   UNL     1       5.064   0.930  -0.107  1.00  0.00    -0.014 A 
BRANCH  34  35
ATOM     35  C   UNL     1       5.185   1.170  -1.573  1.00  0.00     0.031 A 
ATOM     36  C   UNL     1       5.371   0.007  -2.516  1.00  0.00     0.074 A 
ATOM     37  C   UNL     1       5.141   2.422  -2.071  1.00  0.00     0.049 A 
ATOM     38  N   UNL     1       5.743   0.011  -3.771  1.00  0.00    -0.248 NA
ATOM     39  C   UNL     1       5.127  -1.339  -1.970  1.00  0.00     0.031 C 
ATOM     40  C   UNL     1       4.914   3.643  -1.295  1.00  0.00     0.029 A 
ATOM     41  N   UNL     1       5.285   2.875  -3.360  1.00  0.00    -0.354 N 
ATOM     42  C   UNL     1       5.851  -1.325  -4.141  1.00  0.00     0.074 A 
ATOM     43  C   UNL     1       5.491  -2.114  -2.982  1.00  0.00     0.031 C 
ATOM     44  C   UNL     1       4.888   4.696  -2.125  1.00  0.00     0.029 A 
ATOM     45  C   UNL     1       5.195   4.242  -3.476  1.00  0.00     0.049 A 
ATOM     46  H   UNL     1       5.438   2.278  -4.128  1.00  0.00     0.167 HD
ATOM     47  C   UNL     1       6.229  -1.845  -5.333  1.00  0.00     0.031 A 
ATOM     48  C   UNL     1       5.388   5.052  -4.534  1.00  0.00     0.031 A 
ATOM     49  C   UNL     1       6.532  -1.056  -6.499  1.00  0.00     0.049 A 
ATOM     50  C   UNL     1       5.809   4.457  -5.846  1.00  0.00     0.074 A 
ATOM     51  C   UNL     1       6.931  -1.488  -7.753  1.00  0.00     0.029 A 
ATOM     52  N   UNL     1       6.441   0.325  -6.562  1.00  0.00    -0.354 N 
ATOM     53  N   UNL     1       6.006   3.197  -6.151  1.00  0.00    -0.248 NA
ATOM     54  C   UNL     1       6.061   5.396  -6.948  1.00  0.00     0.031 C 
ATOM     55  C   UNL     1       7.103  -0.363  -8.568  1.00  0.00     0.029 A 
ATOM     56  C   UNL     1       6.777   0.764  -7.831  1.00  0.00     0.049 A 
ATOM     57  H   UNL     1       6.178   0.909  -5.814  1.00  0.00     0.167 HD
ATOM     58  C   UNL     1       6.413   3.192  -7.479  1.00  0.00     0.074 A 
ATOM     59  C   UNL     1       6.407   4.570  -7.927  1.00  0.00     0.031 C 
ATOM     60  C   UNL     1       6.771   2.140  -8.255  1.00  0.00     0.031 A 
BRANCH  47  61
ATOM     61  C   UNL     1       6.383  -3.339  -5.425  1.00  0.00    -0.014 A 
ATOM     62  C   UNL     1       5.269  -4.191  -5.504  1.00  0.00     0.010 A 
ATOM     63  C   UNL     1       7.676  -3.895  -5.470  1.00  0.00     0.010 A 
ATOM     64  C   UNL     1       5.444  -5.577  -5.589  1.00  0.00     0.020 A 
ATOM     65  C   UNL     1       7.855  -5.277  -5.576  1.00  0.00     0.020 A 
ATOM     66  C   UNL     1       6.736  -6.111  -5.617  1.00  0.00     0.054 A 
BRANCH  66  67
ATOM     67  S   UNL     1       6.942  -7.910  -5.746  1.00  0.00     0.124 S 
ATOM     68  O   UNL     1       6.680  -8.340  -4.375  1.00  0.00    -0.237 OA
ATOM     69  O   UNL     1       5.924  -8.284  -6.725  1.00  0.00    -0.237 OA
ATOM     70  O   UNL     1       8.322  -8.068  -6.197  1.00  0.00    -0.744 OA
ENDBRANCH  66  67
ENDBRANCH  47  61
BRANCH  48  71
ATOM     71  C   UNL     1       5.241   6.522  -4.368  1.00  0.00    -0.014 A 
ATOM     72  C   UNL     1       4.132   7.194  -4.909  1.00  0.00     0.010 A 
ATOM     73  C   UNL     1       6.188   7.250  -3.623  1.00  0.00     0.010 A 
ATOM     74  C   UNL     1       3.969   8.567  -4.704  1.00  0.00     0.020 A 
ATOM     75  C   UNL     1       6.014   8.617  -3.394  1.00  0.00     0.020 A 
ATOM     76  C   UNL     1       4.909   9.269  -3.943  1.00  0.00     0.054 A 
BRANCH  76  77
ATOM     77  S   UNL     1       4.639  11.032  -3.608  1.00  0.00     0.124 S 
ATOM     78  O   UNL     1       5.154  11.653  -4.824  1.00  0.00    -0.237 OA
ATOM     79  O   UNL     1       3.192  11.108  -3.422  1.00  0.00    -0.237 OA
ATOM     80  O   UNL     1       5.425  11.269  -2.399  1.00  0.00    -0.744 OA
ENDBRANCH  76  77
ENDBRANCH  48  71
BRANCH  60  81
ATOM     81  C   UNL     1       7.172   2.441  -9.670  1.00  0.00    -0.014 A 
ATOM     82  C   UNL     1       8.446   2.958  -9.962  1.00  0.00     0.010 A 
ATOM     83  C   UNL     1       6.280   2.165 -10.721  1.00  0.00     0.010 A 
ATOM     84  C   UNL     1       8.814   3.218 -11.284  1.00  0.00     0.020 A 
ATOM     85  C   UNL     1       6.651   2.409 -12.046  1.00  0.00     0.020 A 
ATOM     86  C   UNL     1       7.912   2.946 -12.318  1.00  0.00     0.054 A 
BRANCH  86  87
ATOM     87  S   UNL     1       8.421   3.255 -14.031  1.00  0.00     0.124 S 
ATOM     88  O   UNL     1       8.258   4.702 -14.139  1.00  0.00    -0.237 OA
ATOM     89  O   UNL     1       9.801   2.775 -14.051  1.00  0.00    -0.237 OA
ATOM     90  O   UNL     1       7.481   2.460 -14.818  1.00  0.00    -0.744 OA
ENDBRANCH  86  87
ENDBRANCH  60  81
ENDBRANCH  34  35
ENDBRANCH  27  29
ENDBRANCH  26  27
ENDBRANCH   1  26
TORSDOF 18
