REMARK SMILES O=C(OCCOC(=O)[C@H]1[NH2+][C@@H]2CC[C@H]1CC2(F)F)c1ccc(-c2c3nc(c(-c4ccc(S(=O)(=O)[O-])cc4)c4ccc([nH]4)c(-c4ccc(S(=O)(=O)[O-])cc4)c4nc(c(-c5ccc(S(=O)(=O)[O-])cc5)c5ccc2[nH]5)C=C4)C=C3)cc1
REMARK SMILES IDX 3 1 2 2 1 3 19 4 20 5 78 6 21 7 77 8 22 9 23 10 24 11 71 12
REMARK SMILES IDX 25 13 76 14 70 15 72 16 26 17 75 18 69 19 68 20 27 22 57 23
REMARK SMILES IDX 38 24 56 25 39 26 42 27 55 28 73 29 40 30 41 31 54 33 74 34
REMARK SMILES IDX 43 35 28 36 29 37 37 38 30 39 36 40 31 41 32 42 33 43 34 44
REMARK SMILES IDX 35 45 58 46 59 47 67 48 60 49 66 50 61 51 62 52 63 53 64 54
REMARK SMILES IDX 65 55 44 56 45 57 53 58 46 59 52 60 47 61 48 62 49 63 50 64
REMARK SMILES IDX 51 65 4 66 5 67 6 68 7 69 8 70 9 71 10 72 14 73 11 74 13 77
REMARK SMILES IDX 15 78 12 79 16 80 17 81 18 82
REMARK H PARENT 72 21 42 32 10 75 10 76
REMARK Flexibility Score: inf
ROOT
ATOM      1  O   UNL     1       3.527  -0.644  -7.086  1.00  0.00    -0.458 OA
ENDROOT
BRANCH   1   2
ATOM      2  C   UNL     1       3.341   0.488  -6.390  1.00  0.00     0.338 C 
ATOM      3  O   UNL     1       4.159   1.398  -6.477  1.00  0.00    -0.246 OA
BRANCH   2   4
ATOM      4  C   UNL     1       2.224   0.642  -5.407  1.00  0.00     0.060 A 
ATOM      5  C   UNL     1       0.684   0.003  -5.410  1.00  0.00     0.016 A 
ATOM      6  C   UNL     1       2.533   1.882  -4.246  1.00  0.00     0.016 A 
ATOM      7  C   UNL     1      -0.585   0.460  -4.383  1.00  0.00     0.010 A 
ATOM      8  C   UNL     1       1.046   2.473  -3.056  1.00  0.00     0.010 A 
ATOM      9  C   UNL     1      -0.485   1.625  -3.216  1.00  0.00    -0.014 A 
BRANCH   9  10
ATOM     10  C   UNL     1      -1.669   2.064  -2.450  1.00  0.00     0.031 A 
ATOM     11  C   UNL     1      -2.339   3.342  -2.850  1.00  0.00     0.074 A 
ATOM     12  C   UNL     1      -1.958   1.427  -1.300  1.00  0.00     0.049 A 
ATOM     13  N   UNL     1      -3.052   4.161  -2.130  1.00  0.00    -0.248 NA
ATOM     14  C   UNL     1      -2.123   3.810  -4.226  1.00  0.00     0.031 C 
ATOM     15  C   UNL     1      -1.357   0.169  -0.842  1.00  0.00     0.029 A 
ATOM     16  N   UNL     1      -2.728   1.825  -0.239  1.00  0.00    -0.354 N 
ATOM     17  C   UNL     1      -3.305   5.244  -2.967  1.00  0.00     0.074 A 
ATOM     18  C   UNL     1      -2.513   5.069  -4.153  1.00  0.00     0.031 C 
ATOM     19  C   UNL     1      -1.628   0.000   0.463  1.00  0.00     0.029 A 
ATOM     20  C   UNL     1      -2.480   1.095   0.906  1.00  0.00     0.049 A 
ATOM     21  H   UNL     1      -3.389   2.553  -0.288  1.00  0.00     0.167 HD
ATOM     22  C   UNL     1      -4.224   6.225  -2.823  1.00  0.00     0.031 A 
ATOM     23  C   UNL     1      -2.883   1.313   2.172  1.00  0.00     0.031 A 
ATOM     24  C   UNL     1      -5.054   6.299  -1.659  1.00  0.00     0.049 A 
ATOM     25  C   UNL     1      -3.864   2.430   2.381  1.00  0.00     0.074 A 
ATOM     26  C   UNL     1      -6.104   7.148  -1.385  1.00  0.00     0.029 A 
ATOM     27  N   UNL     1      -4.908   5.455  -0.564  1.00  0.00    -0.354 N 
ATOM     28  N   UNL     1      -4.205   3.382   1.540  1.00  0.00    -0.248 NA
ATOM     29  C   UNL     1      -4.589   2.455   3.654  1.00  0.00     0.031 C 
ATOM     30  C   UNL     1      -6.546   6.862  -0.089  1.00  0.00     0.029 A 
ATOM     31  C   UNL     1      -5.827   5.780   0.407  1.00  0.00     0.049 A 
ATOM     32  H   UNL     1      -4.245   4.731  -0.493  1.00  0.00     0.167 HD
ATOM     33  C   UNL     1      -5.242   4.073   2.148  1.00  0.00     0.074 A 
ATOM     34  C   UNL     1      -5.447   3.446   3.443  1.00  0.00     0.031 C 
ATOM     35  C   UNL     1      -5.984   5.105   1.674  1.00  0.00     0.031 A 
BRANCH  22  36
ATOM     36  C   UNL     1      -4.371   7.221  -3.950  1.00  0.00    -0.014 A 
ATOM     37  C   UNL     1      -4.736   6.814  -5.253  1.00  0.00     0.010 A 
ATOM     38  C   UNL     1      -4.084   8.577  -3.728  1.00  0.00     0.010 A 
ATOM     39  C   UNL     1      -4.712   7.716  -6.320  1.00  0.00     0.020 A 
ATOM     40  C   UNL     1      -4.105   9.495  -4.785  1.00  0.00     0.020 A 
ATOM     41  C   UNL     1      -4.388   9.053  -6.079  1.00  0.00     0.054 A 
BRANCH  41  42
ATOM     42  S   UNL     1      -4.355  10.201  -7.483  1.00  0.00     0.124 S 
ATOM     43  O   UNL     1      -3.166   9.761  -8.208  1.00  0.00    -0.237 OA
ATOM     44  O   UNL     1      -5.628   9.929  -8.146  1.00  0.00    -0.237 OA
ATOM     45  O   UNL     1      -4.251  11.515  -6.854  1.00  0.00    -0.744 OA
ENDBRANCH  41  42
ENDBRANCH  22  36
BRANCH  23  46
ATOM     46  C   UNL     1      -2.459   0.382   3.255  1.00  0.00    -0.014 A 
ATOM     47  C   UNL     1      -3.311  -0.659   3.663  1.00  0.00     0.010 A 
ATOM     48  C   UNL     1      -1.161   0.447   3.798  1.00  0.00     0.010 A 
ATOM     49  C   UNL     1      -2.876  -1.619   4.584  1.00  0.00     0.020 A 
ATOM     50  C   UNL     1      -0.716  -0.521   4.711  1.00  0.00     0.020 A 
ATOM     51  C   UNL     1      -1.577  -1.552   5.094  1.00  0.00     0.054 A 
BRANCH  51  52
ATOM     52  S   UNL     1      -1.016  -2.872   6.210  1.00  0.00     0.124 S 
ATOM     53  O   UNL     1      -1.859  -2.661   7.383  1.00  0.00    -0.237 OA
ATOM     54  O   UNL     1      -1.304  -4.076   5.434  1.00  0.00    -0.237 OA
ATOM     55  O   UNL     1       0.404  -2.585   6.399  1.00  0.00    -0.744 OA
ENDBRANCH  51  52
ENDBRANCH  23  46
BRANCH  35  56
ATOM     56  C   UNL     1      -7.118   5.585   2.525  1.00  0.00    -0.014 A 
ATOM     57  C   UNL     1      -6.883   6.369   3.664  1.00  0.00     0.010 A 
ATOM     58  C   UNL     1      -8.434   5.375   2.075  1.00  0.00     0.010 A 
ATOM     59  C   UNL     1      -7.956   6.944   4.341  1.00  0.00     0.020 A 
ATOM     60  C   UNL     1      -9.505   5.979   2.728  1.00  0.00     0.020 A 
ATOM     61  C   UNL     1      -9.257   6.760   3.858  1.00  0.00     0.054 A 
BRANCH  61  62
ATOM     62  S   UNL     1     -10.615   7.622   4.687  1.00  0.00     0.124 S 
ATOM     63  O   UNL     1     -10.702   6.901   5.953  1.00  0.00    -0.237 OA
ATOM     64  O   UNL     1     -10.114   8.991   4.773  1.00  0.00    -0.237 OA
ATOM     65  O   UNL     1     -11.748   7.434   3.783  1.00  0.00    -0.744 OA
ENDBRANCH  61  62
ENDBRANCH  35  56
ENDBRANCH   9  10
ENDBRANCH   2   4
ENDBRANCH   1   2
BRANCH   1  66
ATOM     66  C   UNL     1       2.849  -1.864  -6.804  1.00  0.00     0.275 C 
BRANCH  66  67
ATOM     67  C   UNL     1       3.162  -2.469  -5.422  1.00  0.00     0.274 C 
BRANCH  67  68
ATOM     68  O   UNL     1       2.917  -1.590  -4.295  1.00  0.00    -0.458 OA
BRANCH  68  69
ATOM     69  C   UNL     1       3.922  -0.772  -3.814  1.00  0.00     0.365 C 
ATOM     70  O   UNL     1       5.104  -0.905  -4.092  1.00  0.00    -0.245 OA
BRANCH  69  71
ATOM     71  C   UNL     1       3.301   0.352  -2.915  1.00  0.00     0.297 C 
ATOM     72  N   UNL     1       4.203   1.766  -2.675  1.00  0.00    -0.327 N 
ATOM     73  C   UNL     1       1.493   0.694  -3.286  1.00  0.00     0.066 C 
ATOM     74  C   UNL     1       3.226   3.229  -2.677  1.00  0.00     0.254 C 
ATOM     75  H   UNL     1       4.894   1.838  -3.422  1.00  0.00     0.347 HD
ATOM     76  H   UNL     1       4.636   1.694  -1.754  1.00  0.00     0.347 HD
ATOM     77  C   UNL     1       1.678   1.268  -1.446  1.00  0.00     0.017 C 
ATOM     78  C   UNL     1       0.898   2.232  -4.808  1.00  0.00     0.094 C 
ATOM     79  C   UNL     1       2.567   2.706  -1.277  1.00  0.00     0.072 C 
ATOM     80  C   UNL     1       2.051   3.819  -4.199  1.00  0.00     0.298 C 
ATOM     81  F   UNL     1       1.261   4.866  -3.839  1.00  0.00    -0.200 F 
ATOM     82  F   UNL     1       2.805   4.247  -5.251  1.00  0.00    -0.200 F 
ENDBRANCH  69  71
ENDBRANCH  68  69
ENDBRANCH  67  68
ENDBRANCH  66  67
ENDBRANCH   1  66
TORSDOF 14
