REMARK SMILES O=C(Cc1ccn(-c2ccccc2F)c1)OCCOC(=O)c1ccc(-c2c3nc(c(-c4ccc(S(=O)(=O)[O-])cc4)c4ccc([nH]4)c(-c4ccc(S(=O)(=O)[O-])cc4)c4nc(c(-c5ccc(S(=O)(=O)[O-])cc5)c5ccc2[nH]5)C=C4)C=C3)cc1
REMARK SMILES IDX 18 1 17 2 16 3 2 4 1 5 3 6 4 7 5 8 15 9 6 10 7 11 8 12 9 13
REMARK SMILES IDX 13 14 10 15 12 16 14 17 11 18 19 19 20 20 21 21 22 22 23 23
REMARK SMILES IDX 81 24 24 25 80 26 25 27 26 28 27 29 74 30 28 31 79 32 73 33
REMARK SMILES IDX 75 34 29 35 78 36 72 37 71 38 30 40 60 41 41 42 59 43 42 44
REMARK SMILES IDX 45 45 58 46 76 47 43 48 44 49 57 51 77 52 46 53 31 54 32 55
REMARK SMILES IDX 40 56 33 57 39 58 34 59 35 60 36 61 37 62 38 63 61 64 62 65
REMARK SMILES IDX 70 66 63 67 69 68 64 69 65 70 66 71 67 72 68 73 47 74 48 75
REMARK SMILES IDX 56 76 49 77 55 78 50 79 51 80 52 81 53 82 54 83
REMARK H PARENT 75 39 45 50
REMARK Flexibility Score: inf
ROOT
ATOM      1  C   UNL     1       4.615   1.574  -1.095  1.00  0.00     0.275 C 
ENDROOT
BRANCH   1   2
ATOM      2  C   UNL     1       4.255   0.143  -1.467  1.00  0.00     0.274 C 
BRANCH   2   3
ATOM      3  O   UNL     1       2.841  -0.143  -1.405  1.00  0.00    -0.462 OA
BRANCH   3   4
ATOM      4  C   UNL     1       2.140  -0.616  -0.346  1.00  0.00     0.310 C 
ATOM      5  O   UNL     1       0.941  -0.873  -0.480  1.00  0.00    -0.252 OA
BRANCH   4   6
ATOM      6  C   UNL     1       2.811  -0.824   0.997  1.00  0.00     0.159 C 
BRANCH   6   7
ATOM      7  C   UNL     1       3.777  -1.946   1.030  1.00  0.00    -0.019 A 
ATOM      8  C   UNL     1       5.164  -1.905   1.330  1.00  0.00     0.024 A 
ATOM      9  C   UNL     1       3.457  -3.265   0.815  1.00  0.00     0.095 A 
ATOM     10  C   UNL     1       5.626  -3.204   1.308  1.00  0.00     0.091 A 
ATOM     11  N   UNL     1       4.574  -4.038   0.997  1.00  0.00    -0.321 N 
BRANCH  11  12
ATOM     12  C   UNL     1       4.570  -5.445   0.979  1.00  0.00     0.081 A 
ATOM     13  C   UNL     1       5.327  -6.154   1.915  1.00  0.00     0.030 A 
ATOM     14  C   UNL     1       3.718  -6.123   0.104  1.00  0.00     0.147 A 
ATOM     15  C   UNL     1       5.170  -7.538   2.005  1.00  0.00     0.002 A 
ATOM     16  C   UNL     1       3.589  -7.503   0.173  1.00  0.00     0.041 A 
ATOM     17  F   UNL     1       3.034  -5.474  -0.851  1.00  0.00    -0.205 F 
ATOM     18  C   UNL     1       4.302  -8.210   1.139  1.00  0.00     0.003 A 
ENDBRANCH  11  12
ENDBRANCH   6   7
ENDBRANCH   4   6
ENDBRANCH   3   4
ENDBRANCH   2   3
ENDBRANCH   1   2
BRANCH   1  19
ATOM     19  O   UNL     1       4.293   1.856   0.259  1.00  0.00    -0.458 OA
BRANCH  19  20
ATOM     20  C   UNL     1       3.034   2.327   0.430  1.00  0.00     0.338 C 
ATOM     21  O   UNL     1       2.142   2.369  -0.388  1.00  0.00    -0.246 OA
BRANCH  20  22
ATOM     22  C   UNL     1       2.900   2.841   1.790  1.00  0.00     0.060 A 
ATOM     23  C   UNL     1       1.601   3.041   2.267  1.00  0.00     0.016 A 
ATOM     24  C   UNL     1       4.033   3.370   2.416  1.00  0.00     0.016 A 
ATOM     25  C   UNL     1       1.415   3.956   3.276  1.00  0.00     0.010 A 
ATOM     26  C   UNL     1       3.845   4.329   3.376  1.00  0.00     0.010 A 
ATOM     27  C   UNL     1       2.535   4.643   3.754  1.00  0.00    -0.014 A 
BRANCH  27  28
ATOM     28  C   UNL     1       2.356   5.632   4.808  1.00  0.00     0.031 A 
ATOM     29  C   UNL     1       2.534   4.931   6.180  1.00  0.00     0.074 A 
ATOM     30  C   UNL     1       2.097   6.903   4.346  1.00  0.00     0.049 A 
ATOM     31  N   UNL     1       2.240   5.360   7.360  1.00  0.00    -0.248 NA
ATOM     32  C   UNL     1       3.093   3.540   6.271  1.00  0.00     0.031 C 
ATOM     33  C   UNL     1       1.991   7.309   2.913  1.00  0.00     0.029 A 
ATOM     34  N   UNL     1       1.878   8.117   4.955  1.00  0.00    -0.354 N 
ATOM     35  C   UNL     1       2.767   4.452   8.307  1.00  0.00     0.074 A 
ATOM     36  C   UNL     1       3.206   3.306   7.580  1.00  0.00     0.031 C 
ATOM     37  C   UNL     1       1.619   8.608   2.787  1.00  0.00     0.029 A 
ATOM     38  C   UNL     1       1.501   9.202   4.103  1.00  0.00     0.049 A 
ATOM     39  H   UNL     1       1.977   8.234   5.927  1.00  0.00     0.167 HD
ATOM     40  C   UNL     1       2.919   4.784   9.621  1.00  0.00     0.031 A 
ATOM     41  C   UNL     1       1.098  10.463   4.471  1.00  0.00     0.031 A 
ATOM     42  C   UNL     1       2.349   6.069   9.850  1.00  0.00     0.049 A 
ATOM     43  C   UNL     1       1.402  10.515   5.909  1.00  0.00     0.074 A 
ATOM     44  C   UNL     1       1.042   6.485   9.819  1.00  0.00     0.029 A 
ATOM     45  N   UNL     1       3.184   7.144   9.639  1.00  0.00    -0.354 N 
ATOM     46  N   UNL     1       2.599  10.558   6.410  1.00  0.00    -0.248 NA
ATOM     47  C   UNL     1       0.295  10.397   6.865  1.00  0.00     0.031 C 
ATOM     48  C   UNL     1       1.122   7.647   9.027  1.00  0.00     0.029 A 
ATOM     49  C   UNL     1       2.458   8.058   8.919  1.00  0.00     0.049 A 
ATOM     50  H   UNL     1       4.115   7.237   9.945  1.00  0.00     0.167 HD
ATOM     51  C   UNL     1       2.397  10.066   7.672  1.00  0.00     0.074 A 
ATOM     52  C   UNL     1       1.000  10.307   7.989  1.00  0.00     0.031 C 
ATOM     53  C   UNL     1       3.160   9.035   8.127  1.00  0.00     0.031 A 
BRANCH  40  54
ATOM     54  C   UNL     1       3.731   4.194  10.733  1.00  0.00    -0.014 A 
ATOM     55  C   UNL     1       3.397   4.617  12.045  1.00  0.00     0.010 A 
ATOM     56  C   UNL     1       4.982   3.594  10.537  1.00  0.00     0.010 A 
ATOM     57  C   UNL     1       4.322   4.580  13.086  1.00  0.00     0.020 A 
ATOM     58  C   UNL     1       5.908   3.518  11.595  1.00  0.00     0.020 A 
ATOM     59  C   UNL     1       5.587   4.057  12.845  1.00  0.00     0.054 A 
BRANCH  59  60
ATOM     60  S   UNL     1       6.812   4.168  14.178  1.00  0.00     0.124 S 
ATOM     61  O   UNL     1       7.035   5.607  14.276  1.00  0.00    -0.237 OA
ATOM     62  O   UNL     1       6.101   3.568  15.306  1.00  0.00    -0.237 OA
ATOM     63  O   UNL     1       7.940   3.387  13.677  1.00  0.00    -0.744 OA
ENDBRANCH  59  60
ENDBRANCH  40  54
BRANCH  41  64
ATOM     64  C   UNL     1       0.393  11.703   3.933  1.00  0.00    -0.014 A 
ATOM     65  C   UNL     1      -0.095  11.913   2.638  1.00  0.00     0.010 A 
ATOM     66  C   UNL     1       0.011  12.698   4.888  1.00  0.00     0.010 A 
ATOM     67  C   UNL     1      -1.044  12.943   2.372  1.00  0.00     0.020 A 
ATOM     68  C   UNL     1      -0.969  13.669   4.660  1.00  0.00     0.020 A 
ATOM     69  C   UNL     1      -1.527  13.764   3.401  1.00  0.00     0.054 A 
BRANCH  69  70
ATOM     70  S   UNL     1      -2.979  14.837   3.159  1.00  0.00     0.124 S 
ATOM     71  O   UNL     1      -2.411  15.994   2.475  1.00  0.00    -0.237 OA
ATOM     72  O   UNL     1      -3.865  13.999   2.355  1.00  0.00    -0.237 OA
ATOM     73  O   UNL     1      -3.453  15.090   4.520  1.00  0.00    -0.744 OA
ENDBRANCH  69  70
ENDBRANCH  41  64
BRANCH  53  74
ATOM     74  C   UNL     1       4.530   8.846   7.472  1.00  0.00    -0.014 A 
ATOM     75  C   UNL     1       5.438   9.921   7.453  1.00  0.00     0.010 A 
ATOM     76  C   UNL     1       4.944   7.659   6.829  1.00  0.00     0.010 A 
ATOM     77  C   UNL     1       6.698   9.821   6.840  1.00  0.00     0.020 A 
ATOM     78  C   UNL     1       6.205   7.547   6.202  1.00  0.00     0.020 A 
ATOM     79  C   UNL     1       7.082   8.630   6.224  1.00  0.00     0.054 A 
BRANCH  79  80
ATOM     80  S   UNL     1       8.742   8.526   5.485  1.00  0.00     0.124 S 
ATOM     81  O   UNL     1       8.737   9.618   4.514  1.00  0.00    -0.237 OA
ATOM     82  O   UNL     1       9.613   8.725   6.640  1.00  0.00    -0.237 OA
ATOM     83  O   UNL     1       8.784   7.186   4.901  1.00  0.00    -0.744 OA
ENDBRANCH  79  80
ENDBRANCH  53  74
ENDBRANCH  27  28
ENDBRANCH  20  22
ENDBRANCH  19  20
ENDBRANCH   1  19
TORSDOF 16
