REMARK SMILES CS(=O)(=O)Nc1ccc(-c2cc(Cl)cc3c2O[C@H](C(F)(F)F)C(C(=O)OCCOC(=O)c2ccc(-c4c5nc(c(-c6ccc(S(=O)(=O)[O-])cc6)c6ccc([nH]6)c(-c6ccc(S(=O)(=O)[O-])cc6)c6nc(c(-c7ccc(S(=O)(=O)[O-])cc7)c7ccc4[nH]7)C=C6)C=C5)cc2)=C3)cc1
REMARK SMILES IDX 27 1 26 2 24 3 25 4 23 5 10 6 11 7 16 8 12 9 15 10 17 11
REMARK SMILES IDX 13 12 14 13 92 14 18 15 9 16 6 17 7 18 94 19 8 20 93 21 5 22
REMARK SMILES IDX 2 24 1 25 3 26 4 27 19 28 20 29 21 30 22 31 28 32 29 33
REMARK SMILES IDX 30 34 31 35 32 36 33 37 91 38 34 39 90 40 35 41 36 42 37 43
REMARK SMILES IDX 84 44 38 45 89 46 83 47 85 48 39 49 88 50 82 51 81 52 40 54
REMARK SMILES IDX 70 55 51 56 69 57 52 58 55 59 68 60 86 61 53 62 54 63 67 65
REMARK SMILES IDX 87 66 56 67 41 68 42 69 50 70 43 71 49 72 44 73 45 74 46 75
REMARK SMILES IDX 47 76 48 77 71 78 72 79 80 80 73 81 79 82 74 83 75 84 76 85
REMARK SMILES IDX 77 86 78 87 57 88 58 89 66 90 59 91 65 92 60 93 61 94 62 95
REMARK SMILES IDX 63 96 64 97
REMARK H PARENT 5 23 85 53 55 64
REMARK Flexibility Score: inf
ROOT
ATOM      1  C   UNL     1       8.535  -0.738  10.460  1.00  0.00     0.275 C 
ENDROOT
BRANCH   1   2
ATOM      2  O   UNL     1       8.760  -0.296   9.095  1.00  0.00    -0.459 OA
BRANCH   2   3
ATOM      3  C   UNL     1       8.969  -1.319   8.224  1.00  0.00     0.338 C 
ATOM      4  O   UNL     1       8.952  -2.503   8.542  1.00  0.00    -0.246 OA
BRANCH   3   5
ATOM      5  C   UNL     1       9.222  -0.898   6.819  1.00  0.00     0.087 C 
ATOM      6  C   UNL     1       6.014   0.155   4.594  1.00  0.00     0.026 A 
ATOM      7  C   UNL     1       5.016  -0.547   5.317  1.00  0.00     0.033 A 
ATOM      8  C   UNL     1       7.319  -0.204   4.952  1.00  0.00     0.135 A 
ATOM      9  C   UNL     1       5.285  -1.637   6.153  1.00  0.00     0.042 A 
ATOM     10  C   UNL     1       7.546  -1.469   5.556  1.00  0.00     0.019 A 
ATOM     11  O   UNL     1       8.390   0.688   5.021  1.00  0.00    -0.475 OA
ATOM     12  Cl  UNL     1       4.182  -2.301   7.286  1.00  0.00    -0.084 Cl
ATOM     13  C   UNL     1       6.532  -2.196   6.145  1.00  0.00     0.032 A 
ATOM     14  C   UNL     1       8.925  -1.847   5.915  1.00  0.00     0.027 C 
ATOM     15  C   UNL     1       9.187   0.531   6.306  1.00  0.00     0.316 C 
BRANCH   6  16
ATOM     16  C   UNL     1       5.487   0.948   3.423  1.00  0.00    -0.014 A 
ATOM     17  C   UNL     1       3.399   1.829   1.628  1.00  0.00     0.048 A 
ATOM     18  C   UNL     1       3.837   2.629   2.685  1.00  0.00     0.027 A 
ATOM     19  C   UNL     1       4.097   0.653   1.384  1.00  0.00     0.027 A 
ATOM     20  C   UNL     1       4.905   2.221   3.529  1.00  0.00     0.011 A 
ATOM     21  C   UNL     1       5.114   0.221   2.269  1.00  0.00     0.011 A 
BRANCH  17  22
ATOM     22  N   UNL     1       2.177   2.166   0.968  1.00  0.00    -0.284 N 
ATOM     23  H   UNL     1       1.454   2.539   1.522  1.00  0.00     0.180 HD
BRANCH  22  24
ATOM     24  S   UNL     1       1.872   1.981  -0.663  1.00  0.00     0.229 S 
ATOM     25  C   UNL     1       1.399   0.272  -0.802  1.00  0.00     0.183 C 
ATOM     26  O   UNL     1       3.090   2.184  -1.412  1.00  0.00    -0.207 OA
ATOM     27  O   UNL     1       0.685   2.767  -0.942  1.00  0.00    -0.207 OA
ENDBRANCH  22  24
ENDBRANCH  17  22
ENDBRANCH   6  16
BRANCH  15  28
ATOM     28  C   UNL     1      10.661   0.906   6.094  1.00  0.00     0.430 C 
ATOM     29  F   UNL     1      11.227   0.180   5.098  1.00  0.00    -0.167 F 
ATOM     30  F   UNL     1      10.831   2.210   5.800  1.00  0.00    -0.167 F 
ATOM     31  F   UNL     1      11.391   0.657   7.215  1.00  0.00    -0.167 F 
ENDBRANCH  15  28
ENDBRANCH   3   5
ENDBRANCH   2   3
ENDBRANCH   1   2
BRANCH   1  32
ATOM     32  C   UNL     1       7.539   0.129  11.237  1.00  0.00     0.275 C 
BRANCH  32  33
ATOM     33  O   UNL     1       6.293   0.287  10.533  1.00  0.00    -0.458 OA
BRANCH  33  34
ATOM     34  C   UNL     1       6.233   1.410   9.775  1.00  0.00     0.338 C 
ATOM     35  O   UNL     1       7.115   2.252   9.681  1.00  0.00    -0.246 OA
BRANCH  34  36
ATOM     36  C   UNL     1       5.003   1.446   8.942  1.00  0.00     0.060 A 
ATOM     37  C   UNL     1       5.108   2.112   7.728  1.00  0.00     0.016 A 
ATOM     38  C   UNL     1       3.769   0.880   9.294  1.00  0.00     0.016 A 
ATOM     39  C   UNL     1       4.013   2.153   6.864  1.00  0.00     0.010 A 
ATOM     40  C   UNL     1       2.669   0.917   8.396  1.00  0.00     0.010 A 
ATOM     41  C   UNL     1       2.787   1.521   7.138  1.00  0.00    -0.014 A 
BRANCH  41  42
ATOM     42  C   UNL     1       1.709   1.600   6.076  1.00  0.00     0.031 A 
ATOM     43  C   UNL     1       1.246   2.961   5.635  1.00  0.00     0.074 A 
ATOM     44  C   UNL     1       1.290   0.539   5.340  1.00  0.00     0.049 A 
ATOM     45  N   UNL     1       0.531   3.289   4.590  1.00  0.00    -0.248 NA
ATOM     46  C   UNL     1       1.659   4.100   6.471  1.00  0.00     0.031 C 
ATOM     47  C   UNL     1       1.687  -0.834   5.574  1.00  0.00     0.029 A 
ATOM     48  N   UNL     1       0.529   0.436   4.190  1.00  0.00    -0.354 N 
ATOM     49  C   UNL     1       0.395   4.667   4.651  1.00  0.00     0.074 A 
ATOM     50  C   UNL     1       1.145   5.120   5.803  1.00  0.00     0.031 C 
ATOM     51  C   UNL     1       1.377  -1.601   4.518  1.00  0.00     0.029 A 
ATOM     52  C   UNL     1       0.546  -0.825   3.609  1.00  0.00     0.049 A 
ATOM     53  H   UNL     1       0.019   1.191   3.816  1.00  0.00     0.167 HD
ATOM     54  C   UNL     1      -0.333   5.482   3.856  1.00  0.00     0.031 A 
ATOM     55  C   UNL     1      -0.064  -1.326   2.509  1.00  0.00     0.031 A 
ATOM     56  C   UNL     1      -1.176   5.040   2.782  1.00  0.00     0.049 A 
ATOM     57  C   UNL     1      -1.021  -0.423   1.771  1.00  0.00     0.074 A 
ATOM     58  C   UNL     1      -1.978   5.811   1.959  1.00  0.00     0.029 A 
ATOM     59  N   UNL     1      -1.373   3.721   2.410  1.00  0.00    -0.354 N 
ATOM     60  N   UNL     1      -1.172   0.875   1.881  1.00  0.00    -0.248 NA
ATOM     61  C   UNL     1      -1.905  -1.051   0.777  1.00  0.00     0.031 C 
ATOM     62  C   UNL     1      -2.704   4.952   1.129  1.00  0.00     0.029 A 
ATOM     63  C   UNL     1      -2.285   3.654   1.369  1.00  0.00     0.049 A 
ATOM     64  H   UNL     1      -0.930   2.945   2.824  1.00  0.00     0.167 HD
ATOM     65  C   UNL     1      -2.158   1.219   0.961  1.00  0.00     0.074 A 
ATOM     66  C   UNL     1      -2.542   0.001   0.280  1.00  0.00     0.031 C 
ATOM     67  C   UNL     1      -2.688   2.440   0.703  1.00  0.00     0.031 A 
BRANCH  54  68
ATOM     68  C   UNL     1      -0.336   6.938   4.219  1.00  0.00    -0.014 A 
ATOM     69  C   UNL     1       0.775   7.760   3.966  1.00  0.00     0.010 A 
ATOM     70  C   UNL     1      -1.471   7.479   4.849  1.00  0.00     0.010 A 
ATOM     71  C   UNL     1       0.767   9.093   4.382  1.00  0.00     0.020 A 
ATOM     72  C   UNL     1      -1.492   8.816   5.243  1.00  0.00     0.020 A 
ATOM     73  C   UNL     1      -0.364   9.609   5.025  1.00  0.00     0.054 A 
BRANCH  73  74
ATOM     74  S   UNL     1      -0.339  11.335   5.577  1.00  0.00     0.124 S 
ATOM     75  O   UNL     1       0.623  11.283   6.676  1.00  0.00    -0.237 OA
ATOM     76  O   UNL     1       0.108  12.045   4.383  1.00  0.00    -0.237 OA
ATOM     77  O   UNL     1      -1.721  11.592   5.974  1.00  0.00    -0.744 OA
ENDBRANCH  73  74
ENDBRANCH  54  68
BRANCH  55  78
ATOM     78  C   UNL     1       0.125  -2.749   2.048  1.00  0.00    -0.014 A 
ATOM     79  C   UNL     1       0.559  -3.043   0.738  1.00  0.00     0.010 A 
ATOM     80  C   UNL     1      -0.186  -3.835   2.886  1.00  0.00     0.010 A 
ATOM     81  C   UNL     1       0.675  -4.363   0.281  1.00  0.00     0.020 A 
ATOM     82  C   UNL     1      -0.036  -5.159   2.451  1.00  0.00     0.020 A 
ATOM     83  C   UNL     1       0.381  -5.415   1.145  1.00  0.00     0.054 A 
BRANCH  83  84
ATOM     84  S   UNL     1       0.567  -7.119   0.545  1.00  0.00     0.124 S 
ATOM     85  O   UNL     1      -0.530  -7.225  -0.411  1.00  0.00    -0.237 OA
ATOM     86  O   UNL     1       1.909  -7.101  -0.031  1.00  0.00    -0.237 OA
ATOM     87  O   UNL     1       0.425  -7.924   1.756  1.00  0.00    -0.744 OA
ENDBRANCH  83  84
ENDBRANCH  55  78
BRANCH  67  88
ATOM     88  C   UNL     1      -3.710   2.545  -0.400  1.00  0.00    -0.014 A 
ATOM     89  C   UNL     1      -5.005   2.012  -0.267  1.00  0.00     0.010 A 
ATOM     90  C   UNL     1      -3.380   3.249  -1.573  1.00  0.00     0.010 A 
ATOM     91  C   UNL     1      -5.942   2.165  -1.294  1.00  0.00     0.020 A 
ATOM     92  C   UNL     1      -4.324   3.437  -2.586  1.00  0.00     0.020 A 
ATOM     93  C   UNL     1      -5.597   2.883  -2.445  1.00  0.00     0.054 A 
BRANCH  93  94
ATOM     94  S   UNL     1      -6.852   3.126  -3.732  1.00  0.00     0.124 S 
ATOM     95  O   UNL     1      -6.937   1.796  -4.329  1.00  0.00    -0.237 OA
ATOM     96  O   UNL     1      -8.023   3.543  -2.964  1.00  0.00    -0.237 OA
ATOM     97  O   UNL     1      -6.277   4.159  -4.590  1.00  0.00    -0.744 OA
ENDBRANCH  93  94
ENDBRANCH  67  88
ENDBRANCH  41  42
ENDBRANCH  34  36
ENDBRANCH  33  34
ENDBRANCH  32  33
ENDBRANCH   1  32
TORSDOF 18
