REMARK SMILES CC(C)[C@@H]1CN(C(=O)Cc2ccsc2)C[C@H]1C(=O)OCCOC(=O)c1ccc(-c2c3nc(c(-c4ccc(S(=O)(=O)[O-])cc4)c4ccc([nH]4)c(-c4ccc(S(=O)(=O)[O-])cc4)c4nc(c(-c5ccc(S(=O)(=O)[O-])cc5)c5ccc2[nH]5)C=C4)C=C3)cc1
REMARK SMILES IDX 20 1 19 2 17 3 18 4 16 5 4 6 5 7 6 8 15 9 2 10 1 11 3 12
REMARK SMILES IDX 7 13 8 14 9 15 10 16 11 17 14 18 12 19 13 20 21 21 22 22
REMARK SMILES IDX 23 23 24 24 25 25 26 26 84 27 27 28 83 29 28 30 29 31 30 32
REMARK SMILES IDX 77 33 31 34 82 35 76 36 78 37 32 38 81 39 75 40 74 41 33 43
REMARK SMILES IDX 63 44 44 45 62 46 45 47 48 48 61 49 79 50 46 51 47 52 60 54
REMARK SMILES IDX 80 55 49 56 34 57 35 58 43 59 36 60 42 61 37 62 38 63 39 64
REMARK SMILES IDX 40 65 41 66 64 67 65 68 73 69 66 70 72 71 67 72 68 73 69 74
REMARK SMILES IDX 70 75 71 76 50 77 51 78 59 79 52 80 58 81 53 82 54 83 55 84
REMARK SMILES IDX 56 85 57 86
REMARK H PARENT 78 42 48 53
REMARK Flexibility Score: inf
ROOT
ATOM      1  C   UNL     1      -2.399   3.503   0.505  1.00  0.00     0.274 C 
ENDROOT
BRANCH   1   2
ATOM      2  O   UNL     1      -2.114   2.225  -0.097  1.00  0.00    -0.462 OA
BRANCH   2   3
ATOM      3  C   UNL     1      -2.192   2.181  -1.452  1.00  0.00     0.311 C 
ATOM      4  O   UNL     1      -2.463   3.139  -2.166  1.00  0.00    -0.252 OA
BRANCH   3   5
ATOM      5  C   UNL     1      -1.993   0.796  -2.021  1.00  0.00     0.124 C 
ATOM      6  C   UNL     1      -1.349  -0.275  -1.115  1.00  0.00     0.027 C 
ATOM      7  C   UNL     1      -1.953  -1.571  -1.669  1.00  0.00     0.124 C 
ATOM      8  N   UNL     1      -3.272  -1.188  -2.149  1.00  0.00    -0.341 N 
ATOM      9  C   UNL     1      -3.378   0.245  -2.326  1.00  0.00     0.135 C 
BRANCH   6  10
ATOM     10  C   UNL     1       0.201  -0.194  -1.083  1.00  0.00    -0.012 C 
ATOM     11  C   UNL     1       0.729  -0.487   0.324  1.00  0.00     0.008 C 
ATOM     12  C   UNL     1       0.926  -1.094  -2.087  1.00  0.00     0.008 C 
ENDBRANCH   6  10
BRANCH   8  13
ATOM     13  C   UNL     1      -4.314  -2.010  -2.520  1.00  0.00     0.227 C 
ATOM     14  O   UNL     1      -5.381  -1.552  -2.935  1.00  0.00    -0.275 OA
BRANCH  13  15
ATOM     15  C   UNL     1      -4.115  -3.509  -2.396  1.00  0.00     0.136 C 
BRANCH  15  16
ATOM     16  C   UNL     1      -3.313  -4.133  -3.507  1.00  0.00    -0.028 A 
ATOM     17  C   UNL     1      -2.980  -5.530  -3.533  1.00  0.00     0.016 A 
ATOM     18  C   UNL     1      -2.806  -3.499  -4.628  1.00  0.00     0.069 A 
ATOM     19  C   UNL     1      -2.235  -5.884  -4.635  1.00  0.00     0.065 A 
ATOM     20  S   UNL     1      -1.926  -4.549  -5.652  1.00  0.00    -0.152 S 
ENDBRANCH  15  16
ENDBRANCH  13  15
ENDBRANCH   8  13
ENDBRANCH   3   5
ENDBRANCH   2   3
ENDBRANCH   1   2
BRANCH   1  21
ATOM     21  C   UNL     1      -1.119   4.260   0.850  1.00  0.00     0.275 C 
BRANCH  21  22
ATOM     22  O   UNL     1      -0.338   4.504  -0.332  1.00  0.00    -0.458 OA
BRANCH  22  23
ATOM     23  C   UNL     1       0.758   3.724  -0.466  1.00  0.00     0.338 C 
ATOM     24  O   UNL     1       1.177   2.888   0.315  1.00  0.00    -0.246 OA
BRANCH  23  25
ATOM     25  C   UNL     1       1.398   4.002  -1.758  1.00  0.00     0.060 A 
ATOM     26  C   UNL     1       0.946   3.345  -2.905  1.00  0.00     0.016 A 
ATOM     27  C   UNL     1       2.519   4.827  -1.803  1.00  0.00     0.016 A 
ATOM     28  C   UNL     1       1.639   3.486  -4.104  1.00  0.00     0.010 A 
ATOM     29  C   UNL     1       3.189   4.999  -3.016  1.00  0.00     0.010 A 
ATOM     30  C   UNL     1       2.765   4.315  -4.168  1.00  0.00    -0.014 A 
BRANCH  30  31
ATOM     31  C   UNL     1       3.527   4.451  -5.432  1.00  0.00     0.031 A 
ATOM     32  C   UNL     1       4.905   3.865  -5.540  1.00  0.00     0.074 A 
ATOM     33  C   UNL     1       2.984   5.110  -6.472  1.00  0.00     0.049 A 
ATOM     34  N   UNL     1       5.790   4.008  -6.492  1.00  0.00    -0.248 NA
ATOM     35  C   UNL     1       5.348   3.009  -4.428  1.00  0.00     0.031 C 
ATOM     36  C   UNL     1       1.632   5.672  -6.507  1.00  0.00     0.029 A 
ATOM     37  N   UNL     1       3.510   5.426  -7.699  1.00  0.00    -0.354 N 
ATOM     38  C   UNL     1       6.905   3.288  -6.083  1.00  0.00     0.074 A 
ATOM     39  C   UNL     1       6.588   2.713  -4.793  1.00  0.00     0.031 C 
ATOM     40  C   UNL     1       1.434   6.259  -7.699  1.00  0.00     0.029 A 
ATOM     41  C   UNL     1       2.661   6.168  -8.483  1.00  0.00     0.049 A 
ATOM     42  H   UNL     1       4.409   5.147  -7.989  1.00  0.00     0.167 HD
ATOM     43  C   UNL     1       8.088   3.128  -6.723  1.00  0.00     0.031 A 
ATOM     44  C   UNL     1       2.862   6.745  -9.683  1.00  0.00     0.031 A 
ATOM     45  C   UNL     1       8.395   3.705  -8.005  1.00  0.00     0.049 A 
ATOM     46  C   UNL     1       4.204   6.612 -10.344  1.00  0.00     0.074 A 
ATOM     47  C   UNL     1       9.568   3.613  -8.735  1.00  0.00     0.029 A 
ATOM     48  N   UNL     1       7.520   4.479  -8.752  1.00  0.00    -0.354 N 
ATOM     49  N   UNL     1       5.266   5.965  -9.925  1.00  0.00    -0.248 NA
ATOM     50  C   UNL     1       4.380   7.297 -11.631  1.00  0.00     0.031 C 
ATOM     51  C   UNL     1       9.413   4.361  -9.907  1.00  0.00     0.029 A 
ATOM     52  C   UNL     1       8.129   4.884  -9.927  1.00  0.00     0.049 A 
ATOM     53  H   UNL     1       6.600   4.707  -8.485  1.00  0.00     0.167 HD
ATOM     54  C   UNL     1       6.233   6.154 -10.904  1.00  0.00     0.074 A 
ATOM     55  C   UNL     1       5.627   6.966 -11.941  1.00  0.00     0.031 C 
ATOM     56  C   UNL     1       7.509   5.697 -10.941  1.00  0.00     0.031 A 
BRANCH  43  57
ATOM     57  C   UNL     1       9.151   2.333  -6.016  1.00  0.00    -0.014 A 
ATOM     58  C   UNL     1       9.076   0.932  -5.928  1.00  0.00     0.010 A 
ATOM     59  C   UNL     1      10.248   2.999  -5.441  1.00  0.00     0.010 A 
ATOM     60  C   UNL     1      10.057   0.214  -5.237  1.00  0.00     0.020 A 
ATOM     61  C   UNL     1      11.242   2.283  -4.767  1.00  0.00     0.020 A 
ATOM     62  C   UNL     1      11.129   0.896  -4.652  1.00  0.00     0.054 A 
BRANCH  62  63
ATOM     63  S   UNL     1      12.389  -0.054  -3.757  1.00  0.00     0.124 S 
ATOM     64  O   UNL     1      11.714  -0.329  -2.491  1.00  0.00    -0.237 OA
ATOM     65  O   UNL     1      12.597  -1.212  -4.622  1.00  0.00    -0.237 OA
ATOM     66  O   UNL     1      13.520   0.867  -3.673  1.00  0.00    -0.744 OA
ENDBRANCH  62  63
ENDBRANCH  43  57
BRANCH  44  67
ATOM     67  C   UNL     1       1.769   7.531 -10.312  1.00  0.00    -0.014 A 
ATOM     68  C   UNL     1       1.069   7.019 -11.418  1.00  0.00     0.010 A 
ATOM     69  C   UNL     1       1.395   8.780  -9.781  1.00  0.00     0.010 A 
ATOM     70  C   UNL     1       0.015   7.743 -11.983  1.00  0.00     0.020 A 
ATOM     71  C   UNL     1       0.328   9.495 -10.329  1.00  0.00     0.020 A 
ATOM     72  C   UNL     1      -0.351   8.975 -11.432  1.00  0.00     0.054 A 
BRANCH  72  73
ATOM     73  S   UNL     1      -1.771   9.864 -12.130  1.00  0.00     0.124 S 
ATOM     74  O   UNL     1      -1.190  10.476 -13.320  1.00  0.00    -0.237 OA
ATOM     75  O   UNL     1      -2.732   8.791 -12.375  1.00  0.00    -0.237 OA
ATOM     76  O   UNL     1      -2.146  10.792 -11.065  1.00  0.00    -0.744 OA
ENDBRANCH  72  73
ENDBRANCH  44  67
BRANCH  56  77
ATOM     77  C   UNL     1       8.325   6.046 -12.154  1.00  0.00    -0.014 A 
ATOM     78  C   UNL     1       8.881   7.328 -12.307  1.00  0.00     0.010 A 
ATOM     79  C   UNL     1       8.579   5.062 -13.126  1.00  0.00     0.010 A 
ATOM     80  C   UNL     1       9.660   7.627 -13.428  1.00  0.00     0.020 A 
ATOM     81  C   UNL     1       9.372   5.353 -14.238  1.00  0.00     0.020 A 
ATOM     82  C   UNL     1       9.898   6.639 -14.388  1.00  0.00     0.054 A 
BRANCH  82  83
ATOM     83  S   UNL     1      10.951   7.033 -15.812  1.00  0.00     0.124 S 
ATOM     84  O   UNL     1      10.035   7.782 -16.668  1.00  0.00    -0.237 OA
ATOM     85  O   UNL     1      12.029   7.815 -15.211  1.00  0.00    -0.237 OA
ATOM     86  O   UNL     1      11.349   5.722 -16.319  1.00  0.00    -0.744 OA
ENDBRANCH  82  83
ENDBRANCH  56  77
ENDBRANCH  30  31
ENDBRANCH  23  25
ENDBRANCH  22  23
ENDBRANCH  21  22
ENDBRANCH   1  21
TORSDOF 18
