REMARK SMILES C[C@H]1CCC[C@]1(C(=O)OCCOC(=O)c1ccc(-c2c3nc(c(-c4ccc(S(=O)(=O)[O-])cc4)c4ccc([nH]4)c(-c4ccc(S(=O)(=O)[O-])cc4)c4nc(c(-c5ccc(S(=O)(=O)[O-])cc5)c5ccc2[nH]5)C=C4)C=C3)cc1)c1ccc2c(c1)OCO2
REMARK SMILES IDX 11 1 10 2 9 3 7 4 8 5 6 6 1 7 2 8 3 9 4 10 5 11 75 12 76 13
REMARK SMILES IDX 80 14 77 15 79 16 78 17 81 18 83 19 82 20 12 21 13 22 14 23
REMARK SMILES IDX 15 24 16 25 74 26 17 27 73 28 18 29 19 30 20 31 67 32 21 33
REMARK SMILES IDX 72 34 66 35 68 36 22 37 71 38 65 39 64 40 23 42 53 43 34 44
REMARK SMILES IDX 52 45 35 46 38 47 51 48 69 49 36 50 37 51 50 53 70 54 39 55
REMARK SMILES IDX 24 56 25 57 33 58 26 59 32 60 27 61 28 62 29 63 30 64 31 65
REMARK SMILES IDX 54 66 55 67 63 68 56 69 62 70 57 71 58 72 59 73 60 74 61 75
REMARK SMILES IDX 40 76 41 77 49 78 42 79 48 80 43 81 44 82 45 83 46 84 47 85
REMARK H PARENT 68 41 38 52
REMARK Flexibility Score: inf
ROOT
ATOM      1  C   UNL     1      -0.600   1.091   4.810  1.00  0.00     0.275 C 
ENDROOT
BRANCH   1   2
ATOM      2  C   UNL     1      -1.667   0.699   3.793  1.00  0.00     0.274 C 
BRANCH   2   3
ATOM      3  O   UNL     1      -1.049   0.406   2.521  1.00  0.00    -0.461 OA
BRANCH   3   4
ATOM      4  C   UNL     1      -1.189   1.318   1.517  1.00  0.00     0.316 C 
ATOM      5  O   UNL     1      -1.861   2.334   1.646  1.00  0.00    -0.251 OA
BRANCH   4   6
ATOM      6  C   UNL     1      -0.565   0.822   0.172  1.00  0.00     0.096 C 
ATOM      7  C   UNL     1       1.609  -0.056   1.403  1.00  0.00     0.009 C 
ATOM      8  C   UNL     1       0.531  -0.294   0.352  1.00  0.00     0.008 C 
ATOM      9  C   UNL     1      -0.252  -1.595   0.515  1.00  0.00     0.005 C 
ATOM     10  C   UNL     1      -1.391  -1.436  -0.482  1.00  0.00     0.002 C 
ATOM     11  C   UNL     1      -1.734   0.056  -0.523  1.00  0.00     0.024 C 
BRANCH   6  12
ATOM     12  C   UNL     1      -0.029   1.942  -0.771  1.00  0.00    -0.027 A 
ATOM     13  C   UNL     1      -0.136   3.327  -0.491  1.00  0.00     0.009 A 
ATOM     14  C   UNL     1       0.628   1.592  -1.978  1.00  0.00     0.055 A 
ATOM     15  C   UNL     1       0.455   4.308  -1.305  1.00  0.00     0.051 A 
ATOM     16  C   UNL     1       1.234   2.572  -2.741  1.00  0.00     0.166 A 
ATOM     17  C   UNL     1       1.162   3.896  -2.404  1.00  0.00     0.165 A 
ATOM     18  O   UNL     1       1.969   2.363  -3.867  1.00  0.00    -0.454 OA
ATOM     19  O   UNL     1       1.846   4.692  -3.265  1.00  0.00    -0.454 OA
ATOM     20  C   UNL     1       2.452   3.702  -4.118  1.00  0.00     0.468 C 
ENDBRANCH   6  12
ENDBRANCH   4   6
ENDBRANCH   3   4
ENDBRANCH   2   3
ENDBRANCH   1   2
BRANCH   1  21
ATOM     21  O   UNL     1       0.002   2.319   4.378  1.00  0.00    -0.458 OA
BRANCH  21  22
ATOM     22  C   UNL     1       1.313   2.476   4.661  1.00  0.00     0.338 C 
ATOM     23  O   UNL     1       2.009   1.728   5.337  1.00  0.00    -0.246 OA
BRANCH  22  24
ATOM     24  C   UNL     1       1.804   3.716   4.021  1.00  0.00     0.060 A 
ATOM     25  C   UNL     1       1.283   4.134   2.795  1.00  0.00     0.016 A 
ATOM     26  C   UNL     1       2.836   4.444   4.614  1.00  0.00     0.016 A 
ATOM     27  C   UNL     1       1.821   5.243   2.140  1.00  0.00     0.010 A 
ATOM     28  C   UNL     1       3.322   5.599   3.989  1.00  0.00     0.010 A 
ATOM     29  C   UNL     1       2.840   6.001   2.729  1.00  0.00    -0.014 A 
BRANCH  29  30
ATOM     30  C   UNL     1       3.459   7.154   2.010  1.00  0.00     0.031 A 
ATOM     31  C   UNL     1       4.946   7.160   1.760  1.00  0.00     0.074 A 
ATOM     32  C   UNL     1       2.724   8.191   1.554  1.00  0.00     0.049 A 
ATOM     33  N   UNL     1       5.726   8.153   1.418  1.00  0.00    -0.248 NA
ATOM     34  C   UNL     1       5.648   5.878   1.935  1.00  0.00     0.031 C 
ATOM     35  C   UNL     1       1.266   8.303   1.620  1.00  0.00     0.029 A 
ATOM     36  N   UNL     1       3.114   9.353   0.929  1.00  0.00    -0.354 N 
ATOM     37  C   UNL     1       7.018   7.637   1.421  1.00  0.00     0.074 A 
ATOM     38  C   UNL     1       6.914   6.239   1.777  1.00  0.00     0.031 C 
ATOM     39  C   UNL     1       0.883   9.441   1.016  1.00  0.00     0.029 A 
ATOM     40  C   UNL     1       2.069  10.193   0.619  1.00  0.00     0.049 A 
ATOM     41  H   UNL     1       4.053   9.564   0.723  1.00  0.00     0.167 HD
ATOM     42  C   UNL     1       8.185   8.277   1.169  1.00  0.00     0.031 A 
ATOM     43  C   UNL     1       2.060  11.447   0.124  1.00  0.00     0.031 A 
ATOM     44  C   UNL     1       8.282   9.652   0.758  1.00  0.00     0.049 A 
ATOM     45  C   UNL     1       3.366  12.154  -0.120  1.00  0.00     0.074 A 
ATOM     46  C   UNL     1       9.420  10.403   0.517  1.00  0.00     0.029 A 
ATOM     47  N   UNL     1       7.198  10.474   0.495  1.00  0.00    -0.354 N 
ATOM     48  N   UNL     1       4.588  11.702   0.025  1.00  0.00    -0.248 NA
ATOM     49  C   UNL     1       3.290  13.555  -0.561  1.00  0.00     0.031 C 
ATOM     50  C   UNL     1       9.023  11.688   0.132  1.00  0.00     0.029 A 
ATOM     51  C   UNL     1       7.639  11.723   0.092  1.00  0.00     0.049 A 
ATOM     52  H   UNL     1       6.254  10.209   0.581  1.00  0.00     0.167 HD
ATOM     53  C   UNL     1       5.425  12.761  -0.305  1.00  0.00     0.074 A 
ATOM     54  C   UNL     1       4.573  13.870  -0.683  1.00  0.00     0.031 C 
ATOM     55  C   UNL     1       6.779  12.815  -0.286  1.00  0.00     0.031 A 
BRANCH  42  56
ATOM     56  C   UNL     1       9.458   7.509   1.401  1.00  0.00    -0.014 A 
ATOM     57  C   UNL     1       9.899   6.518   0.507  1.00  0.00     0.010 A 
ATOM     58  C   UNL     1      10.237   7.806   2.535  1.00  0.00     0.010 A 
ATOM     59  C   UNL     1      11.075   5.808   0.767  1.00  0.00     0.020 A 
ATOM     60  C   UNL     1      11.425   7.117   2.785  1.00  0.00     0.020 A 
ATOM     61  C   UNL     1      11.826   6.106   1.910  1.00  0.00     0.054 A 
BRANCH  61  62
ATOM     62  S   UNL     1      13.351   5.176   2.226  1.00  0.00     0.124 S 
ATOM     63  O   UNL     1      12.829   3.907   2.728  1.00  0.00    -0.237 OA
ATOM     64  O   UNL     1      13.975   5.119   0.906  1.00  0.00    -0.237 OA
ATOM     65  O   UNL     1      14.057   5.992   3.210  1.00  0.00    -0.744 OA
ENDBRANCH  61  62
ENDBRANCH  42  56
BRANCH  43  66
ATOM     66  C   UNL     1       0.765  12.150  -0.100  1.00  0.00    -0.014 A 
ATOM     67  C   UNL     1       0.323  12.439  -1.402  1.00  0.00     0.010 A 
ATOM     68  C   UNL     1      -0.037  12.526   0.994  1.00  0.00     0.010 A 
ATOM     69  C   UNL     1      -0.897  13.094  -1.607  1.00  0.00     0.020 A 
ATOM     70  C   UNL     1      -1.270  13.152   0.792  1.00  0.00     0.020 A 
ATOM     71  C   UNL     1      -1.687  13.442  -0.508  1.00  0.00     0.054 A 
BRANCH  71  72
ATOM     72  S   UNL     1      -3.300  14.225  -0.790  1.00  0.00     0.124 S 
ATOM     73  O   UNL     1      -2.924  15.613  -1.035  1.00  0.00    -0.237 OA
ATOM     74  O   UNL     1      -3.814  13.494  -1.946  1.00  0.00    -0.237 OA
ATOM     75  O   UNL     1      -4.018  13.980   0.459  1.00  0.00    -0.744 OA
ENDBRANCH  71  72
ENDBRANCH  43  66
BRANCH  55  76
ATOM     76  C   UNL     1       7.429  14.102  -0.712  1.00  0.00    -0.014 A 
ATOM     77  C   UNL     1       7.462  15.216   0.145  1.00  0.00     0.010 A 
ATOM     78  C   UNL     1       8.066  14.177  -1.964  1.00  0.00     0.010 A 
ATOM     79  C   UNL     1       8.103  16.392  -0.253  1.00  0.00     0.020 A 
ATOM     80  C   UNL     1       8.724  15.345  -2.357  1.00  0.00     0.020 A 
ATOM     81  C   UNL     1       8.728  16.451  -1.502  1.00  0.00     0.054 A 
BRANCH  81  82
ATOM     82  S   UNL     1       9.598  17.970  -1.978  1.00  0.00     0.124 S 
ATOM     83  O   UNL     1       8.492  18.851  -2.345  1.00  0.00    -0.237 OA
ATOM     84  O   UNL     1      10.310  18.332  -0.755  1.00  0.00    -0.237 OA
ATOM     85  O   UNL     1      10.452  17.547  -3.086  1.00  0.00    -0.744 OA
ENDBRANCH  81  82
ENDBRANCH  55  76
ENDBRANCH  29  30
ENDBRANCH  22  24
ENDBRANCH  21  22
ENDBRANCH   1  21
TORSDOF 15
