REMARK SMILES C[C@]([NH3+])(C(=O)N1[C@@H](C(=O)OCCOC(=O)c2ccc(-c3c4nc(c(-c5ccc(S(=O)(=O)[O-])cc5)c5ccc([nH]5)c(-c5ccc(S(=O)(=O)[O-])cc5)c5nc(c(-c6ccc(S(=O)(=O)[O-])cc6)c6ccc3[nH]6)C=C5)C=C4)cc2)C[C@H]2CCCC[C@@H]21)C(F)(F)F
REMARK SMILES IDX 11 1 10 2 8 3 9 4 7 5 6 6 82 7 76 8 77 9 81 10 78 11 80 12
REMARK SMILES IDX 79 13 4 14 5 15 2 16 1 17 83 18 84 19 85 20 86 21 3 22 12 26
REMARK SMILES IDX 13 27 14 28 15 29 16 30 17 31 75 32 18 33 74 34 19 35 20 36
REMARK SMILES IDX 21 37 68 38 22 39 73 40 67 41 69 42 23 43 72 44 66 45 65 46
REMARK SMILES IDX 24 48 54 49 35 50 53 51 36 52 39 53 52 54 70 55 37 56 38 57
REMARK SMILES IDX 51 59 71 60 40 61 25 62 26 63 34 64 27 65 33 66 28 67 29 68
REMARK SMILES IDX 30 69 31 70 32 71 55 72 56 73 64 74 57 75 63 76 58 77 59 78
REMARK SMILES IDX 60 79 61 80 62 81 41 82 42 83 50 84 43 85 49 86 44 87 45 88
REMARK SMILES IDX 46 89 47 90 48 91
REMARK H PARENT 3 23 3 24 3 25 69 47 39 58
REMARK Flexibility Score: inf
ROOT
ATOM      1  C   UNL     1      -1.979  -2.290  -1.742  1.00  0.00     0.274 C 
ENDROOT
BRANCH   1   2
ATOM      2  O   UNL     1      -1.626  -0.970  -1.269  1.00  0.00    -0.461 OA
BRANCH   2   3
ATOM      3  C   UNL     1      -1.221  -0.069  -2.205  1.00  0.00     0.329 C 
ATOM      4  O   UNL     1      -1.038  -0.335  -3.388  1.00  0.00    -0.250 OA
BRANCH   3   5
ATOM      5  C   UNL     1      -0.899   1.317  -1.606  1.00  0.00     0.196 C 
ATOM      6  N   UNL     1      -1.361   1.552  -0.218  1.00  0.00    -0.320 N 
ATOM      7  C   UNL     1      -2.464   2.510  -0.224  1.00  0.00     0.089 C 
ATOM      8  C   UNL     1      -1.615   2.399  -2.443  1.00  0.00     0.043 C 
ATOM      9  C   UNL     1      -2.043   3.409  -1.391  1.00  0.00     0.014 C 
ATOM     10  C   UNL     1      -2.706   3.392   1.002  1.00  0.00     0.025 C 
ATOM     11  C   UNL     1      -3.122   4.406  -1.768  1.00  0.00     0.006 C 
ATOM     12  C   UNL     1      -3.772   4.454   0.692  1.00  0.00     0.002 C 
ATOM     13  C   UNL     1      -3.452   5.281  -0.557  1.00  0.00     0.000 C 
BRANCH   6  14
ATOM     14  C   UNL     1      -0.906   0.967   0.950  1.00  0.00     0.294 C 
ATOM     15  O   UNL     1      -1.694   0.776   1.878  1.00  0.00    -0.267 OA
BRANCH  14  16
ATOM     16  C   UNL     1       0.607   0.657   1.106  1.00  0.00     0.267 C 
ATOM     17  C   UNL     1       1.423   1.933   0.817  1.00  0.00     0.100 C 
BRANCH  16  18
ATOM     18  C   UNL     1       0.824   0.289   2.607  1.00  0.00     0.453 C 
ATOM     19  F   UNL     1       0.176  -0.843   2.966  1.00  0.00    -0.164 F 
ATOM     20  F   UNL     1       2.146   0.058   2.847  1.00  0.00    -0.164 F 
ATOM     21  F   UNL     1       0.462   1.284   3.449  1.00  0.00    -0.164 F 
ENDBRANCH  16  18
BRANCH  16  22
ATOM     22  N   UNL     1       1.042  -0.447   0.186  1.00  0.00    -0.337 N 
ATOM     23  H   UNL     1       0.498  -1.287   0.383  1.00  0.00     0.345 HD
ATOM     24  H   UNL     1       2.032  -0.640   0.331  1.00  0.00     0.345 HD
ATOM     25  H   UNL     1       0.889  -0.162  -0.782  1.00  0.00     0.345 HD
ENDBRANCH  16  22
ENDBRANCH  14  16
ENDBRANCH   6  14
ENDBRANCH   3   5
ENDBRANCH   2   3
ENDBRANCH   1   2
BRANCH   1  26
ATOM     26  C   UNL     1      -3.364  -2.653  -1.219  1.00  0.00     0.275 C 
BRANCH  26  27
ATOM     27  O   UNL     1      -4.287  -1.674  -1.723  1.00  0.00    -0.458 OA
BRANCH  27  28
ATOM     28  C   UNL     1      -5.165  -1.177  -0.825  1.00  0.00     0.338 C 
ATOM     29  O   UNL     1      -5.353  -1.577   0.315  1.00  0.00    -0.246 OA
BRANCH  28  30
ATOM     30  C   UNL     1      -5.897  -0.043  -1.426  1.00  0.00     0.060 A 
ATOM     31  C   UNL     1      -5.269   0.828  -2.319  1.00  0.00     0.016 A 
ATOM     32  C   UNL     1      -7.210   0.205  -1.025  1.00  0.00     0.016 A 
ATOM     33  C   UNL     1      -5.924   1.988  -2.739  1.00  0.00     0.010 A 
ATOM     34  C   UNL     1      -7.888   1.327  -1.512  1.00  0.00     0.010 A 
ATOM     35  C   UNL     1      -7.239   2.265  -2.334  1.00  0.00    -0.014 A 
BRANCH  35  36
ATOM     36  C   UNL     1      -7.917   3.549  -2.690  1.00  0.00     0.031 A 
ATOM     37  C   UNL     1      -8.508   4.416  -1.600  1.00  0.00     0.074 A 
ATOM     38  C   UNL     1      -8.018   3.967  -3.969  1.00  0.00     0.049 A 
ATOM     39  N   UNL     1      -9.351   5.413  -1.700  1.00  0.00    -0.248 NA
ATOM     40  C   UNL     1      -8.114   4.104  -0.216  1.00  0.00     0.031 C 
ATOM     41  C   UNL     1      -7.453   3.292  -5.138  1.00  0.00     0.029 A 
ATOM     42  N   UNL     1      -8.634   5.078  -4.497  1.00  0.00    -0.354 N 
ATOM     43  C   UNL     1      -9.659   5.784  -0.394  1.00  0.00     0.074 A 
ATOM     44  C   UNL     1      -8.896   4.918   0.479  1.00  0.00     0.031 C 
ATOM     45  C   UNL     1      -7.700   4.027  -6.234  1.00  0.00     0.029 A 
ATOM     46  C   UNL     1      -8.532   5.168  -5.866  1.00  0.00     0.049 A 
ATOM     47  H   UNL     1      -9.103   5.747  -3.947  1.00  0.00     0.167 HD
ATOM     48  C   UNL     1     -10.509   6.746   0.039  1.00  0.00     0.031 A 
ATOM     49  C   UNL     1      -9.084   6.031  -6.741  1.00  0.00     0.031 A 
ATOM     50  C   UNL     1     -11.215   7.655  -0.824  1.00  0.00     0.049 A 
ATOM     51  C   UNL     1     -10.020   7.096  -6.246  1.00  0.00     0.074 A 
ATOM     52  C   UNL     1     -12.100   8.663  -0.477  1.00  0.00     0.029 A 
ATOM     53  N   UNL     1     -11.094   7.690  -2.204  1.00  0.00    -0.354 N 
ATOM     54  N   UNL     1     -10.390   7.357  -5.016  1.00  0.00    -0.248 NA
ATOM     55  C   UNL     1     -10.635   7.962  -7.261  1.00  0.00     0.031 C 
ATOM     56  C   UNL     1     -12.532   9.292  -1.651  1.00  0.00     0.029 A 
ATOM     57  C   UNL     1     -11.885   8.701  -2.724  1.00  0.00     0.049 A 
ATOM     58  H   UNL     1     -10.528   7.085  -2.737  1.00  0.00     0.167 HD
ATOM     59  C   UNL     1     -11.287   8.415  -5.110  1.00  0.00     0.074 A 
ATOM     60  C   UNL     1     -11.383   8.763  -6.513  1.00  0.00     0.031 C 
ATOM     61  C   UNL     1     -11.979   9.033  -4.122  1.00  0.00     0.031 A 
BRANCH  48  62
ATOM     62  C   UNL     1     -10.768   6.828   1.520  1.00  0.00    -0.014 A 
ATOM     63  C   UNL     1      -9.819   7.361   2.410  1.00  0.00     0.010 A 
ATOM     64  C   UNL     1     -12.006   6.384   2.024  1.00  0.00     0.010 A 
ATOM     65  C   UNL     1     -10.087   7.407   3.782  1.00  0.00     0.020 A 
ATOM     66  C   UNL     1     -12.287   6.452   3.391  1.00  0.00     0.020 A 
ATOM     67  C   UNL     1     -11.316   6.945   4.264  1.00  0.00     0.054 A 
BRANCH  67  68
ATOM     68  S   UNL     1     -11.648   7.024   6.047  1.00  0.00     0.124 S 
ATOM     69  O   UNL     1     -10.900   5.872   6.542  1.00  0.00    -0.237 OA
ATOM     70  O   UNL     1     -11.109   8.330   6.419  1.00  0.00    -0.237 OA
ATOM     71  O   UNL     1     -13.102   6.908   6.132  1.00  0.00    -0.744 OA
ENDBRANCH  67  68
ENDBRANCH  48  62
BRANCH  49  72
ATOM     72  C   UNL     1      -8.803   5.877  -8.194  1.00  0.00    -0.014 A 
ATOM     73  C   UNL     1      -7.963   6.789  -8.857  1.00  0.00     0.010 A 
ATOM     74  C   UNL     1      -9.330   4.785  -8.908  1.00  0.00     0.010 A 
ATOM     75  C   UNL     1      -7.645   6.602 -10.206  1.00  0.00     0.020 A 
ATOM     76  C   UNL     1      -8.991   4.580 -10.247  1.00  0.00     0.020 A 
ATOM     77  C   UNL     1      -8.153   5.493 -10.889  1.00  0.00     0.054 A 
BRANCH  77  78
ATOM     78  S   UNL     1      -7.639   5.201 -12.605  1.00  0.00     0.124 S 
ATOM     79  O   UNL     1      -8.522   6.097 -13.342  1.00  0.00    -0.237 OA
ATOM     80  O   UNL     1      -6.227   5.577 -12.585  1.00  0.00    -0.237 OA
ATOM     81  O   UNL     1      -7.889   3.773 -12.793  1.00  0.00    -0.744 OA
ENDBRANCH  77  78
ENDBRANCH  49  72
BRANCH  61  82
ATOM     82  C   UNL     1     -12.889  10.161  -4.520  1.00  0.00    -0.014 A 
ATOM     83  C   UNL     1     -14.135   9.906  -5.119  1.00  0.00     0.010 A 
ATOM     84  C   UNL     1     -12.512  11.489  -4.254  1.00  0.00     0.010 A 
ATOM     85  C   UNL     1     -14.977  10.964  -5.473  1.00  0.00     0.020 A 
ATOM     86  C   UNL     1     -13.359  12.548  -4.590  1.00  0.00     0.020 A 
ATOM     87  C   UNL     1     -14.581  12.279  -5.210  1.00  0.00     0.054 A 
BRANCH  87  88
ATOM     88  S   UNL     1     -15.702  13.637  -5.648  1.00  0.00     0.124 S 
ATOM     89  O   UNL     1     -15.506  13.739  -7.091  1.00  0.00    -0.237 OA
ATOM     90  O   UNL     1     -17.006  13.130  -5.225  1.00  0.00    -0.237 OA
ATOM     91  O   UNL     1     -15.198  14.765  -4.868  1.00  0.00    -0.744 OA
ENDBRANCH  87  88
ENDBRANCH  61  82
ENDBRANCH  35  36
ENDBRANCH  28  30
ENDBRANCH  27  28
ENDBRANCH  26  27
ENDBRANCH   1  26
TORSDOF 18
