REMARK SMILES CC(C)CCn1nc(C(=O)OCCOC(=O)c2ccc(-c3c4nc(c(-c5ccc(S(=O)(=O)[O-])cc5)c5ccc([nH]5)c(-c5ccc(S(=O)(=O)[O-])cc5)c5nc(c(-c6ccc(S(=O)(=O)[O-])cc6)c6ccc3[nH]6)C=C5)C=C4)cc2)c2c1CCN(C(=O)[C@@H]1CCc3nn(C)c(=O)n3C1)C2
REMARK SMILES IDX 12 1 11 2 9 3 10 4 8 5 6 6 7 7 78 8 77 9 79 10 95 11 80 12
REMARK SMILES IDX 81 13 5 14 4 15 2 16 1 17 3 18 82 19 83 20 84 21 85 22 94 23
REMARK SMILES IDX 86 24 93 25 87 26 91 27 88 28 89 29 92 30 90 31 13 32 14 33
REMARK SMILES IDX 15 34 16 35 17 36 18 37 76 38 19 39 75 40 20 41 21 42 22 43
REMARK SMILES IDX 69 44 23 45 74 46 68 47 70 48 24 49 73 50 67 51 66 52 25 54
REMARK SMILES IDX 55 55 36 56 54 57 37 58 40 59 53 60 71 61 38 62 39 63 52 65
REMARK SMILES IDX 72 66 41 67 26 68 27 69 35 70 28 71 34 72 29 73 30 74 31 75
REMARK SMILES IDX 32 76 33 77 56 78 57 79 65 80 58 81 64 82 59 83 60 84 61 85
REMARK SMILES IDX 62 86 63 87 42 88 43 89 51 90 44 91 50 92 45 93 46 94 47 95
REMARK SMILES IDX 48 96 49 97
REMARK H PARENT 70 53 40 64
REMARK Flexibility Score: inf
ROOT
ATOM      1  C   UNL     1       2.587  -7.732  -2.069  1.00  0.00     0.275 C 
ENDROOT
BRANCH   1   2
ATOM      2  O   UNL     1       1.731  -6.848  -1.335  1.00  0.00    -0.457 OA
BRANCH   2   3
ATOM      3  C   UNL     1       1.930  -5.499  -1.470  1.00  0.00     0.359 C 
ATOM      4  O   UNL     1       2.963  -5.001  -1.901  1.00  0.00    -0.244 OA
BRANCH   3   5
ATOM      5  C   UNL     1       0.733  -4.754  -1.046  1.00  0.00     0.175 A 
ATOM      6  N   UNL     1      -0.538  -3.143  -0.443  1.00  0.00    -0.268 N 
ATOM      7  N   UNL     1       0.686  -3.404  -0.947  1.00  0.00    -0.165 NA
ATOM      8  C   UNL     1      -1.190  -4.275  -0.085  1.00  0.00     0.046 A 
ATOM      9  C   UNL     1      -0.518  -5.321  -0.673  1.00  0.00     0.028 A 
ATOM     10  C   UNL     1      -2.370  -4.446   0.781  1.00  0.00     0.078 C 
ATOM     11  C   UNL     1      -1.024  -6.732  -0.712  1.00  0.00     0.159 C 
ATOM     12  C   UNL     1      -2.346  -5.930   1.202  1.00  0.00     0.126 C 
ATOM     13  N   UNL     1      -2.293  -6.830   0.048  1.00  0.00    -0.338 N 
BRANCH   6  14
ATOM     14  C   UNL     1      -1.036  -1.784  -0.354  1.00  0.00     0.145 C 
BRANCH  14  15
ATOM     15  C   UNL     1      -0.670  -1.084   0.954  1.00  0.00     0.027 C 
BRANCH  15  16
ATOM     16  C   UNL     1       0.835  -0.825   1.135  1.00  0.00    -0.016 C 
ATOM     17  C   UNL     1       1.373   0.166   0.103  1.00  0.00     0.007 C 
ATOM     18  C   UNL     1       1.111  -0.312   2.549  1.00  0.00     0.007 C 
ENDBRANCH  15  16
ENDBRANCH  14  15
ENDBRANCH   6  14
BRANCH  13  19
ATOM     19  C   UNL     1      -3.179  -7.822  -0.321  1.00  0.00     0.227 C 
ATOM     20  O   UNL     1      -2.856  -8.624  -1.211  1.00  0.00    -0.274 OA
BRANCH  19  21
ATOM     21  C   UNL     1      -4.585  -8.021   0.291  1.00  0.00     0.099 C 
ATOM     22  C   UNL     1      -5.662  -7.004  -0.103  1.00  0.00     0.023 C 
ATOM     23  C   UNL     1      -4.647  -8.407   1.763  1.00  0.00     0.142 C 
ATOM     24  C   UNL     1      -5.854  -5.828   0.845  1.00  0.00     0.078 C 
ATOM     25  N   UNL     1      -4.935  -7.287   2.628  1.00  0.00    -0.278 N 
ATOM     26  C   UNL     1      -5.401  -6.080   2.251  1.00  0.00     0.133 A 
ATOM     27  C   UNL     1      -4.396  -7.118   3.881  1.00  0.00     0.345 A 
ATOM     28  N   UNL     1      -5.246  -5.135   3.135  1.00  0.00    -0.155 NA
ATOM     29  N   UNL     1      -4.597  -5.764   4.177  1.00  0.00    -0.216 N 
ATOM     30  O   UNL     1      -3.743  -7.928   4.520  1.00  0.00    -0.246 OA
ATOM     31  C   UNL     1      -3.849  -5.034   5.165  1.00  0.00     0.179 C 
ENDBRANCH  19  21
ENDBRANCH  13  19
ENDBRANCH   3   5
ENDBRANCH   2   3
ENDBRANCH   1   2
BRANCH   1  32
ATOM     32  C   UNL     1       2.009  -7.962  -3.457  1.00  0.00     0.275 C 
BRANCH  32  33
ATOM     33  O   UNL     1       2.258  -6.818  -4.268  1.00  0.00    -0.458 OA
BRANCH  33  34
ATOM     34  C   UNL     1       1.255  -5.917  -4.373  1.00  0.00     0.338 C 
ATOM     35  O   UNL     1       0.203  -5.920  -3.763  1.00  0.00    -0.246 OA
BRANCH  34  36
ATOM     36  C   UNL     1       1.586  -4.989  -5.461  1.00  0.00     0.060 A 
ATOM     37  C   UNL     1       0.699  -3.941  -5.728  1.00  0.00     0.016 A 
ATOM     38  C   UNL     1       2.633  -5.313  -6.335  1.00  0.00     0.016 A 
ATOM     39  C   UNL     1       0.756  -3.331  -6.965  1.00  0.00     0.010 A 
ATOM     40  C   UNL     1       2.675  -4.723  -7.572  1.00  0.00     0.010 A 
ATOM     41  C   UNL     1       1.691  -3.793  -7.896  1.00  0.00    -0.014 A 
BRANCH  41  42
ATOM     42  C   UNL     1       1.639  -3.281  -9.246  1.00  0.00     0.031 A 
ATOM     43  C   UNL     1       2.255  -1.951  -9.433  1.00  0.00     0.074 A 
ATOM     44  C   UNL     1       1.241  -4.051 -10.274  1.00  0.00     0.049 A 
ATOM     45  N   UNL     1       1.687  -0.861  -9.825  1.00  0.00    -0.248 NA
ATOM     46  C   UNL     1       3.661  -1.793  -9.027  1.00  0.00     0.031 C 
ATOM     47  C   UNL     1       0.963  -5.490 -10.266  1.00  0.00     0.029 A 
ATOM     48  N   UNL     1       1.155  -3.723 -11.589  1.00  0.00    -0.354 N 
ATOM     49  C   UNL     1       2.701   0.086  -9.892  1.00  0.00     0.074 A 
ATOM     50  C   UNL     1       3.849  -0.492  -9.238  1.00  0.00     0.031 C 
ATOM     51  C   UNL     1       0.991  -5.946 -11.539  1.00  0.00     0.029 A 
ATOM     52  C   UNL     1       1.163  -4.817 -12.440  1.00  0.00     0.049 A 
ATOM     53  H   UNL     1       1.092  -2.794 -11.908  1.00  0.00     0.167 HD
ATOM     54  C   UNL     1       2.609   1.194 -10.676  1.00  0.00     0.031 A 
ATOM     55  C   UNL     1       1.418  -4.789 -13.771  1.00  0.00     0.031 A 
ATOM     56  C   UNL     1       1.262   1.443 -11.112  1.00  0.00     0.049 A 
ATOM     57  C   UNL     1       1.213  -3.389 -14.233  1.00  0.00     0.074 A 
ATOM     58  C   UNL     1       0.063   1.656 -10.459  1.00  0.00     0.029 A 
ATOM     59  N   UNL     1       0.932   1.097 -12.403  1.00  0.00    -0.354 N 
ATOM     60  N   UNL     1       0.054  -2.788 -14.229  1.00  0.00    -0.248 NA
ATOM     61  C   UNL     1       2.367  -2.502 -14.281  1.00  0.00     0.031 C 
ATOM     62  C   UNL     1      -0.907   0.957 -11.235  1.00  0.00     0.029 A 
ATOM     63  C   UNL     1      -0.254   0.408 -12.341  1.00  0.00     0.049 A 
ATOM     64  H   UNL     1       1.448   1.304 -13.215  1.00  0.00     0.167 HD
ATOM     65  C   UNL     1       0.326  -1.478 -13.854  1.00  0.00     0.074 A 
ATOM     66  C   UNL     1       1.773  -1.338 -13.999  1.00  0.00     0.031 C 
ATOM     67  C   UNL     1      -0.597  -0.713 -13.195  1.00  0.00     0.031 A 
BRANCH  54  68
ATOM     68  C   UNL     1       3.806   1.829 -11.327  1.00  0.00    -0.014 A 
ATOM     69  C   UNL     1       3.664   3.072 -11.970  1.00  0.00     0.010 A 
ATOM     70  C   UNL     1       5.007   1.121 -11.547  1.00  0.00     0.010 A 
ATOM     71  C   UNL     1       4.661   3.558 -12.827  1.00  0.00     0.020 A 
ATOM     72  C   UNL     1       6.026   1.618 -12.357  1.00  0.00     0.020 A 
ATOM     73  C   UNL     1       5.830   2.820 -13.022  1.00  0.00     0.054 A 
BRANCH  73  74
ATOM     74  S   UNL     1       7.063   3.400 -14.211  1.00  0.00     0.124 S 
ATOM     75  O   UNL     1       6.362   3.220 -15.479  1.00  0.00    -0.237 OA
ATOM     76  O   UNL     1       7.273   4.783 -13.793  1.00  0.00    -0.237 OA
ATOM     77  O   UNL     1       8.199   2.508 -13.990  1.00  0.00    -0.744 OA
ENDBRANCH  73  74
ENDBRANCH  54  68
BRANCH  55  78
ATOM     78  C   UNL     1       2.175  -5.807 -14.546  1.00  0.00    -0.014 A 
ATOM     79  C   UNL     1       2.211  -5.776 -15.951  1.00  0.00     0.010 A 
ATOM     80  C   UNL     1       3.075  -6.677 -13.891  1.00  0.00     0.010 A 
ATOM     81  C   UNL     1       3.143  -6.549 -16.667  1.00  0.00     0.020 A 
ATOM     82  C   UNL     1       3.994  -7.459 -14.596  1.00  0.00     0.020 A 
ATOM     83  C   UNL     1       4.039  -7.374 -15.983  1.00  0.00     0.054 A 
BRANCH  83  84
ATOM     84  S   UNL     1       5.345  -8.242 -16.899  1.00  0.00     0.124 S 
ATOM     85  O   UNL     1       4.591  -9.260 -17.625  1.00  0.00    -0.237 OA
ATOM     86  O   UNL     1       5.921  -7.178 -17.715  1.00  0.00    -0.237 OA
ATOM     87  O   UNL     1       6.223  -8.755 -15.847  1.00  0.00    -0.744 OA
ENDBRANCH  83  84
ENDBRANCH  55  78
BRANCH  67  88
ATOM     88  C   UNL     1      -2.027  -1.204 -13.107  1.00  0.00    -0.014 A 
ATOM     89  C   UNL     1      -2.392  -2.431 -12.519  1.00  0.00     0.010 A 
ATOM     90  C   UNL     1      -3.052  -0.310 -13.470  1.00  0.00     0.010 A 
ATOM     91  C   UNL     1      -3.741  -2.764 -12.323  1.00  0.00     0.020 A 
ATOM     92  C   UNL     1      -4.397  -0.626 -13.259  1.00  0.00     0.020 A 
ATOM     93  C   UNL     1      -4.737  -1.855 -12.693  1.00  0.00     0.054 A 
BRANCH  93  94
ATOM     94  S   UNL     1      -6.477  -2.263 -12.376  1.00  0.00     0.124 S 
ATOM     95  O   UNL     1      -6.730  -3.340 -13.330  1.00  0.00    -0.237 OA
ATOM     96  O   UNL     1      -6.470  -2.658 -10.969  1.00  0.00    -0.237 OA
ATOM     97  O   UNL     1      -7.185  -1.014 -12.655  1.00  0.00    -0.744 OA
ENDBRANCH  93  94
ENDBRANCH  67  88
ENDBRANCH  41  42
ENDBRANCH  34  36
ENDBRANCH  33  34
ENDBRANCH  32  33
ENDBRANCH   1  32
TORSDOF 19
