REMARK SMILES CC/C(C(=O)OCCOC(=O)c1ccc(-c2c3nc(c(-c4ccc(S(=O)(=O)[O-])cc4)c4ccc([nH]4)c(-c4ccc(S(=O)(=O)[O-])cc4)c4nc(c(-c5ccc(S(=O)(=O)[O-])cc5)c5ccc2[nH]5)C=C4)C=C3)cc1)=C1\CCc2ccccc21
REMARK SMILES IDX 8 1 7 2 6 3 4 4 5 5 3 6 72 7 73 8 80 9 74 10 75 11 79 12
REMARK SMILES IDX 76 13 78 14 77 15 2 16 1 17 9 18 10 19 11 20 12 21 13 22
REMARK SMILES IDX 71 23 14 24 70 25 15 26 16 27 17 28 64 29 18 30 69 31 63 32
REMARK SMILES IDX 65 33 19 34 68 35 62 36 61 37 20 39 50 40 31 41 49 42 32 43
REMARK SMILES IDX 35 44 48 45 66 46 33 47 34 48 47 50 67 51 36 52 21 53 22 54
REMARK SMILES IDX 30 55 23 56 29 57 24 58 25 59 26 60 27 61 28 62 51 63 52 64
REMARK SMILES IDX 60 65 53 66 59 67 54 68 55 69 56 70 57 71 58 72 37 73 38 74
REMARK SMILES IDX 46 75 39 76 45 77 40 78 41 79 42 80 43 81 44 82
REMARK H PARENT 65 38 35 49
REMARK Flexibility Score: inf
ROOT
ATOM      1  C   UNL     1       2.740  -0.663  -4.574  1.00  0.00     0.275 C 
ENDROOT
BRANCH   1   2
ATOM      2  C   UNL     1       1.728   0.475  -4.612  1.00  0.00     0.275 C 
BRANCH   2   3
ATOM      3  O   UNL     1       1.865   1.285  -3.427  1.00  0.00    -0.459 OA
BRANCH   3   4
ATOM      4  C   UNL     1       0.724   1.558  -2.757  1.00  0.00     0.334 C 
ATOM      5  O   UNL     1      -0.370   1.060  -2.976  1.00  0.00    -0.247 OA
BRANCH   4   6
ATOM      6  C   UNL     1       0.950   2.500  -1.626  1.00  0.00     0.041 C 
ATOM      7  C   UNL     1       1.316   3.785  -1.827  1.00  0.00    -0.030 C 
ATOM      8  C   UNL     1       1.153   4.901  -0.805  1.00  0.00     0.041 C 
ATOM      9  C   UNL     1       1.687   4.494  -3.063  1.00  0.00    -0.019 A 
ATOM     10  C   UNL     1       0.625   6.086  -1.627  1.00  0.00     0.041 C 
ATOM     11  C   UNL     1       1.248   5.818  -2.962  1.00  0.00    -0.040 A 
ATOM     12  C   UNL     1       2.437   4.110  -4.163  1.00  0.00     0.009 A 
ATOM     13  C   UNL     1       1.405   6.720  -4.005  1.00  0.00     0.004 A 
ATOM     14  C   UNL     1       2.627   5.013  -5.213  1.00  0.00     0.001 A 
ATOM     15  C   UNL     1       2.090   6.303  -5.145  1.00  0.00     0.000 A 
BRANCH   6  16
ATOM     16  C   UNL     1       0.470   1.964  -0.293  1.00  0.00     0.040 C 
ATOM     17  C   UNL     1       1.631   1.546   0.600  1.00  0.00     0.009 C 
ENDBRANCH   6  16
ENDBRANCH   4   6
ENDBRANCH   3   4
ENDBRANCH   2   3
ENDBRANCH   1   2
BRANCH   1  18
ATOM     18  O   UNL     1       2.372  -1.566  -3.519  1.00  0.00    -0.458 OA
BRANCH  18  19
ATOM     19  C   UNL     1       3.103  -1.454  -2.394  1.00  0.00     0.338 C 
ATOM     20  O   UNL     1       4.127  -0.793  -2.227  1.00  0.00    -0.246 OA
BRANCH  19  21
ATOM     21  C   UNL     1       2.455  -2.190  -1.309  1.00  0.00     0.060 A 
ATOM     22  C   UNL     1       1.320  -1.640  -0.719  1.00  0.00     0.016 A 
ATOM     23  C   UNL     1       3.074  -3.305  -0.750  1.00  0.00     0.016 A 
ATOM     24  C   UNL     1       0.890  -2.113   0.518  1.00  0.00     0.010 A 
ATOM     25  C   UNL     1       2.566  -3.849   0.434  1.00  0.00     0.010 A 
ATOM     26  C   UNL     1       1.511  -3.220   1.121  1.00  0.00    -0.014 A 
BRANCH  26  27
ATOM     27  C   UNL     1       1.119  -3.658   2.495  1.00  0.00     0.031 A 
ATOM     28  C   UNL     1       2.157  -3.741   3.594  1.00  0.00     0.074 A 
ATOM     29  C   UNL     1      -0.166  -3.948   2.788  1.00  0.00     0.049 A 
ATOM     30  N   UNL     1       2.053  -4.252   4.796  1.00  0.00    -0.248 NA
ATOM     31  C   UNL     1       3.493  -3.197   3.296  1.00  0.00     0.031 C 
ATOM     32  C   UNL     1      -1.290  -3.871   1.852  1.00  0.00     0.029 A 
ATOM     33  N   UNL     1      -0.748  -4.345   3.967  1.00  0.00    -0.354 N 
ATOM     34  C   UNL     1       3.321  -4.162   5.363  1.00  0.00     0.074 A 
ATOM     35  C   UNL     1       4.179  -3.545   4.375  1.00  0.00     0.031 C 
ATOM     36  C   UNL     1      -2.429  -4.140   2.507  1.00  0.00     0.029 A 
ATOM     37  C   UNL     1      -2.111  -4.509   3.882  1.00  0.00     0.049 A 
ATOM     38  H   UNL     1      -0.238  -4.497   4.795  1.00  0.00     0.167 HD
ATOM     39  C   UNL     1       3.736  -4.561   6.591  1.00  0.00     0.031 A 
ATOM     40  C   UNL     1      -3.008  -4.943   4.789  1.00  0.00     0.031 A 
ATOM     41  C   UNL     1       2.867  -5.114   7.599  1.00  0.00     0.049 A 
ATOM     42  C   UNL     1      -2.529  -5.367   6.148  1.00  0.00     0.074 A 
ATOM     43  C   UNL     1       3.191  -5.546   8.874  1.00  0.00     0.029 A 
ATOM     44  N   UNL     1       1.498  -5.283   7.457  1.00  0.00    -0.354 N 
ATOM     45  N   UNL     1      -1.310  -5.360   6.631  1.00  0.00    -0.248 NA
ATOM     46  C   UNL     1      -3.547  -5.874   7.078  1.00  0.00     0.031 C 
ATOM     47  C   UNL     1       2.022  -6.007   9.492  1.00  0.00     0.029 A 
ATOM     48  C   UNL     1       0.963  -5.814   8.620  1.00  0.00     0.049 A 
ATOM     49  H   UNL     1       0.982  -5.059   6.650  1.00  0.00     0.167 HD
ATOM     50  C   UNL     1      -1.415  -5.860   7.924  1.00  0.00     0.074 A 
ATOM     51  C   UNL     1      -2.820  -6.128   8.157  1.00  0.00     0.031 C 
ATOM     52  C   UNL     1      -0.435  -6.086   8.834  1.00  0.00     0.031 A 
BRANCH  39  53
ATOM     53  C   UNL     1       5.208  -4.457   6.902  1.00  0.00    -0.014 A 
ATOM     54  C   UNL     1       5.834  -3.220   7.131  1.00  0.00     0.010 A 
ATOM     55  C   UNL     1       5.972  -5.636   7.002  1.00  0.00     0.010 A 
ATOM     56  C   UNL     1       7.204  -3.160   7.411  1.00  0.00     0.020 A 
ATOM     57  C   UNL     1       7.335  -5.583   7.309  1.00  0.00     0.020 A 
ATOM     58  C   UNL     1       7.947  -4.343   7.493  1.00  0.00     0.054 A 
BRANCH  58  59
ATOM     59  S   UNL     1       9.718  -4.241   7.875  1.00  0.00     0.124 S 
ATOM     60  O   UNL     1      10.273  -3.776   6.606  1.00  0.00    -0.237 OA
ATOM     61  O   UNL     1       9.758  -3.274   8.969  1.00  0.00    -0.237 OA
ATOM     62  O   UNL     1      10.072  -5.609   8.244  1.00  0.00    -0.744 OA
ENDBRANCH  58  59
ENDBRANCH  39  53
BRANCH  40  63
ATOM     63  C   UNL     1      -4.447  -5.040   4.419  1.00  0.00    -0.014 A 
ATOM     64  C   UNL     1      -5.395  -4.173   4.991  1.00  0.00     0.010 A 
ATOM     65  C   UNL     1      -4.872  -5.985   3.467  1.00  0.00     0.010 A 
ATOM     66  C   UNL     1      -6.741  -4.253   4.621  1.00  0.00     0.020 A 
ATOM     67  C   UNL     1      -6.210  -6.045   3.069  1.00  0.00     0.020 A 
ATOM     68  C   UNL     1      -7.138  -5.185   3.657  1.00  0.00     0.054 A 
BRANCH  68  69
ATOM     69  S   UNL     1      -8.874  -5.222   3.130  1.00  0.00     0.124 S 
ATOM     70  O   UNL     1      -9.511  -5.934   4.233  1.00  0.00    -0.237 OA
ATOM     71  O   UNL     1      -9.204  -3.803   3.017  1.00  0.00    -0.237 OA
ATOM     72  O   UNL     1      -8.828  -5.944   1.860  1.00  0.00    -0.744 OA
ENDBRANCH  68  69
ENDBRANCH  40  63
BRANCH  52  73
ATOM     73  C   UNL     1      -0.860  -6.625  10.172  1.00  0.00    -0.014 A 
ATOM     74  C   UNL     1      -1.288  -7.957  10.319  1.00  0.00     0.010 A 
ATOM     75  C   UNL     1      -0.829  -5.785  11.300  1.00  0.00     0.010 A 
ATOM     76  C   UNL     1      -1.728  -8.424  11.560  1.00  0.00     0.020 A 
ATOM     77  C   UNL     1      -1.245  -6.256  12.548  1.00  0.00     0.020 A 
ATOM     78  C   UNL     1      -1.713  -7.566  12.665  1.00  0.00     0.054 A 
BRANCH  78  79
ATOM     79  S   UNL     1      -2.292  -8.190  14.267  1.00  0.00     0.124 S 
ATOM     80  O   UNL     1      -3.742  -8.168  14.093  1.00  0.00    -0.237 OA
ATOM     81  O   UNL     1      -1.688  -9.518  14.334  1.00  0.00    -0.237 OA
ATOM     82  O   UNL     1      -1.764  -7.223  15.225  1.00  0.00    -0.744 OA
ENDBRANCH  78  79
ENDBRANCH  52  73
ENDBRANCH  26  27
ENDBRANCH  19  21
ENDBRANCH  18  19
ENDBRANCH   1  18
TORSDOF 15
