REMARK SMILES C[C@@H]1[C@@H](C(=O)OCCOC(=O)c2ccc(-c3c4nc(c(-c5ccc(S(=O)(=O)[O-])cc5)c5ccc([nH]5)c(-c5ccc(S(=O)(=O)[O-])cc5)c5nc(c(-c6ccc(S(=O)(=O)[O-])cc6)c6ccc3[nH]6)C=C5)C=C4)cc2)CCN1C(=O)CCCC1CCCCC1
REMARK SMILES IDX 7 1 6 2 4 3 5 4 3 5 1 6 2 7 74 8 72 9 73 10 75 11 76 12
REMARK SMILES IDX 77 13 78 14 79 15 80 16 81 17 85 18 82 19 84 20 83 21 8 22
REMARK SMILES IDX 9 23 10 24 11 25 12 26 13 27 71 28 14 29 70 30 15 31 16 32
REMARK SMILES IDX 17 33 64 34 18 35 69 36 63 37 65 38 19 39 68 40 62 41 61 42
REMARK SMILES IDX 20 44 50 45 31 46 49 47 32 48 35 49 48 50 66 51 33 52 34 53
REMARK SMILES IDX 47 55 67 56 36 57 21 58 22 59 30 60 23 61 29 62 24 63 25 64
REMARK SMILES IDX 26 65 27 66 28 67 51 68 52 69 60 70 53 71 59 72 54 73 55 74
REMARK SMILES IDX 56 75 57 76 58 77 37 78 38 79 46 80 39 81 45 82 40 83 41 84
REMARK SMILES IDX 42 85 43 86 44 87
REMARK H PARENT 65 43 35 54
REMARK Flexibility Score: inf
ROOT
ATOM      1  C   UNL     1      -2.119   2.114  -3.504  1.00  0.00     0.274 C 
ENDROOT
BRANCH   1   2
ATOM      2  O   UNL     1      -1.763   2.098  -2.104  1.00  0.00    -0.462 OA
BRANCH   2   3
ATOM      3  C   UNL     1      -1.049   1.017  -1.678  1.00  0.00     0.311 C 
ATOM      4  O   UNL     1      -0.523   0.205  -2.426  1.00  0.00    -0.252 OA
BRANCH   3   5
ATOM      5  C   UNL     1      -1.035   0.952  -0.151  1.00  0.00     0.123 C 
ATOM      6  C   UNL     1       0.223  -0.078   1.822  1.00  0.00     0.032 C 
ATOM      7  C   UNL     1      -0.218  -0.241   0.365  1.00  0.00     0.096 C 
ATOM      8  N   UNL     1      -1.123  -1.364   0.202  1.00  0.00    -0.339 N 
ATOM      9  C   UNL     1      -2.428   0.614   0.386  1.00  0.00     0.039 C 
ATOM     10  C   UNL     1      -2.502  -0.912   0.274  1.00  0.00     0.121 C 
BRANCH   8  11
ATOM     11  C   UNL     1      -0.819  -2.625  -0.273  1.00  0.00     0.222 C 
ATOM     12  O   UNL     1      -1.718  -3.398  -0.617  1.00  0.00    -0.275 OA
BRANCH  11  13
ATOM     13  C   UNL     1       0.632  -3.103  -0.259  1.00  0.00     0.100 C 
BRANCH  13  14
ATOM     14  C   UNL     1       1.532  -2.821  -1.464  1.00  0.00     0.010 C 
BRANCH  14  15
ATOM     15  C   UNL     1       2.366  -1.532  -1.567  1.00  0.00     0.004 C 
BRANCH  15  16
ATOM     16  C   UNL     1       3.446  -1.104  -0.520  1.00  0.00    -0.011 C 
ATOM     17  C   UNL     1       3.336   0.398  -0.130  1.00  0.00     0.003 C 
ATOM     18  C   UNL     1       3.563  -1.974   0.727  1.00  0.00     0.003 C 
ATOM     19  C   UNL     1       4.361   0.869   0.895  1.00  0.00     0.000 C 
ATOM     20  C   UNL     1       4.676  -1.491   1.653  1.00  0.00     0.000 C 
ATOM     21  C   UNL     1       4.418  -0.056   2.097  1.00  0.00     0.000 C 
ENDBRANCH  15  16
ENDBRANCH  14  15
ENDBRANCH  13  14
ENDBRANCH  11  13
ENDBRANCH   8  11
ENDBRANCH   3   5
ENDBRANCH   2   3
ENDBRANCH   1   2
BRANCH   1  22
ATOM     22  C   UNL     1      -1.268   3.089  -4.319  1.00  0.00     0.275 C 
BRANCH  22  23
ATOM     23  O   UNL     1      -0.004   2.490  -4.665  1.00  0.00    -0.458 OA
BRANCH  23  24
ATOM     24  C   UNL     1       1.103   3.178  -4.300  1.00  0.00     0.338 C 
ATOM     25  O   UNL     1       1.150   4.256  -3.734  1.00  0.00    -0.246 OA
BRANCH  24  26
ATOM     26  C   UNL     1       2.293   2.339  -4.528  1.00  0.00     0.060 A 
ATOM     27  C   UNL     1       2.633   1.483  -3.497  1.00  0.00     0.016 A 
ATOM     28  C   UNL     1       3.142   2.460  -5.634  1.00  0.00     0.016 A 
ATOM     29  C   UNL     1       3.825   0.770  -3.561  1.00  0.00     0.010 A 
ATOM     30  C   UNL     1       4.337   1.702  -5.699  1.00  0.00     0.010 A 
ATOM     31  C   UNL     1       4.691   0.846  -4.649  1.00  0.00    -0.014 A 
BRANCH  31  32
ATOM     32  C   UNL     1       5.964   0.074  -4.521  1.00  0.00     0.031 A 
ATOM     33  C   UNL     1       7.209   0.763  -4.029  1.00  0.00     0.074 A 
ATOM     34  C   UNL     1       5.961  -1.278  -4.538  1.00  0.00     0.049 A 
ATOM     35  N   UNL     1       8.415   0.279  -3.868  1.00  0.00    -0.248 NA
ATOM     36  C   UNL     1       7.064   2.167  -3.614  1.00  0.00     0.031 C 
ATOM     37  C   UNL     1       4.774  -2.118  -4.714  1.00  0.00     0.029 A 
ATOM     38  N   UNL     1       6.975  -2.187  -4.329  1.00  0.00    -0.354 N 
ATOM     39  C   UNL     1       9.184   1.328  -3.377  1.00  0.00     0.074 A 
ATOM     40  C   UNL     1       8.298   2.464  -3.229  1.00  0.00     0.031 C 
ATOM     41  C   UNL     1       5.119  -3.407  -4.558  1.00  0.00     0.029 A 
ATOM     42  C   UNL     1       6.567  -3.502  -4.383  1.00  0.00     0.049 A 
ATOM     43  H   UNL     1       7.907  -1.921  -4.156  1.00  0.00     0.167 HD
ATOM     44  C   UNL     1      10.511   1.351  -3.107  1.00  0.00     0.031 A 
ATOM     45  C   UNL     1       7.278  -4.650  -4.353  1.00  0.00     0.031 A 
ATOM     46  C   UNL     1      11.393   0.223  -3.257  1.00  0.00     0.049 A 
ATOM     47  C   UNL     1       8.784  -4.576  -4.266  1.00  0.00     0.074 A 
ATOM     48  C   UNL     1      12.774   0.187  -3.155  1.00  0.00     0.029 A 
ATOM     49  N   UNL     1      10.981  -1.072  -3.528  1.00  0.00    -0.354 N 
ATOM     50  N   UNL     1       9.545  -3.540  -4.010  1.00  0.00    -0.248 NA
ATOM     51  C   UNL     1       9.529  -5.822  -4.510  1.00  0.00     0.031 C 
ATOM     52  C   UNL     1      13.200  -1.120  -3.419  1.00  0.00     0.029 A 
ATOM     53  C   UNL     1      12.080  -1.910  -3.621  1.00  0.00     0.049 A 
ATOM     54  H   UNL     1      10.045  -1.355  -3.637  1.00  0.00     0.167 HD
ATOM     55  C   UNL     1      10.855  -4.012  -4.053  1.00  0.00     0.074 A 
ATOM     56  C   UNL     1      10.783  -5.430  -4.331  1.00  0.00     0.031 C 
ATOM     57  C   UNL     1      12.012  -3.324  -3.890  1.00  0.00     0.031 A 
BRANCH  44  58
ATOM     58  C   UNL     1      11.116   2.681  -2.753  1.00  0.00    -0.014 A 
ATOM     59  C   UNL     1      10.981   3.252  -1.477  1.00  0.00     0.010 A 
ATOM     60  C   UNL     1      11.859   3.362  -3.736  1.00  0.00     0.010 A 
ATOM     61  C   UNL     1      11.550   4.500  -1.203  1.00  0.00     0.020 A 
ATOM     62  C   UNL     1      12.448   4.596  -3.460  1.00  0.00     0.020 A 
ATOM     63  C   UNL     1      12.275   5.166  -2.199  1.00  0.00     0.054 A 
BRANCH  63  64
ATOM     64  S   UNL     1      13.004   6.784  -1.821  1.00  0.00     0.124 S 
ATOM     65  O   UNL     1      11.822   7.642  -1.774  1.00  0.00    -0.237 OA
ATOM     66  O   UNL     1      13.661   6.548  -0.538  1.00  0.00    -0.237 OA
ATOM     67  O   UNL     1      13.905   7.029  -2.944  1.00  0.00    -0.744 OA
ENDBRANCH  63  64
ENDBRANCH  44  58
BRANCH  45  68
ATOM     68  C   UNL     1       6.610  -5.973  -4.554  1.00  0.00    -0.014 A 
ATOM     69  C   UNL     1       6.712  -7.002  -3.598  1.00  0.00     0.010 A 
ATOM     70  C   UNL     1       5.932  -6.239  -5.759  1.00  0.00     0.010 A 
ATOM     71  C   UNL     1       6.176  -8.270  -3.858  1.00  0.00     0.020 A 
ATOM     72  C   UNL     1       5.362  -7.490  -6.006  1.00  0.00     0.020 A 
ATOM     73  C   UNL     1       5.506  -8.506  -5.063  1.00  0.00     0.054 A 
BRANCH  73  74
ATOM     74  S   UNL     1       4.813 -10.151  -5.386  1.00  0.00     0.124 S 
ATOM     75  O   UNL     1       6.010 -10.929  -5.691  1.00  0.00    -0.237 OA
ATOM     76  O   UNL     1       4.153 -10.472  -4.123  1.00  0.00    -0.237 OA
ATOM     77  O   UNL     1       3.910  -9.925  -6.513  1.00  0.00    -0.744 OA
ENDBRANCH  73  74
ENDBRANCH  45  68
BRANCH  57  78
ATOM     78  C   UNL     1      13.307  -4.090  -3.973  1.00  0.00    -0.014 A 
ATOM     79  C   UNL     1      13.795  -4.568  -5.203  1.00  0.00     0.010 A 
ATOM     80  C   UNL     1      14.082  -4.276  -2.813  1.00  0.00     0.010 A 
ATOM     81  C   UNL     1      15.022  -5.237  -5.266  1.00  0.00     0.020 A 
ATOM     82  C   UNL     1      15.321  -4.920  -2.877  1.00  0.00     0.020 A 
ATOM     83  C   UNL     1      15.779  -5.406  -4.103  1.00  0.00     0.054 A 
BRANCH  83  84
ATOM     84  S   UNL     1      17.394  -6.225  -4.221  1.00  0.00     0.124 S 
ATOM     85  O   UNL     1      17.014  -7.620  -4.426  1.00  0.00    -0.237 OA
ATOM     86  O   UNL     1      18.005  -5.565  -5.371  1.00  0.00    -0.237 OA
ATOM     87  O   UNL     1      18.025  -5.934  -2.935  1.00  0.00    -0.744 OA
ENDBRANCH  83  84
ENDBRANCH  57  78
ENDBRANCH  31  32
ENDBRANCH  24  26
ENDBRANCH  23  24
ENDBRANCH  22  23
ENDBRANCH   1  22
TORSDOF 19
