REMARK SMILES C[C@@H]1CN(S(=O)(=O)N[C@H](C(=O)OCCOC(=O)c2ccc(-c3c4nc(c(-c5ccc(S(=O)(=O)[O-])cc5)c5ccc([nH]5)c(-c5ccc(S(=O)(=O)[O-])cc5)c5nc(c(-c6ccc(S(=O)(=O)[O-])cc6)c6ccc3[nH]6)C=C5)C=C4)cc2)[C@@H](C)O)C[C@@H](C)O1
REMARK SMILES IDX 13 1 12 2 10 3 11 4 9 5 8 6 5 8 6 9 7 10 4 11 1 12 2 13 3 14
REMARK SMILES IDX 84 15 82 16 81 17 83 18 78 19 79 20 80 21 14 23 15 24 16 25
REMARK SMILES IDX 17 26 18 27 19 28 77 29 20 30 76 31 21 32 22 33 23 34 70 35
REMARK SMILES IDX 24 36 75 37 69 38 71 39 25 40 74 41 68 42 67 43 26 45 56 46
REMARK SMILES IDX 37 47 55 48 38 49 41 50 54 51 72 52 39 53 40 54 53 56 73 57
REMARK SMILES IDX 42 58 27 59 28 60 36 61 29 62 35 63 30 64 31 65 32 66 33 67
REMARK SMILES IDX 34 68 57 69 58 70 66 71 59 72 65 73 60 74 61 75 62 76 63 77
REMARK SMILES IDX 64 78 43 79 44 80 52 81 45 82 51 83 46 84 47 85 48 86 49 87
REMARK SMILES IDX 50 88
REMARK H PARENT 8 7 80 22 71 44 41 55
REMARK Flexibility Score: inf
ROOT
ATOM      1  C   UNL     1       1.526   7.503   2.532  1.00  0.00     0.274 C 
ENDROOT
BRANCH   1   2
ATOM      2  O   UNL     1       1.123   7.660   1.157  1.00  0.00    -0.461 OA
BRANCH   2   3
ATOM      3  C   UNL     1       2.112   7.820   0.215  1.00  0.00     0.327 C 
ATOM      4  O   UNL     1       3.092   8.538   0.375  1.00  0.00    -0.250 OA
BRANCH   3   5
ATOM      5  C   UNL     1       1.995   6.739  -0.871  1.00  0.00     0.208 C 
BRANCH   5   6
ATOM      6  N   UNL     1       0.574   6.354  -0.995  1.00  0.00    -0.185 NA
ATOM      7  H   UNL     1       0.007   7.094  -0.582  1.00  0.00     0.143 HD
BRANCH   6   8
ATOM      8  S   UNL     1       0.177   4.921  -0.251  1.00  0.00     0.280 S 
ATOM      9  O   UNL     1       0.916   3.912  -0.963  1.00  0.00    -0.195 OA
ATOM     10  O   UNL     1      -1.264   4.895  -0.201  1.00  0.00    -0.195 OA
BRANCH   8  11
ATOM     11  N   UNL     1       0.770   5.118   1.318  1.00  0.00    -0.184 NA
ATOM     12  C   UNL     1       3.861   6.111   4.371  1.00  0.00     0.040 C 
ATOM     13  C   UNL     1       3.068   4.986   3.702  1.00  0.00     0.130 C 
ATOM     14  C   UNL     1       2.635   5.255   1.827  1.00  0.00     0.135 C 
ATOM     15  O   UNL     1       1.818   4.454   4.852  1.00  0.00    -0.373 OA
ATOM     16  C   UNL     1       0.107   4.297   4.402  1.00  0.00     0.130 C 
ATOM     17  C   UNL     1      -0.464   4.355   2.569  1.00  0.00     0.135 C 
ATOM     18  C   UNL     1      -0.496   3.146   5.204  1.00  0.00     0.040 C 
ENDBRANCH   8  11
ENDBRANCH   6   8
ENDBRANCH   5   6
BRANCH   5  19
ATOM     19  C   UNL     1       2.629   7.046  -2.233  1.00  0.00     0.140 C 
ATOM     20  C   UNL     1       4.040   6.448  -2.318  1.00  0.00     0.040 C 
BRANCH  19  21
ATOM     21  O   UNL     1       1.835   6.457  -3.280  1.00  0.00    -0.391 OA
ATOM     22  H   UNL     1       1.803   5.495  -3.160  1.00  0.00     0.211 HD
ENDBRANCH  19  21
ENDBRANCH   5  19
ENDBRANCH   3   5
ENDBRANCH   2   3
ENDBRANCH   1   2
BRANCH   1  23
ATOM     23  C   UNL     1       1.074   6.111   3.271  1.00  0.00     0.275 C 
BRANCH  23  24
ATOM     24  O   UNL     1       1.448   4.226   2.927  1.00  0.00    -0.458 OA
BRANCH  24  25
ATOM     25  C   UNL     1       1.785   2.869   2.649  1.00  0.00     0.338 C 
ATOM     26  O   UNL     1       1.020   1.960   2.982  1.00  0.00    -0.246 OA
BRANCH  25  27
ATOM     27  C   UNL     1       3.022   2.337   1.966  1.00  0.00     0.060 A 
ATOM     28  C   UNL     1       3.198   2.420   0.580  1.00  0.00     0.016 A 
ATOM     29  C   UNL     1       3.901   1.501   2.663  1.00  0.00     0.016 A 
ATOM     30  C   UNL     1       4.256   1.800  -0.093  1.00  0.00     0.010 A 
ATOM     31  C   UNL     1       4.941   0.823   1.988  1.00  0.00     0.010 A 
ATOM     32  C   UNL     1       5.122   0.962   0.601  1.00  0.00    -0.014 A 
BRANCH  32  33
ATOM     33  C   UNL     1       6.051   0.078  -0.154  1.00  0.00     0.031 A 
ATOM     34  C   UNL     1       5.605  -1.319  -0.495  1.00  0.00     0.074 A 
ATOM     35  C   UNL     1       7.257   0.493  -0.584  1.00  0.00     0.049 A 
ATOM     36  N   UNL     1       6.291  -2.302  -1.019  1.00  0.00    -0.248 NA
ATOM     37  C   UNL     1       4.198  -1.640  -0.215  1.00  0.00     0.031 C 
ATOM     38  C   UNL     1       7.790   1.846  -0.451  1.00  0.00     0.029 A 
ATOM     39  N   UNL     1       8.261  -0.205  -1.217  1.00  0.00    -0.354 N 
ATOM     40  C   UNL     1       5.410  -3.374  -1.095  1.00  0.00     0.074 A 
ATOM     41  C   UNL     1       4.139  -2.913  -0.575  1.00  0.00     0.031 C 
ATOM     42  C   UNL     1       9.038   1.871  -0.954  1.00  0.00     0.029 A 
ATOM     43  C   UNL     1       9.410   0.527  -1.401  1.00  0.00     0.049 A 
ATOM     44  H   UNL     1       8.165  -1.140  -1.510  1.00  0.00     0.167 HD
ATOM     45  C   UNL     1       5.637  -4.634  -1.537  1.00  0.00     0.031 A 
ATOM     46  C   UNL     1      10.634   0.154  -1.831  1.00  0.00     0.031 A 
ATOM     47  C   UNL     1       6.892  -5.113  -2.048  1.00  0.00     0.049 A 
ATOM     48  C   UNL     1      10.902  -1.278  -2.221  1.00  0.00     0.074 A 
ATOM     49  C   UNL     1       7.204  -6.383  -2.503  1.00  0.00     0.029 A 
ATOM     50  N   UNL     1       8.043  -4.352  -2.166  1.00  0.00    -0.354 N 
ATOM     51  N   UNL     1      10.074  -2.294  -2.251  1.00  0.00    -0.248 NA
ATOM     52  C   UNL     1      12.276  -1.616  -2.629  1.00  0.00     0.031 C 
ATOM     53  C   UNL     1       8.559  -6.403  -2.849  1.00  0.00     0.029 A 
ATOM     54  C   UNL     1       9.075  -5.132  -2.660  1.00  0.00     0.049 A 
ATOM     55  H   UNL     1       8.116  -3.399  -1.932  1.00  0.00     0.167 HD
ATOM     56  C   UNL     1      10.820  -3.382  -2.699  1.00  0.00     0.074 A 
ATOM     57  C   UNL     1      12.165  -2.903  -2.933  1.00  0.00     0.031 C 
ATOM     58  C   UNL     1      10.416  -4.661  -2.901  1.00  0.00     0.031 A 
BRANCH  45  59
ATOM     59  C   UNL     1       4.504  -5.611  -1.399  1.00  0.00    -0.014 A 
ATOM     60  C   UNL     1       3.386  -5.567  -2.249  1.00  0.00     0.010 A 
ATOM     61  C   UNL     1       4.564  -6.585  -0.387  1.00  0.00     0.010 A 
ATOM     62  C   UNL     1       2.319  -6.446  -2.050  1.00  0.00     0.020 A 
ATOM     63  C   UNL     1       3.511  -7.481  -0.202  1.00  0.00     0.020 A 
ATOM     64  C   UNL     1       2.383  -7.389  -1.020  1.00  0.00     0.054 A 
BRANCH  64  65
ATOM     65  S   UNL     1       0.980  -8.507  -0.765  1.00  0.00     0.124 S 
ATOM     66  O   UNL     1       0.019  -7.633  -0.097  1.00  0.00    -0.237 OA
ATOM     67  O   UNL     1       0.628  -8.901  -2.127  1.00  0.00    -0.237 OA
ATOM     68  O   UNL     1       1.534  -9.574   0.065  1.00  0.00    -0.744 OA
ENDBRANCH  64  65
ENDBRANCH  45  59
BRANCH  46  69
ATOM     69  C   UNL     1      11.735   1.155  -1.853  1.00  0.00    -0.014 A 
ATOM     70  C   UNL     1      12.232   1.654  -3.067  1.00  0.00     0.010 A 
ATOM     71  C   UNL     1      12.281   1.625  -0.644  1.00  0.00     0.010 A 
ATOM     72  C   UNL     1      13.249   2.615  -3.074  1.00  0.00     0.020 A 
ATOM     73  C   UNL     1      13.280   2.602  -0.646  1.00  0.00     0.020 A 
ATOM     74  C   UNL     1      13.759   3.091  -1.863  1.00  0.00     0.054 A 
BRANCH  74  75
ATOM     75  S   UNL     1      15.001   4.413  -1.890  1.00  0.00     0.124 S 
ATOM     76  O   UNL     1      16.208   3.689  -2.276  1.00  0.00    -0.237 OA
ATOM     77  O   UNL     1      14.464   5.330  -2.892  1.00  0.00    -0.237 OA
ATOM     78  O   UNL     1      14.984   4.922  -0.520  1.00  0.00    -0.744 OA
ENDBRANCH  74  75
ENDBRANCH  46  69
BRANCH  58  79
ATOM     79  C   UNL     1      11.417  -5.654  -3.435  1.00  0.00    -0.014 A 
ATOM     80  C   UNL     1      12.408  -6.210  -2.609  1.00  0.00     0.010 A 
ATOM     81  C   UNL     1      11.293  -6.118  -4.758  1.00  0.00     0.010 A 
ATOM     82  C   UNL     1      13.261  -7.206  -3.097  1.00  0.00     0.020 A 
ATOM     83  C   UNL     1      12.131  -7.127  -5.244  1.00  0.00     0.020 A 
ATOM     84  C   UNL     1      13.116  -7.662  -4.411  1.00  0.00     0.054 A 
BRANCH  84  85
ATOM     85  S   UNL     1      14.181  -9.009  -4.998  1.00  0.00     0.124 S 
ATOM     86  O   UNL     1      15.453  -8.323  -5.209  1.00  0.00    -0.237 OA
ATOM     87  O   UNL     1      14.154  -9.952  -3.882  1.00  0.00    -0.237 OA
ATOM     88  O   UNL     1      13.515  -9.474  -6.213  1.00  0.00    -0.744 OA
ENDBRANCH  84  85
ENDBRANCH  58  79
ENDBRANCH  32  33
ENDBRANCH  25  27
ENDBRANCH  24  25
ENDBRANCH  23  24
ENDBRANCH   1  23
TORSDOF 19
