REMARK SMILES O=C(COc1ccccc1Br)Nc1cccc(C(=O)Nc2ccc(C(=O)OCCOC(=O)c3ccc(-c4c5nc(c(-c6ccc(S(=O)(=O)[O-])cc6)c6ccc([nH]6)c(-c6ccc(S(=O)(=O)[O-])cc6)c6nc(c(-c7ccc(S(=O)(=O)[O-])cc7)c7ccc4[nH]7)C=C6)C=C5)cc3)cc2)c1
REMARK SMILES IDX 27 1 25 2 26 3 24 4 21 5 22 6 94 7 23 8 93 9 20 10 18 11
REMARK SMILES IDX 19 12 17 14 13 15 14 16 95 17 15 18 16 19 12 20 1 21 2 22
REMARK SMILES IDX 3 24 4 25 5 26 6 27 10 28 7 29 9 30 11 31 8 32 28 33 29 34
REMARK SMILES IDX 30 35 31 36 32 37 33 38 34 39 92 40 35 41 91 42 36 43 37 44
REMARK SMILES IDX 38 45 85 46 39 47 90 48 84 49 86 50 40 51 89 52 83 53 82 54
REMARK SMILES IDX 41 56 71 57 52 58 70 59 53 60 56 61 69 62 87 63 54 64 55 65
REMARK SMILES IDX 68 67 88 68 57 69 42 70 43 71 51 72 44 73 50 74 45 75 46 76
REMARK SMILES IDX 47 77 48 78 49 79 72 80 73 81 81 82 74 83 80 84 75 85 76 86
REMARK SMILES IDX 77 87 78 88 79 89 58 90 59 91 67 92 60 93 66 94 61 95 62 96
REMARK SMILES IDX 63 97 64 98 65 99
REMARK H PARENT 20 13 12 23 86 55 56 66
REMARK Flexibility Score: inf
ROOT
ATOM      1  O   UNL     1       2.848  -0.680   3.736  1.00  0.00    -0.458 OA
ENDROOT
BRANCH   1   2
ATOM      2  C   UNL     1       1.677  -0.633   3.052  1.00  0.00     0.338 C 
ATOM      3  O   UNL     1       1.158  -1.579   2.479  1.00  0.00    -0.246 OA
BRANCH   2   4
ATOM      4  C   UNL     1       1.077   0.724   3.061  1.00  0.00     0.060 A 
ATOM      5  C   UNL     1      -0.109   3.156   2.391  1.00  0.00     0.041 A 
ATOM      6  C   UNL     1      -0.917   2.060   2.677  1.00  0.00     0.027 A 
ATOM      7  C   UNL     1       1.271   3.090   2.623  1.00  0.00     0.027 A 
ATOM      8  C   UNL     1      -0.317   0.835   2.957  1.00  0.00     0.018 A 
ATOM      9  C   UNL     1       1.869   1.872   2.969  1.00  0.00     0.018 A 
BRANCH   5  10
ATOM     10  N   UNL     1      -0.718   4.223   1.714  1.00  0.00    -0.322 N 
ATOM     11  C   UNL     1      -0.304   4.879   0.567  1.00  0.00     0.255 C 
ATOM     12  O   UNL     1      -0.919   5.877   0.189  1.00  0.00    -0.269 OA
ATOM     13  H   UNL     1      -1.557   4.552   2.110  1.00  0.00     0.170 HD
BRANCH  11  14
ATOM     14  C   UNL     1       0.825   4.380  -0.276  1.00  0.00     0.042 A 
ATOM     15  C   UNL     1       2.293   2.605  -1.057  1.00  0.00     0.042 A 
ATOM     16  C   UNL     1       3.060   3.555  -1.736  1.00  0.00     0.026 A 
ATOM     17  C   UNL     1       1.135   3.019  -0.400  1.00  0.00     0.040 A 
ATOM     18  C   UNL     1       2.680   4.898  -1.740  1.00  0.00     0.003 A 
ATOM     19  C   UNL     1       1.575   5.313  -0.997  1.00  0.00     0.014 A 
BRANCH  15  20
ATOM     20  N   UNL     1       2.755   1.276  -1.058  1.00  0.00    -0.323 N 
ATOM     21  O   UNL     1       1.012   0.127  -0.019  1.00  0.00    -0.271 OA
ATOM     22  C   UNL     1       2.112   0.154  -0.558  1.00  0.00     0.262 C 
ATOM     23  H   UNL     1       3.640   1.125  -1.462  1.00  0.00     0.170 HD
BRANCH  22  24
ATOM     24  C   UNL     1       2.950  -1.112  -0.716  1.00  0.00     0.329 C 
BRANCH  24  25
ATOM     25  O   UNL     1       3.686  -1.070  -1.949  1.00  0.00    -0.483 OA
BRANCH  25  26
ATOM     26  C   UNL     1       3.164  -1.961  -2.851  1.00  0.00     0.134 A 
ATOM     27  C   UNL     1       3.703  -3.250  -2.862  1.00  0.00     0.047 A 
ATOM     28  C   UNL     1       2.178  -1.607  -3.780  1.00  0.00     0.060 A 
ATOM     29  C   UNL     1       3.222  -4.199  -3.764  1.00  0.00     0.004 A 
ATOM     30  C   UNL     1       1.684  -2.567  -4.664  1.00  0.00     0.019 A 
ATOM     31  Br  UNL     1       1.496   0.151  -3.950  1.00  0.00    -0.047 Br
ATOM     32  C   UNL     1       2.204  -3.861  -4.655  1.00  0.00     0.001 A 
ENDBRANCH  25  26
ENDBRANCH  24  25
ENDBRANCH  22  24
ENDBRANCH  15  20
ENDBRANCH  11  14
ENDBRANCH   5  10
ENDBRANCH   2   4
ENDBRANCH   1   2
BRANCH   1  33
ATOM     33  C   UNL     1       3.448  -1.991   3.778  1.00  0.00     0.275 C 
BRANCH  33  34
ATOM     34  C   UNL     1       3.032  -2.761   5.031  1.00  0.00     0.275 C 
BRANCH  34  35
ATOM     35  O   UNL     1       1.605  -2.945   5.065  1.00  0.00    -0.458 OA
BRANCH  35  36
ATOM     36  C   UNL     1       0.969  -2.409   6.133  1.00  0.00     0.338 C 
ATOM     37  O   UNL     1       1.485  -1.856   7.089  1.00  0.00    -0.246 OA
BRANCH  36  38
ATOM     38  C   UNL     1      -0.494  -2.579   6.009  1.00  0.00     0.060 A 
ATOM     39  C   UNL     1      -1.156  -2.204   4.843  1.00  0.00     0.016 A 
ATOM     40  C   UNL     1      -1.232  -2.988   7.119  1.00  0.00     0.016 A 
ATOM     41  C   UNL     1      -2.548  -2.116   4.819  1.00  0.00     0.010 A 
ATOM     42  C   UNL     1      -2.630  -3.011   7.054  1.00  0.00     0.010 A 
ATOM     43  C   UNL     1      -3.309  -2.528   5.920  1.00  0.00    -0.014 A 
BRANCH  43  44
ATOM     44  C   UNL     1      -4.797  -2.411   5.918  1.00  0.00     0.031 A 
ATOM     45  C   UNL     1      -5.494  -1.637   7.011  1.00  0.00     0.074 A 
ATOM     46  C   UNL     1      -5.539  -2.985   4.948  1.00  0.00     0.049 A 
ATOM     47  N   UNL     1      -6.765  -1.606   7.323  1.00  0.00    -0.248 NA
ATOM     48  C   UNL     1      -4.645  -0.803   7.877  1.00  0.00     0.031 C 
ATOM     49  C   UNL     1      -5.016  -3.719   3.794  1.00  0.00     0.029 A 
ATOM     50  N   UNL     1      -6.902  -3.037   4.779  1.00  0.00    -0.354 N 
ATOM     51  C   UNL     1      -6.858  -0.814   8.463  1.00  0.00     0.074 A 
ATOM     52  C   UNL     1      -5.515  -0.379   8.783  1.00  0.00     0.031 C 
ATOM     53  C   UNL     1      -6.038  -4.108   3.017  1.00  0.00     0.029 A 
ATOM     54  C   UNL     1      -7.293  -3.740   3.664  1.00  0.00     0.049 A 
ATOM     55  H   UNL     1      -7.539  -2.610   5.397  1.00  0.00     0.167 HD
ATOM     56  C   UNL     1      -7.958  -0.486   9.183  1.00  0.00     0.031 A 
ATOM     57  C   UNL     1      -8.516  -4.099   3.227  1.00  0.00     0.031 A 
ATOM     58  C   UNL     1      -9.299  -0.877   8.835  1.00  0.00     0.049 A 
ATOM     59  C   UNL     1      -9.724  -3.734   4.040  1.00  0.00     0.074 A 
ATOM     60  C   UNL     1     -10.479  -0.606   9.505  1.00  0.00     0.029 A 
ATOM     61  N   UNL     1      -9.640  -1.602   7.703  1.00  0.00    -0.354 N 
ATOM     62  N   UNL     1      -9.784  -3.068   5.169  1.00  0.00    -0.248 NA
ATOM     63  C   UNL     1     -11.026  -4.187   3.534  1.00  0.00     0.031 C 
ATOM     64  C   UNL     1     -11.533  -1.189   8.791  1.00  0.00     0.029 A 
ATOM     65  C   UNL     1     -11.012  -1.788   7.656  1.00  0.00     0.049 A 
ATOM     66  H   UNL     1      -9.002  -1.935   7.032  1.00  0.00     0.167 HD
ATOM     67  C   UNL     1     -11.130  -3.026   5.510  1.00  0.00     0.074 A 
ATOM     68  C   UNL     1     -11.852  -3.709   4.456  1.00  0.00     0.031 C 
ATOM     69  C   UNL     1     -11.713  -2.479   6.604  1.00  0.00     0.031 A 
BRANCH  56  70
ATOM     70  C   UNL     1      -7.745   0.294  10.453  1.00  0.00    -0.014 A 
ATOM     71  C   UNL     1      -7.412   1.660  10.433  1.00  0.00     0.010 A 
ATOM     72  C   UNL     1      -7.890  -0.356  11.693  1.00  0.00     0.010 A 
ATOM     73  C   UNL     1      -7.178   2.348  11.628  1.00  0.00     0.020 A 
ATOM     74  C   UNL     1      -7.681   0.334  12.890  1.00  0.00     0.020 A 
ATOM     75  C   UNL     1      -7.303   1.677  12.849  1.00  0.00     0.054 A 
BRANCH  75  76
ATOM     76  S   UNL     1      -6.989   2.586  14.388  1.00  0.00     0.124 S 
ATOM     77  O   UNL     1      -5.529   2.615  14.425  1.00  0.00    -0.237 OA
ATOM     78  O   UNL     1      -7.636   3.873  14.144  1.00  0.00    -0.237 OA
ATOM     79  O   UNL     1      -7.622   1.760  15.412  1.00  0.00    -0.744 OA
ENDBRANCH  75  76
ENDBRANCH  56  70
BRANCH  57  80
ATOM     80  C   UNL     1      -8.641  -4.903   1.981  1.00  0.00    -0.014 A 
ATOM     81  C   UNL     1      -9.132  -4.322   0.800  1.00  0.00     0.010 A 
ATOM     82  C   UNL     1      -8.214  -6.244   1.960  1.00  0.00     0.010 A 
ATOM     83  C   UNL     1      -9.185  -5.065  -0.384  1.00  0.00     0.020 A 
ATOM     84  C   UNL     1      -8.242  -6.981   0.773  1.00  0.00     0.020 A 
ATOM     85  C   UNL     1      -8.732  -6.388  -0.391  1.00  0.00     0.054 A 
BRANCH  85  86
ATOM     86  S   UNL     1      -8.713  -7.308  -1.956  1.00  0.00     0.124 S 
ATOM     87  O   UNL     1     -10.106  -7.727  -2.078  1.00  0.00    -0.237 OA
ATOM     88  O   UNL     1      -8.269  -6.300  -2.916  1.00  0.00    -0.237 OA
ATOM     89  O   UNL     1      -7.754  -8.382  -1.706  1.00  0.00    -0.744 OA
ENDBRANCH  85  86
ENDBRANCH  57  80
BRANCH  69  90
ATOM     90  C   UNL     1     -13.209  -2.585   6.708  1.00  0.00    -0.014 A 
ATOM     91  C   UNL     1     -13.822  -3.794   7.083  1.00  0.00     0.010 A 
ATOM     92  C   UNL     1     -14.007  -1.453   6.467  1.00  0.00     0.010 A 
ATOM     93  C   UNL     1     -15.213  -3.875   7.188  1.00  0.00     0.020 A 
ATOM     94  C   UNL     1     -15.396  -1.526   6.589  1.00  0.00     0.020 A 
ATOM     95  C   UNL     1     -15.992  -2.741   6.936  1.00  0.00     0.054 A 
BRANCH  95  96
ATOM     96  S   UNL     1     -17.794  -2.858   7.112  1.00  0.00     0.124 S 
ATOM     97  O   UNL     1     -18.176  -3.535   5.877  1.00  0.00    -0.237 OA
ATOM     98  O   UNL     1     -17.949  -3.644   8.334  1.00  0.00    -0.237 OA
ATOM     99  O   UNL     1     -18.221  -1.465   7.218  1.00  0.00    -0.744 OA
ENDBRANCH  95  96
ENDBRANCH  69  90
ENDBRANCH  43  44
ENDBRANCH  36  38
ENDBRANCH  35  36
ENDBRANCH  34  35
ENDBRANCH  33  34
ENDBRANCH   1  33
TORSDOF 20
