REMARK SMILES Cc1ccccc1C(=O)Nc1ccc(OCC(=O)OCCOC(=O)c2ccc(-c3c4nc(c(-c5ccc(S(=O)(=O)[O-])cc5)c5ccc([nH]5)c(-c5ccc(S(=O)(=O)[O-])cc5)c5nc(c(-c6ccc(S(=O)(=O)[O-])cc6)c6ccc3[nH]6)C=C5)C=C4)cc2)c(-c2nc3ccccc3s2)c1
REMARK SMILES IDX 20 1 19 2 17 3 18 4 16 5 15 6 14 7 11 8 12 9 95 10 13 11
REMARK SMILES IDX 85 12 10 13 8 14 9 15 7 17 1 18 2 19 3 20 4 21 6 22 5 23
REMARK SMILES IDX 86 24 87 25 94 26 88 27 93 28 89 29 92 30 90 31 91 32 21 33
REMARK SMILES IDX 22 34 23 35 24 36 25 37 26 38 84 39 27 40 83 41 28 42 29 43
REMARK SMILES IDX 30 44 77 45 31 46 82 47 76 48 78 49 32 50 81 51 75 52 74 53
REMARK SMILES IDX 33 55 63 56 44 57 62 58 45 59 48 60 61 61 79 62 46 63 47 64
REMARK SMILES IDX 60 66 80 67 49 68 34 69 35 70 43 71 36 72 42 73 37 74 38 75
REMARK SMILES IDX 39 76 40 77 41 78 64 79 65 80 73 81 66 82 72 83 67 84 68 85
REMARK SMILES IDX 69 86 70 87 71 88 50 89 51 90 59 91 52 92 58 93 53 94 54 95
REMARK SMILES IDX 55 96 56 97 57 98
REMARK H PARENT 10 16 78 54 48 65
REMARK Flexibility Score: inf
ROOT
ATOM      1  C   UNL     1       0.922  -5.082   1.209  1.00  0.00     0.274 C 
ENDROOT
BRANCH   1   2
ATOM      2  O   UNL     1       2.342  -5.186   0.998  1.00  0.00    -0.460 OA
BRANCH   2   3
ATOM      3  C   UNL     1       2.845  -4.630  -0.255  1.00  0.00     0.344 C 
ATOM      4  O   UNL     1       1.894  -4.789  -1.073  1.00  0.00    -0.248 OA
BRANCH   3   5
ATOM      5  C   UNL     1       4.778  -3.642  -0.474  1.00  0.00     0.352 C 
BRANCH   5   6
ATOM      6  O   UNL     1       5.407  -2.421  -1.355  1.00  0.00    -0.481 OA
BRANCH   6   7
ATOM      7  C   UNL     1       5.009  -1.093  -1.220  1.00  0.00     0.130 A 
ATOM      8  C   UNL     1       3.620   1.312  -0.626  1.00  0.00     0.042 A 
ATOM      9  C   UNL     1       4.643   0.851   0.209  1.00  0.00     0.030 A 
ATOM     10  C   UNL     1       3.503   0.714  -1.880  1.00  0.00     0.041 A 
ATOM     11  C   UNL     1       5.277  -0.386  -0.042  1.00  0.00     0.049 A 
ATOM     12  C   UNL     1       4.283  -0.430  -2.250  1.00  0.00     0.055 A 
BRANCH   8  13
ATOM     13  N   UNL     1       2.859   2.432  -0.214  1.00  0.00    -0.322 N 
ATOM     14  C   UNL     1       1.494   2.698  -0.140  1.00  0.00     0.255 C 
ATOM     15  O   UNL     1       1.148   3.887  -0.124  1.00  0.00    -0.269 OA
ATOM     16  H   UNL     1       3.416   3.187   0.087  1.00  0.00     0.170 HD
BRANCH  14  17
ATOM     17  C   UNL     1       0.416   1.692   0.128  1.00  0.00     0.043 A 
ATOM     18  C   UNL     1       1.648   0.549   2.061  1.00  0.00     0.045 C 
ATOM     19  C   UNL     1       0.467   0.730   1.156  1.00  0.00    -0.038 A 
ATOM     20  C   UNL     1      -0.603  -0.186   1.287  1.00  0.00     0.004 A 
ATOM     21  C   UNL     1      -1.726  -0.124   0.469  1.00  0.00     0.000 A 
ATOM     22  C   UNL     1      -0.806   1.851  -0.563  1.00  0.00     0.014 A 
ATOM     23  C   UNL     1      -1.862   0.941  -0.406  1.00  0.00     0.001 A 
ENDBRANCH  14  17
ENDBRANCH   8  13
BRANCH  12  24
ATOM     24  C   UNL     1       4.131  -0.903  -3.656  1.00  0.00     0.128 A 
ATOM     25  N   UNL     1       3.281  -0.367  -4.514  1.00  0.00    -0.236 NA
ATOM     26  S   UNL     1       5.056  -2.177  -4.383  1.00  0.00    -0.114 S 
ATOM     27  C   UNL     1       2.911  -1.331  -5.432  1.00  0.00     0.082 A 
ATOM     28  C   UNL     1       3.769  -2.428  -5.514  1.00  0.00     0.055 A 
ATOM     29  C   UNL     1       1.730  -1.329  -6.201  1.00  0.00     0.030 A 
ATOM     30  C   UNL     1       3.491  -3.527  -6.348  1.00  0.00     0.021 A 
ATOM     31  C   UNL     1       1.395  -2.454  -6.960  1.00  0.00     0.002 A 
ATOM     32  C   UNL     1       2.267  -3.536  -7.036  1.00  0.00     0.002 A 
ENDBRANCH  12  24
ENDBRANCH   6   7
ENDBRANCH   5   6
ENDBRANCH   3   5
ENDBRANCH   2   3
ENDBRANCH   1   2
BRANCH   1  33
ATOM     33  C   UNL     1       0.572  -3.629   1.529  1.00  0.00     0.275 C 
BRANCH  33  34
ATOM     34  O   UNL     1       0.657  -2.707   0.424  1.00  0.00    -0.458 OA
BRANCH  34  35
ATOM     35  C   UNL     1       1.718  -1.970   0.039  1.00  0.00     0.338 C 
ATOM     36  O   UNL     1       1.648  -0.906  -0.547  1.00  0.00    -0.246 OA
BRANCH  35  37
ATOM     37  C   UNL     1       3.012  -2.620  -0.027  1.00  0.00     0.060 A 
ATOM     38  C   UNL     1       3.215  -3.214  -1.727  1.00  0.00     0.016 A 
ATOM     39  C   UNL     1       3.728  -3.528   1.337  1.00  0.00     0.016 A 
ATOM     40  C   UNL     1       3.978  -4.800  -2.056  1.00  0.00     0.010 A 
ATOM     41  C   UNL     1       4.501  -5.135   0.983  1.00  0.00     0.010 A 
ATOM     42  C   UNL     1       4.482  -5.810  -0.695  1.00  0.00    -0.014 A 
BRANCH  42  43
ATOM     43  C   UNL     1       4.117  -7.241  -0.748  1.00  0.00     0.031 A 
ATOM     44  C   UNL     1       5.100  -8.145  -0.155  1.00  0.00     0.074 A 
ATOM     45  C   UNL     1       2.873  -7.681  -1.117  1.00  0.00     0.049 A 
ATOM     46  N   UNL     1       5.093  -9.409  -0.346  1.00  0.00    -0.248 NA
ATOM     47  C   UNL     1       6.254  -7.704   0.632  1.00  0.00     0.031 C 
ATOM     48  C   UNL     1       2.180  -8.909  -0.716  1.00  0.00     0.029 A 
ATOM     49  N   UNL     1       1.945  -7.115  -1.986  1.00  0.00    -0.354 N 
ATOM     50  C   UNL     1       5.882  -9.945   0.637  1.00  0.00     0.074 A 
ATOM     51  C   UNL     1       6.727  -8.870   1.077  1.00  0.00     0.031 C 
ATOM     52  C   UNL     1       1.074  -9.091  -1.466  1.00  0.00     0.029 A 
ATOM     53  C   UNL     1       1.025  -8.051  -2.477  1.00  0.00     0.049 A 
ATOM     54  H   UNL     1       1.935  -6.161  -2.229  1.00  0.00     0.167 HD
ATOM     55  C   UNL     1       5.551 -11.180   1.089  1.00  0.00     0.031 A 
ATOM     56  C   UNL     1       0.907  -8.283  -3.824  1.00  0.00     0.031 A 
ATOM     57  C   UNL     1       4.528 -11.785   0.227  1.00  0.00     0.049 A 
ATOM     58  C   UNL     1       1.647  -9.534  -4.238  1.00  0.00     0.074 A 
ATOM     59  C   UNL     1       3.183 -12.071   0.376  1.00  0.00     0.029 A 
ATOM     60  N   UNL     1       4.783 -11.838  -1.137  1.00  0.00    -0.354 N 
ATOM     61  N   UNL     1       2.362 -10.234  -3.402  1.00  0.00    -0.248 NA
ATOM     62  C   UNL     1       1.651 -10.122  -5.573  1.00  0.00     0.031 C 
ATOM     63  C   UNL     1       2.628 -12.239  -0.930  1.00  0.00     0.029 A 
ATOM     64  C   UNL     1       3.641 -12.091  -1.864  1.00  0.00     0.049 A 
ATOM     65  H   UNL     1       5.673 -11.708  -1.537  1.00  0.00     0.167 HD
ATOM     66  C   UNL     1       2.917 -11.313  -4.019  1.00  0.00     0.074 A 
ATOM     67  C   UNL     1       2.435 -11.203  -5.385  1.00  0.00     0.031 C 
ATOM     68  C   UNL     1       3.723 -12.176  -3.326  1.00  0.00     0.031 A 
BRANCH  55  69
ATOM     69  C   UNL     1       5.976 -11.746   2.415  1.00  0.00    -0.014 A 
ATOM     70  C   UNL     1       5.439 -12.986   2.807  1.00  0.00     0.010 A 
ATOM     71  C   UNL     1       6.830 -11.111   3.341  1.00  0.00     0.010 A 
ATOM     72  C   UNL     1       5.747 -13.570   4.038  1.00  0.00     0.020 A 
ATOM     73  C   UNL     1       7.162 -11.693   4.572  1.00  0.00     0.020 A 
ATOM     74  C   UNL     1       6.621 -12.927   4.909  1.00  0.00     0.054 A 
BRANCH  74  75
ATOM     75  S   UNL     1       7.054 -13.742   6.462  1.00  0.00     0.124 S 
ATOM     76  O   UNL     1       5.759 -13.849   7.129  1.00  0.00    -0.237 OA
ATOM     77  O   UNL     1       7.635 -14.999   6.000  1.00  0.00    -0.237 OA
ATOM     78  O   UNL     1       7.997 -12.816   7.088  1.00  0.00    -0.744 OA
ENDBRANCH  74  75
ENDBRANCH  55  69
BRANCH  56  79
ATOM     79  C   UNL     1       0.678  -7.046  -4.638  1.00  0.00    -0.014 A 
ATOM     80  C   UNL     1      -0.657  -6.604  -4.763  1.00  0.00     0.010 A 
ATOM     81  C   UNL     1       1.686  -6.080  -4.617  1.00  0.00     0.010 A 
ATOM     82  C   UNL     1      -0.988  -5.262  -4.530  1.00  0.00     0.020 A 
ATOM     83  C   UNL     1       1.343  -4.762  -4.285  1.00  0.00     0.020 A 
ATOM     84  C   UNL     1       0.013  -4.369  -4.177  1.00  0.00     0.054 A 
BRANCH  84  85
ATOM     85  S   UNL     1      -0.480  -2.777  -3.447  1.00  0.00     0.124 S 
ATOM     86  O   UNL     1      -1.344  -2.218  -4.485  1.00  0.00    -0.237 OA
ATOM     87  O   UNL     1      -1.160  -3.204  -2.226  1.00  0.00    -0.237 OA
ATOM     88  O   UNL     1       0.775  -2.070  -3.261  1.00  0.00    -0.744 OA
ENDBRANCH  84  85
ENDBRANCH  56  79
BRANCH  68  89
ATOM     89  C   UNL     1       4.639 -13.223  -3.926  1.00  0.00    -0.014 A 
ATOM     90  C   UNL     1       4.813 -13.442  -5.296  1.00  0.00     0.010 A 
ATOM     91  C   UNL     1       5.440 -14.018  -3.062  1.00  0.00     0.010 A 
ATOM     92  C   UNL     1       5.655 -14.453  -5.774  1.00  0.00     0.020 A 
ATOM     93  C   UNL     1       6.341 -14.974  -3.524  1.00  0.00     0.020 A 
ATOM     94  C   UNL     1       6.407 -15.216  -4.883  1.00  0.00     0.054 A 
BRANCH  94  95
ATOM     95  S   UNL     1       7.453 -16.535  -5.525  1.00  0.00     0.124 S 
ATOM     96  O   UNL     1       6.461 -17.516  -5.959  1.00  0.00    -0.237 OA
ATOM     97  O   UNL     1       8.183 -15.862  -6.597  1.00  0.00    -0.237 OA
ATOM     98  O   UNL     1       8.263 -16.930  -4.376  1.00  0.00    -0.744 OA
ENDBRANCH  94  95
ENDBRANCH  68  89
ENDBRANCH  42  43
ENDBRANCH  35  37
ENDBRANCH  34  35
ENDBRANCH  33  34
ENDBRANCH   1  33
TORSDOF 19
