REMARK SMILES C[C@@H]1CC[C@H](C)[N@H+]1Cc1cc2c(cc1Cl)C=C(C(=O)OCCOC(=O)c1ccc(-c3c4nc(c(-c5ccc(S(=O)(=O)[O-])cc5)c5ccc([nH]5)c(-c5ccc(S(=O)(=O)[O-])cc5)c5nc(c(-c6ccc(S(=O)(=O)[O-])cc6)c6ccc3[nH]6)C=C5)C=C4)cc1)[C@@H](C(F)(F)F)O2
REMARK SMILES IDX 22 1 21 2 20 3 18 4 19 5 17 6 9 7 10 8 14 9 11 10 13 11
REMARK SMILES IDX 15 12 12 13 91 14 16 15 86 16 8 17 7 18 6 19 5 20 4 21 3 22
REMARK SMILES IDX 2 23 1 25 87 26 88 27 89 28 90 29 23 30 24 31 25 32 26 33
REMARK SMILES IDX 27 34 85 35 28 36 84 37 29 38 30 39 31 40 78 41 32 42 83 43
REMARK SMILES IDX 77 44 79 45 33 46 82 47 76 48 75 49 34 51 64 52 45 53 63 54
REMARK SMILES IDX 46 55 49 56 62 57 80 58 47 59 48 60 61 62 81 63 50 64 35 65
REMARK SMILES IDX 36 66 44 67 37 68 43 69 38 70 39 71 40 72 41 73 42 74 65 75
REMARK SMILES IDX 66 76 74 77 67 78 73 79 68 80 69 81 70 82 71 83 72 84 51 85
REMARK SMILES IDX 52 86 60 87 53 88 59 89 54 90 55 91 56 92 57 93 58 94
REMARK H PARENT 7 24 79 50 49 61
REMARK Flexibility Score: inf
ROOT
ATOM      1  C   UNL     1       6.188  -0.388 -10.391  1.00  0.00     0.275 C 
ENDROOT
BRANCH   1   2
ATOM      2  C   UNL     1       5.889   1.082 -10.087  1.00  0.00     0.275 C 
BRANCH   2   3
ATOM      3  O   UNL     1       5.293   1.254  -8.780  1.00  0.00    -0.459 OA
BRANCH   3   4
ATOM      4  C   UNL     1       3.950   1.394  -8.796  1.00  0.00     0.338 C 
ATOM      5  O   UNL     1       3.243   1.428  -9.794  1.00  0.00    -0.246 OA
BRANCH   4   6
ATOM      6  C   UNL     1       3.382   1.462  -7.440  1.00  0.00     0.087 C 
ATOM      7  C   UNL     1      -0.116   1.323  -3.828  1.00  0.00     0.029 A 
ATOM      8  C   UNL     1       1.196   1.868  -3.896  1.00  0.00     0.058 A 
ATOM      9  C   UNL     1      -0.648   0.743  -4.989  1.00  0.00     0.050 A 
ATOM     10  C   UNL     1       1.971   1.739  -5.050  1.00  0.00     0.128 A 
ATOM     11  C   UNL     1       0.172   0.489  -6.079  1.00  0.00     0.033 A 
ATOM     12  Cl  UNL     1      -2.330   0.434  -5.226  1.00  0.00    -0.084 Cl
ATOM     13  C   UNL     1       1.480   0.966  -6.091  1.00  0.00     0.019 A 
ATOM     14  O   UNL     1       3.198   2.351  -5.113  1.00  0.00    -0.475 OA
ATOM     15  C   UNL     1       2.299   0.707  -7.245  1.00  0.00     0.027 C 
ATOM     16  C   UNL     1       3.809   2.500  -6.446  1.00  0.00     0.316 C 
BRANCH   7  17
ATOM     17  C   UNL     1      -0.877   1.353  -2.512  1.00  0.00     0.301 C 
BRANCH  17  18
ATOM     18  N   UNL     1      -0.825   0.136  -1.678  1.00  0.00    -0.327 N 
ATOM     19  C   UNL     1       0.975   0.232   0.011  1.00  0.00     0.075 C 
ATOM     20  C   UNL     1       0.517  -0.350  -1.319  1.00  0.00     0.181 C 
ATOM     21  C   UNL     1       0.391  -1.871  -1.254  1.00  0.00     0.071 C 
ATOM     22  C   UNL     1      -0.665  -2.164  -2.297  1.00  0.00     0.071 C 
ATOM     23  C   UNL     1      -1.636  -1.000  -2.142  1.00  0.00     0.181 C 
ATOM     24  H   UNL     1      -1.258   0.505  -0.832  1.00  0.00     0.348 HD
ATOM     25  C   UNL     1      -2.733  -1.297  -1.119  1.00  0.00     0.075 C 
ENDBRANCH  17  18
ENDBRANCH   7  17
BRANCH  16  26
ATOM     26  C   UNL     1       3.572   3.915  -7.000  1.00  0.00     0.430 C 
ATOM     27  F   UNL     1       3.967   4.865  -6.119  1.00  0.00    -0.167 F 
ATOM     28  F   UNL     1       4.289   4.123  -8.134  1.00  0.00    -0.167 F 
ATOM     29  F   UNL     1       2.275   4.148  -7.295  1.00  0.00    -0.167 F 
ENDBRANCH  16  26
ENDBRANCH   4   6
ENDBRANCH   3   4
ENDBRANCH   2   3
ENDBRANCH   1   2
BRANCH   1  30
ATOM     30  O   UNL     1       4.978  -1.144 -10.587  1.00  0.00    -0.458 OA
BRANCH  30  31
ATOM     31  C   UNL     1       4.607  -1.913  -9.539  1.00  0.00     0.338 C 
ATOM     32  O   UNL     1       5.174  -2.017  -8.465  1.00  0.00    -0.246 OA
BRANCH  31  33
ATOM     33  C   UNL     1       3.331  -2.586  -9.825  1.00  0.00     0.060 A 
ATOM     34  C   UNL     1       3.266  -3.962 -10.014  1.00  0.00     0.016 A 
ATOM     35  C   UNL     1       2.159  -1.851  -9.704  1.00  0.00     0.016 A 
ATOM     36  C   UNL     1       2.011  -4.582 -10.084  1.00  0.00     0.010 A 
ATOM     37  C   UNL     1       0.932  -2.495  -9.576  1.00  0.00     0.010 A 
ATOM     38  C   UNL     1       0.825  -3.868  -9.814  1.00  0.00    -0.014 A 
BRANCH  38  39
ATOM     39  C   UNL     1      -0.518  -4.530  -9.824  1.00  0.00     0.031 A 
ATOM     40  C   UNL     1      -1.645  -3.976 -10.675  1.00  0.00     0.074 A 
ATOM     41  C   UNL     1      -0.739  -5.628  -9.067  1.00  0.00     0.049 A 
ATOM     42  N   UNL     1      -2.868  -4.428 -10.814  1.00  0.00    -0.248 NA
ATOM     43  C   UNL     1      -1.391  -2.740 -11.439  1.00  0.00     0.031 C 
ATOM     44  C   UNL     1       0.227  -6.229  -8.143  1.00  0.00     0.029 A 
ATOM     45  N   UNL     1      -1.831  -6.460  -8.978  1.00  0.00    -0.354 N 
ATOM     46  C   UNL     1      -3.516  -3.526 -11.654  1.00  0.00     0.074 A 
ATOM     47  C   UNL     1      -2.590  -2.455 -11.924  1.00  0.00     0.031 C 
ATOM     48  C   UNL     1      -0.270  -7.383  -7.670  1.00  0.00     0.029 A 
ATOM     49  C   UNL     1      -1.614  -7.580  -8.205  1.00  0.00     0.049 A 
ATOM     50  H   UNL     1      -2.688  -6.273  -9.426  1.00  0.00     0.167 HD
ATOM     51  C   UNL     1      -4.748  -3.607 -12.207  1.00  0.00     0.031 A 
ATOM     52  C   UNL     1      -2.390  -8.659  -7.971  1.00  0.00     0.031 A 
ATOM     53  C   UNL     1      -5.641  -4.715 -12.013  1.00  0.00     0.049 A 
ATOM     54  C   UNL     1      -3.746  -8.740  -8.620  1.00  0.00     0.074 A 
ATOM     55  C   UNL     1      -6.883  -4.921 -12.588  1.00  0.00     0.029 A 
ATOM     56  N   UNL     1      -5.377  -5.817 -11.217  1.00  0.00    -0.354 N 
ATOM     57  N   UNL     1      -4.309  -7.899  -9.453  1.00  0.00    -0.248 NA
ATOM     58  C   UNL     1      -4.570  -9.918  -8.306  1.00  0.00     0.031 C 
ATOM     59  C   UNL     1      -7.392  -6.125 -12.102  1.00  0.00     0.029 A 
ATOM     60  C   UNL     1      -6.439  -6.702 -11.278  1.00  0.00     0.049 A 
ATOM     61  H   UNL     1      -4.558  -5.951 -10.688  1.00  0.00     0.167 HD
ATOM     62  C   UNL     1      -5.539  -8.459  -9.783  1.00  0.00     0.074 A 
ATOM     63  C   UNL     1      -5.631  -9.718  -9.077  1.00  0.00     0.031 C 
ATOM     64  C   UNL     1      -6.506  -7.966 -10.594  1.00  0.00     0.031 A 
BRANCH  51  65
ATOM     65  C   UNL     1      -5.193  -2.518 -13.152  1.00  0.00    -0.014 A 
ATOM     66  C   UNL     1      -6.305  -1.716 -12.834  1.00  0.00     0.010 A 
ATOM     67  C   UNL     1      -4.610  -2.404 -14.428  1.00  0.00     0.010 A 
ATOM     68  C   UNL     1      -6.859  -0.861 -13.792  1.00  0.00     0.020 A 
ATOM     69  C   UNL     1      -5.140  -1.526 -15.376  1.00  0.00     0.020 A 
ATOM     70  C   UNL     1      -6.282  -0.786 -15.063  1.00  0.00     0.054 A 
BRANCH  70  71
ATOM     71  S   UNL     1      -7.064   0.262 -16.321  1.00  0.00     0.124 S 
ATOM     72  O   UNL     1      -8.265  -0.498 -16.651  1.00  0.00    -0.237 OA
ATOM     73  O   UNL     1      -7.285   1.514 -15.600  1.00  0.00    -0.237 OA
ATOM     74  O   UNL     1      -6.059   0.333 -17.380  1.00  0.00    -0.744 OA
ENDBRANCH  70  71
ENDBRANCH  51  65
BRANCH  52  75
ATOM     75  C   UNL     1      -1.867  -9.791  -7.149  1.00  0.00    -0.014 A 
ATOM     76  C   UNL     1      -1.611  -9.635  -5.775  1.00  0.00     0.010 A 
ATOM     77  C   UNL     1      -1.585 -11.030  -7.755  1.00  0.00     0.010 A 
ATOM     78  C   UNL     1      -1.048 -10.678  -5.033  1.00  0.00     0.020 A 
ATOM     79  C   UNL     1      -1.054 -12.087  -7.010  1.00  0.00     0.020 A 
ATOM     80  C   UNL     1      -0.765 -11.896  -5.658  1.00  0.00     0.054 A 
BRANCH  80  81
ATOM     81  S   UNL     1      -0.024 -13.232  -4.679  1.00  0.00     0.124 S 
ATOM     82  O   UNL     1       1.367 -12.796  -4.582  1.00  0.00    -0.237 OA
ATOM     83  O   UNL     1      -0.788 -13.179  -3.435  1.00  0.00    -0.237 OA
ATOM     84  O   UNL     1      -0.251 -14.421  -5.495  1.00  0.00    -0.744 OA
ENDBRANCH  80  81
ENDBRANCH  52  75
BRANCH  64  85
ATOM     85  C   UNL     1      -7.756  -8.779 -10.798  1.00  0.00    -0.014 A 
ATOM     86  C   UNL     1      -8.040  -9.307 -12.072  1.00  0.00     0.010 A 
ATOM     87  C   UNL     1      -8.723  -8.874  -9.783  1.00  0.00     0.010 A 
ATOM     88  C   UNL     1      -9.287  -9.874 -12.341  1.00  0.00     0.020 A 
ATOM     89  C   UNL     1      -9.961  -9.470 -10.040  1.00  0.00     0.020 A 
ATOM     90  C   UNL     1     -10.245  -9.939 -11.326  1.00  0.00     0.054 A 
BRANCH  90  91
ATOM     91  S   UNL     1     -11.878 -10.627 -11.708  1.00  0.00     0.124 S 
ATOM     92  O   UNL     1     -12.501  -9.542 -12.460  1.00  0.00    -0.237 OA
ATOM     93  O   UNL     1     -11.551 -11.822 -12.481  1.00  0.00    -0.237 OA
ATOM     94  O   UNL     1     -12.457 -10.886 -10.391  1.00  0.00    -0.744 OA
ENDBRANCH  90  91
ENDBRANCH  64  85
ENDBRANCH  38  39
ENDBRANCH  31  33
ENDBRANCH  30  31
ENDBRANCH   1  30
TORSDOF 17
