REMARK SMILES C[C@H](NC(=O)OCc1ccccc1)C(=O)NCC(=O)N1CCC[C@H]1C(=O)OCCOC(=O)c1ccc(-c2c3nc(c(-c4ccc(S(=O)(=O)[O-])cc4)c4ccc([nH]4)c(-c4ccc(S(=O)(=O)[O-])cc4)c4nc(c(-c5ccc(S(=O)(=O)[O-])cc5)c5ccc2[nH]5)C=C4)C=C3)cc1
REMARK SMILES IDX 25 1 26 2 24 3 20 4 21 5 22 6 23 7 18 8 19 9 17 10 16 11
REMARK SMILES IDX 14 12 15 13 2 15 1 16 3 17 4 18 5 20 6 21 7 22 8 23 9 24
REMARK SMILES IDX 13 25 10 26 12 27 11 28 27 29 28 30 29 31 30 32 31 33 32 34
REMARK SMILES IDX 33 35 34 36 92 37 35 38 91 39 36 40 37 41 38 42 85 43 39 44
REMARK SMILES IDX 90 45 84 46 86 47 40 48 89 49 83 50 82 51 41 53 71 54 52 55
REMARK SMILES IDX 70 56 53 57 56 58 69 59 87 60 54 61 55 62 68 64 88 65 57 66
REMARK SMILES IDX 42 67 43 68 51 69 44 70 50 71 45 72 46 73 47 74 48 75 49 76
REMARK SMILES IDX 72 77 73 78 81 79 74 80 80 81 75 82 76 83 77 84 78 85 79 86
REMARK SMILES IDX 58 87 59 88 67 89 60 90 66 91 61 92 62 93 63 94 64 95 65 96
REMARK H PARENT 16 14 3 19 86 52 56 63
REMARK Flexibility Score: inf
ROOT
ATOM      1  C   UNL     1      -2.029  -2.491   3.494  1.00  0.00     0.328 C 
ATOM      2  O   UNL     1      -3.078  -1.917   3.768  1.00  0.00    -0.250 OA
ENDROOT
BRANCH   1   3
ATOM      3  C   UNL     1      -0.887  -1.852   2.684  1.00  0.00     0.195 C 
ATOM      4  N   UNL     1      -1.347  -1.410   1.364  1.00  0.00    -0.327 N 
ATOM      5  C   UNL     1      -1.626   0.013   1.403  1.00  0.00     0.120 C 
ATOM      6  C   UNL     1      -0.573   0.555   2.343  1.00  0.00     0.024 C 
ATOM      7  C   UNL     1      -0.429  -0.554   3.367  1.00  0.00     0.039 C 
BRANCH   4   8
ATOM      8  C   UNL     1      -1.424  -2.327   0.350  1.00  0.00     0.242 C 
ATOM      9  O   UNL     1      -1.378  -3.539   0.605  1.00  0.00    -0.273 OA
BRANCH   8  10
ATOM     10  C   UNL     1      -1.350  -1.911  -1.129  1.00  0.00     0.216 C 
BRANCH  10  11
ATOM     11  N   UNL     1      -1.700  -0.578  -1.570  1.00  0.00    -0.345 N 
ATOM     12  C   UNL     1      -0.910   0.460  -1.967  1.00  0.00     0.242 C 
ATOM     13  O   UNL     1      -1.484   1.495  -2.321  1.00  0.00    -0.273 OA
ATOM     14  H   UNL     1      -2.667  -0.390  -1.585  1.00  0.00     0.164 HD
BRANCH  12  15
ATOM     15  C   UNL     1       0.631   0.360  -2.033  1.00  0.00     0.171 C 
ATOM     16  C   UNL     1       1.076  -0.440  -3.244  1.00  0.00     0.042 C 
BRANCH  15  17
ATOM     17  N   UNL     1       1.167   0.010  -0.725  1.00  0.00    -0.310 N 
ATOM     18  C   UNL     1       1.889  -1.034  -0.238  1.00  0.00     0.408 C 
ATOM     19  H   UNL     1       0.960   0.683  -0.036  1.00  0.00     0.167 HD
ATOM     20  O   UNL     1       2.027  -1.173   0.963  1.00  0.00    -0.225 OA
BRANCH  18  21
ATOM     21  O   UNL     1       2.413  -1.839  -1.192  1.00  0.00    -0.445 OA
BRANCH  21  22
ATOM     22  C   UNL     1       3.288  -2.861  -0.684  1.00  0.00     0.270 C 
BRANCH  22  23
ATOM     23  C   UNL     1       4.575  -2.302  -0.120  1.00  0.00    -0.011 A 
ATOM     24  C   UNL     1       5.017  -2.701   1.151  1.00  0.00     0.007 A 
ATOM     25  C   UNL     1       5.329  -1.360  -0.834  1.00  0.00     0.007 A 
ATOM     26  C   UNL     1       6.175  -2.152   1.705  1.00  0.00     0.000 A 
ATOM     27  C   UNL     1       6.486  -0.810  -0.276  1.00  0.00     0.000 A 
ATOM     28  C   UNL     1       6.906  -1.204   0.993  1.00  0.00     0.000 A 
ENDBRANCH  22  23
ENDBRANCH  21  22
ENDBRANCH  18  21
ENDBRANCH  15  17
ENDBRANCH  12  15
ENDBRANCH  10  11
ENDBRANCH   8  10
ENDBRANCH   4   8
ENDBRANCH   1   3
BRANCH   1  29
ATOM     29  O   UNL     1      -1.709  -3.754   3.889  1.00  0.00    -0.461 OA
BRANCH  29  30
ATOM     30  C   UNL     1      -2.663  -4.438   4.723  1.00  0.00     0.274 C 
BRANCH  30  31
ATOM     31  C   UNL     1      -1.971  -4.934   5.990  1.00  0.00     0.275 C 
BRANCH  31  32
ATOM     32  O   UNL     1      -1.532  -3.815   6.785  1.00  0.00    -0.458 OA
BRANCH  32  33
ATOM     33  C   UNL     1      -0.218  -3.518   6.660  1.00  0.00     0.338 C 
ATOM     34  O   UNL     1       0.618  -4.114   6.001  1.00  0.00    -0.246 OA
BRANCH  33  35
ATOM     35  C   UNL     1       0.090  -2.249   7.334  1.00  0.00     0.060 A 
ATOM     36  C   UNL     1      -0.232  -1.085   6.655  1.00  0.00     0.016 A 
ATOM     37  C   UNL     1       0.903  -2.192   8.457  1.00  0.00     0.016 A 
ATOM     38  C   UNL     1       0.417   0.110   6.958  1.00  0.00     0.010 A 
ATOM     39  C   UNL     1       1.417  -0.953   8.868  1.00  0.00     0.010 A 
ATOM     40  C   UNL     1       1.249   0.206   8.081  1.00  0.00    -0.014 A 
BRANCH  40  41
ATOM     41  C   UNL     1       1.978   1.478   8.404  1.00  0.00     0.031 A 
ATOM     42  C   UNL     1       3.467   1.458   8.682  1.00  0.00     0.074 A 
ATOM     43  C   UNL     1       1.331   2.663   8.455  1.00  0.00     0.049 A 
ATOM     44  N   UNL     1       4.231   2.392   9.193  1.00  0.00    -0.248 NA
ATOM     45  C   UNL     1       4.184   0.211   8.370  1.00  0.00     0.031 C 
ATOM     46  C   UNL     1      -0.089   2.876   8.167  1.00  0.00     0.029 A 
ATOM     47  N   UNL     1       1.788   3.923   8.773  1.00  0.00    -0.354 N 
ATOM     48  C   UNL     1       5.491   1.817   9.346  1.00  0.00     0.074 A 
ATOM     49  C   UNL     1       5.384   0.451   8.879  1.00  0.00     0.031 C 
ATOM     50  C   UNL     1      -0.375   4.181   8.273  1.00  0.00     0.029 A 
ATOM     51  C   UNL     1       0.805   4.886   8.754  1.00  0.00     0.049 A 
ATOM     52  H   UNL     1       2.728   4.116   8.991  1.00  0.00     0.167 HD
ATOM     53  C   UNL     1       6.630   2.369   9.835  1.00  0.00     0.031 A 
ATOM     54  C   UNL     1       0.815   6.179   9.136  1.00  0.00     0.031 A 
ATOM     55  C   UNL     1       6.749   3.745  10.246  1.00  0.00     0.049 A 
ATOM     56  C   UNL     1       2.076   6.772   9.692  1.00  0.00     0.074 A 
ATOM     57  C   UNL     1       7.867   4.408  10.723  1.00  0.00     0.029 A 
ATOM     58  N   UNL     1       5.718   4.673  10.219  1.00  0.00    -0.354 N 
ATOM     59  N   UNL     1       3.241   6.199   9.877  1.00  0.00    -0.248 NA
ATOM     60  C   UNL     1       2.022   8.181  10.100  1.00  0.00     0.031 C 
ATOM     61  C   UNL     1       7.496   5.721  11.039  1.00  0.00     0.029 A 
ATOM     62  C   UNL     1       6.166   5.896  10.692  1.00  0.00     0.049 A 
ATOM     63  H   UNL     1       4.802   4.490   9.908  1.00  0.00     0.167 HD
ATOM     64  C   UNL     1       4.066   7.184  10.408  1.00  0.00     0.074 A 
ATOM     65  C   UNL     1       3.270   8.392  10.497  1.00  0.00     0.031 C 
ATOM     66  C   UNL     1       5.365   7.092  10.787  1.00  0.00     0.031 A 
BRANCH  53  67
ATOM     67  C   UNL     1       7.823   1.458  10.016  1.00  0.00    -0.014 A 
ATOM     68  C   UNL     1       8.516   0.903   8.925  1.00  0.00     0.010 A 
ATOM     69  C   UNL     1       8.251   1.147  11.321  1.00  0.00     0.010 A 
ATOM     70  C   UNL     1       9.560  -0.005   9.137  1.00  0.00     0.020 A 
ATOM     71  C   UNL     1       9.318   0.268  11.537  1.00  0.00     0.020 A 
ATOM     72  C   UNL     1       9.945  -0.326  10.442  1.00  0.00     0.054 A 
BRANCH  72  73
ATOM     73  S   UNL     1      11.277  -1.534  10.691  1.00  0.00     0.124 S 
ATOM     74  O   UNL     1      10.611  -2.789  10.349  1.00  0.00    -0.237 OA
ATOM     75  O   UNL     1      12.297  -1.087   9.745  1.00  0.00    -0.237 OA
ATOM     76  O   UNL     1      11.627  -1.380  12.100  1.00  0.00    -0.744 OA
ENDBRANCH  72  73
ENDBRANCH  53  67
BRANCH  54  77
ATOM     77  C   UNL     1      -0.444   6.973   9.050  1.00  0.00    -0.014 A 
ATOM     78  C   UNL     1      -0.589   7.991   8.092  1.00  0.00     0.010 A 
ATOM     79  C   UNL     1      -1.535   6.660   9.884  1.00  0.00     0.010 A 
ATOM     80  C   UNL     1      -1.805   8.671   7.962  1.00  0.00     0.020 A 
ATOM     81  C   UNL     1      -2.760   7.314   9.734  1.00  0.00     0.020 A 
ATOM     82  C   UNL     1      -2.887   8.318   8.774  1.00  0.00     0.054 A 
BRANCH  82  83
ATOM     83  S   UNL     1      -4.484   9.138   8.512  1.00  0.00     0.124 S 
ATOM     84  O   UNL     1      -4.236  10.469   9.057  1.00  0.00    -0.237 OA
ATOM     85  O   UNL     1      -4.640   9.066   7.061  1.00  0.00    -0.237 OA
ATOM     86  O   UNL     1      -5.421   8.314   9.272  1.00  0.00    -0.744 OA
ENDBRANCH  82  83
ENDBRANCH  54  77
BRANCH  66  87
ATOM     87  C   UNL     1       6.025   8.346  11.297  1.00  0.00    -0.014 A 
ATOM     88  C   UNL     1       5.700   8.890  12.552  1.00  0.00     0.010 A 
ATOM     89  C   UNL     1       7.018   8.968  10.517  1.00  0.00     0.010 A 
ATOM     90  C   UNL     1       6.328  10.056  13.001  1.00  0.00     0.020 A 
ATOM     91  C   UNL     1       7.670  10.115  10.976  1.00  0.00     0.020 A 
ATOM     92  C   UNL     1       7.309  10.661  12.208  1.00  0.00     0.054 A 
BRANCH  92  93
ATOM     93  S   UNL     1       8.133  12.154  12.826  1.00  0.00     0.124 S 
ATOM     94  O   UNL     1       7.087  13.163  12.676  1.00  0.00    -0.237 OA
ATOM     95  O   UNL     1       8.464  11.792  14.202  1.00  0.00    -0.237 OA
ATOM     96  O   UNL     1       9.281  12.310  11.936  1.00  0.00    -0.744 OA
ENDBRANCH  92  93
ENDBRANCH  66  87
ENDBRANCH  40  41
ENDBRANCH  33  35
ENDBRANCH  32  33
ENDBRANCH  31  32
ENDBRANCH  30  31
ENDBRANCH  29  30
ENDBRANCH   1  29
TORSDOF 22
