REMARK SMILES Cc1cccc(OCC(=O)Nc2cc(C(=O)OCCOC(=O)c3ccc(-c4c5nc(c(-c6ccc(S(=O)(=O)[O-])cc6)c6ccc([nH]6)c(-c6ccc(S(=O)(=O)[O-])cc6)c6nc(c(-c7ccc(S(=O)(=O)[O-])cc7)c7ccc4[nH]7)C=C6)C=C5)cc3)c(Cl)cc2Cl)c1
REMARK SMILES IDX 18 1 17 2 15 3 16 4 14 5 12 6 13 7 86 8 85 9 87 10 83 11
REMARK SMILES IDX 84 12 11 13 9 14 10 15 8 17 7 18 6 19 1 20 2 21 3 22 88 23
REMARK SMILES IDX 4 24 5 25 19 26 20 27 21 28 22 29 23 30 24 31 82 32 25 33
REMARK SMILES IDX 81 34 26 35 27 36 28 37 75 38 29 39 80 40 74 41 76 42 30 43
REMARK SMILES IDX 79 44 73 45 72 46 31 48 61 49 42 50 60 51 43 52 46 53 59 54
REMARK SMILES IDX 77 55 44 56 45 57 58 59 78 60 47 61 32 62 33 63 41 64 34 65
REMARK SMILES IDX 40 66 35 67 36 68 37 69 38 70 39 71 62 72 63 73 71 74 64 75
REMARK SMILES IDX 70 76 65 77 66 78 67 79 68 80 69 81 48 82 49 83 57 84 50 85
REMARK SMILES IDX 56 86 51 87 52 88 53 89 54 90 55 91
REMARK H PARENT 11 16 76 47 46 58
REMARK Flexibility Score: inf
ROOT
ATOM      1  C   UNL     1      -3.859  -1.266   0.964  1.00  0.00     0.275 C 
ENDROOT
BRANCH   1   2
ATOM      2  O   UNL     1      -3.776   0.048   1.554  1.00  0.00    -0.458 OA
BRANCH   2   3
ATOM      3  C   UNL     1      -3.181   0.132   2.767  1.00  0.00     0.339 C 
ATOM      4  O   UNL     1      -2.711  -0.788   3.411  1.00  0.00    -0.246 OA
BRANCH   3   5
ATOM      5  C   UNL     1      -2.952   1.556   3.090  1.00  0.00     0.080 A 
ATOM      6  C   UNL     1      -1.418   3.439   2.854  1.00  0.00     0.061 A 
ATOM      7  C   UNL     1      -1.841   2.164   2.478  1.00  0.00     0.045 A 
ATOM      8  C   UNL     1      -2.139   4.115   3.852  1.00  0.00     0.066 A 
ATOM      9  C   UNL     1      -3.265   3.536   4.438  1.00  0.00     0.044 A 
ATOM     10  Cl  UNL     1      -1.629   5.668   4.421  1.00  0.00    -0.082 Cl
ATOM     11  C   UNL     1      -3.650   2.239   4.086  1.00  0.00     0.057 A 
ATOM     12  Cl  UNL     1      -4.906   1.529   5.016  1.00  0.00    -0.083 Cl
BRANCH   6  13
ATOM     13  N   UNL     1      -0.192   3.973   2.419  1.00  0.00    -0.322 N 
ATOM     14  C   UNL     1       0.510   3.827   1.256  1.00  0.00     0.262 C 
ATOM     15  O   UNL     1       1.719   4.088   1.272  1.00  0.00    -0.271 OA
ATOM     16  H   UNL     1       0.243   4.562   3.076  1.00  0.00     0.170 HD
BRANCH  14  17
ATOM     17  C   UNL     1      -0.222   3.575  -0.078  1.00  0.00     0.329 C 
BRANCH  17  18
ATOM     18  O   UNL     1      -0.833   2.353  -0.414  1.00  0.00    -0.484 OA
BRANCH  18  19
ATOM     19  C   UNL     1      -0.083   1.216  -0.443  1.00  0.00     0.120 A 
ATOM     20  C   UNL     1       3.398  -0.244  -0.003  1.00  0.00     0.044 C 
ATOM     21  C   UNL     1       1.914  -0.131  -0.188  1.00  0.00    -0.047 A 
ATOM     22  C   UNL     1       1.133  -1.292  -0.251  1.00  0.00     0.003 A 
ATOM     23  C   UNL     1       1.299   1.126  -0.299  1.00  0.00     0.049 A 
ATOM     24  C   UNL     1      -0.240  -1.203  -0.453  1.00  0.00     0.004 A 
ATOM     25  C   UNL     1      -0.840   0.048  -0.561  1.00  0.00     0.046 A 
ENDBRANCH  18  19
ENDBRANCH  17  18
ENDBRANCH  14  17
ENDBRANCH   6  13
ENDBRANCH   3   5
ENDBRANCH   2   3
ENDBRANCH   1   2
BRANCH   1  26
ATOM     26  C   UNL     1      -4.859  -2.237   1.624  1.00  0.00     0.275 C 
BRANCH  26  27
ATOM     27  O   UNL     1      -6.231  -1.852   1.459  1.00  0.00    -0.458 OA
BRANCH  27  28
ATOM     28  C   UNL     1      -6.553  -0.710   2.136  1.00  0.00     0.338 C 
ATOM     29  O   UNL     1      -6.345  -0.549   3.321  1.00  0.00    -0.246 OA
BRANCH  28  30
ATOM     30  C   UNL     1      -6.681   0.363   1.108  1.00  0.00     0.060 A 
ATOM     31  C   UNL     1      -6.451   1.700   1.468  1.00  0.00     0.016 A 
ATOM     32  C   UNL     1      -6.658  -0.021  -0.238  1.00  0.00     0.016 A 
ATOM     33  C   UNL     1      -6.109   2.632   0.485  1.00  0.00     0.010 A 
ATOM     34  C   UNL     1      -6.199   0.860  -1.185  1.00  0.00     0.010 A 
ATOM     35  C   UNL     1      -5.957   2.194  -0.836  1.00  0.00    -0.014 A 
BRANCH  35  36
ATOM     36  C   UNL     1      -5.944   3.087  -1.986  1.00  0.00     0.031 A 
ATOM     37  C   UNL     1      -4.760   3.813  -2.467  1.00  0.00     0.074 A 
ATOM     38  C   UNL     1      -7.134   3.139  -2.626  1.00  0.00     0.049 A 
ATOM     39  N   UNL     1      -4.816   4.970  -3.034  1.00  0.00    -0.248 NA
ATOM     40  C   UNL     1      -3.401   3.291  -2.356  1.00  0.00     0.031 C 
ATOM     41  C   UNL     1      -7.487   3.768  -3.883  1.00  0.00     0.029 A 
ATOM     42  N   UNL     1      -8.365   2.741  -2.086  1.00  0.00    -0.354 N 
ATOM     43  C   UNL     1      -3.594   5.186  -3.635  1.00  0.00     0.074 A 
ATOM     44  C   UNL     1      -2.711   4.180  -3.087  1.00  0.00     0.031 C 
ATOM     45  C   UNL     1      -8.810   4.022  -3.857  1.00  0.00     0.029 A 
ATOM     46  C   UNL     1      -9.298   3.670  -2.525  1.00  0.00     0.049 A 
ATOM     47  H   UNL     1      -8.534   1.960  -1.512  1.00  0.00     0.167 HD
ATOM     48  C   UNL     1      -3.495   6.051  -4.685  1.00  0.00     0.031 A 
ATOM     49  C   UNL     1      -9.927   4.496  -1.640  1.00  0.00     0.031 A 
ATOM     50  C   UNL     1      -4.801   6.603  -5.032  1.00  0.00     0.049 A 
ATOM     51  C   UNL     1      -9.612   5.933  -1.966  1.00  0.00     0.074 A 
ATOM     52  C   UNL     1      -5.726   6.225  -5.991  1.00  0.00     0.029 A 
ATOM     53  N   UNL     1      -5.468   7.435  -4.141  1.00  0.00    -0.354 N 
ATOM     54  N   UNL     1      -8.509   6.326  -2.545  1.00  0.00    -0.248 NA
ATOM     55  C   UNL     1     -10.543   7.025  -1.714  1.00  0.00     0.031 C 
ATOM     56  C   UNL     1      -6.986   6.748  -5.610  1.00  0.00     0.029 A 
ATOM     57  C   UNL     1      -6.816   7.471  -4.442  1.00  0.00     0.049 A 
ATOM     58  H   UNL     1      -5.042   7.928  -3.402  1.00  0.00     0.167 HD
ATOM     59  C   UNL     1      -8.632   7.649  -2.881  1.00  0.00     0.074 A 
ATOM     60  C   UNL     1      -9.900   8.053  -2.294  1.00  0.00     0.031 C 
ATOM     61  C   UNL     1      -7.733   8.300  -3.675  1.00  0.00     0.031 A 
BRANCH  48  62
ATOM     62  C   UNL     1      -2.297   6.098  -5.607  1.00  0.00    -0.014 A 
ATOM     63  C   UNL     1      -2.495   6.255  -6.996  1.00  0.00     0.010 A 
ATOM     64  C   UNL     1      -0.963   5.976  -5.172  1.00  0.00     0.010 A 
ATOM     65  C   UNL     1      -1.438   6.204  -7.913  1.00  0.00     0.020 A 
ATOM     66  C   UNL     1       0.108   5.909  -6.085  1.00  0.00     0.020 A 
ATOM     67  C   UNL     1      -0.140   6.010  -7.454  1.00  0.00     0.054 A 
BRANCH  67  68
ATOM     68  S   UNL     1       1.199   5.886  -8.673  1.00  0.00     0.124 S 
ATOM     69  O   UNL     1       0.760   4.771  -9.509  1.00  0.00    -0.237 OA
ATOM     70  O   UNL     1       1.167   7.199  -9.311  1.00  0.00    -0.237 OA
ATOM     71  O   UNL     1       2.383   5.618  -7.861  1.00  0.00    -0.744 OA
ENDBRANCH  67  68
ENDBRANCH  48  62
BRANCH  49  72
ATOM     72  C   UNL     1     -10.162   3.943  -0.266  1.00  0.00    -0.014 A 
ATOM     73  C   UNL     1     -10.882   2.728  -0.158  1.00  0.00     0.010 A 
ATOM     74  C   UNL     1      -9.486   4.410   0.874  1.00  0.00     0.010 A 
ATOM     75  C   UNL     1     -10.850   1.958   1.010  1.00  0.00     0.020 A 
ATOM     76  C   UNL     1      -9.468   3.648   2.059  1.00  0.00     0.020 A 
ATOM     77  C   UNL     1     -10.126   2.415   2.108  1.00  0.00     0.054 A 
BRANCH  77  78
ATOM     78  S   UNL     1      -9.912   1.289   3.522  1.00  0.00     0.124 S 
ATOM     79  O   UNL     1     -11.216   1.367   4.174  1.00  0.00    -0.237 OA
ATOM     80  O   UNL     1      -9.614   0.023   2.857  1.00  0.00    -0.237 OA
ATOM     81  O   UNL     1      -8.803   1.893   4.255  1.00  0.00    -0.744 OA
ENDBRANCH  77  78
ENDBRANCH  49  72
BRANCH  61  82
ATOM     82  C   UNL     1      -7.709   9.782  -3.948  1.00  0.00    -0.014 A 
ATOM     83  C   UNL     1      -8.261  10.742  -3.090  1.00  0.00     0.010 A 
ATOM     84  C   UNL     1      -6.967  10.257  -5.058  1.00  0.00     0.010 A 
ATOM     85  C   UNL     1      -8.130  12.110  -3.358  1.00  0.00     0.020 A 
ATOM     86  C   UNL     1      -6.788  11.617  -5.307  1.00  0.00     0.020 A 
ATOM     87  C   UNL     1      -7.393  12.538  -4.463  1.00  0.00     0.054 A 
BRANCH  87  88
ATOM     88  S   UNL     1      -7.151  14.307  -4.746  1.00  0.00     0.124 S 
ATOM     89  O   UNL     1      -8.332  14.648  -5.534  1.00  0.00    -0.237 OA
ATOM     90  O   UNL     1      -7.121  14.853  -3.391  1.00  0.00    -0.237 OA
ATOM     91  O   UNL     1      -5.879  14.367  -5.462  1.00  0.00    -0.744 OA
ENDBRANCH  87  88
ENDBRANCH  61  82
ENDBRANCH  35  36
ENDBRANCH  28  30
ENDBRANCH  27  28
ENDBRANCH  26  27
ENDBRANCH   1  26
TORSDOF 18
