REMARK SMILES [NH3+]C1(C(=O)N2[C@@H](C(=O)OCCOC(=O)c3ccc(-c4c5nc(c(-c6ccc(S(=O)(=O)[O-])cc6)c6ccc([nH]6)c(-c6ccc(S(=O)(=O)[O-])cc6)c6nc(c(-c7ccc(S(=O)(=O)[O-])cc7)c7ccc4[nH]7)C=C6)C=C5)cc3)CC[C@@H]3CCCC[C@@H]32)CC1
REMARK SMILES IDX 10 1 9 2 7 3 8 4 6 5 5 6 82 7 75 8 77 9 81 10 76 11 78 12
REMARK SMILES IDX 80 13 79 14 3 15 4 16 2 17 83 18 84 19 1 20 11 24 12 25
REMARK SMILES IDX 13 26 14 27 15 28 16 29 74 30 17 31 73 32 18 33 19 34 20 35
REMARK SMILES IDX 67 36 21 37 72 38 66 39 68 40 22 41 71 42 65 43 64 44 23 46
REMARK SMILES IDX 53 47 34 48 52 49 35 50 38 51 51 52 69 53 36 54 37 55 50 57
REMARK SMILES IDX 70 58 39 59 24 60 25 61 33 62 26 63 32 64 27 65 28 66 29 67
REMARK SMILES IDX 30 68 31 69 54 70 55 71 63 72 56 73 62 74 57 75 58 76 59 77
REMARK SMILES IDX 60 78 61 79 40 80 41 81 49 82 42 83 48 84 43 85 44 86 45 87
REMARK SMILES IDX 46 88 47 89
REMARK H PARENT 1 21 1 22 1 23 68 45 38 56
REMARK Flexibility Score: inf
ROOT
ATOM      1  C   UNL     1      -1.654  -3.269   2.059  1.00  0.00     0.274 C 
ENDROOT
BRANCH   1   2
ATOM      2  O   UNL     1      -0.394  -2.871   2.633  1.00  0.00    -0.461 OA
BRANCH   2   3
ATOM      3  C   UNL     1      -0.341  -1.580   3.065  1.00  0.00     0.328 C 
ATOM      4  O   UNL     1      -1.285  -0.802   2.989  1.00  0.00    -0.250 OA
BRANCH   3   5
ATOM      5  C   UNL     1       1.002  -1.219   3.735  1.00  0.00     0.195 C 
ATOM      6  N   UNL     1       1.889  -0.158   3.212  1.00  0.00    -0.320 N 
ATOM      7  C   UNL     1       2.973   0.285   4.108  1.00  0.00     0.089 C 
ATOM      8  C   UNL     1       1.806  -2.427   4.236  1.00  0.00     0.037 C 
ATOM      9  C   UNL     1       3.759  -0.907   4.701  1.00  0.00     0.012 C 
ATOM     10  C   UNL     1       2.431   1.257   5.170  1.00  0.00     0.025 C 
ATOM     11  C   UNL     1       2.822  -1.972   5.289  1.00  0.00     0.008 C 
ATOM     12  C   UNL     1       4.798  -0.429   5.725  1.00  0.00     0.006 C 
ATOM     13  C   UNL     1       3.490   1.678   6.183  1.00  0.00     0.002 C 
ATOM     14  C   UNL     1       4.209   0.483   6.797  1.00  0.00     0.000 C 
BRANCH   6  15
ATOM     15  C   UNL     1       2.112  -0.001   1.851  1.00  0.00     0.284 C 
ATOM     16  O   UNL     1       3.220  -0.100   1.328  1.00  0.00    -0.268 OA
BRANCH  15  17
ATOM     17  C   UNL     1       0.962   0.526   1.009  1.00  0.00     0.174 C 
ATOM     18  C   UNL     1       0.881   2.046   0.894  1.00  0.00     0.086 C 
ATOM     19  C   UNL     1      -0.211   1.293   1.571  1.00  0.00     0.086 C 
BRANCH  17  20
ATOM     20  N   UNL     1       0.772  -0.254  -0.242  1.00  0.00    -0.345 N 
ATOM     21  H   UNL     1       1.648  -0.713  -0.492  1.00  0.00     0.345 HD
ATOM     22  H   UNL     1       0.491   0.375  -0.995  1.00  0.00     0.345 HD
ATOM     23  H   UNL     1       0.049  -0.958  -0.098  1.00  0.00     0.345 HD
ENDBRANCH  17  20
ENDBRANCH  15  17
ENDBRANCH   6  15
ENDBRANCH   3   5
ENDBRANCH   2   3
ENDBRANCH   1   2
BRANCH   1  24
ATOM     24  C   UNL     1      -2.637  -3.844   3.092  1.00  0.00     0.275 C 
BRANCH  24  25
ATOM     25  O   UNL     1      -3.114  -2.865   4.039  1.00  0.00    -0.458 OA
BRANCH  25  26
ATOM     26  C   UNL     1      -2.389  -2.782   5.181  1.00  0.00     0.338 C 
ATOM     27  O   UNL     1      -1.424  -3.471   5.473  1.00  0.00    -0.246 OA
BRANCH  26  28
ATOM     28  C   UNL     1      -2.784  -1.615   5.997  1.00  0.00     0.060 A 
ATOM     29  C   UNL     1      -1.753  -0.768   6.412  1.00  0.00     0.016 A 
ATOM     30  C   UNL     1      -4.088  -1.393   6.444  1.00  0.00     0.016 A 
ATOM     31  C   UNL     1      -2.004   0.301   7.262  1.00  0.00     0.010 A 
ATOM     32  C   UNL     1      -4.340  -0.328   7.327  1.00  0.00     0.010 A 
ATOM     33  C   UNL     1      -3.295   0.515   7.752  1.00  0.00    -0.014 A 
BRANCH  33  34
ATOM     34  C   UNL     1      -3.475   1.553   8.798  1.00  0.00     0.031 A 
ATOM     35  C   UNL     1      -3.566   1.142  10.242  1.00  0.00     0.074 A 
ATOM     36  C   UNL     1      -3.423   2.858   8.472  1.00  0.00     0.049 A 
ATOM     37  N   UNL     1      -3.661   1.892  11.310  1.00  0.00    -0.248 NA
ATOM     38  C   UNL     1      -3.534  -0.302  10.519  1.00  0.00     0.031 C 
ATOM     39  C   UNL     1      -3.262   3.384   7.116  1.00  0.00     0.029 A 
ATOM     40  N   UNL     1      -3.475   3.979   9.263  1.00  0.00    -0.354 N 
ATOM     41  C   UNL     1      -3.711   1.014  12.386  1.00  0.00     0.074 A 
ATOM     42  C   UNL     1      -3.657  -0.326  11.839  1.00  0.00     0.031 C 
ATOM     43  C   UNL     1      -3.218   4.725   7.171  1.00  0.00     0.029 A 
ATOM     44  C   UNL     1      -3.381   5.155   8.559  1.00  0.00     0.049 A 
ATOM     45  H   UNL     1      -3.571   3.943  10.242  1.00  0.00     0.167 HD
ATOM     46  C   UNL     1      -3.790   1.294  13.709  1.00  0.00     0.031 A 
ATOM     47  C   UNL     1      -3.433   6.434   8.979  1.00  0.00     0.031 A 
ATOM     48  C   UNL     1      -3.854   2.625  14.253  1.00  0.00     0.049 A 
ATOM     49  C   UNL     1      -3.576   6.723  10.448  1.00  0.00     0.074 A 
ATOM     50  C   UNL     1      -3.968   3.010  15.578  1.00  0.00     0.029 A 
ATOM     51  N   UNL     1      -3.806   3.790  13.501  1.00  0.00    -0.354 N 
ATOM     52  N   UNL     1      -3.652   5.879  11.450  1.00  0.00    -0.248 NA
ATOM     53  C   UNL     1      -3.632   8.137  10.845  1.00  0.00     0.031 C 
ATOM     54  C   UNL     1      -4.029   4.408  15.623  1.00  0.00     0.029 A 
ATOM     55  C   UNL     1      -3.898   4.894  14.332  1.00  0.00     0.049 A 
ATOM     56  H   UNL     1      -3.720   3.826  12.521  1.00  0.00     0.167 HD
ATOM     57  C   UNL     1      -3.745   6.660  12.597  1.00  0.00     0.074 A 
ATOM     58  C   UNL     1      -3.699   8.043  12.167  1.00  0.00     0.031 C 
ATOM     59  C   UNL     1      -3.857   6.266  13.890  1.00  0.00     0.031 A 
BRANCH  46  60
ATOM     60  C   UNL     1      -3.860   0.125  14.654  1.00  0.00    -0.014 A 
ATOM     61  C   UNL     1      -2.731  -0.675  14.911  1.00  0.00     0.010 A 
ATOM     62  C   UNL     1      -5.074  -0.176  15.299  1.00  0.00     0.010 A 
ATOM     63  C   UNL     1      -2.829  -1.784  15.757  1.00  0.00     0.020 A 
ATOM     64  C   UNL     1      -5.169  -1.269  16.164  1.00  0.00     0.020 A 
ATOM     65  C   UNL     1      -4.051  -2.079  16.370  1.00  0.00     0.054 A 
BRANCH  65  66
ATOM     66  S   UNL     1      -4.156  -3.529  17.456  1.00  0.00     0.124 S 
ATOM     67  O   UNL     1      -4.178  -4.625  16.491  1.00  0.00    -0.237 OA
ATOM     68  O   UNL     1      -2.939  -3.422  18.256  1.00  0.00    -0.237 OA
ATOM     69  O   UNL     1      -5.401  -3.321  18.191  1.00  0.00    -0.744 OA
ENDBRANCH  65  66
ENDBRANCH  46  60
BRANCH  47  70
ATOM     70  C   UNL     1      -3.372   7.538   7.982  1.00  0.00    -0.014 A 
ATOM     71  C   UNL     1      -2.241   8.366   7.884  1.00  0.00     0.010 A 
ATOM     72  C   UNL     1      -4.450   7.745   7.101  1.00  0.00     0.010 A 
ATOM     73  C   UNL     1      -2.191   9.384   6.926  1.00  0.00     0.020 A 
ATOM     74  C   UNL     1      -4.393   8.744   6.126  1.00  0.00     0.020 A 
ATOM     75  C   UNL     1      -3.265   9.563   6.050  1.00  0.00     0.054 A 
BRANCH  75  76
ATOM     76  S   UNL     1      -3.150  10.838   4.763  1.00  0.00     0.124 S 
ATOM     77  O   UNL     1      -3.388  12.060   5.525  1.00  0.00    -0.237 OA
ATOM     78  O   UNL     1      -1.790  10.659   4.260  1.00  0.00    -0.237 OA
ATOM     79  O   UNL     1      -4.206  10.469   3.823  1.00  0.00    -0.744 OA
ENDBRANCH  75  76
ENDBRANCH  47  70
BRANCH  59  80
ATOM     80  C   UNL     1      -3.905   7.345  14.940  1.00  0.00    -0.014 A 
ATOM     81  C   UNL     1      -5.050   8.142  15.116  1.00  0.00     0.010 A 
ATOM     82  C   UNL     1      -2.800   7.535  15.789  1.00  0.00     0.010 A 
ATOM     83  C   UNL     1      -5.074   9.136  16.099  1.00  0.00     0.020 A 
ATOM     84  C   UNL     1      -2.829   8.511  16.788  1.00  0.00     0.020 A 
ATOM     85  C   UNL     1      -3.961   9.318  16.925  1.00  0.00     0.054 A 
BRANCH  85  86
ATOM     86  S   UNL     1      -4.023  10.595  18.212  1.00  0.00     0.124 S 
ATOM     87  O   UNL     1      -3.827  11.816  17.437  1.00  0.00    -0.237 OA
ATOM     88  O   UNL     1      -5.358  10.418  18.779  1.00  0.00    -0.237 OA
ATOM     89  O   UNL     1      -2.923  10.239  19.106  1.00  0.00    -0.744 OA
ENDBRANCH  85  86
ENDBRANCH  59  80
ENDBRANCH  33  34
ENDBRANCH  26  28
ENDBRANCH  25  26
ENDBRANCH  24  25
ENDBRANCH   1  24
TORSDOF 17
