REMARK SMILES CC(C)Cc1cc2c(cc1Cl)C=C(C(=O)OCCOC(=O)c1ccc(-c3c4nc(c(-c5ccc(S(=O)(=O)[O-])cc5)c5ccc([nH]5)c(-c5ccc(S(=O)(=O)[O-])cc5)c5nc(c(-c6ccc(S(=O)(=O)[O-])cc6)c6ccc3[nH]6)C=C5)C=C4)cc1)[C@H](C(F)(F)F)O2
REMARK SMILES IDX 18 1 17 2 16 3 14 4 15 5 13 6 5 7 6 8 10 9 7 10 9 11 11 12
REMARK SMILES IDX 8 13 87 14 12 15 82 16 4 17 2 18 1 19 3 20 83 21 84 22 85 23
REMARK SMILES IDX 86 24 19 25 20 26 21 27 22 28 23 29 81 30 24 31 80 32 25 33
REMARK SMILES IDX 26 34 27 35 74 36 28 37 79 38 73 39 75 40 29 41 78 42 72 43
REMARK SMILES IDX 71 44 30 46 60 47 41 48 59 49 42 50 45 51 58 52 76 53 43 54
REMARK SMILES IDX 44 55 57 57 77 58 46 59 31 60 32 61 40 62 33 63 39 64 34 65
REMARK SMILES IDX 35 66 36 67 37 68 38 69 61 70 62 71 70 72 63 73 69 74 64 75
REMARK SMILES IDX 65 76 66 77 67 78 68 79 47 80 48 81 56 82 49 83 55 84 50 85
REMARK SMILES IDX 51 86 52 87 53 88 54 89
REMARK H PARENT 75 45 45 56
REMARK Flexibility Score: inf
ROOT
ATOM      1  C   UNL     1      -2.835   5.675   7.531  1.00  0.00     0.275 C 
ENDROOT
BRANCH   1   2
ATOM      2  C   UNL     1      -4.115   4.988   7.047  1.00  0.00     0.275 C 
BRANCH   2   3
ATOM      3  O   UNL     1      -3.820   3.982   6.053  1.00  0.00    -0.459 OA
BRANCH   3   4
ATOM      4  C   UNL     1      -4.014   4.346   4.768  1.00  0.00     0.338 C 
ATOM      5  O   UNL     1      -4.553   5.377   4.399  1.00  0.00    -0.246 OA
BRANCH   4   6
ATOM      6  C   UNL     1      -3.401   3.374   3.835  1.00  0.00     0.087 C 
ATOM      7  C   UNL     1      -1.399   1.259  -0.271  1.00  0.00    -0.025 A 
ATOM      8  C   UNL     1      -2.033   0.750   0.886  1.00  0.00     0.052 A 
ATOM      9  C   UNL     1      -1.307   2.652  -0.431  1.00  0.00     0.045 A 
ATOM     10  C   UNL     1      -2.548   1.609   1.857  1.00  0.00     0.128 A 
ATOM     11  C   UNL     1      -1.820   3.508   0.541  1.00  0.00     0.032 A 
ATOM     12  Cl  UNL     1      -0.615   3.382  -1.836  1.00  0.00    -0.084 Cl
ATOM     13  C   UNL     1      -2.446   2.984   1.674  1.00  0.00     0.019 A 
ATOM     14  O   UNL     1      -3.198   1.059   2.934  1.00  0.00    -0.475 OA
ATOM     15  C   UNL     1      -3.052   3.871   2.641  1.00  0.00     0.027 C 
ATOM     16  C   UNL     1      -3.321   1.899   4.138  1.00  0.00     0.316 C 
BRANCH   7  17
ATOM     17  C   UNL     1      -0.849   0.293  -1.298  1.00  0.00     0.040 C 
BRANCH  17  18
ATOM     18  C   UNL     1       0.691   0.209  -1.340  1.00  0.00    -0.013 C 
ATOM     19  C   UNL     1       1.277  -0.308  -0.025  1.00  0.00     0.008 C 
ATOM     20  C   UNL     1       1.127  -0.690  -2.499  1.00  0.00     0.008 C 
ENDBRANCH  17  18
ENDBRANCH   7  17
BRANCH  16  21
ATOM     21  C   UNL     1      -2.276   1.422   5.165  1.00  0.00     0.430 C 
ATOM     22  F   UNL     1      -2.086   2.266   6.198  1.00  0.00    -0.167 F 
ATOM     23  F   UNL     1      -2.686   0.243   5.713  1.00  0.00    -0.167 F 
ATOM     24  F   UNL     1      -1.066   1.192   4.606  1.00  0.00    -0.167 F 
ENDBRANCH  16  21
ENDBRANCH   4   6
ENDBRANCH   3   4
ENDBRANCH   2   3
ENDBRANCH   1   2
BRANCH   1  25
ATOM     25  O   UNL     1      -2.314   6.558   6.519  1.00  0.00    -0.458 OA
BRANCH  25  26
ATOM     26  C   UNL     1      -1.160   6.177   5.928  1.00  0.00     0.338 C 
ATOM     27  O   UNL     1      -0.503   5.170   6.154  1.00  0.00    -0.246 OA
BRANCH  26  28
ATOM     28  C   UNL     1      -0.834   7.126   4.855  1.00  0.00     0.060 A 
ATOM     29  C   UNL     1       0.142   8.107   5.006  1.00  0.00     0.016 A 
ATOM     30  C   UNL     1      -1.477   6.966   3.633  1.00  0.00     0.016 A 
ATOM     31  C   UNL     1       0.432   8.953   3.926  1.00  0.00     0.010 A 
ATOM     32  C   UNL     1      -1.121   7.738   2.534  1.00  0.00     0.010 A 
ATOM     33  C   UNL     1      -0.188   8.772   2.674  1.00  0.00    -0.014 A 
BRANCH  33  34
ATOM     34  C   UNL     1       0.087   9.663   1.510  1.00  0.00     0.031 A 
ATOM     35  C   UNL     1      -1.041  10.434   0.863  1.00  0.00     0.074 A 
ATOM     36  C   UNL     1       1.329   9.741   0.992  1.00  0.00     0.049 A 
ATOM     37  N   UNL     1      -1.016  11.193  -0.204  1.00  0.00    -0.248 NA
ATOM     38  C   UNL     1      -2.378  10.312   1.470  1.00  0.00     0.031 C 
ATOM     39  C   UNL     1       2.497   9.010   1.486  1.00  0.00     0.029 A 
ATOM     40  N   UNL     1       1.821  10.474  -0.062  1.00  0.00    -0.354 N 
ATOM     41  C   UNL     1      -2.329  11.608  -0.408  1.00  0.00     0.074 A 
ATOM     42  C   UNL     1      -3.136  10.971   0.606  1.00  0.00     0.031 C 
ATOM     43  C   UNL     1       3.577   9.374   0.778  1.00  0.00     0.029 A 
ATOM     44  C   UNL     1       3.175  10.325  -0.256  1.00  0.00     0.049 A 
ATOM     45  H   UNL     1       1.257  11.053  -0.624  1.00  0.00     0.167 HD
ATOM     46  C   UNL     1      -2.815  12.471  -1.331  1.00  0.00     0.031 A 
ATOM     47  C   UNL     1       4.006  10.888  -1.158  1.00  0.00     0.031 A 
ATOM     48  C   UNL     1      -1.997  13.155  -2.296  1.00  0.00     0.049 A 
ATOM     49  C   UNL     1       3.453  11.862  -2.161  1.00  0.00     0.074 A 
ATOM     50  C   UNL     1      -2.384  14.111  -3.219  1.00  0.00     0.029 A 
ATOM     51  N   UNL     1      -0.631  12.975  -2.451  1.00  0.00    -0.354 N 
ATOM     52  N   UNL     1       2.218  12.280  -2.301  1.00  0.00    -0.248 NA
ATOM     53  C   UNL     1       4.398  12.445  -3.125  1.00  0.00     0.031 C 
ATOM     54  C   UNL     1      -1.262  14.472  -3.966  1.00  0.00     0.029 A 
ATOM     55  C   UNL     1      -0.164  13.788  -3.468  1.00  0.00     0.049 A 
ATOM     56  H   UNL     1      -0.077  12.361  -1.918  1.00  0.00     0.167 HD
ATOM     57  C   UNL     1       2.238  13.180  -3.360  1.00  0.00     0.074 A 
ATOM     58  C   UNL     1       3.611  13.263  -3.815  1.00  0.00     0.031 C 
ATOM     59  C   UNL     1       1.208  13.868  -3.908  1.00  0.00     0.031 A 
BRANCH  46  60
ATOM     60  C   UNL     1      -4.292  12.775  -1.324  1.00  0.00    -0.014 A 
ATOM     61  C   UNL     1      -5.091  12.415  -2.426  1.00  0.00     0.010 A 
ATOM     62  C   UNL     1      -4.869  13.521  -0.280  1.00  0.00     0.010 A 
ATOM     63  C   UNL     1      -6.430  12.814  -2.494  1.00  0.00     0.020 A 
ATOM     64  C   UNL     1      -6.215  13.894  -0.329  1.00  0.00     0.020 A 
ATOM     65  C   UNL     1      -6.981  13.558  -1.447  1.00  0.00     0.054 A 
BRANCH  65  66
ATOM     66  S   UNL     1      -8.715  14.081  -1.555  1.00  0.00     0.124 S 
ATOM     67  O   UNL     1      -8.643  15.197  -2.493  1.00  0.00    -0.237 OA
ATOM     68  O   UNL     1      -9.383  12.880  -2.050  1.00  0.00    -0.237 OA
ATOM     69  O   UNL     1      -9.047  14.442  -0.178  1.00  0.00    -0.744 OA
ENDBRANCH  65  66
ENDBRANCH  46  60
BRANCH  47  70
ATOM     70  C   UNL     1       5.461  10.574  -1.096  1.00  0.00    -0.014 A 
ATOM     71  C   UNL     1       5.935   9.289  -1.423  1.00  0.00     0.010 A 
ATOM     72  C   UNL     1       6.368  11.531  -0.607  1.00  0.00     0.010 A 
ATOM     73  C   UNL     1       7.273   8.949  -1.202  1.00  0.00     0.020 A 
ATOM     74  C   UNL     1       7.713  11.202  -0.410  1.00  0.00     0.020 A 
ATOM     75  C   UNL     1       8.149   9.903  -0.677  1.00  0.00     0.054 A 
BRANCH  75  76
ATOM     76  S   UNL     1       9.862   9.418  -0.325  1.00  0.00     0.124 S 
ATOM     77  O   UNL     1       9.706   8.642   0.903  1.00  0.00    -0.237 OA
ATOM     78  O   UNL     1      10.229   8.651  -1.512  1.00  0.00    -0.237 OA
ATOM     79  O   UNL     1      10.555  10.695  -0.173  1.00  0.00    -0.744 OA
ENDBRANCH  75  76
ENDBRANCH  47  70
BRANCH  59  80
ATOM     80  C   UNL     1       1.485  14.780  -5.073  1.00  0.00    -0.014 A 
ATOM     81  C   UNL     1       1.352  16.172  -4.915  1.00  0.00     0.010 A 
ATOM     82  C   UNL     1       1.680  14.248  -6.359  1.00  0.00     0.010 A 
ATOM     83  C   UNL     1       1.348  17.013  -6.031  1.00  0.00     0.020 A 
ATOM     84  C   UNL     1       1.703  15.089  -7.475  1.00  0.00     0.020 A 
ATOM     85  C   UNL     1       1.502  16.462  -7.306  1.00  0.00     0.054 A 
BRANCH  85  86
ATOM     86  S   UNL     1       1.401  17.558  -8.748  1.00  0.00     0.124 S 
ATOM     87  O   UNL     1      -0.031  17.831  -8.826  1.00  0.00    -0.237 OA
ATOM     88  O   UNL     1       2.237  18.688  -8.352  1.00  0.00    -0.237 OA
ATOM     89  O   UNL     1       1.941  16.744  -9.836  1.00  0.00    -0.744 OA
ENDBRANCH  85  86
ENDBRANCH  59  80
ENDBRANCH  33  34
ENDBRANCH  26  28
ENDBRANCH  25  26
ENDBRANCH   1  25
TORSDOF 17
