REMARK SMILES CCC1CN(c2cc(F)ccc2C(=O)OCCOC(=O)c2ccc(-c3c4nc(c(-c5ccc(S(=O)(=O)[O-])cc5)c5ccc([nH]5)c(-c5ccc(S(=O)(=O)[O-])cc5)c5nc(c(-c6ccc(S(=O)(=O)[O-])cc6)c6ccc3[nH]6)C=C5)C=C4)cc2)C1
REMARK SMILES IDX 17 1 16 2 15 3 13 4 14 5 12 6 6 7 7 8 8 9 11 10 9 11 10 12
REMARK SMILES IDX 5 13 3 14 4 15 81 16 2 17 1 18 18 19 19 20 20 21 21 22 22 23
REMARK SMILES IDX 80 24 23 25 79 26 24 27 25 28 26 29 73 30 27 31 78 32 72 33
REMARK SMILES IDX 74 34 28 35 77 36 71 37 70 38 29 40 59 41 40 42 58 43 41 44
REMARK SMILES IDX 44 45 57 46 75 47 42 48 43 49 56 51 76 52 45 53 30 54 31 55
REMARK SMILES IDX 39 56 32 57 38 58 33 59 34 60 35 61 36 62 37 63 60 64 61 65
REMARK SMILES IDX 69 66 62 67 68 68 63 69 64 70 65 71 66 72 67 73 46 74 47 75
REMARK SMILES IDX 55 76 48 77 54 78 49 79 50 80 51 81 52 82 53 83
REMARK H PARENT 74 39 44 50
REMARK Flexibility Score: inf
ROOT
ATOM      1  C   UNL     1      -2.783   4.694   0.070  1.00  0.00     0.275 C 
ENDROOT
BRANCH   1   2
ATOM      2  C   UNL     1      -1.329   4.236   0.071  1.00  0.00     0.275 C 
BRANCH   2   3
ATOM      3  O   UNL     1      -0.774   4.330   1.399  1.00  0.00    -0.458 OA
BRANCH   3   4
ATOM      4  C   UNL     1       0.379   5.037   1.536  1.00  0.00     0.340 C 
ATOM      5  O   UNL     1       0.926   5.709   0.683  1.00  0.00    -0.246 OA
BRANCH   4   6
ATOM      6  C   UNL     1       0.853   4.964   2.940  1.00  0.00     0.083 A 
ATOM      7  C   UNL     1       0.974   3.744   3.638  1.00  0.00     0.054 A 
ATOM      8  C   UNL     1       1.294   3.808   5.004  1.00  0.00     0.066 A 
ATOM      9  C   UNL     1       1.550   5.029   5.625  1.00  0.00     0.125 A 
ATOM     10  C   UNL     1       1.157   6.187   3.568  1.00  0.00     0.021 A 
ATOM     11  F   UNL     1       1.892   5.048   6.920  1.00  0.00    -0.207 F 
ATOM     12  C   UNL     1       1.497   6.220   4.917  1.00  0.00     0.040 A 
BRANCH   7  13
ATOM     13  N   UNL     1       0.857   2.493   3.008  1.00  0.00    -0.370 N 
ATOM     14  C   UNL     1       1.276   0.625   2.237  1.00  0.00     0.028 C 
ATOM     15  C   UNL     1       1.348   2.073   1.738  1.00  0.00     0.122 C 
ATOM     16  C   UNL     1       0.607   1.185   3.505  1.00  0.00     0.122 C 
BRANCH  14  17
ATOM     17  C   UNL     1       0.458  -0.351   1.403  1.00  0.00     0.004 C 
ATOM     18  C   UNL     1       1.066  -0.507   0.016  1.00  0.00     0.004 C 
ENDBRANCH  14  17
ENDBRANCH   7  13
ENDBRANCH   4   6
ENDBRANCH   3   4
ENDBRANCH   2   3
ENDBRANCH   1   2
BRANCH   1  19
ATOM     19  O   UNL     1      -2.822   6.101   0.350  1.00  0.00    -0.458 OA
BRANCH  19  20
ATOM     20  C   UNL     1      -3.285   6.432   1.576  1.00  0.00     0.338 C 
ATOM     21  O   UNL     1      -3.807   5.707   2.404  1.00  0.00    -0.246 OA
BRANCH  20  22
ATOM     22  C   UNL     1      -2.971   7.843   1.821  1.00  0.00     0.060 A 
ATOM     23  C   UNL     1      -1.665   8.172   2.178  1.00  0.00     0.016 A 
ATOM     24  C   UNL     1      -3.971   8.810   1.818  1.00  0.00     0.016 A 
ATOM     25  C   UNL     1      -1.366   9.457   2.621  1.00  0.00     0.010 A 
ATOM     26  C   UNL     1      -3.651  10.121   2.185  1.00  0.00     0.010 A 
ATOM     27  C   UNL     1      -2.356  10.450   2.632  1.00  0.00    -0.014 A 
BRANCH  27  28
ATOM     28  C   UNL     1      -2.058  11.805   3.175  1.00  0.00     0.031 A 
ATOM     29  C   UNL     1      -2.830  12.325   4.362  1.00  0.00     0.074 A 
ATOM     30  C   UNL     1      -1.087  12.566   2.630  1.00  0.00     0.049 A 
ATOM     31  N   UNL     1      -2.835  13.525   4.885  1.00  0.00    -0.248 NA
ATOM     32  C   UNL     1      -3.726  11.374   5.040  1.00  0.00     0.031 C 
ATOM     33  C   UNL     1      -0.226  12.175   1.512  1.00  0.00     0.029 A 
ATOM     34  N   UNL     1      -0.654  13.829   2.953  1.00  0.00    -0.354 N 
ATOM     35  C   UNL     1      -3.777  13.490   5.908  1.00  0.00     0.074 A 
ATOM     36  C   UNL     1      -4.325  12.152   5.931  1.00  0.00     0.031 C 
ATOM     37  C   UNL     1       0.656  13.157   1.270  1.00  0.00     0.029 A 
ATOM     38  C   UNL     1       0.371  14.281   2.155  1.00  0.00     0.049 A 
ATOM     39  H   UNL     1      -1.042  14.361   3.685  1.00  0.00     0.167 HD
ATOM     40  C   UNL     1      -4.154  14.483   6.750  1.00  0.00     0.031 A 
ATOM     41  C   UNL     1       0.991  15.477   2.112  1.00  0.00     0.031 A 
ATOM     42  C   UNL     1      -3.574  15.800   6.758  1.00  0.00     0.049 A 
ATOM     43  C   UNL     1       0.546  16.568   3.043  1.00  0.00     0.074 A 
ATOM     44  C   UNL     1      -3.878  16.872   7.580  1.00  0.00     0.029 A 
ATOM     45  N   UNL     1      -2.557  16.222   5.914  1.00  0.00    -0.354 N 
ATOM     46  N   UNL     1      -0.387  16.535   3.965  1.00  0.00    -0.248 NA
ATOM     47  C   UNL     1       1.227  17.864   2.918  1.00  0.00     0.031 C 
ATOM     48  C   UNL     1      -3.070  17.953   7.208  1.00  0.00     0.029 A 
ATOM     49  C   UNL     1      -2.230  17.540   6.187  1.00  0.00     0.049 A 
ATOM     50  H   UNL     1      -2.131  15.666   5.222  1.00  0.00     0.167 HD
ATOM     51  C   UNL     1      -0.401  17.803   4.533  1.00  0.00     0.074 A 
ATOM     52  C   UNL     1       0.634  18.571   3.871  1.00  0.00     0.031 C 
ATOM     53  C   UNL     1      -1.204  18.292   5.511  1.00  0.00     0.031 A 
BRANCH  40  54
ATOM     54  C   UNL     1      -5.282  14.194   7.707  1.00  0.00    -0.014 A 
ATOM     55  C   UNL     1      -5.108  13.354   8.822  1.00  0.00     0.010 A 
ATOM     56  C   UNL     1      -6.535  14.799   7.496  1.00  0.00     0.010 A 
ATOM     57  C   UNL     1      -6.179  13.091   9.682  1.00  0.00     0.020 A 
ATOM     58  C   UNL     1      -7.600  14.559   8.369  1.00  0.00     0.020 A 
ATOM     59  C   UNL     1      -7.420  13.690   9.446  1.00  0.00     0.054 A 
BRANCH  59  60
ATOM     60  S   UNL     1      -8.791  13.342  10.583  1.00  0.00     0.124 S 
ATOM     61  O   UNL     1      -9.176  11.990  10.184  1.00  0.00    -0.237 OA
ATOM     62  O   UNL     1      -8.159  13.453  11.895  1.00  0.00    -0.237 OA
ATOM     63  O   UNL     1      -9.769  14.383  10.276  1.00  0.00    -0.744 OA
ENDBRANCH  59  60
ENDBRANCH  40  54
BRANCH  41  64
ATOM     64  C   UNL     1       2.071  15.714   1.115  1.00  0.00    -0.014 A 
ATOM     65  C   UNL     1       3.408  15.852   1.526  1.00  0.00     0.010 A 
ATOM     66  C   UNL     1       1.768  15.780  -0.258  1.00  0.00     0.010 A 
ATOM     67  C   UNL     1       4.421  16.057   0.584  1.00  0.00     0.020 A 
ATOM     68  C   UNL     1       2.780  15.955  -1.204  1.00  0.00     0.020 A 
ATOM     69  C   UNL     1       4.101  16.102  -0.776  1.00  0.00     0.054 A 
BRANCH  69  70
ATOM     70  S   UNL     1       5.437  16.295  -1.989  1.00  0.00     0.124 S 
ATOM     71  O   UNL     1       5.737  17.719  -1.885  1.00  0.00    -0.237 OA
ATOM     72  O   UNL     1       6.464  15.392  -1.477  1.00  0.00    -0.237 OA
ATOM     73  O   UNL     1       4.819  15.874  -3.245  1.00  0.00    -0.744 OA
ENDBRANCH  69  70
ENDBRANCH  41  64
BRANCH  53  74
ATOM     74  C   UNL     1      -0.977  19.717   5.934  1.00  0.00    -0.014 A 
ATOM     75  C   UNL     1      -1.372  20.789   5.114  1.00  0.00     0.010 A 
ATOM     76  C   UNL     1      -0.382  19.987   7.179  1.00  0.00     0.010 A 
ATOM     77  C   UNL     1      -1.139  22.107   5.514  1.00  0.00     0.020 A 
ATOM     78  C   UNL     1      -0.170  21.304   7.594  1.00  0.00     0.020 A 
ATOM     79  C   UNL     1      -0.533  22.356   6.750  1.00  0.00     0.054 A 
BRANCH  79  80
ATOM     80  S   UNL     1      -0.258  24.075   7.259  1.00  0.00     0.124 S 
ATOM     81  O   UNL     1       0.901  24.448   6.453  1.00  0.00    -0.237 OA
ATOM     82  O   UNL     1      -1.513  24.726   6.893  1.00  0.00    -0.237 OA
ATOM     83  O   UNL     1      -0.012  23.974   8.696  1.00  0.00    -0.744 OA
ENDBRANCH  79  80
ENDBRANCH  53  74
ENDBRANCH  27  28
ENDBRANCH  20  22
ENDBRANCH  19  20
ENDBRANCH   1  19
TORSDOF 16
