REMARK SMILES Cc1c[nH]c(C[N@H+]2C[C@@H]3CN(S(C)(=O)=O)C[C@]3(C(=O)OCCOC(=O)c3ccc(-c4c5nc(c(-c6ccc(S(=O)(=O)[O-])cc6)c6ccc([nH]6)c(-c6ccc(S(=O)(=O)[O-])cc6)c6nc(c(-c7ccc(S(=O)(=O)[O-])cc7)c7ccc4[nH]7)C=C6)C=C5)cc3)C2)n1
REMARK SMILES IDX 22 1 21 2 20 3 18 4 19 5 17 6 7 7 8 8 86 9 9 11 10 12 16 13
REMARK SMILES IDX 11 14 6 15 5 16 1 17 2 18 3 19 87 20 4 21 12 23 13 24 14 25
REMARK SMILES IDX 15 26 23 27 24 28 25 29 26 30 27 31 85 32 28 33 84 34 29 35
REMARK SMILES IDX 30 36 31 37 78 38 32 39 83 40 77 41 79 42 33 43 82 44 76 45
REMARK SMILES IDX 75 46 34 48 64 49 45 50 63 51 46 52 49 53 62 54 80 55 47 56
REMARK SMILES IDX 48 57 61 59 81 60 50 61 35 62 36 63 44 64 37 65 43 66 38 67
REMARK SMILES IDX 39 68 40 69 41 70 42 71 65 72 66 73 74 74 67 75 73 76 68 77
REMARK SMILES IDX 69 78 70 79 71 80 72 81 51 82 52 83 60 84 53 85 59 86 54 87
REMARK SMILES IDX 55 88 56 89 57 90 58 91
REMARK H PARENT 7 10 4 22 79 47 49 58
REMARK Flexibility Score: inf
ROOT
ATOM      1  C   UNL     1       1.212   7.341   2.076  1.00  0.00     0.275 C 
ENDROOT
BRANCH   1   2
ATOM      2  C   UNL     1      -0.325   7.459   2.212  1.00  0.00     0.274 C 
BRANCH   2   3
ATOM      3  O   UNL     1      -0.963   6.328   2.868  1.00  0.00    -0.461 OA
BRANCH   3   4
ATOM      4  C   UNL     1      -0.970   5.164   2.144  1.00  0.00     0.319 C 
ATOM      5  O   UNL     1      -0.684   5.206   0.955  1.00  0.00    -0.251 OA
BRANCH   4   6
ATOM      6  C   UNL     1      -1.485   3.878   2.989  1.00  0.00     0.140 C 
ATOM      7  N   UNL     1      -2.802   2.061   1.716  1.00  0.00    -0.327 N 
ATOM      8  C   UNL     1      -2.380   1.452   2.944  1.00  0.00     0.268 C 
ATOM      9  C   UNL     1      -1.973   3.265   1.579  1.00  0.00     0.283 C 
ATOM     10  H   UNL     1      -3.799   2.269   1.761  1.00  0.00     0.348 HD
ATOM     11  C   UNL     1      -1.196   2.311   3.350  1.00  0.00     0.084 C 
ATOM     12  C   UNL     1      -0.980   2.116   4.846  1.00  0.00     0.113 C 
ATOM     13  C   UNL     1      -0.251   4.140   3.983  1.00  0.00     0.127 C 
ATOM     14  N   UNL     1      -0.584   3.446   5.258  1.00  0.00    -0.200 NA
BRANCH   7  15
ATOM     15  C   UNL     1      -2.709   1.188   0.521  1.00  0.00     0.338 C 
BRANCH  15  16
ATOM     16  C   UNL     1      -1.486   0.310   0.392  1.00  0.00     0.161 A 
ATOM     17  C   UNL     1       1.969  -0.583   0.563  1.00  0.00     0.068 C 
ATOM     18  C   UNL     1       0.498  -0.543   0.401  1.00  0.00     0.056 A 
ATOM     19  C   UNL     1      -0.333  -1.528  -0.078  1.00  0.00     0.107 A 
ATOM     20  N   UNL     1      -0.232   0.587   0.702  1.00  0.00    -0.233 NA
ATOM     21  N   UNL     1      -1.579  -0.973  -0.097  1.00  0.00    -0.344 N 
ATOM     22  H   UNL     1      -2.403  -1.415  -0.406  1.00  0.00     0.167 HD
ENDBRANCH  15  16
ENDBRANCH   7  15
BRANCH  14  23
ATOM     23  S   UNL     1      -1.550   4.230   6.408  1.00  0.00     0.211 S 
ATOM     24  C   UNL     1      -3.123   4.438   5.581  1.00  0.00     0.176 C 
ATOM     25  O   UNL     1      -1.761   3.317   7.505  1.00  0.00    -0.213 OA
ATOM     26  O   UNL     1      -1.004   5.556   6.635  1.00  0.00    -0.213 OA
ENDBRANCH  14  23
ENDBRANCH   4   6
ENDBRANCH   3   4
ENDBRANCH   2   3
ENDBRANCH   1   2
BRANCH   1  27
ATOM     27  O   UNL     1       1.613   6.479   0.983  1.00  0.00    -0.458 OA
BRANCH  27  28
ATOM     28  C   UNL     1       2.444   5.447   1.282  1.00  0.00     0.338 C 
ATOM     29  O   UNL     1       2.938   5.206   2.371  1.00  0.00    -0.246 OA
BRANCH  28  30
ATOM     30  C   UNL     1       2.606   4.543   0.120  1.00  0.00     0.060 A 
ATOM     31  C   UNL     1       1.605   3.610  -0.125  1.00  0.00     0.016 A 
ATOM     32  C   UNL     1       3.776   4.486  -0.634  1.00  0.00     0.016 A 
ATOM     33  C   UNL     1       1.727   2.655  -1.127  1.00  0.00     0.010 A 
ATOM     34  C   UNL     1       3.895   3.533  -1.668  1.00  0.00     0.010 A 
ATOM     35  C   UNL     1       2.866   2.608  -1.930  1.00  0.00    -0.014 A 
BRANCH  35  36
ATOM     36  C   UNL     1       2.965   1.557  -2.985  1.00  0.00     0.031 A 
ATOM     37  C   UNL     1       4.046   0.510  -2.919  1.00  0.00     0.074 A 
ATOM     38  C   UNL     1       2.034   1.479  -3.962  1.00  0.00     0.049 A 
ATOM     39  N   UNL     1       4.362  -0.409  -3.796  1.00  0.00    -0.248 NA
ATOM     40  C   UNL     1       4.869   0.479  -1.699  1.00  0.00     0.031 C 
ATOM     41  C   UNL     1       0.859   2.346  -4.087  1.00  0.00     0.029 A 
ATOM     42  N   UNL     1       1.919   0.621  -5.032  1.00  0.00    -0.354 N 
ATOM     43  C   UNL     1       5.438  -1.103  -3.253  1.00  0.00     0.074 A 
ATOM     44  C   UNL     1       5.718  -0.504  -1.966  1.00  0.00     0.031 C 
ATOM     45  C   UNL     1       0.132   1.958  -5.145  1.00  0.00     0.029 A 
ATOM     46  C   UNL     1       0.839   0.891  -5.842  1.00  0.00     0.049 A 
ATOM     47  H   UNL     1       2.550  -0.115  -5.203  1.00  0.00     0.167 HD
ATOM     48  C   UNL     1       6.136  -2.135  -3.785  1.00  0.00     0.031 A 
ATOM     49  C   UNL     1       0.486   0.391  -7.044  1.00  0.00     0.031 A 
ATOM     50  C   UNL     1       5.860  -2.718  -5.073  1.00  0.00     0.049 A 
ATOM     51  C   UNL     1       1.371  -0.636  -7.691  1.00  0.00     0.074 A 
ATOM     52  C   UNL     1       6.536  -3.739  -5.719  1.00  0.00     0.029 A 
ATOM     53  N   UNL     1       4.830  -2.326  -5.915  1.00  0.00    -0.354 N 
ATOM     54  N   UNL     1       2.428  -1.236  -7.198  1.00  0.00    -0.248 NA
ATOM     55  C   UNL     1       1.040  -1.028  -9.068  1.00  0.00     0.031 C 
ATOM     56  C   UNL     1       5.956  -3.917  -6.980  1.00  0.00     0.029 A 
ATOM     57  C   UNL     1       4.878  -3.053  -7.093  1.00  0.00     0.049 A 
ATOM     58  H   UNL     1       4.163  -1.633  -5.706  1.00  0.00     0.167 HD
ATOM     59  C   UNL     1       2.889  -2.076  -8.205  1.00  0.00     0.074 A 
ATOM     60  C   UNL     1       1.980  -1.929  -9.323  1.00  0.00     0.031 C 
ATOM     61  C   UNL     1       3.974  -2.889  -8.203  1.00  0.00     0.031 A 
BRANCH  48  62
ATOM     62  C   UNL     1       7.322  -2.646  -3.010  1.00  0.00    -0.014 A 
ATOM     63  C   UNL     1       7.170  -3.418  -1.846  1.00  0.00     0.010 A 
ATOM     64  C   UNL     1       8.620  -2.365  -3.479  1.00  0.00     0.010 A 
ATOM     65  C   UNL     1       8.294  -3.864  -1.142  1.00  0.00     0.020 A 
ATOM     66  C   UNL     1       9.745  -2.830  -2.793  1.00  0.00     0.020 A 
ATOM     67  C   UNL     1       9.574  -3.562  -1.618  1.00  0.00     0.054 A 
BRANCH  67  68
ATOM     68  S   UNL     1      11.014  -4.155  -0.687  1.00  0.00     0.124 S 
ATOM     69  O   UNL     1      10.979  -3.301   0.497  1.00  0.00    -0.237 OA
ATOM     70  O   UNL     1      10.690  -5.561  -0.458  1.00  0.00    -0.237 OA
ATOM     71  O   UNL     1      12.136  -3.917  -1.593  1.00  0.00    -0.744 OA
ENDBRANCH  67  68
ENDBRANCH  48  62
BRANCH  49  72
ATOM     72  C   UNL     1      -0.705   0.938  -7.757  1.00  0.00    -0.014 A 
ATOM     73  C   UNL     1      -1.834   0.138  -8.003  1.00  0.00     0.010 A 
ATOM     74  C   UNL     1      -0.718   2.281  -8.181  1.00  0.00     0.010 A 
ATOM     75  C   UNL     1      -2.954   0.674  -8.651  1.00  0.00     0.020 A 
ATOM     76  C   UNL     1      -1.846   2.829  -8.797  1.00  0.00     0.020 A 
ATOM     77  C   UNL     1      -2.956   2.019  -9.034  1.00  0.00     0.054 A 
BRANCH  77  78
ATOM     78  S   UNL     1      -4.448   2.713  -9.798  1.00  0.00     0.124 S 
ATOM     79  O   UNL     1      -4.407   2.126 -11.133  1.00  0.00    -0.237 OA
ATOM     80  O   UNL     1      -5.508   2.221  -8.921  1.00  0.00    -0.237 OA
ATOM     81  O   UNL     1      -4.223   4.156  -9.740  1.00  0.00    -0.744 OA
ENDBRANCH  77  78
ENDBRANCH  49  72
BRANCH  61  82
ATOM     82  C   UNL     1       4.239  -3.692  -9.447  1.00  0.00    -0.014 A 
ATOM     83  C   UNL     1       4.750  -3.083 -10.606  1.00  0.00     0.010 A 
ATOM     84  C   UNL     1       4.041  -5.085  -9.432  1.00  0.00     0.010 A 
ATOM     85  C   UNL     1       5.047  -3.851 -11.734  1.00  0.00     0.020 A 
ATOM     86  C   UNL     1       4.362  -5.860 -10.550  1.00  0.00     0.020 A 
ATOM     87  C   UNL     1       4.856  -5.236 -11.697  1.00  0.00     0.054 A 
BRANCH  87  88
ATOM     88  S   UNL     1       5.316  -6.217 -13.151  1.00  0.00     0.124 S 
ATOM     89  O   UNL     1       4.261  -5.869 -14.099  1.00  0.00    -0.237 OA
ATOM     90  O   UNL     1       6.646  -5.707 -13.474  1.00  0.00    -0.237 OA
ATOM     91  O   UNL     1       5.284  -7.595 -12.664  1.00  0.00    -0.744 OA
ENDBRANCH  87  88
ENDBRANCH  61  82
ENDBRANCH  35  36
ENDBRANCH  28  30
ENDBRANCH  27  28
ENDBRANCH   1  27
TORSDOF 17
