REMARK SMILES CSc1ccc(C[C@H]([NH3+])C(=O)OCCOC(=O)c2ccc(-c3c4nc(c(-c5ccc(S(=O)(=O)[O-])cc5)c5ccc([nH]5)c(-c5ccc(S(=O)(=O)[O-])cc5)c5nc(c(-c6ccc(S(=O)(=O)[O-])cc6)c6ccc3[nH]6)C=C5)C=C4)cc2)cc1
REMARK SMILES IDX 13 1 12 2 10 3 11 4 8 5 7 6 6 7 3 8 4 9 79 10 5 11 78 12
REMARK SMILES IDX 2 13 1 14 9 15 14 19 15 20 16 21 17 22 18 23 19 24 77 25
REMARK SMILES IDX 20 26 76 27 21 28 22 29 23 30 70 31 24 32 75 33 69 34 71 35
REMARK SMILES IDX 25 36 74 37 68 38 67 39 26 41 56 42 37 43 55 44 38 45 41 46
REMARK SMILES IDX 54 47 72 48 39 49 40 50 53 52 73 53 42 54 27 55 28 56 36 57
REMARK SMILES IDX 29 58 35 59 30 60 31 61 32 62 33 63 34 64 57 65 58 66 66 67
REMARK SMILES IDX 59 68 65 69 60 70 61 71 62 72 63 73 64 74 43 75 44 76 52 77
REMARK SMILES IDX 45 78 51 79 46 80 47 81 48 82 49 83 50 84
REMARK H PARENT 9 16 9 17 9 18 71 40 41 51
REMARK Flexibility Score: inf
ROOT
ATOM      1  C   UNL     1       3.597  -4.738  -9.718  1.00  0.00     0.274 C 
ENDROOT
BRANCH   1   2
ATOM      2  O   UNL     1       3.001  -4.592  -8.417  1.00  0.00    -0.458 OA
BRANCH   2   3
ATOM      3  C   UNL     1       3.840  -4.774  -7.355  1.00  0.00     0.365 C 
ATOM      4  O   UNL     1       5.013  -5.106  -7.478  1.00  0.00    -0.245 OA
BRANCH   3   5
ATOM      5  C   UNL     1       3.180  -4.453  -5.993  1.00  0.00     0.296 C 
BRANCH   5   6
ATOM      6  C   UNL     1       3.063  -5.714  -5.118  1.00  0.00     0.113 C 
BRANCH   6   7
ATOM      7  C   UNL     1       4.253  -5.962  -4.206  1.00  0.00    -0.041 A 
ATOM      8  C   UNL     1       6.454  -6.473  -2.483  1.00  0.00     0.007 A 
ATOM      9  C   UNL     1       6.579  -6.594  -3.869  1.00  0.00     0.015 A 
ATOM     10  C   UNL     1       5.215  -6.091  -1.965  1.00  0.00     0.015 A 
ATOM     11  C   UNL     1       5.492  -6.358  -4.717  1.00  0.00     0.005 A 
ATOM     12  C   UNL     1       4.129  -5.830  -2.816  1.00  0.00     0.005 A 
BRANCH   8  13
ATOM     13  S   UNL     1       7.907  -6.872  -1.523  1.00  0.00    -0.130 SA
ATOM     14  C   UNL     1       7.451  -6.414   0.166  1.00  0.00     0.091 C 
ENDBRANCH   8  13
ENDBRANCH   6   7
ENDBRANCH   5   6
BRANCH   5  15
ATOM     15  N   UNL     1       1.847  -3.810  -6.175  1.00  0.00    -0.346 N 
ATOM     16  H   UNL     1       1.222  -4.455  -6.659  1.00  0.00     0.345 HD
ATOM     17  H   UNL     1       1.953  -2.960  -6.729  1.00  0.00     0.345 HD
ATOM     18  H   UNL     1       1.455  -3.575  -5.263  1.00  0.00     0.345 HD
ENDBRANCH   5  15
ENDBRANCH   3   5
ENDBRANCH   2   3
ENDBRANCH   1   2
BRANCH   1  19
ATOM     19  C   UNL     1       4.053  -3.393 -10.298  1.00  0.00     0.275 C 
BRANCH  19  20
ATOM     20  O   UNL     1       5.202  -2.848  -9.620  1.00  0.00    -0.458 OA
BRANCH  20  21
ATOM     21  C   UNL     1       4.922  -2.093  -8.531  1.00  0.00     0.338 C 
ATOM     22  O   UNL     1       3.814  -1.833  -8.088  1.00  0.00    -0.246 OA
BRANCH  21  23
ATOM     23  C   UNL     1       6.162  -1.705  -7.832  1.00  0.00     0.060 A 
ATOM     24  C   UNL     1       6.230  -1.943  -6.457  1.00  0.00     0.016 A 
ATOM     25  C   UNL     1       7.198  -1.029  -8.480  1.00  0.00     0.016 A 
ATOM     26  C   UNL     1       7.309  -1.478  -5.713  1.00  0.00     0.010 A 
ATOM     27  C   UNL     1       8.287  -0.562  -7.731  1.00  0.00     0.010 A 
ATOM     28  C   UNL     1       8.334  -0.763  -6.339  1.00  0.00    -0.014 A 
BRANCH  28  29
ATOM     29  C   UNL     1       9.402  -0.159  -5.507  1.00  0.00     0.031 A 
ATOM     30  C   UNL     1       9.390   1.320  -5.239  1.00  0.00     0.074 A 
ATOM     31  C   UNL     1      10.338  -0.943  -4.938  1.00  0.00     0.049 A 
ATOM     32  N   UNL     1      10.240   2.044  -4.557  1.00  0.00    -0.248 NA
ATOM     33  C   UNL     1       8.270   2.086  -5.809  1.00  0.00     0.031 C 
ATOM     34  C   UNL     1      10.415  -2.399  -5.068  1.00  0.00     0.029 A 
ATOM     35  N   UNL     1      11.395  -0.622  -4.125  1.00  0.00    -0.354 N 
ATOM     36  C   UNL     1       9.771   3.350  -4.630  1.00  0.00     0.074 A 
ATOM     37  C   UNL     1       8.569   3.322  -5.437  1.00  0.00     0.031 C 
ATOM     38  C   UNL     1      11.459  -2.846  -4.352  1.00  0.00     0.029 A 
ATOM     39  C   UNL     1      12.148  -1.708  -3.749  1.00  0.00     0.049 A 
ATOM     40  H   UNL     1      11.596   0.298  -3.839  1.00  0.00     0.167 HD
ATOM     41  C   UNL     1      10.293   4.470  -4.075  1.00  0.00     0.031 A 
ATOM     42  C   UNL     1      13.277  -1.777  -3.017  1.00  0.00     0.031 A 
ATOM     43  C   UNL     1      11.487   4.495  -3.274  1.00  0.00     0.049 A 
ATOM     44  C   UNL     1      13.871  -0.511  -2.462  1.00  0.00     0.074 A 
ATOM     45  C   UNL     1      12.104   5.581  -2.678  1.00  0.00     0.029 A 
ATOM     46  N   UNL     1      12.246   3.379  -2.952  1.00  0.00    -0.354 N 
ATOM     47  N   UNL     1      13.428   0.720  -2.562  1.00  0.00    -0.248 NA
ATOM     48  C   UNL     1      15.117  -0.644  -1.694  1.00  0.00     0.031 C 
ATOM     49  C   UNL     1      13.257   5.128  -2.027  1.00  0.00     0.029 A 
ATOM     50  C   UNL     1      13.331   3.752  -2.177  1.00  0.00     0.049 A 
ATOM     51  H   UNL     1      12.042   2.458  -3.233  1.00  0.00     0.167 HD
ATOM     52  C   UNL     1      14.327   1.504  -1.849  1.00  0.00     0.074 A 
ATOM     53  C   UNL     1      15.333   0.608  -1.314  1.00  0.00     0.031 C 
ATOM     54  C   UNL     1      14.321   2.846  -1.652  1.00  0.00     0.031 A 
BRANCH  41  55
ATOM     55  C   UNL     1       9.590   5.771  -4.355  1.00  0.00    -0.014 A 
ATOM     56  C   UNL     1       8.367   6.088  -3.737  1.00  0.00     0.010 A 
ATOM     57  C   UNL     1      10.174   6.700  -5.235  1.00  0.00     0.010 A 
ATOM     58  C   UNL     1       7.720   7.293  -4.027  1.00  0.00     0.020 A 
ATOM     59  C   UNL     1       9.542   7.916  -5.510  1.00  0.00     0.020 A 
ATOM     60  C   UNL     1       8.309   8.196  -4.918  1.00  0.00     0.054 A 
BRANCH  60  61
ATOM     61  S   UNL     1       7.454   9.756  -5.274  1.00  0.00     0.124 S 
ATOM     62  O   UNL     1       6.389   9.316  -6.172  1.00  0.00    -0.237 OA
ATOM     63  O   UNL     1       7.018  10.195  -3.951  1.00  0.00    -0.237 OA
ATOM     64  O   UNL     1       8.487  10.584  -5.893  1.00  0.00    -0.744 OA
ENDBRANCH  60  61
ENDBRANCH  41  55
BRANCH  42  65
ATOM     65  C   UNL     1      13.934  -3.092  -2.790  1.00  0.00    -0.014 A 
ATOM     66  C   UNL     1      13.927  -3.690  -1.518  1.00  0.00     0.010 A 
ATOM     67  C   UNL     1      14.570  -3.756  -3.856  1.00  0.00     0.010 A 
ATOM     68  C   UNL     1      14.558  -4.921  -1.312  1.00  0.00     0.020 A 
ATOM     69  C   UNL     1      15.180  -4.998  -3.659  1.00  0.00     0.020 A 
ATOM     70  C   UNL     1      15.181  -5.566  -2.384  1.00  0.00     0.054 A 
BRANCH  70  71
ATOM     71  S   UNL     1      15.958  -7.183  -2.108  1.00  0.00     0.124 S 
ATOM     72  O   UNL     1      17.210  -6.810  -1.458  1.00  0.00    -0.237 OA
ATOM     73  O   UNL     1      14.984  -7.866  -1.260  1.00  0.00    -0.237 OA
ATOM     74  O   UNL     1      16.091  -7.731  -3.456  1.00  0.00    -0.744 OA
ENDBRANCH  70  71
ENDBRANCH  42  65
BRANCH  54  75
ATOM     75  C   UNL     1      15.412   3.421  -0.792  1.00  0.00    -0.014 A 
ATOM     76  C   UNL     1      16.727   3.552  -1.272  1.00  0.00     0.010 A 
ATOM     77  C   UNL     1      15.104   3.877   0.503  1.00  0.00     0.010 A 
ATOM     78  C   UNL     1      17.723   4.099  -0.458  1.00  0.00     0.020 A 
ATOM     79  C   UNL     1      16.093   4.444   1.311  1.00  0.00     0.020 A 
ATOM     80  C   UNL     1      17.401   4.537   0.830  1.00  0.00     0.054 A 
BRANCH  80  81
ATOM     81  S   UNL     1      18.701   5.276   1.857  1.00  0.00     0.124 S 
ATOM     82  O   UNL     1      19.434   4.098   2.312  1.00  0.00    -0.237 OA
ATOM     83  O   UNL     1      19.413   6.133   0.912  1.00  0.00    -0.237 OA
ATOM     84  O   UNL     1      17.958   5.988   2.895  1.00  0.00    -0.744 OA
ENDBRANCH  80  81
ENDBRANCH  54  75
ENDBRANCH  28  29
ENDBRANCH  21  23
ENDBRANCH  20  21
ENDBRANCH  19  20
ENDBRANCH   1  19
TORSDOF 18
