REMARK SMILES O=C(OCCOC(=O)[C@H]1CCCCN1c1cc(-c2ccccc2)nc(-c2cccc(Cl)c2)n1)c1ccc(-c2c3nc(c(-c4ccc(S(=O)(=O)[O-])cc4)c4ccc([nH]4)c(-c4ccc(S(=O)(=O)[O-])cc4)c4nc(c(-c5ccc(S(=O)(=O)[O-])cc5)c5ccc2[nH]5)C=C4)C=C3)cc1
REMARK SMILES IDX 4 1 3 2 2 3 1 4 34 5 35 6 93 7 36 8 92 9 37 10 38 11 39 12
REMARK SMILES IDX 86 13 40 14 91 15 85 16 87 17 41 18 90 19 84 20 83 21 42 23
REMARK SMILES IDX 72 24 53 25 71 26 54 27 57 28 70 29 88 30 55 31 56 32 69 34
REMARK SMILES IDX 89 35 58 36 43 37 44 38 52 39 45 40 51 41 46 42 47 43 48 44
REMARK SMILES IDX 49 45 50 46 73 47 74 48 82 49 75 50 81 51 76 52 77 53 78 54
REMARK SMILES IDX 79 55 80 56 59 57 60 58 68 59 61 60 67 61 62 62 63 63 64 64
REMARK SMILES IDX 65 65 66 66 5 67 6 68 7 69 8 70 9 71 10 72 14 73 11 74 13 75
REMARK SMILES IDX 12 76 15 77 16 78 33 79 17 80 25 81 24 82 18 83 19 84 23 85
REMARK SMILES IDX 20 86 22 87 21 88 26 89 27 90 32 91 28 92 30 93 29 94 31 95
REMARK H PARENT 87 22 57 33
REMARK Flexibility Score: inf
ROOT
ATOM      1  C   UNL     1      -1.978   1.511   2.422  1.00  0.00     0.275 C 
ENDROOT
BRANCH   1   2
ATOM      2  O   UNL     1      -1.274   1.413   1.165  1.00  0.00    -0.458 OA
BRANCH   2   3
ATOM      3  C   UNL     1      -0.054   1.846   0.767  1.00  0.00     0.338 C 
ATOM      4  O   UNL     1       0.279   1.621  -0.398  1.00  0.00    -0.246 OA
BRANCH   3   5
ATOM      5  C   UNL     1       0.966   2.506   1.650  1.00  0.00     0.060 A 
ATOM      6  C   UNL     1       0.699   3.256   2.796  1.00  0.00     0.016 A 
ATOM      7  C   UNL     1       2.319   2.384   1.258  1.00  0.00     0.016 A 
ATOM      8  C   UNL     1       1.744   3.794   3.567  1.00  0.00     0.010 A 
ATOM      9  C   UNL     1       3.368   2.939   2.013  1.00  0.00     0.010 A 
ATOM     10  C   UNL     1       3.086   3.640   3.187  1.00  0.00    -0.014 A 
BRANCH  10  11
ATOM     11  C   UNL     1       4.133   4.350   3.972  1.00  0.00     0.031 A 
ATOM     12  C   UNL     1       4.372   5.790   3.669  1.00  0.00     0.074 A 
ATOM     13  C   UNL     1       4.783   3.767   4.999  1.00  0.00     0.049 A 
ATOM     14  N   UNL     1       5.088   6.654   4.333  1.00  0.00    -0.248 NA
ATOM     15  C   UNL     1       3.731   6.322   2.456  1.00  0.00     0.031 C 
ATOM     16  C   UNL     1       4.696   2.359   5.313  1.00  0.00     0.029 A 
ATOM     17  N   UNL     1       5.616   4.246   5.978  1.00  0.00    -0.354 N 
ATOM     18  C   UNL     1       4.973   7.841   3.629  1.00  0.00     0.074 A 
ATOM     19  C   UNL     1       4.139   7.581   2.475  1.00  0.00     0.031 C 
ATOM     20  C   UNL     1       5.340   2.078   6.451  1.00  0.00     0.029 A 
ATOM     21  C   UNL     1       5.966   3.298   6.923  1.00  0.00     0.049 A 
ATOM     22  H   UNL     1       5.934   5.177   6.006  1.00  0.00     0.167 HD
ATOM     23  C   UNL     1       5.526   9.038   3.924  1.00  0.00     0.031 A 
ATOM     24  C   UNL     1       6.721   3.393   8.034  1.00  0.00     0.031 A 
ATOM     25  C   UNL     1       6.429   9.245   5.021  1.00  0.00     0.049 A 
ATOM     26  C   UNL     1       7.336   4.729   8.323  1.00  0.00     0.074 A 
ATOM     27  C   UNL     1       7.119  10.391   5.367  1.00  0.00     0.029 A 
ATOM     28  N   UNL     1       6.783   8.268   5.944  1.00  0.00    -0.354 N 
ATOM     29  N   UNL     1       7.196   5.851   7.655  1.00  0.00    -0.248 NA
ATOM     30  C   UNL     1       8.224   4.819   9.487  1.00  0.00     0.031 C 
ATOM     31  C   UNL     1       7.918  10.097   6.478  1.00  0.00     0.029 A 
ATOM     32  C   UNL     1       7.683   8.784   6.859  1.00  0.00     0.049 A 
ATOM     33  H   UNL     1       6.443   7.344   5.946  1.00  0.00     0.167 HD
ATOM     34  C   UNL     1       7.991   6.778   8.308  1.00  0.00     0.074 A 
ATOM     35  C   UNL     1       8.568   6.099   9.453  1.00  0.00     0.031 C 
ATOM     36  C   UNL     1       8.241   8.069   7.980  1.00  0.00     0.031 A 
BRANCH  23  37
ATOM     37  C   UNL     1       5.187  10.169   2.999  1.00  0.00    -0.014 A 
ATOM     38  C   UNL     1       3.897  10.732   3.003  1.00  0.00     0.010 A 
ATOM     39  C   UNL     1       6.140  10.637   2.079  1.00  0.00     0.010 A 
ATOM     40  C   UNL     1       3.552  11.713   2.072  1.00  0.00     0.020 A 
ATOM     41  C   UNL     1       5.806  11.636   1.161  1.00  0.00     0.020 A 
ATOM     42  C   UNL     1       4.508  12.153   1.152  1.00  0.00     0.054 A 
BRANCH  42  43
ATOM     43  S   UNL     1       4.029  13.421  -0.052  1.00  0.00     0.124 S 
ATOM     44  O   UNL     1       3.173  12.665  -0.962  1.00  0.00    -0.237 OA
ATOM     45  O   UNL     1       3.345  14.408   0.779  1.00  0.00    -0.237 OA
ATOM     46  O   UNL     1       5.303  13.861  -0.616  1.00  0.00    -0.744 OA
ENDBRANCH  42  43
ENDBRANCH  23  37
BRANCH  24  47
ATOM     47  C   UNL     1       6.977   2.208   8.909  1.00  0.00    -0.014 A 
ATOM     48  C   UNL     1       6.525   2.174  10.242  1.00  0.00     0.010 A 
ATOM     49  C   UNL     1       7.699   1.102   8.419  1.00  0.00     0.010 A 
ATOM     50  C   UNL     1       6.813   1.080  11.069  1.00  0.00     0.020 A 
ATOM     51  C   UNL     1       7.960  -0.008   9.230  1.00  0.00     0.020 A 
ATOM     52  C   UNL     1       7.532  -0.004  10.558  1.00  0.00     0.054 A 
BRANCH  52  53
ATOM     53  S   UNL     1       7.879  -1.425  11.634  1.00  0.00     0.124 S 
ATOM     54  O   UNL     1       8.966  -0.919  12.464  1.00  0.00    -0.237 OA
ATOM     55  O   UNL     1       6.603  -1.629  12.315  1.00  0.00    -0.237 OA
ATOM     56  O   UNL     1       8.248  -2.481  10.693  1.00  0.00    -0.744 OA
ENDBRANCH  52  53
ENDBRANCH  24  47
BRANCH  36  57
ATOM     57  C   UNL     1       9.163   8.821   8.893  1.00  0.00    -0.014 A 
ATOM     58  C   UNL     1      10.546   8.572   8.891  1.00  0.00     0.010 A 
ATOM     59  C   UNL     1       8.635   9.812   9.737  1.00  0.00     0.010 A 
ATOM     60  C   UNL     1      11.386   9.284   9.748  1.00  0.00     0.020 A 
ATOM     61  C   UNL     1       9.475  10.544  10.575  1.00  0.00     0.020 A 
ATOM     62  C   UNL     1      10.844  10.265  10.585  1.00  0.00     0.054 A 
BRANCH  62  63
ATOM     63  S   UNL     1      11.957  11.206  11.661  1.00  0.00     0.124 S 
ATOM     64  O   UNL     1      12.247  10.239  12.716  1.00  0.00    -0.237 OA
ATOM     65  O   UNL     1      13.072  11.521  10.772  1.00  0.00    -0.237 OA
ATOM     66  O   UNL     1      11.151  12.354  12.071  1.00  0.00    -0.744 OA
ENDBRANCH  62  63
ENDBRANCH  36  57
ENDBRANCH  10  11
ENDBRANCH   3   5
ENDBRANCH   2   3
ENDBRANCH   1   2
BRANCH   1  67
ATOM     67  C   UNL     1      -1.620   0.404   3.408  1.00  0.00     0.274 C 
BRANCH  67  68
ATOM     68  O   UNL     1      -0.202   0.266   3.502  1.00  0.00    -0.461 OA
BRANCH  68  69
ATOM     69  C   UNL     1       0.342  -0.935   3.153  1.00  0.00     0.328 C 
ATOM     70  O   UNL     1      -0.319  -1.932   2.840  1.00  0.00    -0.250 OA
BRANCH  69  71
ATOM     71  C   UNL     1       1.872  -0.838   3.101  1.00  0.00     0.193 C 
ATOM     72  C   UNL     1       2.433   0.150   4.100  1.00  0.00     0.037 C 
ATOM     73  N   UNL     1       2.534  -2.120   3.345  1.00  0.00    -0.343 N 
ATOM     74  C   UNL     1       2.328  -0.326   5.544  1.00  0.00     0.005 C 
ATOM     75  C   UNL     1       2.564  -2.673   4.694  1.00  0.00     0.119 C 
ATOM     76  C   UNL     1       3.077  -1.641   5.697  1.00  0.00     0.022 C 
BRANCH  73  77
ATOM     77  C   UNL     1       3.498  -2.522   2.437  1.00  0.00     0.134 A 
ATOM     78  C   UNL     1       3.230  -3.683   1.762  1.00  0.00     0.076 A 
ATOM     79  N   UNL     1       4.597  -1.785   2.178  1.00  0.00    -0.211 NA
ATOM     80  C   UNL     1       4.114  -4.066   0.785  1.00  0.00     0.076 A 
ATOM     81  C   UNL     1       5.431  -2.256   1.221  1.00  0.00     0.162 A 
ATOM     82  N   UNL     1       5.227  -3.376   0.498  1.00  0.00    -0.228 NA
BRANCH  80  83
ATOM     83  C   UNL     1       3.837  -5.281   0.029  1.00  0.00     0.000 A 
ATOM     84  C   UNL     1       4.570  -6.450   0.268  1.00  0.00     0.010 A 
ATOM     85  C   UNL     1       2.719  -5.339  -0.820  1.00  0.00     0.010 A 
ATOM     86  C   UNL     1       4.161  -7.662  -0.287  1.00  0.00     0.001 A 
ATOM     87  C   UNL     1       2.314  -6.549  -1.379  1.00  0.00     0.001 A 
ATOM     88  C   UNL     1       3.028  -7.712  -1.099  1.00  0.00     0.000 A 
ENDBRANCH  80  83
BRANCH  81  89
ATOM     89  C   UNL     1       6.677  -1.525   0.919  1.00  0.00     0.021 A 
ATOM     90  C   UNL     1       7.527  -1.042   1.931  1.00  0.00     0.012 A 
ATOM     91  C   UNL     1       7.096  -1.356  -0.417  1.00  0.00     0.032 A 
ATOM     92  C   UNL     1       8.757  -0.443   1.622  1.00  0.00     0.002 A 
ATOM     93  C   UNL     1       8.316  -0.747  -0.722  1.00  0.00     0.041 A 
ATOM     94  C   UNL     1       9.153  -0.297   0.293  1.00  0.00     0.020 A 
ATOM     95  Cl  UNL     1       8.794  -0.569  -2.367  1.00  0.00    -0.084 Cl
ENDBRANCH  81  89
ENDBRANCH  73  77
ENDBRANCH  69  71
ENDBRANCH  68  69
ENDBRANCH  67  68
ENDBRANCH   1  67
TORSDOF 17
