REMARK SMILES C[C@H](Oc1cc2oc(=O)cc(-c3ccccc3)c2cc1Cl)C(=O)OCCOC(=O)c1ccc(-c2c3nc(c(-c4ccc(S(=O)(=O)[O-])cc4)c4ccc([nH]4)c(-c4ccc(S(=O)(=O)[O-])cc4)c4nc(c(-c5ccc(S(=O)(=O)[O-])cc5)c5ccc2[nH]5)C=C4)C=C3)cc1
REMARK SMILES IDX 25 1 24 2 22 3 23 4 2 5 1 6 3 7 4 8 5 9 20 10 6 11 19 12
REMARK SMILES IDX 21 13 7 14 18 15 8 16 11 17 9 18 10 19 12 20 13 21 17 22
REMARK SMILES IDX 14 23 16 24 15 25 26 26 27 27 28 28 29 29 30 30 31 31 89 32
REMARK SMILES IDX 32 33 88 34 33 35 34 36 35 37 82 38 36 39 87 40 81 41 83 42
REMARK SMILES IDX 37 43 86 44 80 45 79 46 38 48 68 49 49 50 67 51 50 52 53 53
REMARK SMILES IDX 66 54 84 55 51 56 52 57 65 59 85 60 54 61 39 62 40 63 48 64
REMARK SMILES IDX 41 65 47 66 42 67 43 68 44 69 45 70 46 71 69 72 70 73 78 74
REMARK SMILES IDX 71 75 77 76 72 77 73 78 74 79 75 80 76 81 55 82 56 83 64 84
REMARK SMILES IDX 57 85 63 86 58 87 59 88 60 89 61 90 62 91
REMARK H PARENT 83 47 53 58
REMARK Flexibility Score: inf
ROOT
ATOM      1  C   UNL     1      -3.206   0.974  -0.477  1.00  0.00     0.274 C 
ENDROOT
BRANCH   1   2
ATOM      2  O   UNL     1      -1.790   0.986  -0.732  1.00  0.00    -0.459 OA
BRANCH   2   3
ATOM      3  C   UNL     1      -1.051   1.892  -0.030  1.00  0.00     0.347 C 
ATOM      4  O   UNL     1      -1.514   2.697   0.772  1.00  0.00    -0.248 OA
BRANCH   3   5
ATOM      5  C   UNL     1       0.424   1.881  -0.444  1.00  0.00     0.279 C 
ATOM      6  C   UNL     1       0.532   2.803  -1.661  1.00  0.00     0.066 C 
BRANCH   5   7
ATOM      7  O   UNL     1       0.829   0.531  -0.677  1.00  0.00    -0.477 OA
BRANCH   7   8
ATOM      8  C   UNL     1       2.099   0.204  -1.055  1.00  0.00     0.142 A 
ATOM      9  C   UNL     1       3.126   1.115  -1.275  1.00  0.00     0.096 A 
ATOM     10  C   UNL     1       2.356  -1.156  -1.305  1.00  0.00     0.084 A 
ATOM     11  C   UNL     1       4.309   0.690  -1.889  1.00  0.00     0.142 A 
ATOM     12  C   UNL     1       3.579  -1.579  -1.850  1.00  0.00     0.037 A 
ATOM     13  Cl  UNL     1       1.160  -2.369  -1.000  1.00  0.00    -0.080 Cl
ATOM     14  O   UNL     1       5.219   1.706  -2.232  1.00  0.00    -0.423 OA
ATOM     15  C   UNL     1       4.553  -0.644  -2.211  1.00  0.00     0.027 A 
ATOM     16  C   UNL     1       6.312   1.431  -3.030  1.00  0.00     0.336 A 
ATOM     17  C   UNL     1       5.787  -0.997  -2.939  1.00  0.00    -0.000 A 
ATOM     18  O   UNL     1       7.044   2.310  -3.469  1.00  0.00    -0.246 OA
ATOM     19  C   UNL     1       6.575   0.018  -3.334  1.00  0.00     0.103 A 
BRANCH  17  20
ATOM     20  C   UNL     1       6.218  -2.349  -3.365  1.00  0.00    -0.017 A 
ATOM     21  C   UNL     1       7.450  -2.869  -2.940  1.00  0.00     0.009 A 
ATOM     22  C   UNL     1       5.419  -3.120  -4.221  1.00  0.00     0.009 A 
ATOM     23  C   UNL     1       7.875  -4.130  -3.365  1.00  0.00     0.001 A 
ATOM     24  C   UNL     1       5.838  -4.387  -4.633  1.00  0.00     0.001 A 
ATOM     25  C   UNL     1       7.067  -4.889  -4.208  1.00  0.00     0.000 A 
ENDBRANCH  17  20
ENDBRANCH   7   8
ENDBRANCH   5   7
ENDBRANCH   3   5
ENDBRANCH   2   3
ENDBRANCH   1   2
BRANCH   1  26
ATOM     26  C   UNL     1      -3.605  -0.082   0.558  1.00  0.00     0.275 C 
BRANCH  26  27
ATOM     27  O   UNL     1      -3.158   0.271   1.878  1.00  0.00    -0.458 OA
BRANCH  27  28
ATOM     28  C   UNL     1      -1.930  -0.202   2.202  1.00  0.00     0.338 C 
ATOM     29  O   UNL     1      -1.229  -0.935   1.527  1.00  0.00    -0.246 OA
BRANCH  28  30
ATOM     30  C   UNL     1      -1.462   0.411   3.457  1.00  0.00     0.060 A 
ATOM     31  C   UNL     1      -0.167   0.941   3.473  1.00  0.00     0.016 A 
ATOM     32  C   UNL     1      -2.243   0.405   4.616  1.00  0.00     0.016 A 
ATOM     33  C   UNL     1       0.362   1.449   4.656  1.00  0.00     0.010 A 
ATOM     34  C   UNL     1      -1.706   0.908   5.805  1.00  0.00     0.010 A 
ATOM     35  C   UNL     1      -0.395   1.412   5.835  1.00  0.00    -0.014 A 
BRANCH  35  36
ATOM     36  C   UNL     1       0.237   1.815   7.113  1.00  0.00     0.031 A 
ATOM     37  C   UNL     1       0.747   0.757   8.050  1.00  0.00     0.074 A 
ATOM     38  C   UNL     1       0.397   3.118   7.407  1.00  0.00     0.049 A 
ATOM     39  N   UNL     1       1.343   0.895   9.207  1.00  0.00    -0.248 NA
ATOM     40  C   UNL     1       0.566  -0.641   7.628  1.00  0.00     0.031 C 
ATOM     41  C   UNL     1      -0.016   4.234   6.554  1.00  0.00     0.029 A 
ATOM     42  N   UNL     1       0.961   3.721   8.502  1.00  0.00    -0.354 N 
ATOM     43  C   UNL     1       1.598  -0.394   9.656  1.00  0.00     0.074 A 
ATOM     44  C   UNL     1       1.074  -1.302   8.658  1.00  0.00     0.031 C 
ATOM     45  C   UNL     1       0.323   5.388   7.154  1.00  0.00     0.029 A 
ATOM     46  C   UNL     1       0.945   5.094   8.443  1.00  0.00     0.049 A 
ATOM     47  H   UNL     1       1.342   3.219   9.257  1.00  0.00     0.167 HD
ATOM     48  C   UNL     1       2.215  -0.788  10.797  1.00  0.00     0.031 A 
ATOM     49  C   UNL     1       1.374   6.010   9.333  1.00  0.00     0.031 A 
ATOM     50  C   UNL     1       2.726   0.116  11.793  1.00  0.00     0.049 A 
ATOM     51  C   UNL     1       2.002   5.547  10.620  1.00  0.00     0.074 A 
ATOM     52  C   UNL     1       3.371  -0.185  12.980  1.00  0.00     0.029 A 
ATOM     53  N   UNL     1       2.646   1.498  11.720  1.00  0.00    -0.354 N 
ATOM     54  N   UNL     1       2.243   4.323  11.027  1.00  0.00    -0.248 NA
ATOM     55  C   UNL     1       2.420   6.591  11.565  1.00  0.00     0.031 C 
ATOM     56  C   UNL     1       3.643   1.017  13.645  1.00  0.00     0.029 A 
ATOM     57  C   UNL     1       3.211   2.066  12.850  1.00  0.00     0.049 A 
ATOM     58  H   UNL     1       2.247   2.003  10.974  1.00  0.00     0.167 HD
ATOM     59  C   UNL     1       2.861   4.451  12.266  1.00  0.00     0.074 A 
ATOM     60  C   UNL     1       2.967   5.871  12.535  1.00  0.00     0.031 C 
ATOM     61  C   UNL     1       3.303   3.481  13.104  1.00  0.00     0.031 A 
BRANCH  48  62
ATOM     62  C   UNL     1       2.327  -2.268  11.041  1.00  0.00    -0.014 A 
ATOM     63  C   UNL     1       3.234  -3.061  10.313  1.00  0.00     0.010 A 
ATOM     64  C   UNL     1       1.519  -2.874  12.019  1.00  0.00     0.010 A 
ATOM     65  C   UNL     1       3.295  -4.441  10.528  1.00  0.00     0.020 A 
ATOM     66  C   UNL     1       1.594  -4.250  12.252  1.00  0.00     0.020 A 
ATOM     67  C   UNL     1       2.467  -5.028  11.490  1.00  0.00     0.054 A 
BRANCH  67  68
ATOM     68  S   UNL     1       2.561  -6.821  11.749  1.00  0.00     0.124 S 
ATOM     69  O   UNL     1       1.828  -7.330  10.592  1.00  0.00    -0.237 OA
ATOM     70  O   UNL     1       3.999  -7.075  11.742  1.00  0.00    -0.237 OA
ATOM     71  O   UNL     1       1.904  -7.019  13.039  1.00  0.00    -0.744 OA
ENDBRANCH  67  68
ENDBRANCH  48  62
BRANCH  49  72
ATOM     72  C   UNL     1       1.218   7.459   9.039  1.00  0.00    -0.014 A 
ATOM     73  C   UNL     1       2.339   8.252   8.738  1.00  0.00     0.010 A 
ATOM     74  C   UNL     1      -0.057   8.052   9.049  1.00  0.00     0.010 A 
ATOM     75  C   UNL     1       2.189   9.615   8.464  1.00  0.00     0.020 A 
ATOM     76  C   UNL     1      -0.214   9.408   8.753  1.00  0.00     0.020 A 
ATOM     77  C   UNL     1       0.912  10.184   8.472  1.00  0.00     0.054 A 
BRANCH  77  78
ATOM     78  S   UNL     1       0.731  11.941   8.057  1.00  0.00     0.124 S 
ATOM     79  O   UNL     1       1.167  12.591   9.289  1.00  0.00    -0.237 OA
ATOM     80  O   UNL     1       1.624  12.091   6.911  1.00  0.00    -0.237 OA
ATOM     81  O   UNL     1      -0.692  12.073   7.748  1.00  0.00    -0.744 OA
ENDBRANCH  77  78
ENDBRANCH  49  72
BRANCH  61  82
ATOM     82  C   UNL     1       3.970   3.925  14.377  1.00  0.00    -0.014 A 
ATOM     83  C   UNL     1       3.222   4.442  15.449  1.00  0.00     0.010 A 
ATOM     84  C   UNL     1       5.363   3.787  14.516  1.00  0.00     0.010 A 
ATOM     85  C   UNL     1       3.860   4.846  16.625  1.00  0.00     0.020 A 
ATOM     86  C   UNL     1       6.002   4.168  15.698  1.00  0.00     0.020 A 
ATOM     87  C   UNL     1       5.247   4.710  16.741  1.00  0.00     0.054 A 
BRANCH  87  88
ATOM     88  S   UNL     1       6.053   5.210  18.287  1.00  0.00     0.124 S 
ATOM     89  O   UNL     1       6.091   6.664  18.152  1.00  0.00    -0.237 OA
ATOM     90  O   UNL     1       5.141   4.698  19.308  1.00  0.00    -0.237 OA
ATOM     91  O   UNL     1       7.351   4.543  18.231  1.00  0.00    -0.744 OA
ENDBRANCH  87  88
ENDBRANCH  61  82
ENDBRANCH  35  36
ENDBRANCH  28  30
ENDBRANCH  27  28
ENDBRANCH  26  27
ENDBRANCH   1  26
TORSDOF 17
