REMARK SMILES Cc1ccc(C)c(-n2nc(C)c(/C=C(/C#N)C(=O)OCCOC(=O)c3ccc(-c4c5nc(c(-c6ccc(S(=O)(=O)[O-])cc6)c6ccc([nH]6)c(-c6ccc(S(=O)(=O)[O-])cc6)c6nc(c(-c7ccc(S(=O)(=O)[O-])cc7)c7ccc4[nH]7)C=C6)C=C5)cc3)c2Cl)c1
REMARK SMILES IDX 21 1 20 2 19 3 17 4 18 5 14 6 13 7 12 8 8 9 9 10 85 11 10 12
REMARK SMILES IDX 86 13 11 14 7 15 1 16 2 17 3 18 87 19 4 20 5 21 6 22 15 23
REMARK SMILES IDX 16 24 22 25 23 26 24 27 25 28 26 29 84 30 27 31 83 32 28 33
REMARK SMILES IDX 29 34 30 35 77 36 31 37 82 38 76 39 78 40 32 41 81 42 75 43
REMARK SMILES IDX 74 44 33 46 63 47 44 48 62 49 45 50 48 51 61 52 79 53 46 54
REMARK SMILES IDX 47 55 60 57 80 58 49 59 34 60 35 61 43 62 36 63 42 64 37 65
REMARK SMILES IDX 38 66 39 67 40 68 41 69 64 70 65 71 73 72 66 73 72 74 67 75
REMARK SMILES IDX 68 76 69 77 70 78 71 79 50 80 51 81 59 82 52 83 58 84 53 85
REMARK SMILES IDX 54 86 55 87 56 88 57 89
REMARK H PARENT 78 45 48 56
REMARK Flexibility Score: inf
ROOT
ATOM      1  C   UNL     1      -7.426   6.735   0.356  1.00  0.00     0.275 C 
ENDROOT
BRANCH   1   2
ATOM      2  C   UNL     1      -6.406   7.683  -0.295  1.00  0.00     0.275 C 
BRANCH   2   3
ATOM      3  O   UNL     1      -5.328   6.945  -0.914  1.00  0.00    -0.458 OA
BRANCH   3   4
ATOM      4  C   UNL     1      -4.081   7.328  -0.529  1.00  0.00     0.349 C 
ATOM      5  O   UNL     1      -3.848   8.303   0.179  1.00  0.00    -0.245 OA
BRANCH   4   6
ATOM      6  C   UNL     1      -3.024   6.816  -1.421  1.00  0.00     0.138 C 
ATOM      7  C   UNL     1      -2.204   5.736  -1.396  1.00  0.00     0.040 C 
BRANCH   7   8
ATOM      8  C   UNL     1      -2.002   4.455  -0.649  1.00  0.00     0.037 A 
ATOM      9  N   UNL     1      -1.289   2.292  -0.515  1.00  0.00    -0.221 N 
ATOM     10  N   UNL     1      -2.041   2.480   0.556  1.00  0.00    -0.171 NA
ATOM     11  C   UNL     1      -1.246   3.441  -1.269  1.00  0.00     0.140 A 
ATOM     12  C   UNL     1      -2.256   3.794   0.639  1.00  0.00     0.069 A 
ATOM     13  Cl  UNL     1      -0.439   3.385  -2.783  1.00  0.00    -0.061 Cl
ATOM     14  C   UNL     1      -2.616   4.071   2.060  1.00  0.00     0.069 C 
BRANCH   9  15
ATOM     15  C   UNL     1      -0.594   1.057  -0.552  1.00  0.00     0.069 A 
ATOM     16  C   UNL     1       3.020  -0.087  -0.121  1.00  0.00     0.044 C 
ATOM     17  C   UNL     1       1.527  -0.100  -0.271  1.00  0.00    -0.049 A 
ATOM     18  C   UNL     1       0.833  -1.302  -0.090  1.00  0.00     0.004 A 
ATOM     19  C   UNL     1       0.811   1.078  -0.537  1.00  0.00     0.032 A 
ATOM     20  C   UNL     1      -0.560  -1.326  -0.110  1.00  0.00     0.006 A 
ATOM     21  C   UNL     1      -1.296  -0.149  -0.308  1.00  0.00    -0.025 A 
ATOM     22  C   UNL     1      -2.799  -0.258  -0.221  1.00  0.00     0.047 C 
ENDBRANCH   9  15
ENDBRANCH   7   8
BRANCH   6  23
ATOM     23  C   UNL     1      -3.058   7.979  -2.401  1.00  0.00     0.107 C 
ATOM     24  N   UNL     1      -3.086   8.943  -3.213  1.00  0.00    -0.192 NA
ENDBRANCH   6  23
ENDBRANCH   4   6
ENDBRANCH   3   4
ENDBRANCH   2   3
ENDBRANCH   1   2
BRANCH   1  25
ATOM     25  O   UNL     1      -6.976   5.923   1.458  1.00  0.00    -0.458 OA
BRANCH  25  26
ATOM     26  C   UNL     1      -5.648   5.646   1.497  1.00  0.00     0.338 C 
ATOM     27  O   UNL     1      -5.106   4.896   0.723  1.00  0.00    -0.246 OA
BRANCH  26  28
ATOM     28  C   UNL     1      -4.983   6.598   2.454  1.00  0.00     0.060 A 
ATOM     29  C   UNL     1      -3.599   6.860   2.386  1.00  0.00     0.016 A 
ATOM     30  C   UNL     1      -5.797   7.441   3.195  1.00  0.00     0.016 A 
ATOM     31  C   UNL     1      -3.033   7.970   2.987  1.00  0.00     0.010 A 
ATOM     32  C   UNL     1      -5.272   8.625   3.649  1.00  0.00     0.010 A 
ATOM     33  C   UNL     1      -3.898   8.879   3.563  1.00  0.00    -0.014 A 
BRANCH  33  34
ATOM     34  C   UNL     1      -3.389  10.161   4.008  1.00  0.00     0.031 A 
ATOM     35  C   UNL     1      -2.758  11.044   2.982  1.00  0.00     0.074 A 
ATOM     36  C   UNL     1      -3.697  10.570   5.252  1.00  0.00     0.049 A 
ATOM     37  N   UNL     1      -1.539  11.476   2.965  1.00  0.00    -0.248 NA
ATOM     38  C   UNL     1      -3.534  11.438   1.794  1.00  0.00     0.031 C 
ATOM     39  C   UNL     1      -4.535   9.868   6.236  1.00  0.00     0.029 A 
ATOM     40  N   UNL     1      -3.477  11.768   5.839  1.00  0.00    -0.354 N 
ATOM     41  C   UNL     1      -1.464  12.397   1.920  1.00  0.00     0.074 A 
ATOM     42  C   UNL     1      -2.659  12.206   1.138  1.00  0.00     0.031 C 
ATOM     43  C   UNL     1      -4.984  10.750   7.149  1.00  0.00     0.029 A 
ATOM     44  C   UNL     1      -4.296  12.006   6.934  1.00  0.00     0.049 A 
ATOM     45  H   UNL     1      -2.802  12.410   5.520  1.00  0.00     0.167 HD
ATOM     46  C   UNL     1      -0.560  13.420   1.948  1.00  0.00     0.031 A 
ATOM     47  C   UNL     1      -4.419  13.165   7.617  1.00  0.00     0.031 A 
ATOM     48  C   UNL     1       0.470  13.182   2.930  1.00  0.00     0.049 A 
ATOM     49  C   UNL     1      -3.177  13.932   7.374  1.00  0.00     0.074 A 
ATOM     50  C   UNL     1       1.407  12.194   3.150  1.00  0.00     0.029 A 
ATOM     51  N   UNL     1       0.352  13.866   4.116  1.00  0.00    -0.354 N 
ATOM     52  N   UNL     1      -2.001  13.517   7.760  1.00  0.00    -0.248 NA
ATOM     53  C   UNL     1      -3.166  14.927   6.315  1.00  0.00     0.031 C 
ATOM     54  C   UNL     1       1.441  12.034   4.568  1.00  0.00     0.029 A 
ATOM     55  C   UNL     1       0.593  12.988   5.138  1.00  0.00     0.049 A 
ATOM     56  H   UNL     1       0.133  14.821   4.214  1.00  0.00     0.167 HD
ATOM     57  C   UNL     1      -1.153  13.834   6.709  1.00  0.00     0.074 A 
ATOM     58  C   UNL     1      -1.895  14.816   5.919  1.00  0.00     0.031 C 
ATOM     59  C   UNL     1      -0.055  13.065   6.432  1.00  0.00     0.031 A 
BRANCH  46  60
ATOM     60  C   UNL     1      -0.856  14.826   1.454  1.00  0.00    -0.014 A 
ATOM     61  C   UNL     1       0.135  15.821   1.623  1.00  0.00     0.010 A 
ATOM     62  C   UNL     1      -2.152  15.275   1.135  1.00  0.00     0.010 A 
ATOM     63  C   UNL     1      -0.183  17.186   1.594  1.00  0.00     0.020 A 
ATOM     64  C   UNL     1      -2.471  16.635   1.060  1.00  0.00     0.020 A 
ATOM     65  C   UNL     1      -1.493  17.582   1.332  1.00  0.00     0.054 A 
BRANCH  65  66
ATOM     66  S   UNL     1      -1.920  19.340   1.416  1.00  0.00     0.124 S 
ATOM     67  O   UNL     1      -1.741  19.623   2.836  1.00  0.00    -0.237 OA
ATOM     68  O   UNL     1      -0.934  19.940   0.521  1.00  0.00    -0.237 OA
ATOM     69  O   UNL     1      -3.298  19.379   0.934  1.00  0.00    -0.744 OA
ENDBRANCH  65  66
ENDBRANCH  46  60
BRANCH  47  70
ATOM     70  C   UNL     1      -5.655  13.732   8.197  1.00  0.00    -0.014 A 
ATOM     71  C   UNL     1      -5.596  14.799   9.106  1.00  0.00     0.010 A 
ATOM     72  C   UNL     1      -6.913  13.399   7.646  1.00  0.00     0.010 A 
ATOM     73  C   UNL     1      -6.740  15.557   9.399  1.00  0.00     0.020 A 
ATOM     74  C   UNL     1      -8.059  14.145   7.940  1.00  0.00     0.020 A 
ATOM     75  C   UNL     1      -7.960  15.239   8.795  1.00  0.00     0.054 A 
BRANCH  75  76
ATOM     76  S   UNL     1      -9.384  16.342   9.032  1.00  0.00     0.124 S 
ATOM     77  O   UNL     1      -9.735  16.099  10.428  1.00  0.00    -0.237 OA
ATOM     78  O   UNL     1      -8.819  17.656   8.741  1.00  0.00    -0.237 OA
ATOM     79  O   UNL     1     -10.360  15.860   8.055  1.00  0.00    -0.744 OA
ENDBRANCH  75  76
ENDBRANCH  47  70
BRANCH  59  80
ATOM     80  C   UNL     1       0.408  12.068   7.473  1.00  0.00    -0.014 A 
ATOM     81  C   UNL     1      -0.373  10.999   7.954  1.00  0.00     0.010 A 
ATOM     82  C   UNL     1       1.748  12.154   7.890  1.00  0.00     0.010 A 
ATOM     83  C   UNL     1       0.160  10.073   8.866  1.00  0.00     0.020 A 
ATOM     84  C   UNL     1       2.291  11.226   8.780  1.00  0.00     0.020 A 
ATOM     85  C   UNL     1       1.490  10.200   9.279  1.00  0.00     0.054 A 
BRANCH  85  86
ATOM     86  S   UNL     1       2.179   9.007  10.461  1.00  0.00     0.124 S 
ATOM     87  O   UNL     1       1.439   9.307  11.684  1.00  0.00    -0.237 OA
ATOM     88  O   UNL     1       1.875   7.720   9.841  1.00  0.00    -0.237 OA
ATOM     89  O   UNL     1       3.603   9.342  10.505  1.00  0.00    -0.744 OA
ENDBRANCH  85  86
ENDBRANCH  59  80
ENDBRANCH  33  34
ENDBRANCH  26  28
ENDBRANCH  25  26
ENDBRANCH   1  25
TORSDOF 17
