REMARK SMILES O=C(OCCOC(=O)c1cnc([C@H]2CSCCS2)[nH]c1=O)c1ccc(-c2c3nc(c(-c4ccc(S(=O)(=O)[O-])cc4)c4ccc([nH]4)c(-c4ccc(S(=O)(=O)[O-])cc4)c4nc(c(-c5ccc(S(=O)(=O)[O-])cc5)c5ccc2[nH]5)C=C4)C=C3)cc1
REMARK SMILES IDX 4 1 3 2 2 3 1 4 22 5 23 6 81 7 24 8 80 9 25 10 26 11 27 12
REMARK SMILES IDX 74 13 28 14 79 15 73 16 75 17 29 18 78 19 72 20 71 21 30 23
REMARK SMILES IDX 60 24 41 25 59 26 42 27 45 28 58 29 76 30 43 31 44 32 57 34
REMARK SMILES IDX 77 35 46 36 31 37 32 38 40 39 33 40 39 41 34 42 35 43 36 44
REMARK SMILES IDX 37 45 38 46 61 47 62 48 70 49 63 50 69 51 64 52 65 53 66 54
REMARK SMILES IDX 67 55 68 56 47 57 48 58 56 59 49 60 55 61 50 62 51 63 52 64
REMARK SMILES IDX 53 65 54 66 5 67 6 68 7 69 8 70 9 71 10 72 20 73 11 74 19 75
REMARK SMILES IDX 21 76 12 77 13 79 14 80 18 81 15 82 17 83 16 84
REMARK H PARENT 75 22 45 33 19 78
REMARK Flexibility Score: inf
ROOT
ATOM      1  C   UNL     1       5.706  11.041   3.907  1.00  0.00     0.275 C 
ENDROOT
BRANCH   1   2
ATOM      2  O   UNL     1       6.505   9.982   4.467  1.00  0.00    -0.458 OA
BRANCH   2   3
ATOM      3  C   UNL     1       6.264   9.128   5.489  1.00  0.00     0.338 C 
ATOM      4  O   UNL     1       7.161   8.357   5.829  1.00  0.00    -0.246 OA
BRANCH   3   5
ATOM      5  C   UNL     1       4.938   8.980   6.171  1.00  0.00     0.060 A 
ATOM      6  C   UNL     1       3.978   9.982   6.321  1.00  0.00     0.016 A 
ATOM      7  C   UNL     1       4.662   7.719   6.738  1.00  0.00     0.016 A 
ATOM      8  C   UNL     1       2.767   9.731   6.972  1.00  0.00     0.010 A 
ATOM      9  C   UNL     1       3.452   7.460   7.390  1.00  0.00     0.010 A 
ATOM     10  C   UNL     1       2.502   8.476   7.524  1.00  0.00    -0.014 A 
BRANCH  10  11
ATOM     11  C   UNL     1       1.303   8.306   8.372  1.00  0.00     0.031 A 
ATOM     12  C   UNL     1       1.462   8.398   9.862  1.00  0.00     0.074 A 
ATOM     13  C   UNL     1       0.085   8.160   7.818  1.00  0.00     0.049 A 
ATOM     14  N   UNL     1       0.540   8.419  10.787  1.00  0.00    -0.248 NA
ATOM     15  C   UNL     1       2.837   8.517  10.374  1.00  0.00     0.031 C 
ATOM     16  C   UNL     1      -0.191   8.159   6.384  1.00  0.00     0.029 A 
ATOM     17  N   UNL     1      -1.149   8.002   8.393  1.00  0.00    -0.354 N 
ATOM     18  C   UNL     1       1.219   8.593  11.986  1.00  0.00     0.074 A 
ATOM     19  C   UNL     1       2.632   8.607  11.679  1.00  0.00     0.031 C 
ATOM     20  C   UNL     1      -1.506   7.966   6.185  1.00  0.00     0.029 A 
ATOM     21  C   UNL     1      -2.167   7.853   7.480  1.00  0.00     0.049 A 
ATOM     22  H   UNL     1      -1.293   7.995   9.367  1.00  0.00     0.167 HD
ATOM     23  C   UNL     1       0.708   8.754  13.228  1.00  0.00     0.031 A 
ATOM     24  C   UNL     1      -3.487   7.669   7.671  1.00  0.00     0.031 A 
ATOM     25  C   UNL     1      -0.696   8.692  13.525  1.00  0.00     0.049 A 
ATOM     26  C   UNL     1      -4.020   7.715   9.077  1.00  0.00     0.074 A 
ATOM     27  C   UNL     1      -1.328   8.828  14.747  1.00  0.00     0.029 A 
ATOM     28  N   UNL     1      -1.688   8.455  12.583  1.00  0.00    -0.354 N 
ATOM     29  N   UNL     1      -3.368   7.930  10.196  1.00  0.00    -0.248 NA
ATOM     30  C   UNL     1      -5.468   7.533   9.245  1.00  0.00     0.031 C 
ATOM     31  C   UNL     1      -2.698   8.616  14.551  1.00  0.00     0.029 A 
ATOM     32  C   UNL     1      -2.925   8.405  13.199  1.00  0.00     0.049 A 
ATOM     33  H   UNL     1      -1.533   8.339  11.617  1.00  0.00     0.167 HD
ATOM     34  C   UNL     1      -4.332   7.961  11.196  1.00  0.00     0.074 A 
ATOM     35  C   UNL     1      -5.610   7.736  10.548  1.00  0.00     0.031 C 
ATOM     36  C   UNL     1      -4.179   8.176  12.527  1.00  0.00     0.031 A 
BRANCH  23  37
ATOM     37  C   UNL     1       1.694   8.970  14.344  1.00  0.00    -0.014 A 
ATOM     38  C   UNL     1       2.409  10.177  14.457  1.00  0.00     0.010 A 
ATOM     39  C   UNL     1       1.938   7.940  15.268  1.00  0.00     0.010 A 
ATOM     40  C   UNL     1       3.393  10.328  15.438  1.00  0.00     0.020 A 
ATOM     41  C   UNL     1       2.905   8.096  16.266  1.00  0.00     0.020 A 
ATOM     42  C   UNL     1       3.643   9.280  16.328  1.00  0.00     0.054 A 
BRANCH  42  43
ATOM     43  S   UNL     1       4.945   9.487  17.573  1.00  0.00     0.124 S 
ATOM     44  O   UNL     1       6.156   9.360  16.765  1.00  0.00    -0.237 OA
ATOM     45  O   UNL     1       4.679  10.823  18.099  1.00  0.00    -0.237 OA
ATOM     46  O   UNL     1       4.705   8.393  18.511  1.00  0.00    -0.744 OA
ENDBRANCH  42  43
ENDBRANCH  23  37
BRANCH  24  47
ATOM     47  C   UNL     1      -4.391   7.460   6.506  1.00  0.00    -0.014 A 
ATOM     48  C   UNL     1      -5.315   8.445   6.119  1.00  0.00     0.010 A 
ATOM     49  C   UNL     1      -4.327   6.260   5.772  1.00  0.00     0.010 A 
ATOM     50  C   UNL     1      -6.173   8.227   5.035  1.00  0.00     0.020 A 
ATOM     51  C   UNL     1      -5.167   6.047   4.676  1.00  0.00     0.020 A 
ATOM     52  C   UNL     1      -6.095   7.027   4.321  1.00  0.00     0.054 A 
BRANCH  52  53
ATOM     53  S   UNL     1      -7.198   6.777   2.902  1.00  0.00     0.124 S 
ATOM     54  O   UNL     1      -8.492   6.593   3.551  1.00  0.00    -0.237 OA
ATOM     55  O   UNL     1      -7.036   8.021   2.154  1.00  0.00    -0.237 OA
ATOM     56  O   UNL     1      -6.651   5.590   2.249  1.00  0.00    -0.744 OA
ENDBRANCH  52  53
ENDBRANCH  24  47
BRANCH  36  57
ATOM     57  C   UNL     1      -5.429   8.215  13.362  1.00  0.00    -0.014 A 
ATOM     58  C   UNL     1      -6.147   7.044  13.658  1.00  0.00     0.010 A 
ATOM     59  C   UNL     1      -5.859   9.442  13.900  1.00  0.00     0.010 A 
ATOM     60  C   UNL     1      -7.294   7.104  14.453  1.00  0.00     0.020 A 
ATOM     61  C   UNL     1      -6.988   9.502  14.718  1.00  0.00     0.020 A 
ATOM     62  C   UNL     1      -7.707   8.333  14.977  1.00  0.00     0.054 A 
BRANCH  62  63
ATOM     63  S   UNL     1      -9.173   8.380  16.043  1.00  0.00     0.124 S 
ATOM     64  O   UNL     1     -10.257   8.260  15.073  1.00  0.00    -0.237 OA
ATOM     65  O   UNL     1      -8.976   7.222  16.912  1.00  0.00    -0.237 OA
ATOM     66  O   UNL     1      -9.073   9.676  16.711  1.00  0.00    -0.744 OA
ENDBRANCH  62  63
ENDBRANCH  36  57
ENDBRANCH  10  11
ENDBRANCH   3   5
ENDBRANCH   2   3
ENDBRANCH   1   2
BRANCH   1  67
ATOM     67  C   UNL     1       4.681  10.586   2.869  1.00  0.00     0.275 C 
BRANCH  67  68
ATOM     68  O   UNL     1       3.899   9.469   3.305  1.00  0.00    -0.458 OA
BRANCH  68  69
ATOM     69  C   UNL     1       4.315   8.251   2.873  1.00  0.00     0.345 C 
ATOM     70  O   UNL     1       5.309   8.036   2.194  1.00  0.00    -0.246 OA
BRANCH  69  71
ATOM     71  C   UNL     1       3.462   7.190   3.421  1.00  0.00     0.143 A 
ATOM     72  C   UNL     1       4.031   6.071   3.892  1.00  0.00     0.134 A 
ATOM     73  C   UNL     1       1.999   7.275   3.498  1.00  0.00     0.265 A 
ATOM     74  N   UNL     1       3.361   4.998   4.435  1.00  0.00    -0.241 NA
ATOM     75  N   UNL     1       1.391   6.185   4.059  1.00  0.00    -0.309 N 
ATOM     76  O   UNL     1       1.360   8.227   3.068  1.00  0.00    -0.269 OA
ATOM     77  C   UNL     1       2.067   5.080   4.502  1.00  0.00     0.122 A 
ATOM     78  H   UNL     1       0.410   6.196   4.148  1.00  0.00     0.171 HD
BRANCH  77  79
ATOM     79  C   UNL     1       1.234   3.877   4.955  1.00  0.00     0.123 C 
ATOM     80  C   UNL     1       1.738   3.260   6.260  1.00  0.00     0.092 C 
ATOM     81  S   UNL     1      -0.550   4.296   5.073  1.00  0.00    -0.149 SA
ATOM     82  S   UNL     1       1.099   1.555   6.503  1.00  0.00    -0.160 SA
ATOM     83  C   UNL     1      -1.204   2.608   5.248  1.00  0.00     0.081 C 
ATOM     84  C   UNL     1      -0.699   1.888   6.494  1.00  0.00     0.080 C 
ENDBRANCH  77  79
ENDBRANCH  69  71
ENDBRANCH  68  69
ENDBRANCH  67  68
ENDBRANCH   1  67
TORSDOF 15
