REMARK SMILES COc1cc(CC(=O)N2CCC[C@H]2C(=O)OCCOC(=O)c2ccc(-c3c4nc(c(-c5ccc(S(=O)(=O)[O-])cc5)c5ccc([nH]5)c(-c5ccc(S(=O)(=O)[O-])cc5)c5nc(c(-c6ccc(S(=O)(=O)[O-])cc6)c6ccc3[nH]6)C=C5)C=C4)cc2)ccc1C
REMARK SMILES IDX 17 1 16 2 14 3 15 4 13 5 9 6 10 7 11 8 12 9 7 10 8 11 6 12
REMARK SMILES IDX 5 13 3 14 4 15 84 16 83 17 85 18 82 19 2 20 1 21 18 22 19 23
REMARK SMILES IDX 20 24 21 25 22 26 23 27 81 28 24 29 80 30 25 31 26 32 27 33
REMARK SMILES IDX 74 34 28 35 79 36 73 37 75 38 29 39 78 40 72 41 71 42 30 44
REMARK SMILES IDX 60 45 41 46 59 47 42 48 45 49 58 50 76 51 43 52 44 53 57 55
REMARK SMILES IDX 77 56 46 57 31 58 32 59 40 60 33 61 39 62 34 63 35 64 36 65
REMARK SMILES IDX 37 66 38 67 61 68 62 69 70 70 63 71 69 72 64 73 65 74 66 75
REMARK SMILES IDX 67 76 68 77 47 78 48 79 56 80 49 81 55 82 50 83 51 84 52 85
REMARK SMILES IDX 53 86 54 87
REMARK H PARENT 75 43 45 54
REMARK Flexibility Score: inf
ROOT
ATOM      1  C   UNL     1       2.944  -5.064   7.700  1.00  0.00     0.274 C 
ENDROOT
BRANCH   1   2
ATOM      2  O   UNL     1       3.230  -4.266   6.537  1.00  0.00    -0.461 OA
BRANCH   2   3
ATOM      3  C   UNL     1       4.017  -3.178   6.769  1.00  0.00     0.328 C 
ATOM      4  O   UNL     1       4.341  -2.816   7.896  1.00  0.00    -0.250 OA
BRANCH   3   5
ATOM      5  C   UNL     1       4.508  -2.479   5.481  1.00  0.00     0.195 C 
ATOM      6  N   UNL     1       3.719  -2.772   4.278  1.00  0.00    -0.329 N 
ATOM      7  C   UNL     1       2.605  -1.851   4.288  1.00  0.00     0.120 C 
ATOM      8  C   UNL     1       3.278  -0.543   4.671  1.00  0.00     0.024 C 
ATOM      9  C   UNL     1       4.396  -0.954   5.627  1.00  0.00     0.039 C 
BRANCH   6  10
ATOM     10  C   UNL     1       4.326  -3.336   3.171  1.00  0.00     0.227 C 
ATOM     11  O   UNL     1       5.562  -3.428   3.146  1.00  0.00    -0.275 OA
BRANCH  10  12
ATOM     12  C   UNL     1       3.566  -3.870   1.951  1.00  0.00     0.135 C 
BRANCH  12  13
ATOM     13  C   UNL     1       2.101  -3.560   1.784  1.00  0.00    -0.035 A 
ATOM     14  C   UNL     1       0.363  -1.969   1.149  1.00  0.00     0.122 A 
ATOM     15  C   UNL     1       1.691  -2.409   1.083  1.00  0.00     0.051 A 
ATOM     16  C   UNL     1      -0.577  -2.729   1.869  1.00  0.00    -0.009 A 
ATOM     17  C   UNL     1      -0.185  -3.948   2.449  1.00  0.00     0.007 A 
ATOM     18  C   UNL     1      -1.993  -2.271   2.081  1.00  0.00     0.048 C 
ATOM     19  C   UNL     1       1.145  -4.357   2.417  1.00  0.00     0.005 A 
BRANCH  14  20
ATOM     20  O   UNL     1      -0.090  -0.788   0.620  1.00  0.00    -0.496 OA
ATOM     21  C   UNL     1       0.816  -0.033  -0.173  1.00  0.00     0.278 C 
ENDBRANCH  14  20
ENDBRANCH  12  13
ENDBRANCH  10  12
ENDBRANCH   6  10
ENDBRANCH   3   5
ENDBRANCH   2   3
ENDBRANCH   1   2
BRANCH   1  22
ATOM     22  C   UNL     1       2.572  -6.507   7.306  1.00  0.00     0.275 C 
BRANCH  22  23
ATOM     23  O   UNL     1       3.638  -7.320   6.768  1.00  0.00    -0.458 OA
BRANCH  23  24
ATOM     24  C   UNL     1       4.369  -6.779   5.759  1.00  0.00     0.338 C 
ATOM     25  O   UNL     1       3.891  -6.468   4.660  1.00  0.00    -0.246 OA
BRANCH  24  26
ATOM     26  C   UNL     1       5.652  -6.288   6.333  1.00  0.00     0.060 A 
ATOM     27  C   UNL     1       6.462  -5.395   5.620  1.00  0.00     0.016 A 
ATOM     28  C   UNL     1       5.858  -6.459   7.704  1.00  0.00     0.016 A 
ATOM     29  C   UNL     1       7.371  -4.571   6.301  1.00  0.00     0.010 A 
ATOM     30  C   UNL     1       6.646  -5.563   8.386  1.00  0.00     0.010 A 
ATOM     31  C   UNL     1       7.413  -4.614   7.696  1.00  0.00    -0.014 A 
BRANCH  31  32
ATOM     32  C   UNL     1       8.411  -3.951   8.533  1.00  0.00     0.031 A 
ATOM     33  C   UNL     1       8.434  -2.511   8.874  1.00  0.00     0.074 A 
ATOM     34  C   UNL     1       9.283  -4.821   9.092  1.00  0.00     0.049 A 
ATOM     35  N   UNL     1       9.483  -1.906   9.325  1.00  0.00    -0.248 NA
ATOM     36  C   UNL     1       7.292  -1.612   8.744  1.00  0.00     0.031 C 
ATOM     37  C   UNL     1      10.249  -4.626  10.157  1.00  0.00     0.029 A 
ATOM     38  N   UNL     1       9.575  -6.102   8.603  1.00  0.00    -0.354 N 
ATOM     39  C   UNL     1       9.088  -0.680   9.819  1.00  0.00     0.074 A 
ATOM     40  C   UNL     1       7.732  -0.507   9.362  1.00  0.00     0.031 C 
ATOM     41  C   UNL     1      11.212  -5.557  10.018  1.00  0.00     0.029 A 
ATOM     42  C   UNL     1      10.943  -6.271   8.772  1.00  0.00     0.049 A 
ATOM     43  H   UNL     1       8.940  -6.750   8.220  1.00  0.00     0.167 HD
ATOM     44  C   UNL     1       9.900  -0.014  10.690  1.00  0.00     0.031 A 
ATOM     45  C   UNL     1      11.774  -6.360   7.693  1.00  0.00     0.031 A 
ATOM     46  C   UNL     1      11.168  -0.714  10.862  1.00  0.00     0.049 A 
ATOM     47  C   UNL     1      12.788  -5.244   7.725  1.00  0.00     0.074 A 
ATOM     48  C   UNL     1      11.623  -1.598  11.826  1.00  0.00     0.029 A 
ATOM     49  N   UNL     1      12.032  -0.824   9.779  1.00  0.00    -0.354 N 
ATOM     50  N   UNL     1      12.577  -4.079   8.276  1.00  0.00    -0.248 NA
ATOM     51  C   UNL     1      14.137  -5.385   7.193  1.00  0.00     0.031 C 
ATOM     52  C   UNL     1      12.694  -2.337  11.260  1.00  0.00     0.029 A 
ATOM     53  C   UNL     1      12.909  -1.872   9.973  1.00  0.00     0.049 A 
ATOM     54  H   UNL     1      12.020  -0.239   8.987  1.00  0.00     0.167 HD
ATOM     55  C   UNL     1      13.753  -3.380   8.301  1.00  0.00     0.074 A 
ATOM     56  C   UNL     1      14.689  -4.218   7.569  1.00  0.00     0.031 C 
ATOM     57  C   UNL     1      13.909  -2.200   8.970  1.00  0.00     0.031 A 
BRANCH  44  58
ATOM     58  C   UNL     1       9.425   1.093  11.603  1.00  0.00    -0.014 A 
ATOM     59  C   UNL     1       9.907   1.142  12.931  1.00  0.00     0.010 A 
ATOM     60  C   UNL     1       8.495   2.085  11.239  1.00  0.00     0.010 A 
ATOM     61  C   UNL     1       9.440   2.076  13.866  1.00  0.00     0.020 A 
ATOM     62  C   UNL     1       8.006   3.020  12.174  1.00  0.00     0.020 A 
ATOM     63  C   UNL     1       8.475   3.002  13.487  1.00  0.00     0.054 A 
BRANCH  63  64
ATOM     64  S   UNL     1       7.850   4.162  14.736  1.00  0.00     0.124 S 
ATOM     65  O   UNL     1       7.332   3.266  15.768  1.00  0.00    -0.237 OA
ATOM     66  O   UNL     1       9.048   4.911  15.101  1.00  0.00    -0.237 OA
ATOM     67  O   UNL     1       6.832   4.928  14.020  1.00  0.00    -0.744 OA
ENDBRANCH  63  64
ENDBRANCH  44  58
BRANCH  45  68
ATOM     68  C   UNL     1      11.160  -6.955   6.459  1.00  0.00    -0.014 A 
ATOM     69  C   UNL     1      10.662  -8.277   6.549  1.00  0.00     0.010 A 
ATOM     70  C   UNL     1      10.754  -6.170   5.364  1.00  0.00     0.010 A 
ATOM     71  C   UNL     1       9.707  -8.760   5.646  1.00  0.00     0.020 A 
ATOM     72  C   UNL     1       9.807  -6.661   4.442  1.00  0.00     0.020 A 
ATOM     73  C   UNL     1       9.263  -7.938   4.613  1.00  0.00     0.054 A 
BRANCH  73  74
ATOM     74  S   UNL     1       7.860  -8.520   3.608  1.00  0.00     0.124 S 
ATOM     75  O   UNL     1       8.436  -9.665   2.909  1.00  0.00    -0.237 OA
ATOM     76  O   UNL     1       6.866  -8.844   4.630  1.00  0.00    -0.237 OA
ATOM     77  O   UNL     1       7.538  -7.370   2.768  1.00  0.00    -0.744 OA
ENDBRANCH  73  74
ENDBRANCH  45  68
BRANCH  57  78
ATOM     78  C   UNL     1      15.103  -1.293   8.848  1.00  0.00    -0.014 A 
ATOM     79  C   UNL     1      15.918  -1.242   7.709  1.00  0.00     0.010 A 
ATOM     80  C   UNL     1      15.342  -0.333   9.861  1.00  0.00     0.010 A 
ATOM     81  C   UNL     1      16.973  -0.328   7.615  1.00  0.00     0.020 A 
ATOM     82  C   UNL     1      16.360   0.615   9.755  1.00  0.00     0.020 A 
ATOM     83  C   UNL     1      17.189   0.593   8.640  1.00  0.00     0.054 A 
BRANCH  83  84
ATOM     84  S   UNL     1      18.510   1.817   8.479  1.00  0.00     0.124 S 
ATOM     85  O   UNL     1      19.648   1.106   9.054  1.00  0.00    -0.237 OA
ATOM     86  O   UNL     1      18.576   2.041   7.036  1.00  0.00    -0.237 OA
ATOM     87  O   UNL     1      18.019   2.953   9.255  1.00  0.00    -0.744 OA
ENDBRANCH  83  84
ENDBRANCH  57  78
ENDBRANCH  31  32
ENDBRANCH  24  26
ENDBRANCH  23  24
ENDBRANCH  22  23
ENDBRANCH   1  22
TORSDOF 18
