REMARK SMILES Cc1nccn1CCC[NH+]1CCC2(CC1)[C@@H](C(=O)OCCOC(=O)c1ccc(-c3c4nc(c(-c5ccc(S(=O)(=O)[O-])cc5)c5ccc([nH]5)c(-c5ccc(S(=O)(=O)[O-])cc5)c5nc(c(-c6ccc(S(=O)(=O)[O-])cc6)c6ccc3[nH]6)C=C5)C=C4)cc1)CC(=O)N2C
REMARK SMILES IDX 20 1 19 2 17 3 18 4 16 5 10 6 11 7 15 8 12 10 14 11 13 12
REMARK SMILES IDX 88 13 85 14 86 15 89 16 87 17 9 18 8 19 7 20 6 21 1 22 2 23
REMARK SMILES IDX 3 24 4 25 5 26 21 27 22 28 23 29 24 30 25 31 26 32 84 33
REMARK SMILES IDX 27 34 83 35 28 36 29 37 30 38 77 39 31 40 82 41 76 42 78 43
REMARK SMILES IDX 32 44 81 45 75 46 74 47 33 49 63 50 44 51 62 52 45 53 48 54
REMARK SMILES IDX 61 55 79 56 46 57 47 58 60 60 80 61 49 62 34 63 35 64 43 65
REMARK SMILES IDX 36 66 42 67 37 68 38 69 39 70 40 71 41 72 64 73 65 74 73 75
REMARK SMILES IDX 66 76 72 77 67 78 68 79 69 80 70 81 71 82 50 83 51 84 59 85
REMARK SMILES IDX 52 86 58 87 53 88 54 89 55 90 56 91 57 92
REMARK H PARENT 10 9 78 48 48 59
REMARK Flexibility Score: inf
ROOT
ATOM      1  C   UNL     1      -5.142  -5.691   7.012  1.00  0.00     0.274 C 
ENDROOT
BRANCH   1   2
ATOM      2  O   UNL     1      -5.137  -4.357   7.557  1.00  0.00    -0.462 OA
BRANCH   2   3
ATOM      3  C   UNL     1      -3.952  -3.672   7.515  1.00  0.00     0.311 C 
ATOM      4  O   UNL     1      -2.876  -4.184   7.248  1.00  0.00    -0.252 OA
BRANCH   3   5
ATOM      5  C   UNL     1      -4.205  -2.198   7.820  1.00  0.00     0.134 C 
ATOM      6  N   UNL     1      -1.717   0.614   5.451  1.00  0.00    -0.335 N 
ATOM      7  C   UNL     1      -2.708   1.146   6.398  1.00  0.00     0.264 C 
ATOM      8  C   UNL     1      -1.033  -0.549   6.028  1.00  0.00     0.264 C 
ATOM      9  H   UNL     1      -1.006   1.329   5.297  1.00  0.00     0.348 HD
ATOM     10  C   UNL     1      -3.713   0.110   6.913  1.00  0.00     0.091 C 
ATOM     11  C   UNL     1      -1.945  -1.638   6.617  1.00  0.00     0.091 C 
ATOM     12  C   UNL     1      -3.063  -1.147   7.564  1.00  0.00     0.067 C 
ATOM     13  N   UNL     1      -2.630  -0.849   8.946  1.00  0.00    -0.339 N 
ATOM     14  C   UNL     1      -4.610  -2.067   9.287  1.00  0.00     0.118 C 
ATOM     15  C   UNL     1      -3.505  -1.292   9.923  1.00  0.00     0.223 C 
ATOM     16  C   UNL     1      -1.415  -0.170   9.344  1.00  0.00     0.147 C 
ATOM     17  O   UNL     1      -3.409  -1.095  11.125  1.00  0.00    -0.275 OA
BRANCH   6  18
ATOM     18  C   UNL     1      -2.284   0.370   4.114  1.00  0.00     0.264 C 
BRANCH  18  19
ATOM     19  C   UNL     1      -1.459   0.972   2.961  1.00  0.00     0.083 C 
BRANCH  19  20
ATOM     20  C   UNL     1       0.000   0.533   2.789  1.00  0.00     0.129 C 
BRANCH  20  21
ATOM     21  N   UNL     1       0.253  -0.783   2.225  1.00  0.00    -0.335 N 
ATOM     22  C   UNL     1       1.978  -0.161   0.429  1.00  0.00     0.087 C 
ATOM     23  C   UNL     1       1.176  -1.113   1.245  1.00  0.00     0.105 A 
ATOM     24  N   UNL     1       1.274  -2.424   1.122  1.00  0.00    -0.242 NA
ATOM     25  C   UNL     1       0.394  -2.958   2.011  1.00  0.00     0.131 A 
ATOM     26  C   UNL     1      -0.265  -1.965   2.686  1.00  0.00     0.107 A 
ENDBRANCH  20  21
ENDBRANCH  19  20
ENDBRANCH  18  19
ENDBRANCH   6  18
ENDBRANCH   3   5
ENDBRANCH   2   3
ENDBRANCH   1   2
BRANCH   1  27
ATOM     27  C   UNL     1      -5.725  -5.710   5.601  1.00  0.00     0.275 C 
BRANCH  27  28
ATOM     28  O   UNL     1      -4.899  -5.018   4.660  1.00  0.00    -0.458 OA
BRANCH  28  29
ATOM     29  C   UNL     1      -5.197  -3.706   4.537  1.00  0.00     0.338 C 
ATOM     30  O   UNL     1      -5.843  -3.026   5.316  1.00  0.00    -0.246 OA
BRANCH  29  31
ATOM     31  C   UNL     1      -4.791  -3.195   3.228  1.00  0.00     0.060 A 
ATOM     32  C   UNL     1      -4.963  -1.821   3.019  1.00  0.00     0.016 A 
ATOM     33  C   UNL     1      -4.485  -4.068   2.178  1.00  0.00     0.016 A 
ATOM     34  C   UNL     1      -4.942  -1.330   1.733  1.00  0.00     0.010 A 
ATOM     35  C   UNL     1      -4.479  -3.578   0.888  1.00  0.00     0.010 A 
ATOM     36  C   UNL     1      -4.762  -2.227   0.680  1.00  0.00    -0.014 A 
BRANCH  36  37
ATOM     37  C   UNL     1      -4.834  -1.686  -0.663  1.00  0.00     0.031 A 
ATOM     38  C   UNL     1      -3.639  -0.899  -1.079  1.00  0.00     0.074 A 
ATOM     39  C   UNL     1      -5.859  -2.006  -1.476  1.00  0.00     0.049 A 
ATOM     40  N   UNL     1      -3.580   0.298  -1.566  1.00  0.00    -0.248 NA
ATOM     41  C   UNL     1      -2.320  -1.504  -0.820  1.00  0.00     0.031 C 
ATOM     42  C   UNL     1      -6.907  -3.010  -1.256  1.00  0.00     0.029 A 
ATOM     43  N   UNL     1      -6.093  -1.599  -2.749  1.00  0.00    -0.354 N 
ATOM     44  C   UNL     1      -2.235   0.527  -1.852  1.00  0.00     0.074 A 
ATOM     45  C   UNL     1      -1.498  -0.559  -1.267  1.00  0.00     0.031 C 
ATOM     46  C   UNL     1      -7.474  -3.319  -2.443  1.00  0.00     0.029 A 
ATOM     47  C   UNL     1      -6.914  -2.456  -3.470  1.00  0.00     0.049 A 
ATOM     48  H   UNL     1      -5.714  -0.773  -3.127  1.00  0.00     0.167 HD
ATOM     49  C   UNL     1      -1.812   1.490  -2.716  1.00  0.00     0.031 A 
ATOM     50  C   UNL     1      -7.011  -2.526  -4.824  1.00  0.00     0.031 A 
ATOM     51  C   UNL     1      -2.796   2.514  -2.917  1.00  0.00     0.049 A 
ATOM     52  C   UNL     1      -6.441  -1.264  -5.369  1.00  0.00     0.074 A 
ATOM     53  C   UNL     1      -3.417   3.418  -2.078  1.00  0.00     0.029 A 
ATOM     54  N   UNL     1      -3.579   2.450  -4.044  1.00  0.00    -0.354 N 
ATOM     55  N   UNL     1      -6.970  -0.088  -5.167  1.00  0.00    -0.248 NA
ATOM     56  C   UNL     1      -5.026  -1.260  -5.713  1.00  0.00     0.031 C 
ATOM     57  C   UNL     1      -4.777   3.424  -2.502  1.00  0.00     0.029 A 
ATOM     58  C   UNL     1      -4.878   2.593  -3.619  1.00  0.00     0.049 A 
ATOM     59  H   UNL     1      -3.271   2.327  -4.971  1.00  0.00     0.167 HD
ATOM     60  C   UNL     1      -5.892   0.762  -4.956  1.00  0.00     0.074 A 
ATOM     61  C   UNL     1      -4.717  -0.006  -5.367  1.00  0.00     0.031 C 
ATOM     62  C   UNL     1      -6.004   1.903  -4.212  1.00  0.00     0.031 A 
BRANCH  49  63
ATOM     63  C   UNL     1      -0.629   1.293  -3.629  1.00  0.00    -0.014 A 
ATOM     64  C   UNL     1      -0.175   2.361  -4.425  1.00  0.00     0.010 A 
ATOM     65  C   UNL     1      -0.119   0.010  -3.924  1.00  0.00     0.010 A 
ATOM     66  C   UNL     1       0.707   2.143  -5.494  1.00  0.00     0.020 A 
ATOM     67  C   UNL     1       0.791  -0.212  -4.957  1.00  0.00     0.020 A 
ATOM     68  C   UNL     1       1.173   0.853  -5.759  1.00  0.00     0.054 A 
BRANCH  68  69
ATOM     69  S   UNL     1       2.221   0.563  -7.205  1.00  0.00     0.124 S 
ATOM     70  O   UNL     1       1.307   0.860  -8.303  1.00  0.00    -0.237 OA
ATOM     71  O   UNL     1       3.301   1.525  -7.001  1.00  0.00    -0.237 OA
ATOM     72  O   UNL     1       2.609  -0.839  -7.073  1.00  0.00    -0.744 OA
ENDBRANCH  68  69
ENDBRANCH  49  63
BRANCH  50  73
ATOM     73  C   UNL     1      -7.161  -3.769  -5.631  1.00  0.00    -0.014 A 
ATOM     74  C   UNL     1      -7.476  -3.727  -7.002  1.00  0.00     0.010 A 
ATOM     75  C   UNL     1      -6.742  -5.009  -5.101  1.00  0.00     0.010 A 
ATOM     76  C   UNL     1      -7.341  -4.871  -7.813  1.00  0.00     0.020 A 
ATOM     77  C   UNL     1      -6.616  -6.152  -5.897  1.00  0.00     0.020 A 
ATOM     78  C   UNL     1      -6.898  -6.074  -7.256  1.00  0.00     0.054 A 
BRANCH  78  79
ATOM     79  S   UNL     1      -6.581  -7.507  -8.329  1.00  0.00     0.124 S 
ATOM     80  O   UNL     1      -7.927  -7.889  -8.744  1.00  0.00    -0.237 OA
ATOM     81  O   UNL     1      -5.733  -6.941  -9.373  1.00  0.00    -0.237 OA
ATOM     82  O   UNL     1      -5.914  -8.460  -7.442  1.00  0.00    -0.744 OA
ENDBRANCH  78  79
ENDBRANCH  50  73
BRANCH  62  83
ATOM     83  C   UNL     1      -7.373   2.361  -3.759  1.00  0.00    -0.014 A 
ATOM     84  C   UNL     1      -8.223   1.592  -2.937  1.00  0.00     0.010 A 
ATOM     85  C   UNL     1      -7.725   3.698  -4.013  1.00  0.00     0.010 A 
ATOM     86  C   UNL     1      -9.400   2.145  -2.405  1.00  0.00     0.020 A 
ATOM     87  C   UNL     1      -8.883   4.260  -3.471  1.00  0.00     0.020 A 
ATOM     88  C   UNL     1      -9.721   3.478  -2.676  1.00  0.00     0.054 A 
BRANCH  88  89
ATOM     89  S   UNL     1     -11.214   4.209  -1.946  1.00  0.00     0.124 S 
ATOM     90  O   UNL     1     -12.285   3.516  -2.657  1.00  0.00    -0.237 OA
ATOM     91  O   UNL     1     -11.080   3.876  -0.529  1.00  0.00    -0.237 OA
ATOM     92  O   UNL     1     -11.090   5.633  -2.252  1.00  0.00    -0.744 OA
ENDBRANCH  88  89
ENDBRANCH  62  83
ENDBRANCH  36  37
ENDBRANCH  29  31
ENDBRANCH  28  29
ENDBRANCH  27  28
ENDBRANCH   1  27
TORSDOF 18
