REMARK SMILES O=C(OCCOC(=O)[C@]12CCC[NH2+][C@@H]1CCN(C(=O)Cc1c(F)cccc1Cl)C2)c1ccc(-c2c3nc(c(-c4ccc(S(=O)(=O)[O-])cc4)c4ccc([nH]4)c(-c4ccc(S(=O)(=O)[O-])cc4)c4nc(c(-c5ccc(S(=O)(=O)[O-])cc5)c5ccc2[nH]5)C=C4)C=C3)cc1
REMARK SMILES IDX 4 1 3 2 2 3 1 4 30 5 31 6 89 7 32 8 88 9 33 10 34 11 35 12
REMARK SMILES IDX 82 13 36 14 87 15 81 16 83 17 37 18 86 19 80 20 79 21 38 23
REMARK SMILES IDX 68 24 49 25 67 26 50 27 53 28 66 29 84 30 51 31 52 32 65 34
REMARK SMILES IDX 85 35 54 36 39 37 40 38 48 39 41 40 47 41 42 42 43 43 44 44
REMARK SMILES IDX 45 45 46 46 69 47 70 48 78 49 71 50 77 51 72 52 73 53 74 54
REMARK SMILES IDX 75 55 76 56 55 57 56 58 64 59 57 60 63 61 58 62 59 63 60 64
REMARK SMILES IDX 61 65 62 66 5 67 6 68 7 69 8 70 9 71 10 72 14 73 29 74 11 75
REMARK SMILES IDX 13 76 15 77 17 78 12 79 16 82 18 83 19 84 20 85 21 86 22 87
REMARK SMILES IDX 27 88 23 89 24 90 26 91 28 92 25 93
REMARK H PARENT 83 22 53 33 13 80 13 81
REMARK Flexibility Score: inf
ROOT
ATOM      1  C   UNL     1       3.965   2.280  -1.165  1.00  0.00     0.275 C 
ENDROOT
BRANCH   1   2
ATOM      2  O   UNL     1       3.636   1.190  -2.022  1.00  0.00    -0.458 OA
BRANCH   2   3
ATOM      3  C   UNL     1       4.324   0.022  -2.041  1.00  0.00     0.338 C 
ATOM      4  O   UNL     1       4.168  -0.740  -2.992  1.00  0.00    -0.246 OA
BRANCH   3   5
ATOM      5  C   UNL     1       5.065  -0.479  -0.824  1.00  0.00     0.060 A 
ATOM      6  C   UNL     1       6.402  -0.326  -0.423  1.00  0.00     0.016 A 
ATOM      7  C   UNL     1       4.411  -1.446  -0.131  1.00  0.00     0.016 A 
ATOM      8  C   UNL     1       7.029  -1.131   0.678  1.00  0.00     0.010 A 
ATOM      9  C   UNL     1       5.127  -2.257   0.818  1.00  0.00     0.010 A 
ATOM     10  C   UNL     1       6.395  -2.184   1.356  1.00  0.00    -0.014 A 
BRANCH  10  11
ATOM     11  C   UNL     1       6.877  -3.118   2.604  1.00  0.00     0.031 A 
ATOM     12  C   UNL     1       7.133  -4.622   2.490  1.00  0.00     0.074 A 
ATOM     13  C   UNL     1       6.721  -3.046   3.976  1.00  0.00     0.049 A 
ATOM     14  N   UNL     1       8.242  -5.210   2.127  1.00  0.00    -0.248 NA
ATOM     15  C   UNL     1       6.119  -5.571   3.060  1.00  0.00     0.031 C 
ATOM     16  C   UNL     1       5.534  -2.763   4.774  1.00  0.00     0.029 A 
ATOM     17  N   UNL     1       7.535  -3.514   5.005  1.00  0.00    -0.354 N 
ATOM     18  C   UNL     1       8.046  -6.566   2.382  1.00  0.00     0.074 A 
ATOM     19  C   UNL     1       6.769  -6.732   3.030  1.00  0.00     0.031 C 
ATOM     20  C   UNL     1       5.804  -2.558   6.065  1.00  0.00     0.029 A 
ATOM     21  C   UNL     1       7.134  -3.080   6.266  1.00  0.00     0.049 A 
ATOM     22  H   UNL     1       8.317  -4.093   4.856  1.00  0.00     0.167 HD
ATOM     23  C   UNL     1       9.005  -7.515   2.405  1.00  0.00     0.031 A 
ATOM     24  C   UNL     1       7.662  -3.202   7.497  1.00  0.00     0.031 A 
ATOM     25  C   UNL     1       9.575  -7.938   3.664  1.00  0.00     0.049 A 
ATOM     26  C   UNL     1       8.663  -4.284   7.698  1.00  0.00     0.074 A 
ATOM     27  C   UNL     1      10.307  -9.070   3.975  1.00  0.00     0.029 A 
ATOM     28  N   UNL     1       9.505  -7.180   4.823  1.00  0.00    -0.354 N 
ATOM     29  N   UNL     1       9.000  -5.226   6.854  1.00  0.00    -0.248 NA
ATOM     30  C   UNL     1       9.272  -4.398   9.026  1.00  0.00     0.031 C 
ATOM     31  C   UNL     1      10.642  -9.015   5.337  1.00  0.00     0.029 A 
ATOM     32  C   UNL     1      10.183  -7.813   5.847  1.00  0.00     0.049 A 
ATOM     33  H   UNL     1       9.040  -6.316   4.905  1.00  0.00     0.167 HD
ATOM     34  C   UNL     1       9.833  -6.073   7.564  1.00  0.00     0.074 A 
ATOM     35  C   UNL     1      10.002  -5.495   8.882  1.00  0.00     0.031 C 
ATOM     36  C   UNL     1      10.366  -7.249   7.157  1.00  0.00     0.031 A 
BRANCH  23  37
ATOM     37  C   UNL     1       8.850  -8.513   1.287  1.00  0.00    -0.014 A 
ATOM     38  C   UNL     1       9.313  -8.187   0.004  1.00  0.00     0.010 A 
ATOM     39  C   UNL     1       8.306  -9.797   1.503  1.00  0.00     0.010 A 
ATOM     40  C   UNL     1       9.261  -9.126  -1.032  1.00  0.00     0.020 A 
ATOM     41  C   UNL     1       8.268 -10.748   0.476  1.00  0.00     0.020 A 
ATOM     42  C   UNL     1       8.752 -10.406  -0.787  1.00  0.00     0.054 A 
BRANCH  42  43
ATOM     43  S   UNL     1       8.793 -11.625  -2.130  1.00  0.00     0.124 S 
ATOM     44  O   UNL     1       7.835 -11.069  -3.082  1.00  0.00    -0.237 OA
ATOM     45  O   UNL     1      10.191 -11.583  -2.552  1.00  0.00    -0.237 OA
ATOM     46  O   UNL     1       8.379 -12.870  -1.487  1.00  0.00    -0.744 OA
ENDBRANCH  42  43
ENDBRANCH  23  37
BRANCH  24  47
ATOM     47  C   UNL     1       7.280  -2.294   8.622  1.00  0.00    -0.014 A 
ATOM     48  C   UNL     1       8.228  -1.327   9.017  1.00  0.00     0.010 A 
ATOM     49  C   UNL     1       6.060  -2.354   9.317  1.00  0.00     0.010 A 
ATOM     50  C   UNL     1       7.985  -0.469  10.092  1.00  0.00     0.020 A 
ATOM     51  C   UNL     1       5.792  -1.464  10.370  1.00  0.00     0.020 A 
ATOM     52  C   UNL     1       6.766  -0.541  10.764  1.00  0.00     0.054 A 
BRANCH  52  53
ATOM     53  S   UNL     1       6.451   0.611  12.132  1.00  0.00     0.124 S 
ATOM     54  O   UNL     1       7.143  -0.039  13.240  1.00  0.00    -0.237 OA
ATOM     55  O   UNL     1       7.054   1.853  11.653  1.00  0.00    -0.237 OA
ATOM     56  O   UNL     1       4.993   0.633  12.226  1.00  0.00    -0.744 OA
ENDBRANCH  52  53
ENDBRANCH  24  47
BRANCH  36  57
ATOM     57  C   UNL     1      11.252  -7.958   8.129  1.00  0.00    -0.014 A 
ATOM     58  C   UNL     1      10.735  -8.615   9.258  1.00  0.00     0.010 A 
ATOM     59  C   UNL     1      12.637  -7.958   7.894  1.00  0.00     0.010 A 
ATOM     60  C   UNL     1      11.601  -9.233  10.162  1.00  0.00     0.020 A 
ATOM     61  C   UNL     1      13.501  -8.595   8.782  1.00  0.00     0.020 A 
ATOM     62  C   UNL     1      12.979  -9.214   9.919  1.00  0.00     0.054 A 
BRANCH  62  63
ATOM     63  S   UNL     1      14.087 -10.043  11.088  1.00  0.00     0.124 S 
ATOM     64  O   UNL     1      14.123  -9.092  12.195  1.00  0.00    -0.237 OA
ATOM     65  O   UNL     1      13.390 -11.298  11.357  1.00  0.00    -0.237 OA
ATOM     66  O   UNL     1      15.335 -10.179  10.341  1.00  0.00    -0.744 OA
ENDBRANCH  62  63
ENDBRANCH  36  57
ENDBRANCH  10  11
ENDBRANCH   3   5
ENDBRANCH   2   3
ENDBRANCH   1   2
BRANCH   1  67
ATOM     67  C   UNL     1       2.959   2.432  -0.034  1.00  0.00     0.274 C 
BRANCH  67  68
ATOM     68  O   UNL     1       2.928   1.292   0.838  1.00  0.00    -0.461 OA
BRANCH  68  69
ATOM     69  C   UNL     1       1.744   0.660   1.084  1.00  0.00     0.320 C 
ATOM     70  O   UNL     1       0.809   0.634   0.287  1.00  0.00    -0.251 OA
BRANCH  69  71
ATOM     71  C   UNL     1       1.653   0.112   2.524  1.00  0.00     0.137 C 
ATOM     72  C   UNL     1       0.339   0.594   3.175  1.00  0.00     0.033 C 
ATOM     73  C   UNL     1       2.739   0.741   3.448  1.00  0.00     0.203 C 
ATOM     74  C   UNL     1       1.637  -1.476   2.494  1.00  0.00     0.144 C 
ATOM     75  C   UNL     1       0.271   2.123   3.260  1.00  0.00     0.063 C 
ATOM     76  N   UNL     1       2.775   2.212   3.478  1.00  0.00    -0.343 N 
ATOM     77  C   UNL     1       4.075   0.150   3.106  1.00  0.00     0.088 C 
ATOM     78  N   UNL     1       2.937  -2.118   2.340  1.00  0.00    -0.341 N 
ATOM     79  C   UNL     1       1.498   2.766   3.917  1.00  0.00     0.260 C 
ATOM     80  H   UNL     1       3.506   2.514   4.121  1.00  0.00     0.346 HD
ATOM     81  H   UNL     1       2.963   2.549   2.534  1.00  0.00     0.346 HD
ATOM     82  C   UNL     1       3.869  -1.352   3.229  1.00  0.00     0.125 C 
BRANCH  78  83
ATOM     83  C   UNL     1       2.982  -3.613   2.367  1.00  0.00     0.227 C 
ATOM     84  O   UNL     1       2.716  -4.144   3.462  1.00  0.00    -0.275 OA
BRANCH  83  85
ATOM     85  C   UNL     1       3.235  -4.736   1.020  1.00  0.00     0.140 C 
BRANCH  85  86
ATOM     86  C   UNL     1       4.358  -4.798  -0.137  1.00  0.00     0.016 A 
ATOM     87  C   UNL     1       5.555  -5.541  -0.061  1.00  0.00     0.128 A 
ATOM     88  C   UNL     1       4.253  -4.148  -1.376  1.00  0.00     0.047 A 
ATOM     89  F   UNL     1       5.587  -6.635   0.704  1.00  0.00    -0.207 F 
ATOM     90  C   UNL     1       6.702  -5.295  -0.862  1.00  0.00     0.039 A 
ATOM     91  C   UNL     1       5.388  -3.867  -2.194  1.00  0.00     0.021 A 
ATOM     92  Cl  UNL     1       2.702  -3.724  -2.002  1.00  0.00    -0.084 Cl
ATOM     93  C   UNL     1       6.647  -4.364  -1.880  1.00  0.00     0.005 A 
ENDBRANCH  85  86
ENDBRANCH  83  85
ENDBRANCH  78  83
ENDBRANCH  69  71
ENDBRANCH  68  69
ENDBRANCH  67  68
ENDBRANCH   1  67
TORSDOF 17
