REMARK SMILES CC(C)N(c1cc2c(cc1Cl)C=C(C(=O)OCCOC(=O)c1ccc(-c3c4nc(c(-c5ccc(S(=O)(=O)[O-])cc5)c5ccc([nH]5)c(-c5ccc(S(=O)(=O)[O-])cc5)c5nc(c(-c6ccc(S(=O)(=O)[O-])cc6)c6ccc3[nH]6)C=C5)C=C4)cc1)[C@@H](C(F)(F)F)O2)C(C)C
REMARK SMILES IDX 18 1 17 2 16 3 14 4 15 5 13 6 5 7 6 8 10 9 7 10 9 11 11 12
REMARK SMILES IDX 8 13 87 14 12 15 82 16 4 17 2 18 1 19 3 20 88 21 89 22 90 23
REMARK SMILES IDX 83 24 84 25 85 26 86 27 19 28 20 29 21 30 22 31 23 32 81 33
REMARK SMILES IDX 24 34 80 35 25 36 26 37 27 38 74 39 28 40 79 41 73 42 75 43
REMARK SMILES IDX 29 44 78 45 72 46 71 47 30 49 60 50 41 51 59 52 42 53 45 54
REMARK SMILES IDX 58 55 76 56 43 57 44 58 57 60 77 61 46 62 31 63 32 64 40 65
REMARK SMILES IDX 33 66 39 67 34 68 35 69 36 70 37 71 38 72 61 73 62 74 70 75
REMARK SMILES IDX 63 76 69 77 64 78 65 79 66 80 67 81 68 82 47 83 48 84 56 85
REMARK SMILES IDX 49 86 55 87 50 88 51 89 52 90 53 91 54 92
REMARK H PARENT 75 48 45 59
REMARK Flexibility Score: inf
ROOT
ATOM      1  C   UNL     1      -6.288   9.480  -1.013  1.00  0.00     0.275 C 
ENDROOT
BRANCH   1   2
ATOM      2  C   UNL     1      -7.100   8.184  -1.023  1.00  0.00     0.275 C 
BRANCH   2   3
ATOM      3  O   UNL     1      -6.281   7.036  -0.703  1.00  0.00    -0.459 OA
BRANCH   3   4
ATOM      4  C   UNL     1      -5.943   6.260  -1.758  1.00  0.00     0.338 C 
ATOM      5  O   UNL     1      -6.282   6.428  -2.919  1.00  0.00    -0.246 OA
BRANCH   4   6
ATOM      6  C   UNL     1      -5.047   5.164  -1.345  1.00  0.00     0.087 C 
ATOM      7  C   UNL     1      -1.580   1.482  -1.495  1.00  0.00     0.060 A 
ATOM      8  C   UNL     1      -2.647   1.817  -0.620  1.00  0.00     0.074 A 
ATOM      9  C   UNL     1      -1.314   2.386  -2.549  1.00  0.00     0.065 A 
ATOM     10  C   UNL     1      -3.435   2.958  -0.804  1.00  0.00     0.130 A 
ATOM     11  C   UNL     1      -2.062   3.554  -2.698  1.00  0.00     0.034 A 
ATOM     12  Cl  UNL     1      -0.162   2.099  -3.810  1.00  0.00    -0.082 Cl
ATOM     13  C   UNL     1      -3.129   3.822  -1.843  1.00  0.00     0.019 A 
ATOM     14  O   UNL     1      -4.478   3.168   0.059  1.00  0.00    -0.475 OA
ATOM     15  C   UNL     1      -3.956   4.976  -2.091  1.00  0.00     0.027 C 
ATOM     16  C   UNL     1      -5.451   4.218  -0.253  1.00  0.00     0.316 C 
BRANCH   7  17
ATOM     17  N   UNL     1      -0.876   0.275  -1.294  1.00  0.00    -0.365 N 
BRANCH  17  18
ATOM     18  C   UNL     1       0.604   0.341  -1.242  1.00  0.00     0.076 C 
ATOM     19  C   UNL     1       1.159   0.048   0.151  1.00  0.00     0.030 C 
ATOM     20  C   UNL     1       1.299  -0.528  -2.289  1.00  0.00     0.030 C 
ENDBRANCH  17  18
BRANCH  17  21
ATOM     21  C   UNL     1      -1.701  -0.944  -1.154  1.00  0.00     0.076 C 
ATOM     22  C   UNL     1      -1.498  -1.942  -2.290  1.00  0.00     0.030 C 
ATOM     23  C   UNL     1      -1.554  -1.608   0.211  1.00  0.00     0.030 C 
ENDBRANCH  17  21
ENDBRANCH   7  17
BRANCH  16  24
ATOM     24  C   UNL     1      -6.812   3.571  -0.563  1.00  0.00     0.430 C 
ATOM     25  F   UNL     1      -7.185   2.711   0.416  1.00  0.00    -0.167 F 
ATOM     26  F   UNL     1      -7.796   4.500  -0.649  1.00  0.00    -0.167 F 
ATOM     27  F   UNL     1      -6.803   2.883  -1.726  1.00  0.00    -0.167 F 
ENDBRANCH  16  24
ENDBRANCH   4   6
ENDBRANCH   3   4
ENDBRANCH   2   3
ENDBRANCH   1   2
BRANCH   1  28
ATOM     28  O   UNL     1      -5.372   9.517  -2.122  1.00  0.00    -0.458 OA
BRANCH  28  29
ATOM     29  C   UNL     1      -4.079   9.274  -1.810  1.00  0.00     0.338 C 
ATOM     30  O   UNL     1      -3.613   9.050  -0.707  1.00  0.00    -0.246 OA
BRANCH  29  31
ATOM     31  C   UNL     1      -3.277   9.209  -3.041  1.00  0.00     0.060 A 
ATOM     32  C   UNL     1      -2.349  10.190  -3.362  1.00  0.00     0.016 A 
ATOM     33  C   UNL     1      -3.347   8.047  -3.798  1.00  0.00     0.016 A 
ATOM     34  C   UNL     1      -1.499   9.988  -4.458  1.00  0.00     0.010 A 
ATOM     35  C   UNL     1      -2.387   7.773  -4.766  1.00  0.00     0.010 A 
ATOM     36  C   UNL     1      -1.472   8.757  -5.148  1.00  0.00    -0.014 A 
BRANCH  36  37
ATOM     37  C   UNL     1      -0.513   8.502  -6.267  1.00  0.00     0.031 A 
ATOM     38  C   UNL     1      -1.001   8.027  -7.621  1.00  0.00     0.074 A 
ATOM     39  C   UNL     1       0.812   8.672  -6.065  1.00  0.00     0.049 A 
ATOM     40  N   UNL     1      -0.306   7.791  -8.707  1.00  0.00    -0.248 NA
ATOM     41  C   UNL     1      -2.438   7.739  -7.774  1.00  0.00     0.031 C 
ATOM     42  C   UNL     1       1.433   9.024  -4.785  1.00  0.00     0.029 A 
ATOM     43  N   UNL     1       1.875   8.599  -6.934  1.00  0.00    -0.354 N 
ATOM     44  C   UNL     1      -1.214   7.310  -9.646  1.00  0.00     0.074 A 
ATOM     45  C   UNL     1      -2.492   7.207  -8.986  1.00  0.00     0.031 C 
ATOM     46  C   UNL     1       2.744   9.230  -4.972  1.00  0.00     0.029 A 
ATOM     47  C   UNL     1       3.075   8.974  -6.370  1.00  0.00     0.049 A 
ATOM     48  H   UNL     1       1.788   8.307  -7.870  1.00  0.00     0.167 HD
ATOM     49  C   UNL     1      -1.020   7.030 -10.956  1.00  0.00     0.031 A 
ATOM     50  C   UNL     1       4.302   9.122  -6.913  1.00  0.00     0.031 A 
ATOM     51  C   UNL     1       0.237   7.206 -11.633  1.00  0.00     0.049 A 
ATOM     52  C   UNL     1       4.485   8.872  -8.385  1.00  0.00     0.074 A 
ATOM     53  C   UNL     1       0.513   7.039 -12.978  1.00  0.00     0.029 A 
ATOM     54  N   UNL     1       1.416   7.607 -11.026  1.00  0.00    -0.354 N 
ATOM     55  N   UNL     1       3.590   8.504  -9.270  1.00  0.00    -0.248 NA
ATOM     56  C   UNL     1       5.833   9.069  -8.936  1.00  0.00     0.031 C 
ATOM     57  C   UNL     1       1.871   7.288 -13.176  1.00  0.00     0.029 A 
ATOM     58  C   UNL     1       2.427   7.677 -11.967  1.00  0.00     0.049 A 
ATOM     59  H   UNL     1       1.519   7.812 -10.068  1.00  0.00     0.167 HD
ATOM     60  C   UNL     1       4.263   8.437 -10.485  1.00  0.00     0.074 A 
ATOM     61  C   UNL     1       5.634   8.827 -10.227  1.00  0.00     0.031 C 
ATOM     62  C   UNL     1       3.787   8.076 -11.701  1.00  0.00     0.031 A 
BRANCH  49  63
ATOM     63  C   UNL     1      -2.199   6.569 -11.780  1.00  0.00    -0.014 A 
ATOM     64  C   UNL     1      -2.192   5.292 -12.371  1.00  0.00     0.010 A 
ATOM     65  C   UNL     1      -3.254   7.451 -12.078  1.00  0.00     0.010 A 
ATOM     66  C   UNL     1      -3.196   4.919 -13.270  1.00  0.00     0.020 A 
ATOM     67  C   UNL     1      -4.278   7.070 -12.950  1.00  0.00     0.020 A 
ATOM     68  C   UNL     1      -4.227   5.816 -13.562  1.00  0.00     0.054 A 
BRANCH  68  69
ATOM     69  S   UNL     1      -5.497   5.336 -14.766  1.00  0.00     0.124 S 
ATOM     70  O   UNL     1      -4.783   5.458 -16.033  1.00  0.00    -0.237 OA
ATOM     71  O   UNL     1      -5.828   3.974 -14.355  1.00  0.00    -0.237 OA
ATOM     72  O   UNL     1      -6.559   6.317 -14.550  1.00  0.00    -0.744 OA
ENDBRANCH  68  69
ENDBRANCH  49  63
BRANCH  50  73
ATOM     73  C   UNL     1       5.422   9.611  -6.058  1.00  0.00    -0.014 A 
ATOM     74  C   UNL     1       5.932   8.812  -5.017  1.00  0.00     0.010 A 
ATOM     75  C   UNL     1       5.918  10.917  -6.219  1.00  0.00     0.010 A 
ATOM     76  C   UNL     1       6.870   9.329  -4.118  1.00  0.00     0.020 A 
ATOM     77  C   UNL     1       6.880  11.428  -5.340  1.00  0.00     0.020 A 
ATOM     78  C   UNL     1       7.325  10.641  -4.276  1.00  0.00     0.054 A 
BRANCH  78  79
ATOM     79  S   UNL     1       8.492  11.313  -3.059  1.00  0.00     0.124 S 
ATOM     80  O   UNL     1       7.618  11.575  -1.919  1.00  0.00    -0.237 OA
ATOM     81  O   UNL     1       9.441  10.216  -2.885  1.00  0.00    -0.237 OA
ATOM     82  O   UNL     1       9.031  12.499  -3.720  1.00  0.00    -0.744 OA
ENDBRANCH  78  79
ENDBRANCH  50  73
BRANCH  62  83
ATOM     83  C   UNL     1       4.734   8.072 -12.871  1.00  0.00    -0.014 A 
ATOM     84  C   UNL     1       4.540   8.983 -13.927  1.00  0.00     0.010 A 
ATOM     85  C   UNL     1       5.705   7.065 -13.002  1.00  0.00     0.010 A 
ATOM     86  C   UNL     1       5.268   8.858 -15.112  1.00  0.00     0.020 A 
ATOM     87  C   UNL     1       6.457   6.957 -14.175  1.00  0.00     0.020 A 
ATOM     88  C   UNL     1       6.212   7.836 -15.233  1.00  0.00     0.054 A 
BRANCH  88  89
ATOM     89  S   UNL     1       7.108   7.655 -16.800  1.00  0.00     0.124 S 
ATOM     90  O   UNL     1       6.096   7.055 -17.665  1.00  0.00    -0.237 OA
ATOM     91  O   UNL     1       7.474   9.032 -17.121  1.00  0.00    -0.237 OA
ATOM     92  O   UNL     1       8.230   6.785 -16.454  1.00  0.00    -0.744 OA
ENDBRANCH  88  89
ENDBRANCH  62  83
ENDBRANCH  36  37
ENDBRANCH  29  31
ENDBRANCH  28  29
ENDBRANCH   1  28
TORSDOF 18
