REMARK SMILES Cc1ccn2c([C@@H]3CCCC[C@@H]3C(=O)OCCOC(=O)c3ccc(-c4c5nc(c(-c6ccc(S(=O)(=O)[O-])cc6)c6ccc([nH]6)c(-c6ccc(S(=O)(=O)[O-])cc6)c6nc(c(-c7ccc(S(=O)(=O)[O-])cc7)c7ccc4[nH]7)C=C6)C=C5)cc3)nnc2c1
REMARK SMILES IDX 17 1 16 2 15 3 13 4 14 5 12 6 7 7 8 8 9 9 11 10 10 11 6 12
REMARK SMILES IDX 1 13 2 14 3 15 84 16 4 17 83 18 5 19 82 20 81 21 18 22 19 23
REMARK SMILES IDX 20 24 21 25 22 26 80 27 23 28 79 29 24 30 25 31 26 32 73 33
REMARK SMILES IDX 27 34 78 35 72 36 74 37 28 38 77 39 71 40 70 41 29 43 59 44
REMARK SMILES IDX 40 45 58 46 41 47 44 48 57 49 75 50 42 51 43 52 56 54 76 55
REMARK SMILES IDX 45 56 30 57 31 58 39 59 32 60 38 61 33 62 34 63 35 64 36 65
REMARK SMILES IDX 37 66 60 67 61 68 69 69 62 70 68 71 63 72 64 73 65 74 66 75
REMARK SMILES IDX 67 76 46 77 47 78 55 79 48 80 54 81 49 82 50 83 51 84 52 85
REMARK SMILES IDX 53 86
REMARK H PARENT 74 42 44 53
REMARK Flexibility Score: inf
ROOT
ATOM      1  C   UNL     1       3.345  -3.923  -0.782  1.00  0.00     0.275 C 
ENDROOT
BRANCH   1   2
ATOM      2  C   UNL     1       4.169  -4.730  -1.808  1.00  0.00     0.274 C 
BRANCH   2   3
ATOM      3  O   UNL     1       3.888  -4.283  -3.161  1.00  0.00    -0.462 OA
BRANCH   3   4
ATOM      4  C   UNL     1       3.045  -5.098  -3.863  1.00  0.00     0.309 C 
ATOM      5  O   UNL     1       2.720  -6.210  -3.464  1.00  0.00    -0.252 OA
BRANCH   4   6
ATOM      6  C   UNL     1       2.575  -4.449  -5.175  1.00  0.00     0.110 C 
ATOM      7  C   UNL     1       1.165  -3.764  -5.245  1.00  0.00     0.072 C 
ATOM      8  C   UNL     1       0.023  -4.786  -5.097  1.00  0.00     0.012 C 
ATOM      9  C   UNL     1       0.140  -6.046  -5.982  1.00  0.00     0.001 C 
ATOM     10  C   UNL     1       2.628  -5.625  -6.213  1.00  0.00     0.016 C 
ATOM     11  C   UNL     1       1.526  -6.674  -6.027  1.00  0.00     0.001 C 
BRANCH   7  12
ATOM     12  C   UNL     1       0.878  -2.220  -4.858  1.00  0.00     0.141 A 
ATOM     13  C   UNL     1       0.949   1.777  -0.750  1.00  0.00     0.044 C 
ATOM     14  C   UNL     1       0.799   0.780  -1.864  1.00  0.00    -0.046 A 
ATOM     15  C   UNL     1       0.760  -0.577  -1.404  1.00  0.00     0.022 A 
ATOM     16  C   UNL     1       0.682   1.013  -3.192  1.00  0.00     0.053 A 
ATOM     17  C   UNL     1       0.781  -1.562  -2.304  1.00  0.00     0.095 A 
ATOM     18  C   UNL     1       0.651  -0.081  -4.142  1.00  0.00     0.161 A 
ATOM     19  N   UNL     1       0.808  -1.399  -3.683  1.00  0.00    -0.286 N 
ATOM     20  N   UNL     1       0.463  -0.098  -5.436  1.00  0.00    -0.130 NA
ATOM     21  N   UNL     1       0.587  -1.393  -5.868  1.00  0.00    -0.134 NA
ENDBRANCH   7  12
ENDBRANCH   4   6
ENDBRANCH   3   4
ENDBRANCH   2   3
ENDBRANCH   1   2
BRANCH   1  22
ATOM     22  O   UNL     1       2.082  -4.509  -0.344  1.00  0.00    -0.458 OA
BRANCH  22  23
ATOM     23  C   UNL     1       1.141  -4.503  -1.300  1.00  0.00     0.338 C 
ATOM     24  O   UNL     1       1.385  -4.199  -2.468  1.00  0.00    -0.246 OA
BRANCH  23  25
ATOM     25  C   UNL     1      -0.291  -4.677  -0.964  1.00  0.00     0.060 A 
ATOM     26  C   UNL     1      -0.628  -5.800  -0.235  1.00  0.00     0.016 A 
ATOM     27  C   UNL     1      -1.176  -4.198  -1.951  1.00  0.00     0.016 A 
ATOM     28  C   UNL     1      -1.485  -6.704  -0.844  1.00  0.00     0.010 A 
ATOM     29  C   UNL     1      -2.016  -5.090  -2.549  1.00  0.00     0.010 A 
ATOM     30  C   UNL     1      -1.963  -6.407  -2.117  1.00  0.00    -0.014 A 
BRANCH  30  31
ATOM     31  C   UNL     1      -2.354  -7.399  -3.105  1.00  0.00     0.031 A 
ATOM     32  C   UNL     1      -3.687  -7.121  -3.661  1.00  0.00     0.074 A 
ATOM     33  C   UNL     1      -1.568  -8.354  -3.639  1.00  0.00     0.049 A 
ATOM     34  N   UNL     1      -4.746  -7.129  -2.920  1.00  0.00    -0.248 NA
ATOM     35  C   UNL     1      -3.871  -6.457  -4.964  1.00  0.00     0.031 C 
ATOM     36  C   UNL     1      -0.148  -8.654  -3.441  1.00  0.00     0.029 A 
ATOM     37  N   UNL     1      -1.955  -9.296  -4.545  1.00  0.00    -0.354 N 
ATOM     38  C   UNL     1      -5.766  -6.842  -3.789  1.00  0.00     0.074 A 
ATOM     39  C   UNL     1      -5.148  -6.071  -4.838  1.00  0.00     0.031 C 
ATOM     40  C   UNL     1       0.224  -9.668  -4.269  1.00  0.00     0.029 A 
ATOM     41  C   UNL     1      -0.954 -10.155  -4.972  1.00  0.00     0.049 A 
ATOM     42  H   UNL     1      -2.881  -9.361  -4.872  1.00  0.00     0.167 HD
ATOM     43  C   UNL     1      -6.887  -7.616  -3.800  1.00  0.00     0.031 A 
ATOM     44  C   UNL     1      -1.106 -11.344  -5.619  1.00  0.00     0.031 A 
ATOM     45  C   UNL     1      -6.830  -8.619  -2.745  1.00  0.00     0.049 A 
ATOM     46  C   UNL     1      -2.470 -11.819  -5.243  1.00  0.00     0.074 A 
ATOM     47  C   UNL     1      -6.664  -8.562  -1.373  1.00  0.00     0.029 A 
ATOM     48  N   UNL     1      -6.417  -9.886  -3.122  1.00  0.00    -0.354 N 
ATOM     49  N   UNL     1      -2.769 -12.195  -4.029  1.00  0.00    -0.248 NA
ATOM     50  C   UNL     1      -3.609 -11.428  -6.065  1.00  0.00     0.031 C 
ATOM     51  C   UNL     1      -5.743  -9.607  -1.062  1.00  0.00     0.029 A 
ATOM     52  C   UNL     1      -5.476 -10.337  -2.223  1.00  0.00     0.049 A 
ATOM     53  H   UNL     1      -6.744 -10.384  -3.906  1.00  0.00     0.167 HD
ATOM     54  C   UNL     1      -4.022 -11.647  -3.788  1.00  0.00     0.074 A 
ATOM     55  C   UNL     1      -4.536 -11.288  -5.110  1.00  0.00     0.031 C 
ATOM     56  C   UNL     1      -4.404 -11.277  -2.529  1.00  0.00     0.031 A 
BRANCH  43  57
ATOM     57  C   UNL     1      -7.813  -7.732  -4.975  1.00  0.00    -0.014 A 
ATOM     58  C   UNL     1      -7.506  -7.279  -6.274  1.00  0.00     0.010 A 
ATOM     59  C   UNL     1      -9.007  -8.457  -4.819  1.00  0.00     0.010 A 
ATOM     60  C   UNL     1      -8.349  -7.501  -7.358  1.00  0.00     0.020 A 
ATOM     61  C   UNL     1      -9.845  -8.723  -5.909  1.00  0.00     0.020 A 
ATOM     62  C   UNL     1      -9.513  -8.229  -7.169  1.00  0.00     0.054 A 
BRANCH  62  63
ATOM     63  S   UNL     1     -10.547  -8.542  -8.613  1.00  0.00     0.124 S 
ATOM     64  O   UNL     1     -11.030  -7.201  -8.931  1.00  0.00    -0.237 OA
ATOM     65  O   UNL     1      -9.593  -9.111  -9.560  1.00  0.00    -0.237 OA
ATOM     66  O   UNL     1     -11.558  -9.470  -8.112  1.00  0.00    -0.744 OA
ENDBRANCH  62  63
ENDBRANCH  43  57
BRANCH  44  67
ATOM     67  C   UNL     1      -0.536 -11.667  -6.962  1.00  0.00    -0.014 A 
ATOM     68  C   UNL     1      -0.056 -10.653  -7.813  1.00  0.00     0.010 A 
ATOM     69  C   UNL     1      -0.705 -12.957  -7.511  1.00  0.00     0.010 A 
ATOM     70  C   UNL     1       0.156 -10.892  -9.180  1.00  0.00     0.020 A 
ATOM     71  C   UNL     1      -0.491 -13.203  -8.880  1.00  0.00     0.020 A 
ATOM     72  C   UNL     1      -0.099 -12.156  -9.713  1.00  0.00     0.054 A 
BRANCH  72  73
ATOM     73  S   UNL     1       0.012 -12.379 -11.516  1.00  0.00     0.124 S 
ATOM     74  O   UNL     1      -1.093 -11.552 -11.993  1.00  0.00    -0.237 OA
ATOM     75  O   UNL     1       1.349 -11.875 -11.817  1.00  0.00    -0.237 OA
ATOM     76  O   UNL     1      -0.162 -13.818 -11.700  1.00  0.00    -0.744 OA
ENDBRANCH  72  73
ENDBRANCH  44  67
BRANCH  56  77
ATOM     77  C   UNL     1      -3.517 -11.684  -1.355  1.00  0.00    -0.014 A 
ATOM     78  C   UNL     1      -4.124 -12.319  -0.257  1.00  0.00     0.010 A 
ATOM     79  C   UNL     1      -2.169 -11.289  -1.220  1.00  0.00     0.010 A 
ATOM     80  C   UNL     1      -3.436 -12.502   0.948  1.00  0.00     0.020 A 
ATOM     81  C   UNL     1      -1.462 -11.488  -0.021  1.00  0.00     0.020 A 
ATOM     82  C   UNL     1      -2.114 -12.070   1.067  1.00  0.00     0.054 A 
BRANCH  82  83
ATOM     83  S   UNL     1      -1.286 -12.261   2.671  1.00  0.00     0.124 S 
ATOM     84  O   UNL     1      -2.003 -11.299   3.506  1.00  0.00    -0.237 OA
ATOM     85  O   UNL     1      -1.526 -13.666   2.993  1.00  0.00    -0.237 OA
ATOM     86  O   UNL     1       0.108 -11.919   2.396  1.00  0.00    -0.744 OA
ENDBRANCH  82  83
ENDBRANCH  56  77
ENDBRANCH  30  31
ENDBRANCH  23  25
ENDBRANCH  22  23
ENDBRANCH   1  22
TORSDOF 15
