REMARK SMILES Cc1ccc(OCCC[N@H+]2CCCC[C@@H]2C(=O)OCCOC(=O)c2ccc(-c3c4nc(c(-c5ccc(S(=O)(=O)[O-])cc5)c5ccc([nH]5)c(-c5ccc(S(=O)(=O)[O-])cc5)c5nc(c(-c6ccc(S(=O)(=O)[O-])cc6)c6ccc3[nH]6)C=C5)C=C4)cc2)cc1C
REMARK SMILES IDX 19 1 18 2 16 3 17 4 15 5 10 6 11 7 12 9 14 10 13 11 9 12
REMARK SMILES IDX 8 13 7 14 6 15 5 16 1 17 2 18 3 19 85 20 4 21 84 22 86 23
REMARK SMILES IDX 20 24 21 25 22 26 23 27 24 28 25 29 83 30 26 31 82 32 27 33
REMARK SMILES IDX 28 34 29 35 76 36 30 37 81 38 75 39 77 40 31 41 80 42 74 43
REMARK SMILES IDX 73 44 32 46 62 47 43 48 61 49 44 50 47 51 60 52 78 53 45 54
REMARK SMILES IDX 46 55 59 57 79 58 48 59 33 60 34 61 42 62 35 63 41 64 36 65
REMARK SMILES IDX 37 66 38 67 39 68 40 69 63 70 64 71 72 72 65 73 71 74 66 75
REMARK SMILES IDX 67 76 68 77 69 78 70 79 49 80 50 81 58 82 51 83 57 84 52 85
REMARK SMILES IDX 53 86 54 87 55 88 56 89
REMARK H PARENT 10 8 77 45 47 56
REMARK Flexibility Score: inf
ROOT
ATOM      1  C   UNL     1      -0.282   0.495  -2.244  1.00  0.00     0.274 C 
ENDROOT
BRANCH   1   2
ATOM      2  O   UNL     1      -1.354   1.443  -2.071  1.00  0.00    -0.458 OA
BRANCH   2   3
ATOM      3  C   UNL     1      -1.535   1.886  -0.797  1.00  0.00     0.365 C 
ATOM      4  O   UNL     1      -0.835   1.544   0.148  1.00  0.00    -0.245 OA
BRANCH   3   5
ATOM      5  C   UNL     1      -2.694   2.870  -0.620  1.00  0.00     0.295 C 
ATOM      6  N   UNL     1      -3.995   2.201  -0.282  1.00  0.00    -0.323 N 
ATOM      7  C   UNL     1      -5.029   3.252  -0.088  1.00  0.00     0.262 C 
ATOM      8  H   UNL     1      -4.233   1.567  -1.045  1.00  0.00     0.348 HD
ATOM      9  C   UNL     1      -5.171   4.220  -1.265  1.00  0.00     0.062 C 
ATOM     10  C   UNL     1      -2.803   3.784  -1.849  1.00  0.00     0.078 C 
ATOM     11  C   UNL     1      -3.840   4.868  -1.615  1.00  0.00     0.013 C 
BRANCH   6  12
ATOM     12  C   UNL     1      -3.900   1.418   0.982  1.00  0.00     0.266 C 
BRANCH  12  13
ATOM     13  C   UNL     1      -4.442  -0.017   0.866  1.00  0.00     0.103 C 
BRANCH  13  14
ATOM     14  C   UNL     1      -3.571  -0.981   0.051  1.00  0.00     0.235 C 
BRANCH  14  15
ATOM     15  O   UNL     1      -2.953  -1.986   0.886  1.00  0.00    -0.493 OA
BRANCH  15  16
ATOM     16  C   UNL     1      -1.649  -1.675   1.168  1.00  0.00     0.119 A 
ATOM     17  C   UNL     1       2.382  -0.293   1.716  1.00  0.00     0.044 C 
ATOM     18  C   UNL     1       1.006  -0.880   1.562  1.00  0.00    -0.048 A 
ATOM     19  C   UNL     1      -0.034  -0.325   2.324  1.00  0.00     0.007 A 
ATOM     20  C   UNL     1       0.722  -1.955   0.695  1.00  0.00    -0.045 A 
ATOM     21  C   UNL     1      -1.351  -0.738   2.145  1.00  0.00     0.047 A 
ATOM     22  C   UNL     1      -0.620  -2.340   0.501  1.00  0.00     0.050 A 
ATOM     23  C   UNL     1       1.813  -2.731   0.012  1.00  0.00     0.045 C 
ENDBRANCH  15  16
ENDBRANCH  14  15
ENDBRANCH  13  14
ENDBRANCH  12  13
ENDBRANCH   6  12
ENDBRANCH   3   5
ENDBRANCH   2   3
ENDBRANCH   1   2
BRANCH   1  24
ATOM     24  C   UNL     1       1.086   1.146  -2.495  1.00  0.00     0.275 C 
BRANCH  24  25
ATOM     25  O   UNL     1       1.626   1.776  -1.317  1.00  0.00    -0.458 OA
BRANCH  25  26
ATOM     26  C   UNL     1       1.321   3.091  -1.190  1.00  0.00     0.338 C 
ATOM     27  O   UNL     1       0.752   3.783  -2.019  1.00  0.00    -0.246 OA
BRANCH  26  28
ATOM     28  C   UNL     1       1.602   3.573   0.179  1.00  0.00     0.060 A 
ATOM     29  C   UNL     1       0.598   4.324   0.803  1.00  0.00     0.016 A 
ATOM     30  C   UNL     1       2.828   3.378   0.817  1.00  0.00     0.016 A 
ATOM     31  C   UNL     1       0.817   4.903   2.048  1.00  0.00     0.010 A 
ATOM     32  C   UNL     1       3.058   3.980   2.064  1.00  0.00     0.010 A 
ATOM     33  C   UNL     1       2.066   4.778   2.665  1.00  0.00    -0.014 A 
BRANCH  33  34
ATOM     34  C   UNL     1       2.370   5.690   3.795  1.00  0.00     0.031 A 
ATOM     35  C   UNL     1       3.091   6.979   3.491  1.00  0.00     0.074 A 
ATOM     36  C   UNL     1       1.923   5.446   5.041  1.00  0.00     0.049 A 
ATOM     37  N   UNL     1       3.373   7.978   4.287  1.00  0.00    -0.248 NA
ATOM     38  C   UNL     1       3.549   7.168   2.103  1.00  0.00     0.031 C 
ATOM     39  C   UNL     1       1.181   4.258   5.463  1.00  0.00     0.029 A 
ATOM     40  N   UNL     1       2.019   6.204   6.183  1.00  0.00    -0.354 N 
ATOM     41  C   UNL     1       4.045   8.907   3.500  1.00  0.00     0.074 A 
ATOM     42  C   UNL     1       4.155   8.343   2.174  1.00  0.00     0.031 C 
ATOM     43  C   UNL     1       0.891   4.367   6.773  1.00  0.00     0.029 A 
ATOM     44  C   UNL     1       1.432   5.626   7.284  1.00  0.00     0.049 A 
ATOM     45  H   UNL     1       2.466   7.080   6.211  1.00  0.00     0.167 HD
ATOM     46  C   UNL     1       4.518  10.127   3.843  1.00  0.00     0.031 A 
ATOM     47  C   UNL     1       1.344   6.063   8.556  1.00  0.00     0.031 A 
ATOM     48  C   UNL     1       4.404  10.702   5.154  1.00  0.00     0.049 A 
ATOM     49  C   UNL     1       1.908   7.416   8.918  1.00  0.00     0.074 A 
ATOM     50  C   UNL     1       4.833  11.944   5.588  1.00  0.00     0.029 A 
ATOM     51  N   UNL     1       3.822  10.075   6.243  1.00  0.00    -0.354 N 
ATOM     52  N   UNL     1       2.494   8.302   8.147  1.00  0.00    -0.248 NA
ATOM     53  C   UNL     1       1.777   7.837  10.322  1.00  0.00     0.031 C 
ATOM     54  C   UNL     1       4.550  12.051   6.953  1.00  0.00     0.029 A 
ATOM     55  C   UNL     1       3.898  10.896   7.354  1.00  0.00     0.049 A 
ATOM     56  H   UNL     1       3.415   9.179   6.229  1.00  0.00     0.167 HD
ATOM     57  C   UNL     1       2.772   9.393   8.967  1.00  0.00     0.074 A 
ATOM     58  C   UNL     1       2.272   9.066  10.285  1.00  0.00     0.031 C 
ATOM     59  C   UNL     1       3.386  10.562   8.658  1.00  0.00     0.031 A 
BRANCH  46  60
ATOM     60  C   UNL     1       5.231  10.916   2.781  1.00  0.00    -0.014 A 
ATOM     61  C   UNL     1       4.522  11.540   1.739  1.00  0.00     0.010 A 
ATOM     62  C   UNL     1       6.627  11.072   2.854  1.00  0.00     0.010 A 
ATOM     63  C   UNL     1       5.201  12.287   0.773  1.00  0.00     0.020 A 
ATOM     64  C   UNL     1       7.306  11.837   1.903  1.00  0.00     0.020 A 
ATOM     65  C   UNL     1       6.589  12.430   0.862  1.00  0.00     0.054 A 
BRANCH  65  66
ATOM     66  S   UNL     1       7.441  13.442  -0.379  1.00  0.00     0.124 S 
ATOM     67  O   UNL     1       7.411  12.569  -1.550  1.00  0.00    -0.237 OA
ATOM     68  O   UNL     1       6.596  14.630  -0.460  1.00  0.00    -0.237 OA
ATOM     69  O   UNL     1       8.764  13.660   0.201  1.00  0.00    -0.744 OA
ENDBRANCH  65  66
ENDBRANCH  46  60
BRANCH  47  70
ATOM     70  C   UNL     1       0.715   5.215   9.608  1.00  0.00    -0.014 A 
ATOM     71  C   UNL     1      -0.493   5.594  10.221  1.00  0.00     0.010 A 
ATOM     72  C   UNL     1       1.369   4.051  10.052  1.00  0.00     0.010 A 
ATOM     73  C   UNL     1      -1.010   4.852  11.288  1.00  0.00     0.020 A 
ATOM     74  C   UNL     1       0.840   3.291  11.099  1.00  0.00     0.020 A 
ATOM     75  C   UNL     1      -0.335   3.710  11.726  1.00  0.00     0.054 A 
BRANCH  75  76
ATOM     76  S   UNL     1      -1.017   2.761  13.115  1.00  0.00     0.124 S 
ATOM     77  O   UNL     1      -0.654   3.594  14.257  1.00  0.00    -0.237 OA
ATOM     78  O   UNL     1      -2.442   2.710  12.795  1.00  0.00    -0.237 OA
ATOM     79  O   UNL     1      -0.320   1.480  13.026  1.00  0.00    -0.744 OA
ENDBRANCH  75  76
ENDBRANCH  47  70
BRANCH  59  80
ATOM     80  C   UNL     1       3.512  11.594   9.748  1.00  0.00    -0.014 A 
ATOM     81  C   UNL     1       4.403  11.419  10.822  1.00  0.00     0.010 A 
ATOM     82  C   UNL     1       2.753  12.777   9.673  1.00  0.00     0.010 A 
ATOM     83  C   UNL     1       4.499  12.387  11.825  1.00  0.00     0.020 A 
ATOM     84  C   UNL     1       2.867  13.760  10.659  1.00  0.00     0.020 A 
ATOM     85  C   UNL     1       3.725  13.549  11.741  1.00  0.00     0.054 A 
BRANCH  85  86
ATOM     86  S   UNL     1       3.878  14.803  13.043  1.00  0.00     0.124 S 
ATOM     87  O   UNL     1       3.102  14.209  14.128  1.00  0.00    -0.237 OA
ATOM     88  O   UNL     1       5.321  14.866  13.264  1.00  0.00    -0.237 OA
ATOM     89  O   UNL     1       3.294  15.999  12.441  1.00  0.00    -0.744 OA
ENDBRANCH  85  86
ENDBRANCH  59  80
ENDBRANCH  33  34
ENDBRANCH  26  28
ENDBRANCH  25  26
ENDBRANCH  24  25
ENDBRANCH   1  24
TORSDOF 19
