REMARK SMILES CC(C)(C)c1cc(Nc2ccccc2C(=O)OCCOC(=O)c2ccc(-c3c4nc(c(-c5ccc(S(=O)(=O)[O-])cc5)c5ccc([nH]5)c(-c5ccc(S(=O)(=O)[O-])cc5)c5nc(c(-c6ccc(S(=O)(=O)[O-])cc6)c6ccc3[nH]6)C=C5)C=C4)cc2)cc2c1OCC2(C)C
REMARK SMILES IDX 18 1 17 2 15 3 16 4 14 5 9 6 10 7 11 8 13 9 12 10 8 11 7 13
REMARK SMILES IDX 5 14 6 15 85 16 84 17 86 18 83 19 88 20 87 21 89 22 90 23
REMARK SMILES IDX 2 24 1 25 3 26 4 27 19 28 20 29 21 30 22 31 23 32 24 33
REMARK SMILES IDX 82 34 25 35 81 36 26 37 27 38 28 39 75 40 29 41 80 42 74 43
REMARK SMILES IDX 76 44 30 45 79 46 73 47 72 48 31 50 61 51 42 52 60 53 43 54
REMARK SMILES IDX 46 55 59 56 77 57 44 58 45 59 58 61 78 62 47 63 32 64 33 65
REMARK SMILES IDX 41 66 34 67 40 68 35 69 36 70 37 71 38 72 39 73 62 74 63 75
REMARK SMILES IDX 71 76 64 77 70 78 65 79 66 80 67 81 68 82 69 83 48 84 49 85
REMARK SMILES IDX 57 86 50 87 56 88 51 89 52 90 53 91 54 92 55 93
REMARK H PARENT 8 12 76 49 46 60
REMARK Flexibility Score: inf
ROOT
ATOM      1  C   UNL     1       5.691  -2.988   4.942  1.00  0.00     0.275 C 
ENDROOT
BRANCH   1   2
ATOM      2  O   UNL     1       5.379  -3.748   3.757  1.00  0.00    -0.458 OA
BRANCH   2   3
ATOM      3  C   UNL     1       6.328  -4.604   3.296  1.00  0.00     0.340 C 
ATOM      4  O   UNL     1       7.430  -4.767   3.782  1.00  0.00    -0.246 OA
BRANCH   3   5
ATOM      5  C   UNL     1       5.825  -5.408   2.140  1.00  0.00     0.083 A 
ATOM      6  C   UNL     1       4.781  -5.006   1.285  1.00  0.00     0.053 A 
ATOM      7  C   UNL     1       4.364  -5.907   0.282  1.00  0.00     0.027 A 
ATOM      8  C   UNL     1       4.912  -7.185   0.163  1.00  0.00     0.002 A 
ATOM      9  C   UNL     1       6.425  -6.670   1.957  1.00  0.00     0.018 A 
ATOM     10  C   UNL     1       5.944  -7.569   1.005  1.00  0.00     0.001 A 
BRANCH   6  11
ATOM     11  N   UNL     1       4.082  -3.790   1.460  1.00  0.00    -0.355 N 
ATOM     12  H   UNL     1       4.640  -2.991   1.601  1.00  0.00     0.167 HD
BRANCH  11  13
ATOM     13  C   UNL     1       2.691  -3.574   1.459  1.00  0.00     0.039 A 
ATOM     14  C   UNL     1       0.792  -1.981   1.256  1.00  0.00     0.002 A 
ATOM     15  C   UNL     1       2.182  -2.265   1.349  1.00  0.00     0.034 A 
ATOM     16  C   UNL     1      -0.046  -3.095   1.215  1.00  0.00     0.127 A 
ATOM     17  C   UNL     1       0.442  -4.388   1.338  1.00  0.00     0.006 A 
ATOM     18  O   UNL     1      -1.401  -3.076   1.015  1.00  0.00    -0.492 OA
ATOM     19  C   UNL     1       1.791  -4.635   1.491  1.00  0.00     0.034 A 
ATOM     20  C   UNL     1      -0.642  -5.399   1.203  1.00  0.00     0.028 C 
ATOM     21  C   UNL     1      -1.849  -4.449   1.132  1.00  0.00     0.240 C 
ATOM     22  C   UNL     1      -0.462  -6.205  -0.090  1.00  0.00     0.020 C 
ATOM     23  C   UNL     1      -0.726  -6.341   2.407  1.00  0.00     0.020 C 
BRANCH  14  24
ATOM     24  C   UNL     1       0.326  -0.517   1.202  1.00  0.00    -0.009 C 
ATOM     25  C   UNL     1       0.871   0.150  -0.079  1.00  0.00     0.016 C 
ATOM     26  C   UNL     1       0.870   0.244   2.436  1.00  0.00     0.016 C 
ATOM     27  C   UNL     1      -1.204  -0.314   1.207  1.00  0.00     0.016 C 
ENDBRANCH  14  24
ENDBRANCH  11  13
ENDBRANCH   6  11
ENDBRANCH   3   5
ENDBRANCH   2   3
ENDBRANCH   1   2
BRANCH   1  28
ATOM     28  C   UNL     1       4.871  -3.470   6.141  1.00  0.00     0.275 C 
BRANCH  28  29
ATOM     29  O   UNL     1       5.381  -4.725   6.627  1.00  0.00    -0.458 OA
BRANCH  29  30
ATOM     30  C   UNL     1       4.686  -5.823   6.252  1.00  0.00     0.338 C 
ATOM     31  O   UNL     1       3.633  -5.864   5.635  1.00  0.00    -0.246 OA
BRANCH  30  32
ATOM     32  C   UNL     1       5.504  -7.008   6.542  1.00  0.00     0.060 A 
ATOM     33  C   UNL     1       5.681  -7.496   7.835  1.00  0.00     0.016 A 
ATOM     34  C   UNL     1       6.077  -7.665   5.454  1.00  0.00     0.016 A 
ATOM     35  C   UNL     1       6.466  -8.641   8.026  1.00  0.00     0.010 A 
ATOM     36  C   UNL     1       6.848  -8.807   5.641  1.00  0.00     0.010 A 
ATOM     37  C   UNL     1       7.056  -9.306   6.931  1.00  0.00    -0.014 A 
BRANCH  37  38
ATOM     38  C   UNL     1       7.818 -10.569   7.117  1.00  0.00     0.031 A 
ATOM     39  C   UNL     1       9.295 -10.641   6.841  1.00  0.00     0.074 A 
ATOM     40  C   UNL     1       7.150 -11.679   7.488  1.00  0.00     0.049 A 
ATOM     41  N   UNL     1      10.113 -11.647   7.023  1.00  0.00    -0.248 NA
ATOM     42  C   UNL     1       9.937  -9.447   6.267  1.00  0.00     0.031 C 
ATOM     43  C   UNL     1       5.702 -11.754   7.694  1.00  0.00     0.029 A 
ATOM     44  N   UNL     1       7.593 -12.947   7.770  1.00  0.00    -0.354 N 
ATOM     45  C   UNL     1      11.361 -11.208   6.598  1.00  0.00     0.074 A 
ATOM     46  C   UNL     1      11.184  -9.866   6.089  1.00  0.00     0.031 C 
ATOM     47  C   UNL     1       5.384 -12.983   8.126  1.00  0.00     0.029 A 
ATOM     48  C   UNL     1       6.597 -13.793   8.200  1.00  0.00     0.049 A 
ATOM     49  H   UNL     1       8.532 -13.224   7.673  1.00  0.00     0.167 HD
ATOM     50  C   UNL     1      12.549 -11.856   6.657  1.00  0.00     0.031 A 
ATOM     51  C   UNL     1       6.650 -15.070   8.631  1.00  0.00     0.031 A 
ATOM     52  C   UNL     1      12.714 -13.189   7.181  1.00  0.00     0.049 A 
ATOM     53  C   UNL     1       7.982 -15.759   8.718  1.00  0.00     0.074 A 
ATOM     54  C   UNL     1      13.889 -13.898   7.360  1.00  0.00     0.029 A 
ATOM     55  N   UNL     1      11.683 -14.012   7.607  1.00  0.00    -0.354 N 
ATOM     56  N   UNL     1       9.169 -15.290   8.414  1.00  0.00    -0.248 NA
ATOM     57  C   UNL     1       7.990 -17.140   9.220  1.00  0.00     0.031 C 
ATOM     58  C   UNL     1      13.564 -15.171   7.832  1.00  0.00     0.029 A 
ATOM     59  C   UNL     1      12.192 -15.233   8.019  1.00  0.00     0.049 A 
ATOM     60  H   UNL     1      10.730 -13.766   7.617  1.00  0.00     0.167 HD
ATOM     61  C   UNL     1      10.066 -16.314   8.696  1.00  0.00     0.074 A 
ATOM     62  C   UNL     1       9.289 -17.418   9.221  1.00  0.00     0.031 C 
ATOM     63  C   UNL     1      11.411 -16.334   8.529  1.00  0.00     0.031 A 
BRANCH  50  64
ATOM     64  C   UNL     1      13.791 -11.133   6.193  1.00  0.00    -0.014 A 
ATOM     65  C   UNL     1      14.529 -11.625   5.100  1.00  0.00     0.010 A 
ATOM     66  C   UNL     1      14.308 -10.053   6.932  1.00  0.00     0.010 A 
ATOM     67  C   UNL     1      15.774 -11.076   4.777  1.00  0.00     0.020 A 
ATOM     68  C   UNL     1      15.539  -9.482   6.594  1.00  0.00     0.020 A 
ATOM     69  C   UNL     1      16.277 -10.015   5.535  1.00  0.00     0.054 A 
BRANCH  69  70
ATOM     70  S   UNL     1      17.914  -9.345   5.133  1.00  0.00     0.124 S 
ATOM     71  O   UNL     1      18.806 -10.384   5.639  1.00  0.00    -0.237 OA
ATOM     72  O   UNL     1      17.858  -9.214   3.679  1.00  0.00    -0.237 OA
ATOM     73  O   UNL     1      17.954  -8.079   5.861  1.00  0.00    -0.744 OA
ENDBRANCH  69  70
ENDBRANCH  50  64
BRANCH  51  74
ATOM     74  C   UNL     1       5.395 -15.728   9.088  1.00  0.00    -0.014 A 
ATOM     75  C   UNL     1       4.373 -16.035   8.170  1.00  0.00     0.010 A 
ATOM     76  C   UNL     1       5.170 -15.946  10.458  1.00  0.00     0.010 A 
ATOM     77  C   UNL     1       3.129 -16.487   8.619  1.00  0.00     0.020 A 
ATOM     78  C   UNL     1       3.937 -16.428  10.909  1.00  0.00     0.020 A 
ATOM     79  C   UNL     1       2.913 -16.663   9.988  1.00  0.00     0.054 A 
BRANCH  79  80
ATOM     80  S   UNL     1       1.268 -17.178  10.553  1.00  0.00     0.124 S 
ATOM     81  O   UNL     1       0.503 -15.942  10.411  1.00  0.00    -0.237 OA
ATOM     82  O   UNL     1       0.925 -18.241   9.613  1.00  0.00    -0.237 OA
ATOM     83  O   UNL     1       1.500 -17.616  11.927  1.00  0.00    -0.744 OA
ENDBRANCH  79  80
ENDBRANCH  51  74
BRANCH  63  84
ATOM     84  C   UNL     1      12.155 -17.594   8.891  1.00  0.00    -0.014 A 
ATOM     85  C   UNL     1      13.070 -17.586   9.960  1.00  0.00     0.010 A 
ATOM     86  C   UNL     1      12.053 -18.742   8.086  1.00  0.00     0.010 A 
ATOM     87  C   UNL     1      13.898 -18.687  10.194  1.00  0.00     0.020 A 
ATOM     88  C   UNL     1      12.858 -19.858   8.336  1.00  0.00     0.020 A 
ATOM     89  C   UNL     1      13.795 -19.812   9.371  1.00  0.00     0.054 A 
BRANCH  89  90
ATOM     90  S   UNL     1      14.907 -21.215   9.663  1.00  0.00     0.124 S 
ATOM     91  O   UNL     1      16.169 -20.725   9.118  1.00  0.00    -0.237 OA
ATOM     92  O   UNL     1      14.863 -21.363  11.116  1.00  0.00    -0.237 OA
ATOM     93  O   UNL     1      14.285 -22.306   8.915  1.00  0.00    -0.744 OA
ENDBRANCH  89  90
ENDBRANCH  63  84
ENDBRANCH  37  38
ENDBRANCH  30  32
ENDBRANCH  29  30
ENDBRANCH  28  29
ENDBRANCH   1  28
TORSDOF 17
