REMARK SMILES CCCc1nnc(SCC(=O)OCCOC(=O)c2ccc(-c3c4nc(c(-c5ccc(S(=O)(=O)[O-])cc5)c5ccc([nH]5)c(-c5ccc(S(=O)(=O)[O-])cc5)c5nc(c(-c6ccc(S(=O)(=O)[O-])cc6)c6ccc3[nH]6)C=C5)C=C4)cc2)n1C[C@H]1CCCO1
REMARK SMILES IDX 13 1 12 2 10 3 11 4 9 5 8 6 7 7 4 8 5 9 78 10 6 11 3 12 2 13
REMARK SMILES IDX 1 14 79 15 80 16 81 17 84 18 82 19 83 20 14 21 15 22 16 23
REMARK SMILES IDX 17 24 18 25 19 26 77 27 20 28 76 29 21 30 22 31 23 32 70 33
REMARK SMILES IDX 24 34 75 35 69 36 71 37 25 38 74 39 68 40 67 41 26 43 56 44
REMARK SMILES IDX 37 45 55 46 38 47 41 48 54 49 72 50 39 51 40 52 53 54 73 55
REMARK SMILES IDX 42 56 27 57 28 58 36 59 29 60 35 61 30 62 31 63 32 64 33 65
REMARK SMILES IDX 34 66 57 67 58 68 66 69 59 70 65 71 60 72 61 73 62 74 63 75
REMARK SMILES IDX 64 76 43 77 44 78 52 79 45 80 51 81 46 82 47 83 48 84 49 85
REMARK SMILES IDX 50 86
REMARK H PARENT 71 42 41 53
REMARK Flexibility Score: inf
ROOT
ATOM      1  C   UNL     1       4.717  10.091  -4.429  1.00  0.00     0.274 C 
ENDROOT
BRANCH   1   2
ATOM      2  O   UNL     1       3.528   9.621  -5.099  1.00  0.00    -0.461 OA
BRANCH   2   3
ATOM      3  C   UNL     1       3.359   8.278  -5.224  1.00  0.00     0.316 C 
ATOM      4  O   UNL     1       4.179   7.436  -4.860  1.00  0.00    -0.251 OA
BRANCH   3   5
ATOM      5  C   UNL     1       2.112   7.893  -5.992  1.00  0.00     0.200 C 
BRANCH   5   6
ATOM      6  S   UNL     1       0.715   8.988  -5.804  1.00  0.00    -0.074 SA
BRANCH   6   7
ATOM      7  C   UNL     1      -0.495   8.194  -4.845  1.00  0.00     0.191 A 
ATOM      8  C   UNL     1      -1.351   8.052  -2.862  1.00  0.00     0.133 A 
ATOM      9  N   UNL     1      -2.304   8.466  -3.671  1.00  0.00    -0.134 NA
ATOM     10  N   UNL     1      -0.332   7.546  -3.649  1.00  0.00    -0.303 N 
ATOM     11  N   UNL     1      -1.760   8.554  -4.931  1.00  0.00    -0.123 NA
BRANCH   8  12
ATOM     12  C   UNL     1      -1.267   8.255  -1.385  1.00  0.00     0.077 C 
BRANCH  12  13
ATOM     13  C   UNL     1      -1.661   9.678  -0.972  1.00  0.00     0.005 C 
ATOM     14  C   UNL     1      -2.978   9.729  -0.219  1.00  0.00     0.004 C 
ENDBRANCH  12  13
ENDBRANCH   8  12
BRANCH  10  15
ATOM     15  C   UNL     1       0.622   6.551  -3.238  1.00  0.00     0.158 C 
BRANCH  15  16
ATOM     16  C   UNL     1       0.262   5.080  -3.515  1.00  0.00     0.138 C 
ATOM     17  C   UNL     1       0.315   4.626  -4.964  1.00  0.00     0.036 C 
ATOM     18  O   UNL     1       1.248   4.248  -2.858  1.00  0.00    -0.376 OA
ATOM     19  C   UNL     1       1.737   4.154  -5.179  1.00  0.00     0.031 C 
ATOM     20  C   UNL     1       2.305   3.979  -3.787  1.00  0.00     0.160 C 
ENDBRANCH  15  16
ENDBRANCH  10  15
ENDBRANCH   6   7
ENDBRANCH   5   6
ENDBRANCH   3   5
ENDBRANCH   2   3
ENDBRANCH   1   2
BRANCH   1  21
ATOM     21  C   UNL     1       4.404  10.639  -3.036  1.00  0.00     0.275 C 
BRANCH  21  22
ATOM     22  O   UNL     1       4.599   9.673  -1.989  1.00  0.00    -0.458 OA
BRANCH  22  23
ATOM     23  C   UNL     1       3.551   8.844  -1.821  1.00  0.00     0.338 C 
ATOM     24  O   UNL     1       2.669   8.613  -2.638  1.00  0.00    -0.246 OA
BRANCH  23  25
ATOM     25  C   UNL     1       3.375   8.451  -0.417  1.00  0.00     0.060 A 
ATOM     26  C   UNL     1       2.505   7.381  -0.198  1.00  0.00     0.016 A 
ATOM     27  C   UNL     1       3.587   9.421   0.565  1.00  0.00     0.016 A 
ATOM     28  C   UNL     1       1.594   7.473   0.836  1.00  0.00     0.010 A 
ATOM     29  C   UNL     1       2.727   9.461   1.649  1.00  0.00     0.010 A 
ATOM     30  C   UNL     1       1.640   8.579   1.689  1.00  0.00    -0.014 A 
BRANCH  30  31
ATOM     31  C   UNL     1       0.523   8.777   2.627  1.00  0.00     0.031 A 
ATOM     32  C   UNL     1       0.293   7.662   3.594  1.00  0.00     0.074 A 
ATOM     33  C   UNL     1      -0.146   9.953   2.655  1.00  0.00     0.049 A 
ATOM     34  N   UNL     1      -0.814   7.213   4.099  1.00  0.00    -0.248 NA
ATOM     35  C   UNL     1       1.492   6.897   3.999  1.00  0.00     0.031 C 
ATOM     36  C   UNL     1       0.158  11.136   1.832  1.00  0.00     0.029 A 
ATOM     37  N   UNL     1      -1.126  10.409   3.498  1.00  0.00    -0.354 N 
ATOM     38  C   UNL     1      -0.425   6.247   5.026  1.00  0.00     0.074 A 
ATOM     39  C   UNL     1       0.974   5.988   4.814  1.00  0.00     0.031 C 
ATOM     40  C   UNL     1      -0.437  12.216   2.365  1.00  0.00     0.029 A 
ATOM     41  C   UNL     1      -1.172  11.802   3.546  1.00  0.00     0.049 A 
ATOM     42  H   UNL     1      -1.727   9.822   4.011  1.00  0.00     0.167 HD
ATOM     43  C   UNL     1      -1.162   5.917   6.118  1.00  0.00     0.031 A 
ATOM     44  C   UNL     1      -1.602  12.597   4.557  1.00  0.00     0.031 A 
ATOM     45  C   UNL     1      -2.567   6.097   5.943  1.00  0.00     0.049 A 
ATOM     46  C   UNL     1      -2.425  11.784   5.477  1.00  0.00     0.074 A 
ATOM     47  C   UNL     1      -3.519   5.520   5.130  1.00  0.00     0.029 A 
ATOM     48  N   UNL     1      -3.148   7.208   6.500  1.00  0.00    -0.354 N 
ATOM     49  N   UNL     1      -3.597  11.296   5.185  1.00  0.00    -0.248 NA
ATOM     50  C   UNL     1      -1.780  11.190   6.639  1.00  0.00     0.031 C 
ATOM     51  C   UNL     1      -4.512   6.518   4.935  1.00  0.00     0.029 A 
ATOM     52  C   UNL     1      -4.118   7.659   5.639  1.00  0.00     0.049 A 
ATOM     53  H   UNL     1      -2.912   7.611   7.366  1.00  0.00     0.167 HD
ATOM     54  C   UNL     1      -3.672  10.095   5.875  1.00  0.00     0.074 A 
ATOM     55  C   UNL     1      -2.586  10.146   6.843  1.00  0.00     0.031 C 
ATOM     56  C   UNL     1      -4.436   9.059   5.420  1.00  0.00     0.031 A 
BRANCH  43  57
ATOM     57  C   UNL     1      -0.490   5.787   7.461  1.00  0.00    -0.014 A 
ATOM     58  C   UNL     1      -1.146   5.185   8.546  1.00  0.00     0.010 A 
ATOM     59  C   UNL     1       0.719   6.471   7.736  1.00  0.00     0.010 A 
ATOM     60  C   UNL     1      -0.612   5.269   9.842  1.00  0.00     0.020 A 
ATOM     61  C   UNL     1       1.283   6.517   9.006  1.00  0.00     0.020 A 
ATOM     62  C   UNL     1       0.596   5.939  10.061  1.00  0.00     0.054 A 
BRANCH  62  63
ATOM     63  S   UNL     1       1.242   6.120  11.742  1.00  0.00     0.124 S 
ATOM     64  O   UNL     1       0.304   7.077  12.319  1.00  0.00    -0.237 OA
ATOM     65  O   UNL     1       1.158   4.756  12.258  1.00  0.00    -0.237 OA
ATOM     66  O   UNL     1       2.600   6.618  11.535  1.00  0.00    -0.744 OA
ENDBRANCH  62  63
ENDBRANCH  43  57
BRANCH  44  67
ATOM     67  C   UNL     1      -0.987  13.907   4.916  1.00  0.00    -0.014 A 
ATOM     68  C   UNL     1      -1.649  14.870   5.694  1.00  0.00     0.010 A 
ATOM     69  C   UNL     1       0.373  14.148   4.611  1.00  0.00     0.010 A 
ATOM     70  C   UNL     1      -0.977  16.033   6.127  1.00  0.00     0.020 A 
ATOM     71  C   UNL     1       1.038  15.308   5.008  1.00  0.00     0.020 A 
ATOM     72  C   UNL     1       0.362  16.244   5.778  1.00  0.00     0.054 A 
BRANCH  72  73
ATOM     73  S   UNL     1       1.246  17.709   6.383  1.00  0.00     0.124 S 
ATOM     74  O   UNL     1       0.488  18.803   5.784  1.00  0.00    -0.237 OA
ATOM     75  O   UNL     1       1.126  17.571   7.831  1.00  0.00    -0.237 OA
ATOM     76  O   UNL     1       2.600  17.538   5.857  1.00  0.00    -0.744 OA
ENDBRANCH  72  73
ENDBRANCH  44  67
BRANCH  56  77
ATOM     77  C   UNL     1      -5.499   9.347   4.383  1.00  0.00    -0.014 A 
ATOM     78  C   UNL     1      -5.203   9.852   3.102  1.00  0.00     0.010 A 
ATOM     79  C   UNL     1      -6.817   8.934   4.652  1.00  0.00     0.010 A 
ATOM     80  C   UNL     1      -6.201   9.949   2.122  1.00  0.00     0.020 A 
ATOM     81  C   UNL     1      -7.812   9.010   3.672  1.00  0.00     0.020 A 
ATOM     82  C   UNL     1      -7.499   9.520   2.412  1.00  0.00     0.054 A 
BRANCH  82  83
ATOM     83  S   UNL     1      -8.762   9.571   1.109  1.00  0.00     0.124 S 
ATOM     84  O   UNL     1      -8.961  11.005   0.915  1.00  0.00    -0.237 OA
ATOM     85  O   UNL     1      -8.116   8.867   0.005  1.00  0.00    -0.237 OA
ATOM     86  O   UNL     1      -9.899   8.865   1.699  1.00  0.00    -0.744 OA
ENDBRANCH  82  83
ENDBRANCH  56  77
ENDBRANCH  30  31
ENDBRANCH  23  25
ENDBRANCH  22  23
ENDBRANCH  21  22
ENDBRANCH   1  21
TORSDOF 20
