REMARK SMILES O=C(OCCOC(=O)[C@@H](Cc1ccc(F)cc1)NC(=O)c1ccn(C2CCCC2)n1)c1ccc(-c2c3nc(c(-c4ccc(S(=O)(=O)[O-])cc4)c4ccc([nH]4)c(-c4ccc(S(=O)(=O)[O-])cc4)c4nc(c(-c5ccc(S(=O)(=O)[O-])cc5)c5ccc2[nH]5)C=C4)C=C3)cc1
REMARK SMILES IDX 4 1 3 2 2 3 1 4 31 5 32 6 90 7 33 8 89 9 34 10 35 11 36 12
REMARK SMILES IDX 83 13 37 14 88 15 82 16 84 17 38 18 87 19 81 20 80 21 39 23
REMARK SMILES IDX 69 24 50 25 68 26 51 27 54 28 67 29 85 30 52 31 53 32 66 34
REMARK SMILES IDX 86 35 55 36 40 37 41 38 49 39 42 40 48 41 43 42 44 43 45 44
REMARK SMILES IDX 46 45 47 46 70 47 71 48 79 49 72 50 78 51 73 52 74 53 75 54
REMARK SMILES IDX 76 55 77 56 56 57 57 58 65 59 58 60 64 61 59 62 60 63 61 64
REMARK SMILES IDX 62 65 63 66 5 67 6 68 7 69 8 70 9 71 10 72 11 73 12 74 17 75
REMARK SMILES IDX 13 76 16 77 14 78 15 79 18 80 19 81 20 83 21 84 22 85 30 86
REMARK SMILES IDX 23 87 24 88 25 89 26 90 29 91 27 92 28 93
REMARK H PARENT 84 22 54 33 18 82
REMARK Flexibility Score: inf
ROOT
ATOM      1  C   UNL     1       4.385   1.313  -0.605  1.00  0.00     0.275 C 
ENDROOT
BRANCH   1   2
ATOM      2  O   UNL     1       3.158   1.100  -1.338  1.00  0.00    -0.458 OA
BRANCH   2   3
ATOM      3  C   UNL     1       2.195   0.335  -0.787  1.00  0.00     0.338 C 
ATOM      4  O   UNL     1       1.429   0.700   0.101  1.00  0.00    -0.246 OA
BRANCH   3   5
ATOM      5  C   UNL     1       2.106  -0.995  -1.428  1.00  0.00     0.060 A 
ATOM      6  C   UNL     1       3.206  -1.585  -2.068  1.00  0.00     0.016 A 
ATOM      7  C   UNL     1       0.900  -1.698  -1.316  1.00  0.00     0.016 A 
ATOM      8  C   UNL     1       3.090  -2.859  -2.612  1.00  0.00     0.010 A 
ATOM      9  C   UNL     1       0.778  -2.962  -1.879  1.00  0.00     0.010 A 
ATOM     10  C   UNL     1       1.868  -3.534  -2.541  1.00  0.00    -0.014 A 
BRANCH  10  11
ATOM     11  C   UNL     1       1.768  -4.863  -3.136  1.00  0.00     0.031 A 
ATOM     12  C   UNL     1       2.465  -5.973  -2.416  1.00  0.00     0.074 A 
ATOM     13  C   UNL     1       0.971  -5.113  -4.195  1.00  0.00     0.049 A 
ATOM     14  N   UNL     1       3.436  -6.718  -2.834  1.00  0.00    -0.248 NA
ATOM     15  C   UNL     1       2.073  -6.246  -1.024  1.00  0.00     0.031 C 
ATOM     16  C   UNL     1      -0.010  -4.220  -4.822  1.00  0.00     0.029 A 
ATOM     17  N   UNL     1       0.793  -6.280  -4.872  1.00  0.00    -0.354 N 
ATOM     18  C   UNL     1       3.668  -7.672  -1.839  1.00  0.00     0.074 A 
ATOM     19  C   UNL     1       2.877  -7.263  -0.705  1.00  0.00     0.031 C 
ATOM     20  C   UNL     1      -0.833  -4.947  -5.612  1.00  0.00     0.029 A 
ATOM     21  C   UNL     1      -0.345  -6.314  -5.668  1.00  0.00     0.049 A 
ATOM     22  H   UNL     1       1.418  -7.037  -4.802  1.00  0.00     0.167 HD
ATOM     23  C   UNL     1       4.358  -8.825  -2.078  1.00  0.00     0.031 A 
ATOM     24  C   UNL     1      -0.880  -7.402  -6.279  1.00  0.00     0.031 A 
ATOM     25  C   UNL     1       5.083  -8.767  -3.317  1.00  0.00     0.049 A 
ATOM     26  C   UNL     1       0.195  -8.419  -6.380  1.00  0.00     0.074 A 
ATOM     27  C   UNL     1       6.109  -7.988  -3.812  1.00  0.00     0.029 A 
ATOM     28  N   UNL     1       4.521  -9.386  -4.408  1.00  0.00    -0.354 N 
ATOM     29  N   UNL     1       1.269  -8.253  -7.101  1.00  0.00    -0.248 NA
ATOM     30  C   UNL     1       0.302  -9.409  -5.319  1.00  0.00     0.031 C 
ATOM     31  C   UNL     1       5.768  -7.776  -5.179  1.00  0.00     0.029 A 
ATOM     32  C   UNL     1       4.601  -8.496  -5.445  1.00  0.00     0.049 A 
ATOM     33  H   UNL     1       4.136 -10.291  -4.437  1.00  0.00     0.167 HD
ATOM     34  C   UNL     1       2.297  -8.789  -6.339  1.00  0.00     0.074 A 
ATOM     35  C   UNL     1       1.630  -9.558  -5.289  1.00  0.00     0.031 C 
ATOM     36  C   UNL     1       3.583  -8.343  -6.461  1.00  0.00     0.031 A 
BRANCH  23  37
ATOM     37  C   UNL     1       4.111 -10.148  -1.386  1.00  0.00    -0.014 A 
ATOM     38  C   UNL     1       4.917 -11.256  -1.737  1.00  0.00     0.010 A 
ATOM     39  C   UNL     1       2.946 -10.418  -0.643  1.00  0.00     0.010 A 
ATOM     40  C   UNL     1       4.521 -12.570  -1.452  1.00  0.00     0.020 A 
ATOM     41  C   UNL     1       2.563 -11.724  -0.317  1.00  0.00     0.020 A 
ATOM     42  C   UNL     1       3.331 -12.794  -0.762  1.00  0.00     0.054 A 
BRANCH  42  43
ATOM     43  S   UNL     1       2.755 -14.495  -0.529  1.00  0.00     0.124 S 
ATOM     44  O   UNL     1       2.485 -14.912  -1.901  1.00  0.00    -0.237 OA
ATOM     45  O   UNL     1       3.905 -15.128   0.111  1.00  0.00    -0.237 OA
ATOM     46  O   UNL     1       1.578 -14.343   0.324  1.00  0.00    -0.744 OA
ENDBRANCH  42  43
ENDBRANCH  23  37
BRANCH  24  47
ATOM     47  C   UNL     1      -2.325  -7.732  -6.412  1.00  0.00    -0.014 A 
ATOM     48  C   UNL     1      -2.783  -8.728  -7.295  1.00  0.00     0.010 A 
ATOM     49  C   UNL     1      -3.236  -7.244  -5.452  1.00  0.00     0.010 A 
ATOM     50  C   UNL     1      -4.090  -9.244  -7.191  1.00  0.00     0.020 A 
ATOM     51  C   UNL     1      -4.537  -7.750  -5.344  1.00  0.00     0.020 A 
ATOM     52  C   UNL     1      -4.953  -8.762  -6.203  1.00  0.00     0.054 A 
BRANCH  52  53
ATOM     53  S   UNL     1      -6.580  -9.542  -5.964  1.00  0.00     0.124 S 
ATOM     54  O   UNL     1      -7.310  -9.109  -7.152  1.00  0.00    -0.237 OA
ATOM     55  O   UNL     1      -6.248 -10.962  -5.908  1.00  0.00    -0.237 OA
ATOM     56  O   UNL     1      -7.053  -8.970  -4.704  1.00  0.00    -0.744 OA
ENDBRANCH  52  53
ENDBRANCH  24  47
BRANCH  36  57
ATOM     57  C   UNL     1       3.929  -7.409  -7.596  1.00  0.00    -0.014 A 
ATOM     58  C   UNL     1       3.410  -6.104  -7.711  1.00  0.00     0.010 A 
ATOM     59  C   UNL     1       4.982  -7.792  -8.445  1.00  0.00     0.010 A 
ATOM     60  C   UNL     1       3.935  -5.207  -8.655  1.00  0.00     0.020 A 
ATOM     61  C   UNL     1       5.518  -6.899  -9.375  1.00  0.00     0.020 A 
ATOM     62  C   UNL     1       4.993  -5.610  -9.476  1.00  0.00     0.054 A 
BRANCH  62  63
ATOM     63  S   UNL     1       5.732  -4.421 -10.631  1.00  0.00     0.124 S 
ATOM     64  O   UNL     1       4.680  -4.251 -11.629  1.00  0.00    -0.237 OA
ATOM     65  O   UNL     1       5.988  -3.259  -9.782  1.00  0.00    -0.237 OA
ATOM     66  O   UNL     1       6.935  -5.102 -11.110  1.00  0.00    -0.744 OA
ENDBRANCH  62  63
ENDBRANCH  36  57
ENDBRANCH  10  11
ENDBRANCH   3   5
ENDBRANCH   2   3
ENDBRANCH   1   2
BRANCH   1  67
ATOM     67  C   UNL     1       4.310   1.236   0.920  1.00  0.00     0.274 C 
BRANCH  67  68
ATOM     68  O   UNL     1       4.040  -0.134   1.258  1.00  0.00    -0.461 OA
BRANCH  68  69
ATOM     69  C   UNL     1       3.283  -0.395   2.345  1.00  0.00     0.329 C 
ATOM     70  O   UNL     1       2.874   0.461   3.120  1.00  0.00    -0.250 OA
BRANCH  69  71
ATOM     71  C   UNL     1       2.945  -1.895   2.450  1.00  0.00     0.197 C 
BRANCH  71  72
ATOM     72  C   UNL     1       3.604  -2.909   1.485  1.00  0.00     0.072 C 
BRANCH  72  73
ATOM     73  C   UNL     1       5.105  -3.129   1.461  1.00  0.00    -0.045 A 
ATOM     74  C   UNL     1       5.965  -2.246   0.787  1.00  0.00     0.007 A 
ATOM     75  C   UNL     1       5.661  -4.310   1.977  1.00  0.00     0.007 A 
ATOM     76  C   UNL     1       7.337  -2.479   0.699  1.00  0.00     0.039 A 
ATOM     77  C   UNL     1       7.032  -4.571   1.850  1.00  0.00     0.039 A 
ATOM     78  C   UNL     1       7.859  -3.644   1.230  1.00  0.00     0.123 A 
ATOM     79  F   UNL     1       9.172  -3.886   1.120  1.00  0.00    -0.207 F 
ENDBRANCH  72  73
ENDBRANCH  71  72
BRANCH  71  80
ATOM     80  N   UNL     1       3.074  -2.336   3.839  1.00  0.00    -0.337 N 
ATOM     81  C   UNL     1       2.083  -2.513   4.780  1.00  0.00     0.272 C 
ATOM     82  H   UNL     1       3.990  -2.531   4.142  1.00  0.00     0.164 HD
ATOM     83  O   UNL     1       2.434  -2.670   5.951  1.00  0.00    -0.267 OA
BRANCH  81  84
ATOM     84  C   UNL     1       0.670  -2.521   4.363  1.00  0.00     0.150 A 
ATOM     85  C   UNL     1       0.057  -3.204   3.274  1.00  0.00     0.056 A 
ATOM     86  N   UNL     1      -0.257  -1.846   5.065  1.00  0.00    -0.167 NA
ATOM     87  C   UNL     1      -1.275  -2.865   3.324  1.00  0.00     0.110 A 
ATOM     88  N   UNL     1      -1.414  -2.066   4.420  1.00  0.00    -0.269 N 
BRANCH  88  89
ATOM     89  C   UNL     1      -2.644  -1.502   4.934  1.00  0.00     0.107 C 
ATOM     90  C   UNL     1      -2.925  -1.875   6.389  1.00  0.00     0.027 C 
ATOM     91  C   UNL     1      -2.665   0.027   4.953  1.00  0.00     0.027 C 
ATOM     92  C   UNL     1      -3.970  -0.863   6.829  1.00  0.00     0.002 C 
ATOM     93  C   UNL     1      -3.701   0.400   6.012  1.00  0.00     0.002 C 
ENDBRANCH  88  89
ENDBRANCH  81  84
ENDBRANCH  71  80
ENDBRANCH  69  71
ENDBRANCH  68  69
ENDBRANCH  67  68
ENDBRANCH   1  67
TORSDOF 19
