REMARK SMILES Cc1ccc(C(=O)OCCOC(=O)c2ccc(-c3c4nc(c(-c5ccc(S(=O)(=O)[O-])cc5)c5ccc([nH]5)c(-c5ccc(S(=O)(=O)[O-])cc5)c5nc(c(-c6ccc(S(=O)(=O)[O-])cc6)c6ccc3[nH]6)C=C5)C=C4)cc2)c(Oc2cccc(F)c2C(N)=O)c1
REMARK SMILES IDX 9 1 8 2 6 3 7 4 5 5 1 6 2 7 3 8 86 9 4 10 74 11 75 12 76 13
REMARK SMILES IDX 77 14 82 15 78 16 80 17 79 18 81 19 83 20 84 21 85 22 10 25
REMARK SMILES IDX 11 26 12 27 13 28 14 29 15 30 73 31 16 32 72 33 17 34 18 35
REMARK SMILES IDX 19 36 66 37 20 38 71 39 65 40 67 41 21 42 70 43 64 44 63 45
REMARK SMILES IDX 22 47 52 48 33 49 51 50 34 51 37 52 50 53 68 54 35 55 36 56
REMARK SMILES IDX 49 58 69 59 38 60 23 61 24 62 32 63 25 64 31 65 26 66 27 67
REMARK SMILES IDX 28 68 29 69 30 70 53 71 54 72 62 73 55 74 61 75 56 76 57 77
REMARK SMILES IDX 58 78 59 79 60 80 39 81 40 82 48 83 41 84 47 85 42 86 43 87
REMARK SMILES IDX 44 88 45 89 46 90
REMARK H PARENT 84 23 84 24 67 46 37 57
REMARK Flexibility Score: inf
ROOT
ATOM      1  C   UNL     1      -4.365   1.921  -2.408  1.00  0.00     0.275 C 
ENDROOT
BRANCH   1   2
ATOM      2  O   UNL     1      -3.049   1.359  -2.210  1.00  0.00    -0.458 OA
BRANCH   2   3
ATOM      3  C   UNL     1      -2.573   1.558  -0.944  1.00  0.00     0.342 C 
ATOM      4  O   UNL     1      -3.158   2.191  -0.103  1.00  0.00    -0.246 OA
BRANCH   3   5
ATOM      5  C   UNL     1      -1.169   1.086  -0.773  1.00  0.00     0.102 A 
ATOM      6  C   UNL     1       2.941  -0.037  -0.052  1.00  0.00     0.044 C 
ATOM      7  C   UNL     1       1.517   0.355  -0.320  1.00  0.00    -0.047 A 
ATOM      8  C   UNL     1       0.639  -0.511  -0.990  1.00  0.00     0.004 A 
ATOM      9  C   UNL     1       1.036   1.581   0.147  1.00  0.00     0.051 A 
ATOM     10  C   UNL     1      -0.693  -0.141  -1.237  1.00  0.00     0.020 A 
ATOM     11  C   UNL     1      -0.291   1.944  -0.095  1.00  0.00     0.142 A 
BRANCH  11  12
ATOM     12  O   UNL     1      -0.786   3.114   0.410  1.00  0.00    -0.455 OA
BRANCH  12  13
ATOM     13  C   UNL     1      -0.318   4.327  -0.026  1.00  0.00     0.143 A 
ATOM     14  C   UNL     1      -0.570   5.337   0.918  1.00  0.00     0.048 A 
ATOM     15  C   UNL     1       0.302   4.659  -1.238  1.00  0.00     0.117 A 
ATOM     16  C   UNL     1      -0.159   6.649   0.698  1.00  0.00     0.007 A 
ATOM     17  C   UNL     1       0.731   5.976  -1.436  1.00  0.00     0.139 A 
ATOM     18  C   UNL     1       0.511   6.963  -0.477  1.00  0.00     0.040 A 
ATOM     19  F   UNL     1       1.331   6.339  -2.580  1.00  0.00    -0.206 F 
BRANCH  15  20
ATOM     20  C   UNL     1       0.520   3.740  -2.369  1.00  0.00     0.255 C 
ATOM     21  N   UNL     1      -0.598   3.201  -2.940  1.00  0.00    -0.365 N 
ATOM     22  O   UNL     1       1.641   3.510  -2.800  1.00  0.00    -0.269 OA
ATOM     23  H   UNL     1      -1.487   3.405  -2.570  1.00  0.00     0.159 HD
ATOM     24  H   UNL     1      -0.514   2.607  -3.721  1.00  0.00     0.159 HD
ENDBRANCH  15  20
ENDBRANCH  12  13
ENDBRANCH  11  12
ENDBRANCH   3   5
ENDBRANCH   2   3
ENDBRANCH   1   2
BRANCH   1  25
ATOM     25  C   UNL     1      -5.192   1.133  -3.439  1.00  0.00     0.275 C 
BRANCH  25  26
ATOM     26  O   UNL     1      -5.637  -0.173  -3.022  1.00  0.00    -0.458 OA
BRANCH  26  27
ATOM     27  C   UNL     1      -4.668  -0.972  -2.493  1.00  0.00     0.338 C 
ATOM     28  O   UNL     1      -3.669  -1.316  -3.100  1.00  0.00    -0.246 OA
BRANCH  27  29
ATOM     29  C   UNL     1      -4.848  -0.959  -1.011  1.00  0.00     0.060 A 
ATOM     30  C   UNL     1      -3.779  -1.332  -0.184  1.00  0.00     0.016 A 
ATOM     31  C   UNL     1      -5.932  -0.250  -0.480  1.00  0.00     0.016 A 
ATOM     32  C   UNL     1      -3.730  -0.892   1.140  1.00  0.00     0.010 A 
ATOM     33  C   UNL     1      -5.843   0.266   0.790  1.00  0.00     0.010 A 
ATOM     34  C   UNL     1      -4.751  -0.061   1.605  1.00  0.00    -0.014 A 
BRANCH  34  35
ATOM     35  C   UNL     1      -4.979   0.232   3.012  1.00  0.00     0.031 A 
ATOM     36  C   UNL     1      -4.329   1.335   3.746  1.00  0.00     0.074 A 
ATOM     37  C   UNL     1      -5.964  -0.542   3.521  1.00  0.00     0.049 A 
ATOM     38  N   UNL     1      -4.304   1.424   5.033  1.00  0.00    -0.248 NA
ATOM     39  C   UNL     1      -3.619   2.436   3.103  1.00  0.00     0.031 C 
ATOM     40  C   UNL     1      -6.696  -0.436   4.767  1.00  0.00     0.029 A 
ATOM     41  N   UNL     1      -6.357  -1.789   3.006  1.00  0.00    -0.354 N 
ATOM     42  C   UNL     1      -3.888   2.702   5.358  1.00  0.00     0.074 A 
ATOM     43  C   UNL     1      -3.366   3.251   4.135  1.00  0.00     0.031 C 
ATOM     44  C   UNL     1      -7.145  -1.667   5.085  1.00  0.00     0.029 A 
ATOM     45  C   UNL     1      -6.565  -2.597   4.115  1.00  0.00     0.049 A 
ATOM     46  H   UNL     1      -6.463  -2.037   2.059  1.00  0.00     0.167 HD
ATOM     47  C   UNL     1      -4.204   3.208   6.585  1.00  0.00     0.031 A 
ATOM     48  C   UNL     1      -5.700  -3.617   4.400  1.00  0.00     0.031 A 
ATOM     49  C   UNL     1      -4.813   2.171   7.411  1.00  0.00     0.049 A 
ATOM     50  C   UNL     1      -5.078  -3.382   5.755  1.00  0.00     0.074 A 
ATOM     51  C   UNL     1      -6.136   1.851   7.665  1.00  0.00     0.029 A 
ATOM     52  N   UNL     1      -4.056   1.060   7.771  1.00  0.00    -0.354 N 
ATOM     53  N   UNL     1      -4.781  -2.203   6.236  1.00  0.00    -0.248 NA
ATOM     54  C   UNL     1      -4.838  -4.465   6.700  1.00  0.00     0.031 C 
ATOM     55  C   UNL     1      -6.181   0.482   8.035  1.00  0.00     0.029 A 
ATOM     56  C   UNL     1      -4.886  -0.010   8.042  1.00  0.00     0.049 A 
ATOM     57  H   UNL     1      -3.074   1.041   7.824  1.00  0.00     0.167 HD
ATOM     58  C   UNL     1      -4.473  -2.340   7.564  1.00  0.00     0.074 A 
ATOM     59  C   UNL     1      -4.463  -3.777   7.791  1.00  0.00     0.031 C 
ATOM     60  C   UNL     1      -4.329  -1.294   8.429  1.00  0.00     0.031 A 
BRANCH  47  61
ATOM     61  C   UNL     1      -4.294   4.689   6.899  1.00  0.00    -0.014 A 
ATOM     62  C   UNL     1      -5.242   5.124   7.853  1.00  0.00     0.010 A 
ATOM     63  C   UNL     1      -3.557   5.702   6.257  1.00  0.00     0.010 A 
ATOM     64  C   UNL     1      -5.515   6.481   8.081  1.00  0.00     0.020 A 
ATOM     65  C   UNL     1      -3.830   7.069   6.464  1.00  0.00     0.020 A 
ATOM     66  C   UNL     1      -4.824   7.450   7.362  1.00  0.00     0.054 A 
BRANCH  66  67
ATOM     67  S   UNL     1      -5.246   9.195   7.620  1.00  0.00     0.124 S 
ATOM     68  O   UNL     1      -6.651   9.241   7.222  1.00  0.00    -0.237 OA
ATOM     69  O   UNL     1      -4.990   9.376   9.046  1.00  0.00    -0.237 OA
ATOM     70  O   UNL     1      -4.330   9.909   6.731  1.00  0.00    -0.744 OA
ENDBRANCH  66  67
ENDBRANCH  47  61
BRANCH  48  71
ATOM     71  C   UNL     1      -5.007  -4.262   3.231  1.00  0.00    -0.014 A 
ATOM     72  C   UNL     1      -5.804  -4.782   2.182  1.00  0.00     0.010 A 
ATOM     73  C   UNL     1      -3.625  -4.141   3.001  1.00  0.00     0.010 A 
ATOM     74  C   UNL     1      -5.264  -5.073   0.922  1.00  0.00     0.020 A 
ATOM     75  C   UNL     1      -3.072  -4.454   1.741  1.00  0.00     0.020 A 
ATOM     76  C   UNL     1      -3.901  -4.890   0.702  1.00  0.00     0.054 A 
BRANCH  76  77
ATOM     77  S   UNL     1      -3.272  -5.034  -1.004  1.00  0.00     0.124 S 
ATOM     78  O   UNL     1      -3.141  -6.478  -1.165  1.00  0.00    -0.237 OA
ATOM     79  O   UNL     1      -4.341  -4.407  -1.778  1.00  0.00    -0.237 OA
ATOM     80  O   UNL     1      -2.018  -4.285  -0.963  1.00  0.00    -0.744 OA
ENDBRANCH  76  77
ENDBRANCH  48  71
BRANCH  60  81
ATOM     81  C   UNL     1      -3.755  -1.405   9.813  1.00  0.00    -0.014 A 
ATOM     82  C   UNL     1      -2.817  -2.383  10.175  1.00  0.00     0.010 A 
ATOM     83  C   UNL     1      -4.032  -0.385  10.755  1.00  0.00     0.010 A 
ATOM     84  C   UNL     1      -2.235  -2.384  11.446  1.00  0.00     0.020 A 
ATOM     85  C   UNL     1      -3.419  -0.348  12.004  1.00  0.00     0.020 A 
ATOM     86  C   UNL     1      -2.542  -1.367  12.353  1.00  0.00     0.054 A 
BRANCH  86  87
ATOM     87  S   UNL     1      -1.732  -1.340  13.968  1.00  0.00     0.124 S 
ATOM     88  O   UNL     1      -2.620  -2.189  14.759  1.00  0.00    -0.237 OA
ATOM     89  O   UNL     1      -0.414  -1.904  13.684  1.00  0.00    -0.237 OA
ATOM     90  O   UNL     1      -1.732   0.076  14.326  1.00  0.00    -0.744 OA
ENDBRANCH  86  87
ENDBRANCH  60  81
ENDBRANCH  34  35
ENDBRANCH  27  29
ENDBRANCH  26  27
ENDBRANCH  25  26
ENDBRANCH   1  25
TORSDOF 17
