REMARK SMILES Cc1c(C(=O)OCCOC(=O)c2ccc(-c3c4nc(c(-c5ccc(S(=O)(=O)[O-])cc5)c5ccc([nH]5)c(-c5ccc(S(=O)(=O)[O-])cc5)c5nc(c(-c6ccc(S(=O)(=O)[O-])cc6)c6ccc3[nH]6)C=C5)C=C4)cc2)oc2c1/C(=N/NC(=O)C(c1ccccc1)c1ccccc1)CCC2
REMARK SMILES IDX 7 1 6 2 4 3 5 4 3 5 1 6 2 7 74 8 72 9 73 10 75 11 95 12
REMARK SMILES IDX 76 13 93 14 94 15 77 16 78 17 79 19 80 20 81 21 82 22 86 23
REMARK SMILES IDX 83 24 85 25 84 26 87 27 88 28 92 29 89 30 91 31 90 32 8 33
REMARK SMILES IDX 9 34 10 35 11 36 12 37 13 38 71 39 14 40 70 41 15 42 16 43
REMARK SMILES IDX 17 44 64 45 18 46 69 47 63 48 65 49 19 50 68 51 62 52 61 53
REMARK SMILES IDX 20 55 50 56 31 57 49 58 32 59 35 60 48 61 66 62 33 63 34 64
REMARK SMILES IDX 47 66 67 67 36 68 21 69 22 70 30 71 23 72 29 73 24 74 25 75
REMARK SMILES IDX 26 76 27 77 28 78 51 79 52 80 60 81 53 82 59 83 54 84 55 85
REMARK SMILES IDX 56 86 57 87 58 88 37 89 38 90 46 91 39 92 45 93 40 94 41 95
REMARK SMILES IDX 42 96 43 97 44 98
REMARK H PARENT 77 18 65 54 35 65
REMARK Flexibility Score: inf
ROOT
ATOM      1  C   UNL     1       1.787  -5.598   2.117  1.00  0.00     0.275 C 
ENDROOT
BRANCH   1   2
ATOM      2  O   UNL     1       1.571  -4.316   2.694  1.00  0.00    -0.456 OA
BRANCH   2   3
ATOM      3  C   UNL     1       1.776  -3.226   1.909  1.00  0.00     0.374 C 
ATOM      4  O   UNL     1       2.444  -3.203   0.874  1.00  0.00    -0.242 OA
BRANCH   3   5
ATOM      5  C   UNL     1       1.011  -2.151   2.460  1.00  0.00     0.215 A 
ATOM      6  C   UNL     1       1.005  -0.275   0.678  1.00  0.00     0.049 C 
ATOM      7  C   UNL     1       0.644  -0.898   1.986  1.00  0.00     0.012 A 
ATOM      8  C   UNL     1      -0.131  -0.338   3.049  1.00  0.00     0.043 A 
ATOM      9  O   UNL     1       0.473  -2.380   3.698  1.00  0.00    -0.453 OA
ATOM     10  C   UNL     1      -0.224  -1.295   4.029  1.00  0.00     0.114 A 
ATOM     11  C   UNL     1      -0.611   1.007   3.302  1.00  0.00     0.072 C 
ATOM     12  C   UNL     1      -0.812  -1.240   5.381  1.00  0.00     0.076 C 
ATOM     13  N   UNL     1      -0.377   1.762   2.257  1.00  0.00    -0.177 NA
ATOM     14  C   UNL     1      -0.949   1.173   4.841  1.00  0.00     0.059 C 
ATOM     15  C   UNL     1      -1.702  -0.006   5.462  1.00  0.00     0.014 C 
BRANCH  13  16
ATOM     16  N   UNL     1      -0.352   3.077   1.864  1.00  0.00    -0.246 N 
ATOM     17  C   UNL     1      -0.662   4.275   2.459  1.00  0.00     0.252 C 
ATOM     18  H   UNL     1      -0.038   3.187   0.938  1.00  0.00     0.193 HD
ATOM     19  O   UNL     1      -0.634   5.333   1.826  1.00  0.00    -0.272 OA
BRANCH  17  20
ATOM     20  C   UNL     1      -1.007   4.242   3.917  1.00  0.00     0.140 C 
BRANCH  20  21
ATOM     21  C   UNL     1      -2.460   3.549   4.036  1.00  0.00    -0.031 A 
ATOM     22  C   UNL     1      -3.349   3.785   5.096  1.00  0.00     0.005 A 
ATOM     23  C   UNL     1      -2.995   2.662   3.045  1.00  0.00     0.005 A 
ATOM     24  C   UNL     1      -4.551   3.035   5.235  1.00  0.00     0.000 A 
ATOM     25  C   UNL     1      -4.107   1.830   3.235  1.00  0.00     0.000 A 
ATOM     26  C   UNL     1      -4.885   2.005   4.355  1.00  0.00     0.000 A 
ENDBRANCH  20  21
BRANCH  20  27
ATOM     27  C   UNL     1       0.454   4.019   4.630  1.00  0.00    -0.031 A 
ATOM     28  C   UNL     1       1.345   2.919   4.480  1.00  0.00     0.005 A 
ATOM     29  C   UNL     1       1.158   5.154   5.075  1.00  0.00     0.005 A 
ATOM     30  C   UNL     1       2.690   2.837   4.891  1.00  0.00     0.000 A 
ATOM     31  C   UNL     1       2.550   5.132   5.400  1.00  0.00     0.000 A 
ATOM     32  C   UNL     1       3.308   3.967   5.346  1.00  0.00     0.000 A 
ENDBRANCH  20  27
ENDBRANCH  17  20
ENDBRANCH  13  16
ENDBRANCH   3   5
ENDBRANCH   2   3
ENDBRANCH   1   2
BRANCH   1  33
ATOM     33  C   UNL     1       0.592  -6.007   1.275  1.00  0.00     0.275 C 
BRANCH  33  34
ATOM     34  O   UNL     1       0.585  -5.284   0.047  1.00  0.00    -0.458 OA
BRANCH  34  35
ATOM     35  C   UNL     1      -0.308  -4.274  -0.045  1.00  0.00     0.338 C 
ATOM     36  O   UNL     1      -0.895  -3.715   0.863  1.00  0.00    -0.246 OA
BRANCH  35  37
ATOM     37  C   UNL     1      -0.634  -4.087  -1.457  1.00  0.00     0.060 A 
ATOM     38  C   UNL     1      -1.371  -2.960  -1.829  1.00  0.00     0.016 A 
ATOM     39  C   UNL     1      -0.447  -5.177  -2.321  1.00  0.00     0.016 A 
ATOM     40  C   UNL     1      -2.067  -3.005  -3.018  1.00  0.00     0.010 A 
ATOM     41  C   UNL     1      -1.145  -5.223  -3.495  1.00  0.00     0.010 A 
ATOM     42  C   UNL     1      -2.010  -4.175  -3.787  1.00  0.00    -0.014 A 
BRANCH  42  43
ATOM     43  C   UNL     1      -2.786  -4.255  -5.003  1.00  0.00     0.031 A 
ATOM     44  C   UNL     1      -2.284  -3.334  -6.047  1.00  0.00     0.074 A 
ATOM     45  C   UNL     1      -3.740  -5.188  -5.186  1.00  0.00     0.049 A 
ATOM     46  N   UNL     1      -2.871  -2.281  -6.503  1.00  0.00    -0.248 NA
ATOM     47  C   UNL     1      -0.880  -3.473  -6.478  1.00  0.00     0.031 C 
ATOM     48  C   UNL     1      -4.101  -6.317  -4.322  1.00  0.00     0.029 A 
ATOM     49  N   UNL     1      -4.523  -5.392  -6.273  1.00  0.00    -0.354 N 
ATOM     50  C   UNL     1      -2.009  -1.758  -7.457  1.00  0.00     0.074 A 
ATOM     51  C   UNL     1      -0.735  -2.394  -7.248  1.00  0.00     0.031 C 
ATOM     52  C   UNL     1      -4.818  -7.215  -5.040  1.00  0.00     0.029 A 
ATOM     53  C   UNL     1      -5.080  -6.662  -6.359  1.00  0.00     0.049 A 
ATOM     54  H   UNL     1      -4.684  -4.695  -6.949  1.00  0.00     0.167 HD
ATOM     55  C   UNL     1      -2.482  -1.050  -8.518  1.00  0.00     0.031 A 
ATOM     56  C   UNL     1      -5.636  -7.223  -7.467  1.00  0.00     0.031 A 
ATOM     57  C   UNL     1      -3.843  -0.628  -8.309  1.00  0.00     0.049 A 
ATOM     58  C   UNL     1      -5.958  -6.103  -8.395  1.00  0.00     0.074 A 
ATOM     59  C   UNL     1      -4.473   0.148  -7.355  1.00  0.00     0.029 A 
ATOM     60  N   UNL     1      -4.831  -1.382  -8.901  1.00  0.00    -0.354 N 
ATOM     61  N   UNL     1      -6.859  -5.197  -8.128  1.00  0.00    -0.248 NA
ATOM     62  C   UNL     1      -4.934  -5.698  -9.350  1.00  0.00     0.031 C 
ATOM     63  C   UNL     1      -5.696  -0.529  -7.085  1.00  0.00     0.029 A 
ATOM     64  C   UNL     1      -5.790  -1.622  -7.949  1.00  0.00     0.049 A 
ATOM     65  H   UNL     1      -4.847  -1.692  -9.835  1.00  0.00     0.167 HD
ATOM     66  C   UNL     1      -6.284  -3.995  -8.518  1.00  0.00     0.074 A 
ATOM     67  C   UNL     1      -5.126  -4.375  -9.332  1.00  0.00     0.031 C 
ATOM     68  C   UNL     1      -6.609  -2.816  -7.908  1.00  0.00     0.031 A 
BRANCH  55  69
ATOM     69  C   UNL     1      -1.863  -1.122  -9.888  1.00  0.00    -0.014 A 
ATOM     70  C   UNL     1      -2.389  -0.309 -10.910  1.00  0.00     0.010 A 
ATOM     71  C   UNL     1      -0.978  -2.151 -10.275  1.00  0.00     0.010 A 
ATOM     72  C   UNL     1      -2.094  -0.559 -12.255  1.00  0.00     0.020 A 
ATOM     73  C   UNL     1      -0.643  -2.381 -11.609  1.00  0.00     0.020 A 
ATOM     74  C   UNL     1      -1.230  -1.601 -12.595  1.00  0.00     0.054 A 
BRANCH  74  75
ATOM     75  S   UNL     1      -0.928  -1.969 -14.338  1.00  0.00     0.124 S 
ATOM     76  O   UNL     1      -2.246  -2.407 -14.786  1.00  0.00    -0.237 OA
ATOM     77  O   UNL     1      -0.480  -0.676 -14.850  1.00  0.00    -0.237 OA
ATOM     78  O   UNL     1       0.099  -3.007 -14.296  1.00  0.00    -0.744 OA
ENDBRANCH  74  75
ENDBRANCH  55  69
BRANCH  56  79
ATOM     79  C   UNL     1      -5.548  -8.640  -7.920  1.00  0.00    -0.014 A 
ATOM     80  C   UNL     1      -6.313  -9.111  -9.006  1.00  0.00     0.010 A 
ATOM     81  C   UNL     1      -4.497  -9.464  -7.466  1.00  0.00     0.010 A 
ATOM     82  C   UNL     1      -5.995 -10.322  -9.653  1.00  0.00     0.020 A 
ATOM     83  C   UNL     1      -4.178 -10.673  -8.100  1.00  0.00     0.020 A 
ATOM     84  C   UNL     1      -4.912 -11.085  -9.209  1.00  0.00     0.054 A 
BRANCH  84  85
ATOM     85  S   UNL     1      -4.380 -12.542 -10.162  1.00  0.00     0.124 S 
ATOM     86  O   UNL     1      -5.461 -13.491  -9.911  1.00  0.00    -0.237 OA
ATOM     87  O   UNL     1      -4.300 -12.021 -11.524  1.00  0.00    -0.237 OA
ATOM     88  O   UNL     1      -3.095 -12.895  -9.562  1.00  0.00    -0.744 OA
ENDBRANCH  84  85
ENDBRANCH  56  79
BRANCH  68  89
ATOM     89  C   UNL     1      -7.782  -2.786  -6.953  1.00  0.00    -0.014 A 
ATOM     90  C   UNL     1      -7.864  -3.549  -5.770  1.00  0.00     0.010 A 
ATOM     91  C   UNL     1      -8.768  -1.811  -7.185  1.00  0.00     0.010 A 
ATOM     92  C   UNL     1      -8.921  -3.359  -4.863  1.00  0.00     0.020 A 
ATOM     93  C   UNL     1      -9.810  -1.603  -6.280  1.00  0.00     0.020 A 
ATOM     94  C   UNL     1      -9.891  -2.386  -5.128  1.00  0.00     0.054 A 
BRANCH  94  95
ATOM     95  S   UNL     1     -11.245  -2.119  -3.950  1.00  0.00     0.124 S 
ATOM     96  O   UNL     1     -12.011  -3.357  -4.061  1.00  0.00    -0.237 OA
ATOM     97  O   UNL     1     -10.543  -1.926  -2.683  1.00  0.00    -0.237 OA
ATOM     98  O   UNL     1     -11.922  -0.927  -4.460  1.00  0.00    -0.744 OA
ENDBRANCH  94  95
ENDBRANCH  68  89
ENDBRANCH  42  43
ENDBRANCH  35  37
ENDBRANCH  34  35
ENDBRANCH  33  34
ENDBRANCH   1  33
TORSDOF 18
