REMARK SMILES CC1(C)C[C@@](Cc2ccccc2)(C(=O)OCCOC(=O)c2ccc(-c3c4nc(c(-c5ccc(S(=O)(=O)[O-])cc5)c5ccc([nH]5)c(-c5ccc(S(=O)(=O)[O-])cc5)c5nc(c(-c6ccc(S(=O)(=O)[O-])cc6)c6ccc3[nH]6)C=C5)C=C4)cc2)CCO1
REMARK SMILES IDX 17 1 16 2 15 3 13 4 14 5 5 6 1 7 2 8 3 9 4 10 83 11 82 12
REMARK SMILES IDX 81 13 6 14 7 15 8 16 12 17 9 18 11 19 10 20 18 21 19 22
REMARK SMILES IDX 20 23 21 24 22 25 80 26 23 27 79 28 24 29 25 30 26 31 73 32
REMARK SMILES IDX 27 33 78 34 72 35 74 36 28 37 77 38 71 39 70 40 29 42 59 43
REMARK SMILES IDX 40 44 58 45 41 46 44 47 57 48 75 49 42 50 43 51 56 53 76 54
REMARK SMILES IDX 45 55 30 56 31 57 39 58 32 59 38 60 33 61 34 62 35 63 36 64
REMARK SMILES IDX 37 65 60 66 61 67 69 68 62 69 68 70 63 71 64 72 65 73 66 74
REMARK SMILES IDX 67 75 46 76 47 77 55 78 48 79 54 80 49 81 50 82 51 83 52 84
REMARK SMILES IDX 53 85
REMARK H PARENT 74 41 44 52
REMARK Flexibility Score: inf
ROOT
ATOM      1  C   UNL     1       5.277   2.287  -2.466  1.00  0.00     0.275 C 
ENDROOT
BRANCH   1   2
ATOM      2  C   UNL     1       4.199   1.610  -3.323  1.00  0.00     0.274 C 
BRANCH   2   3
ATOM      3  O   UNL     1       2.928   2.294  -3.255  1.00  0.00    -0.462 OA
BRANCH   3   4
ATOM      4  C   UNL     1       2.135   1.889  -2.223  1.00  0.00     0.312 C 
ATOM      5  O   UNL     1       2.468   0.991  -1.462  1.00  0.00    -0.252 OA
BRANCH   4   6
ATOM      6  C   UNL     1       0.763   2.573  -2.175  1.00  0.00     0.077 C 
ATOM      7  C   UNL     1       0.569   0.204   0.319  1.00  0.00     0.042 C 
ATOM      8  C   UNL     1      -0.415   1.281  -0.173  1.00  0.00     0.064 C 
ATOM      9  C   UNL     1      -1.257   1.651   1.066  1.00  0.00     0.042 C 
ATOM     10  C   UNL     1       0.186   2.595  -0.734  1.00  0.00     0.054 C 
ATOM     11  O   UNL     1      -1.311   0.736  -1.150  1.00  0.00    -0.376 OA
ATOM     12  C   UNL     1      -0.713   0.483  -2.419  1.00  0.00     0.162 C 
ATOM     13  C   UNL     1      -0.206   1.765  -3.070  1.00  0.00     0.047 C 
BRANCH   6  14
ATOM     14  C   UNL     1       0.835   4.024  -2.759  1.00  0.00     0.054 C 
BRANCH  14  15
ATOM     15  C   UNL     1       1.657   5.075  -2.041  1.00  0.00    -0.047 A 
ATOM     16  C   UNL     1       1.144   5.760  -0.929  1.00  0.00     0.004 A 
ATOM     17  C   UNL     1       2.911   5.460  -2.537  1.00  0.00     0.004 A 
ATOM     18  C   UNL     1       1.869   6.789  -0.323  1.00  0.00     0.000 A 
ATOM     19  C   UNL     1       3.634   6.492  -1.933  1.00  0.00     0.000 A 
ATOM     20  C   UNL     1       3.114   7.156  -0.826  1.00  0.00     0.000 A 
ENDBRANCH  14  15
ENDBRANCH   6  14
ENDBRANCH   4   6
ENDBRANCH   3   4
ENDBRANCH   2   3
ENDBRANCH   1   2
BRANCH   1  21
ATOM     21  O   UNL     1       4.821   2.465  -1.116  1.00  0.00    -0.458 OA
BRANCH  21  22
ATOM     22  C   UNL     1       5.397   3.484  -0.429  1.00  0.00     0.338 C 
ATOM     23  O   UNL     1       6.332   4.165  -0.818  1.00  0.00    -0.246 OA
BRANCH  22  24
ATOM     24  C   UNL     1       4.724   3.680   0.884  1.00  0.00     0.060 A 
ATOM     25  C   UNL     1       3.414   3.256   1.104  1.00  0.00     0.016 A 
ATOM     26  C   UNL     1       5.387   4.365   1.904  1.00  0.00     0.016 A 
ATOM     27  C   UNL     1       2.738   3.580   2.285  1.00  0.00     0.010 A 
ATOM     28  C   UNL     1       4.739   4.619   3.122  1.00  0.00     0.010 A 
ATOM     29  C   UNL     1       3.396   4.255   3.319  1.00  0.00    -0.014 A 
BRANCH  29  30
ATOM     30  C   UNL     1       2.699   4.593   4.595  1.00  0.00     0.031 A 
ATOM     31  C   UNL     1       2.579   6.030   5.037  1.00  0.00     0.074 A 
ATOM     32  C   UNL     1       2.182   3.624   5.379  1.00  0.00     0.049 A 
ATOM     33  N   UNL     1       2.219   6.512   6.201  1.00  0.00    -0.248 NA
ATOM     34  C   UNL     1       2.906   7.060   4.038  1.00  0.00     0.031 C 
ATOM     35  C   UNL     1       2.146   2.196   5.058  1.00  0.00     0.029 A 
ATOM     36  N   UNL     1       1.590   3.697   6.619  1.00  0.00    -0.354 N 
ATOM     37  C   UNL     1       2.322   7.894   6.091  1.00  0.00     0.074 A 
ATOM     38  C   UNL     1       2.771   8.176   4.743  1.00  0.00     0.031 C 
ATOM     39  C   UNL     1       1.552   1.532   6.062  1.00  0.00     0.029 A 
ATOM     40  C   UNL     1       1.250   2.470   7.139  1.00  0.00     0.049 A 
ATOM     41  H   UNL     1       1.427   4.546   7.089  1.00  0.00     0.167 HD
ATOM     42  C   UNL     1       2.080   8.842   7.030  1.00  0.00     0.031 A 
ATOM     43  C   UNL     1       0.803   2.119   8.362  1.00  0.00     0.031 A 
ATOM     44  C   UNL     1       1.625   8.565   8.368  1.00  0.00     0.049 A 
ATOM     45  C   UNL     1       0.628   3.174   9.417  1.00  0.00     0.074 A 
ATOM     46  C   UNL     1       1.375   9.459   9.396  1.00  0.00     0.029 A 
ATOM     47  N   UNL     1       1.344   7.301   8.864  1.00  0.00    -0.354 N 
ATOM     48  N   UNL     1       0.805   4.470   9.323  1.00  0.00    -0.248 NA
ATOM     49  C   UNL     1       0.217   2.716  10.752  1.00  0.00     0.031 C 
ATOM     50  C   UNL     1       0.985   8.732  10.527  1.00  0.00     0.029 A 
ATOM     51  C   UNL     1       0.943   7.389  10.188  1.00  0.00     0.049 A 
ATOM     52  H   UNL     1       1.418   6.464   8.351  1.00  0.00     0.167 HD
ATOM     53  C   UNL     1       0.520   4.982  10.583  1.00  0.00     0.074 A 
ATOM     54  C   UNL     1       0.140   3.860  11.417  1.00  0.00     0.031 C 
ATOM     55  C   UNL     1       0.574   6.267  11.011  1.00  0.00     0.031 A 
BRANCH  42  56
ATOM     56  C   UNL     1       2.361  10.274   6.663  1.00  0.00    -0.014 A 
ATOM     57  C   UNL     1       1.494  11.005   5.833  1.00  0.00     0.010 A 
ATOM     58  C   UNL     1       3.497  10.912   7.197  1.00  0.00     0.010 A 
ATOM     59  C   UNL     1       1.777  12.337   5.514  1.00  0.00     0.020 A 
ATOM     60  C   UNL     1       3.773  12.248   6.897  1.00  0.00     0.020 A 
ATOM     61  C   UNL     1       2.920  12.948   6.043  1.00  0.00     0.054 A 
BRANCH  61  62
ATOM     62  S   UNL     1       3.263  14.680   5.621  1.00  0.00     0.124 S 
ATOM     63  O   UNL     1       3.754  14.562   4.250  1.00  0.00    -0.237 OA
ATOM     64  O   UNL     1       1.955  15.313   5.767  1.00  0.00    -0.237 OA
ATOM     65  O   UNL     1       4.261  15.085   6.608  1.00  0.00    -0.744 OA
ENDBRANCH  61  62
ENDBRANCH  42  56
BRANCH  43  66
ATOM     66  C   UNL     1       0.568   0.683   8.677  1.00  0.00    -0.014 A 
ATOM     67  C   UNL     1      -0.735   0.193   8.866  1.00  0.00     0.010 A 
ATOM     68  C   UNL     1       1.655  -0.207   8.769  1.00  0.00     0.010 A 
ATOM     69  C   UNL     1      -0.947  -1.162   9.143  1.00  0.00     0.020 A 
ATOM     70  C   UNL     1       1.445  -1.565   9.018  1.00  0.00     0.020 A 
ATOM     71  C   UNL     1       0.145  -2.033   9.213  1.00  0.00     0.054 A 
BRANCH  71  72
ATOM     72  S   UNL     1      -0.152  -3.799   9.503  1.00  0.00     0.124 S 
ATOM     73  O   UNL     1      -0.385  -3.834  10.944  1.00  0.00    -0.237 OA
ATOM     74  O   UNL     1      -1.319  -4.069   8.667  1.00  0.00    -0.237 OA
ATOM     75  O   UNL     1       1.086  -4.430   9.052  1.00  0.00    -0.744 OA
ENDBRANCH  71  72
ENDBRANCH  43  66
BRANCH  55  76
ATOM     76  C   UNL     1       0.188   6.534  12.441  1.00  0.00    -0.014 A 
ATOM     77  C   UNL     1       1.057   6.213  13.498  1.00  0.00     0.010 A 
ATOM     78  C   UNL     1      -1.045   7.147  12.726  1.00  0.00     0.010 A 
ATOM     79  C   UNL     1       0.687   6.475  14.820  1.00  0.00     0.020 A 
ATOM     80  C   UNL     1      -1.409   7.431  14.045  1.00  0.00     0.020 A 
ATOM     81  C   UNL     1      -0.546   7.079  15.085  1.00  0.00     0.054 A 
BRANCH  81  82
ATOM     82  S   UNL     1      -0.992   7.446  16.806  1.00  0.00     0.124 S 
ATOM     83  O   UNL     1      -1.384   6.131  17.305  1.00  0.00    -0.237 OA
ATOM     84  O   UNL     1       0.252   7.981  17.355  1.00  0.00    -0.237 OA
ATOM     85  O   UNL     1      -2.078   8.416  16.682  1.00  0.00    -0.744 OA
ENDBRANCH  81  82
ENDBRANCH  55  76
ENDBRANCH  29  30
ENDBRANCH  22  24
ENDBRANCH  21  22
ENDBRANCH   1  21
TORSDOF 16
