REMARK SMILES O=C(OCCOC(=O)c1nnn(-c2ccc(C(F)(F)F)cc2)c1-c1cccc(Cl)c1)c1ccc(-c2c3nc(c(-c4ccc(S(=O)(=O)[O-])cc4)c4ccc([nH]4)c(-c4ccc(S(=O)(=O)[O-])cc4)c4nc(c(-c5ccc(S(=O)(=O)[O-])cc5)c5ccc2[nH]5)C=C4)C=C3)cc1
REMARK SMILES IDX 4 1 3 2 2 3 1 4 31 5 32 6 90 7 33 8 89 9 34 10 35 11 36 12
REMARK SMILES IDX 83 13 37 14 88 15 82 16 84 17 38 18 87 19 81 20 80 21 39 23
REMARK SMILES IDX 69 24 50 25 68 26 51 27 54 28 67 29 85 30 52 31 53 32 66 34
REMARK SMILES IDX 86 35 55 36 40 37 41 38 49 39 42 40 48 41 43 42 44 43 45 44
REMARK SMILES IDX 46 45 47 46 70 47 71 48 79 49 72 50 78 51 73 52 74 53 75 54
REMARK SMILES IDX 76 55 77 56 56 57 57 58 65 59 58 60 64 61 59 62 60 63 61 64
REMARK SMILES IDX 62 65 63 66 5 67 6 68 7 69 8 70 9 71 10 72 23 73 11 74 12 75
REMARK SMILES IDX 24 76 25 77 30 78 26 79 28 80 27 81 29 82 13 83 14 84 22 85
REMARK SMILES IDX 15 86 21 87 16 88 17 89 18 90 19 91 20 92
REMARK H PARENT 84 22 54 33
REMARK Flexibility Score: inf
ROOT
ATOM      1  C   UNL     1       4.664   0.040  -1.398  1.00  0.00     0.275 C 
ENDROOT
BRANCH   1   2
ATOM      2  O   UNL     1       3.442  -0.700  -1.590  1.00  0.00    -0.458 OA
BRANCH   2   3
ATOM      3  C   UNL     1       2.343  -0.459  -0.843  1.00  0.00     0.338 C 
ATOM      4  O   UNL     1       1.329   0.032  -1.318  1.00  0.00    -0.246 OA
BRANCH   3   5
ATOM      5  C   UNL     1       2.357  -1.055   0.519  1.00  0.00     0.060 A 
ATOM      6  C   UNL     1       3.513  -1.536   1.152  1.00  0.00     0.016 A 
ATOM      7  C   UNL     1       1.117  -1.165   1.161  1.00  0.00     0.016 A 
ATOM      8  C   UNL     1       3.416  -2.252   2.330  1.00  0.00     0.010 A 
ATOM      9  C   UNL     1       1.016  -1.867   2.345  1.00  0.00     0.010 A 
ATOM     10  C   UNL     1       2.155  -2.480   2.865  1.00  0.00    -0.014 A 
BRANCH  10  11
ATOM     11  C   UNL     1       2.026  -3.421   3.963  1.00  0.00     0.031 A 
ATOM     12  C   UNL     1       2.542  -2.943   5.276  1.00  0.00     0.074 A 
ATOM     13  C   UNL     1       1.329  -4.559   3.758  1.00  0.00     0.049 A 
ATOM     14  N   UNL     1       3.409  -3.502   6.056  1.00  0.00    -0.248 NA
ATOM     15  C   UNL     1       2.115  -1.606   5.730  1.00  0.00     0.031 C 
ATOM     16  C   UNL     1       0.581  -4.951   2.554  1.00  0.00     0.029 A 
ATOM     17  N   UNL     1       1.003  -5.541   4.633  1.00  0.00    -0.354 N 
ATOM     18  C   UNL     1       3.478  -2.700   7.194  1.00  0.00     0.074 A 
ATOM     19  C   UNL     1       2.784  -1.479   6.875  1.00  0.00     0.031 C 
ATOM     20  C   UNL     1      -0.327  -5.897   2.881  1.00  0.00     0.029 A 
ATOM     21  C   UNL     1      -0.119  -6.279   4.266  1.00  0.00     0.049 A 
ATOM     22  H   UNL     1       1.514  -5.718   5.455  1.00  0.00     0.167 HD
ATOM     23  C   UNL     1       3.892  -3.183   8.399  1.00  0.00     0.031 A 
ATOM     24  C   UNL     1      -0.877  -7.063   5.077  1.00  0.00     0.031 A 
ATOM     25  C   UNL     1       4.618  -4.416   8.266  1.00  0.00     0.049 A 
ATOM     26  C   UNL     1      -0.051  -7.353   6.279  1.00  0.00     0.074 A 
ATOM     27  C   UNL     1       5.796  -4.781   7.648  1.00  0.00     0.029 A 
ATOM     28  N   UNL     1       3.924  -5.585   8.478  1.00  0.00    -0.354 N 
ATOM     29  N   UNL     1       1.064  -8.031   6.228  1.00  0.00    -0.248 NA
ATOM     30  C   UNL     1      -0.184  -6.459   7.421  1.00  0.00     0.031 C 
ATOM     31  C   UNL     1       5.519  -6.052   7.065  1.00  0.00     0.029 A 
ATOM     32  C   UNL     1       4.223  -6.423   7.432  1.00  0.00     0.049 A 
ATOM     33  H   UNL     1       3.327  -5.783   9.235  1.00  0.00     0.167 HD
ATOM     34  C   UNL     1       1.937  -7.350   7.066  1.00  0.00     0.074 A 
ATOM     35  C   UNL     1       1.089  -6.434   7.831  1.00  0.00     0.031 C 
ATOM     36  C   UNL     1       3.289  -7.370   6.859  1.00  0.00     0.031 A 
BRANCH  23  37
ATOM     37  C   UNL     1       3.294  -2.739   9.711  1.00  0.00    -0.014 A 
ATOM     38  C   UNL     1       3.848  -3.209  10.918  1.00  0.00     0.010 A 
ATOM     39  C   UNL     1       2.031  -2.111   9.785  1.00  0.00     0.010 A 
ATOM     40  C   UNL     1       3.142  -3.111  12.126  1.00  0.00     0.020 A 
ATOM     41  C   UNL     1       1.339  -1.973  10.989  1.00  0.00     0.020 A 
ATOM     42  C   UNL     1       1.885  -2.506  12.148  1.00  0.00     0.054 A 
BRANCH  42  43
ATOM     43  S   UNL     1       0.933  -2.490  13.688  1.00  0.00     0.124 S 
ATOM     44  O   UNL     1       0.681  -3.911  13.902  1.00  0.00    -0.237 OA
ATOM     45  O   UNL     1       1.868  -1.864  14.620  1.00  0.00    -0.237 OA
ATOM     46  O   UNL     1      -0.241  -1.686  13.357  1.00  0.00    -0.744 OA
ENDBRANCH  42  43
ENDBRANCH  23  37
BRANCH  24  47
ATOM     47  C   UNL     1      -2.363  -7.182   5.053  1.00  0.00    -0.014 A 
ATOM     48  C   UNL     1      -3.040  -8.209   5.737  1.00  0.00     0.010 A 
ATOM     49  C   UNL     1      -3.142  -6.114   4.556  1.00  0.00     0.010 A 
ATOM     50  C   UNL     1      -4.433  -8.147   5.948  1.00  0.00     0.020 A 
ATOM     51  C   UNL     1      -4.527  -6.046   4.758  1.00  0.00     0.020 A 
ATOM     52  C   UNL     1      -5.165  -7.055   5.472  1.00  0.00     0.054 A 
BRANCH  52  53
ATOM     53  S   UNL     1      -6.931  -6.898   5.884  1.00  0.00     0.124 S 
ATOM     54  O   UNL     1      -7.532  -7.975   5.103  1.00  0.00    -0.237 OA
ATOM     55  O   UNL     1      -6.938  -7.089   7.332  1.00  0.00    -0.237 OA
ATOM     56  O   UNL     1      -7.271  -5.547   5.440  1.00  0.00    -0.744 OA
ENDBRANCH  52  53
ENDBRANCH  24  47
BRANCH  36  57
ATOM     57  C   UNL     1       3.841  -8.283   5.782  1.00  0.00    -0.014 A 
ATOM     58  C   UNL     1       3.571  -8.119   4.406  1.00  0.00     0.010 A 
ATOM     59  C   UNL     1       4.813  -9.224   6.159  1.00  0.00     0.010 A 
ATOM     60  C   UNL     1       4.240  -8.891   3.441  1.00  0.00     0.020 A 
ATOM     61  C   UNL     1       5.492  -9.985   5.203  1.00  0.00     0.020 A 
ATOM     62  C   UNL     1       5.198  -9.822   3.848  1.00  0.00     0.054 A 
BRANCH  62  63
ATOM     63  S   UNL     1       6.097 -10.787   2.600  1.00  0.00     0.124 S 
ATOM     64  O   UNL     1       5.057 -11.658   2.060  1.00  0.00    -0.237 OA
ATOM     65  O   UNL     1       6.594  -9.759   1.688  1.00  0.00    -0.237 OA
ATOM     66  O   UNL     1       7.136 -11.471   3.370  1.00  0.00    -0.744 OA
ENDBRANCH  62  63
ENDBRANCH  36  57
ENDBRANCH  10  11
ENDBRANCH   3   5
ENDBRANCH   2   3
ENDBRANCH   1   2
BRANCH   1  67
ATOM     67  C   UNL     1       4.533   1.479  -0.903  1.00  0.00     0.275 C 
BRANCH  67  68
ATOM     68  O   UNL     1       4.058   1.524   0.451  1.00  0.00    -0.457 OA
BRANCH  68  69
ATOM     69  C   UNL     1       2.874   2.181   0.664  1.00  0.00     0.361 C 
ATOM     70  O   UNL     1       2.211   2.727  -0.197  1.00  0.00    -0.244 OA
BRANCH  69  71
ATOM     71  C   UNL     1       2.590   2.303   2.078  1.00  0.00     0.198 A 
ATOM     72  N   UNL     1       1.742   1.510   2.801  1.00  0.00    -0.122 NA
ATOM     73  C   UNL     1       3.178   3.232   2.909  1.00  0.00     0.109 A 
ATOM     74  N   UNL     1       1.797   1.901   4.072  1.00  0.00    -0.061 NA
ATOM     75  N   UNL     1       2.542   3.028   4.121  1.00  0.00    -0.212 N 
BRANCH  73  76
ATOM     76  C   UNL     1       4.247   4.184   2.638  1.00  0.00     0.004 A 
ATOM     77  C   UNL     1       5.421   4.168   3.403  1.00  0.00     0.010 A 
ATOM     78  C   UNL     1       4.115   5.104   1.592  1.00  0.00     0.031 A 
ATOM     79  C   UNL     1       6.441   5.082   3.143  1.00  0.00     0.002 A 
ATOM     80  C   UNL     1       5.138   6.011   1.336  1.00  0.00     0.041 A 
ATOM     81  C   UNL     1       6.297   6.008   2.110  1.00  0.00     0.020 A 
ATOM     82  Cl  UNL     1       4.965   7.147   0.057  1.00  0.00    -0.084 Cl
ENDBRANCH  73  76
BRANCH  75  83
ATOM     83  C   UNL     1       2.567   3.877   5.245  1.00  0.00     0.067 A 
ATOM     84  C   UNL     1       2.685   3.351   6.532  1.00  0.00     0.029 A 
ATOM     85  C   UNL     1       2.535   5.262   5.039  1.00  0.00     0.029 A 
ATOM     86  C   UNL     1       2.872   4.230   7.605  1.00  0.00     0.015 A 
ATOM     87  C   UNL     1       2.688   6.130   6.112  1.00  0.00     0.015 A 
ATOM     88  C   UNL     1       2.887   5.624   7.403  1.00  0.00     0.056 A 
BRANCH  88  89
ATOM     89  C   UNL     1       3.138   6.570   8.552  1.00  0.00     0.416 C 
ATOM     90  F   UNL     1       2.259   6.411   9.576  1.00  0.00    -0.166 F 
ATOM     91  F   UNL     1       4.382   6.418   9.086  1.00  0.00    -0.166 F 
ATOM     92  F   UNL     1       3.055   7.884   8.192  1.00  0.00    -0.166 F 
ENDBRANCH  88  89
ENDBRANCH  75  83
ENDBRANCH  69  71
ENDBRANCH  68  69
ENDBRANCH  67  68
ENDBRANCH   1  67
TORSDOF 17
