REMARK SMILES Cc1cccc(C[N@H+]2CC[C@@](C)(C(=O)OCCOC(=O)c3ccc(-c4c5nc(c(-c6ccc(S(=O)(=O)[O-])cc6)c6ccc([nH]6)c(-c6ccc(S(=O)(=O)[O-])cc6)c6nc(c(-c7ccc(S(=O)(=O)[O-])cc7)c7ccc4[nH]7)C=C6)C=C5)cc3)C2)n1
REMARK SMILES IDX 17 1 16 2 15 3 13 4 14 5 11 6 8 7 9 8 81 9 10 11 12 12 7 13
REMARK SMILES IDX 6 14 1 15 2 16 3 17 82 18 4 19 5 20 18 21 19 22 20 23 21 24
REMARK SMILES IDX 22 25 80 26 23 27 79 28 24 29 25 30 26 31 73 32 27 33 78 34
REMARK SMILES IDX 72 35 74 36 28 37 77 38 71 39 70 40 29 42 59 43 40 44 58 45
REMARK SMILES IDX 41 46 44 47 57 48 75 49 42 50 43 51 56 53 76 54 45 55 30 56
REMARK SMILES IDX 31 57 39 58 32 59 38 60 33 61 34 62 35 63 36 64 37 65 60 66
REMARK SMILES IDX 61 67 69 68 62 69 68 70 63 71 64 72 65 73 66 74 67 75 46 76
REMARK SMILES IDX 47 77 55 78 48 79 54 80 49 81 50 82 51 83 52 84 53 85
REMARK H PARENT 8 10 74 41 44 52
REMARK Flexibility Score: inf
ROOT
ATOM      1  C   UNL     1       3.778   0.353   2.258  1.00  0.00     0.275 C 
ENDROOT
BRANCH   1   2
ATOM      2  C   UNL     1       2.328   0.166   2.695  1.00  0.00     0.274 C 
BRANCH   2   3
ATOM      3  O   UNL     1       1.520   1.281   2.264  1.00  0.00    -0.461 OA
BRANCH   3   4
ATOM      4  C   UNL     1       1.064   2.126   3.224  1.00  0.00     0.317 C 
ATOM      5  O   UNL     1       1.333   2.006   4.416  1.00  0.00    -0.251 OA
BRANCH   4   6
ATOM      6  C   UNL     1       0.137   3.235   2.703  1.00  0.00     0.119 C 
ATOM      7  N   UNL     1      -1.549   2.894   1.034  1.00  0.00    -0.329 N 
ATOM      8  C   UNL     1      -1.969   2.198   2.243  1.00  0.00     0.263 C 
ATOM      9  C   UNL     1      -0.122   3.221   1.186  1.00  0.00     0.281 C 
ATOM     10  H   UNL     1      -2.096   3.751   0.947  1.00  0.00     0.348 HD
ATOM     11  C   UNL     1      -1.252   2.994   3.317  1.00  0.00     0.086 C 
ATOM     12  C   UNL     1       0.690   4.598   3.129  1.00  0.00     0.030 C 
BRANCH   7  13
ATOM     13  C   UNL     1      -1.883   2.223  -0.230  1.00  0.00     0.319 C 
BRANCH  13  14
ATOM     14  C   UNL     1      -1.297   0.835  -0.431  1.00  0.00     0.095 A 
ATOM     15  C   UNL     1       2.041  -0.453  -1.278  1.00  0.00     0.067 C 
ATOM     16  C   UNL     1       0.597  -0.442  -0.884  1.00  0.00     0.038 A 
ATOM     17  C   UNL     1      -0.073  -1.617  -0.568  1.00  0.00     0.023 A 
ATOM     18  N   UNL     1      -0.010   0.763  -0.854  1.00  0.00    -0.252 NA
ATOM     19  C   UNL     1      -1.406  -1.542  -0.176  1.00  0.00     0.004 A 
ATOM     20  C   UNL     1      -2.029  -0.301  -0.099  1.00  0.00     0.030 A 
ENDBRANCH  13  14
ENDBRANCH   7  13
ENDBRANCH   4   6
ENDBRANCH   3   4
ENDBRANCH   2   3
ENDBRANCH   1   2
BRANCH   1  21
ATOM     21  O   UNL     1       4.304   1.525   2.897  1.00  0.00    -0.458 OA
BRANCH  21  22
ATOM     22  C   UNL     1       4.758   2.497   2.079  1.00  0.00     0.338 C 
ATOM     23  O   UNL     1       4.902   2.443   0.865  1.00  0.00    -0.246 OA
BRANCH  22  24
ATOM     24  C   UNL     1       5.061   3.691   2.883  1.00  0.00     0.060 A 
ATOM     25  C   UNL     1       4.100   4.193   3.760  1.00  0.00     0.016 A 
ATOM     26  C   UNL     1       6.269   4.363   2.709  1.00  0.00     0.016 A 
ATOM     27  C   UNL     1       4.304   5.411   4.400  1.00  0.00     0.010 A 
ATOM     28  C   UNL     1       6.517   5.529   3.440  1.00  0.00     0.010 A 
ATOM     29  C   UNL     1       5.527   6.081   4.274  1.00  0.00    -0.014 A 
BRANCH  29  30
ATOM     30  C   UNL     1       5.768   7.360   4.998  1.00  0.00     0.031 A 
ATOM     31  C   UNL     1       6.136   8.603   4.231  1.00  0.00     0.074 A 
ATOM     32  C   UNL     1       5.659   7.411   6.342  1.00  0.00     0.049 A 
ATOM     33  N   UNL     1       6.592   9.744   4.679  1.00  0.00    -0.248 NA
ATOM     34  C   UNL     1       5.989   8.550   2.766  1.00  0.00     0.031 C 
ATOM     35  C   UNL     1       5.260   6.298   7.209  1.00  0.00     0.029 A 
ATOM     36  N   UNL     1       5.866   8.448   7.218  1.00  0.00    -0.354 N 
ATOM     37  C   UNL     1       6.847  10.520   3.553  1.00  0.00     0.074 A 
ATOM     38  C   UNL     1       6.488   9.722   2.400  1.00  0.00     0.031 C 
ATOM     39  C   UNL     1       5.205   6.724   8.480  1.00  0.00     0.029 A 
ATOM     40  C   UNL     1       5.659   8.108   8.534  1.00  0.00     0.049 A 
ATOM     41  H   UNL     1       6.137   9.350   6.931  1.00  0.00     0.167 HD
ATOM     42  C   UNL     1       7.343  11.779   3.489  1.00  0.00     0.031 A 
ATOM     43  C   UNL     1       5.854   8.811   9.666  1.00  0.00     0.031 A 
ATOM     44  C   UNL     1       7.655  12.580   4.643  1.00  0.00     0.049 A 
ATOM     45  C   UNL     1       6.418  10.199   9.570  1.00  0.00     0.074 A 
ATOM     46  C   UNL     1       8.181  13.860   4.689  1.00  0.00     0.029 A 
ATOM     47  N   UNL     1       7.444  12.188   5.956  1.00  0.00    -0.354 N 
ATOM     48  N   UNL     1       6.742  10.883   8.499  1.00  0.00    -0.248 NA
ATOM     49  C   UNL     1       6.665  10.902  10.836  1.00  0.00     0.031 C 
ATOM     50  C   UNL     1       8.310  14.232   6.032  1.00  0.00     0.029 A 
ATOM     51  C   UNL     1       7.826  13.200   6.819  1.00  0.00     0.049 A 
ATOM     52  H   UNL     1       7.077  11.318   6.233  1.00  0.00     0.167 HD
ATOM     53  C   UNL     1       7.228  12.098   8.961  1.00  0.00     0.074 A 
ATOM     54  C   UNL     1       7.132  12.067  10.407  1.00  0.00     0.031 C 
ATOM     55  C   UNL     1       7.720  13.145   8.254  1.00  0.00     0.031 A 
BRANCH  42  56
ATOM     56  C   UNL     1       7.620  12.353   2.125  1.00  0.00    -0.014 A 
ATOM     57  C   UNL     1       6.580  12.795   1.289  1.00  0.00     0.010 A 
ATOM     58  C   UNL     1       8.951  12.488   1.690  1.00  0.00     0.010 A 
ATOM     59  C   UNL     1       6.865  13.333   0.030  1.00  0.00     0.020 A 
ATOM     60  C   UNL     1       9.242  13.046   0.442  1.00  0.00     0.020 A 
ATOM     61  C   UNL     1       8.194  13.450  -0.388  1.00  0.00     0.054 A 
BRANCH  61  62
ATOM     62  S   UNL     1       8.542  14.175  -2.015  1.00  0.00     0.124 S 
ATOM     63  O   UNL     1       8.204  13.074  -2.913  1.00  0.00    -0.237 OA
ATOM     64  O   UNL     1       7.637  15.321  -2.059  1.00  0.00    -0.237 OA
ATOM     65  O   UNL     1       9.962  14.511  -1.948  1.00  0.00    -0.744 OA
ENDBRANCH  61  62
ENDBRANCH  42  56
BRANCH  43  66
ATOM     66  C   UNL     1       5.569   8.189  10.988  1.00  0.00    -0.014 A 
ATOM     67  C   UNL     1       4.485   8.628  11.767  1.00  0.00     0.010 A 
ATOM     68  C   UNL     1       6.374   7.138  11.467  1.00  0.00     0.010 A 
ATOM     69  C   UNL     1       4.218   8.037  13.006  1.00  0.00     0.020 A 
ATOM     70  C   UNL     1       6.093   6.526  12.691  1.00  0.00     0.020 A 
ATOM     71  C   UNL     1       5.023   6.988  13.459  1.00  0.00     0.054 A 
BRANCH  71  72
ATOM     72  S   UNL     1       4.629   6.189  15.040  1.00  0.00     0.124 S 
ATOM     73  O   UNL     1       5.209   7.120  16.002  1.00  0.00    -0.237 OA
ATOM     74  O   UNL     1       3.169   6.131  15.016  1.00  0.00    -0.237 OA
ATOM     75  O   UNL     1       5.295   4.892  14.940  1.00  0.00    -0.744 OA
ENDBRANCH  71  72
ENDBRANCH  43  66
BRANCH  55  76
ATOM     76  C   UNL     1       8.163  14.347   9.038  1.00  0.00    -0.014 A 
ATOM     77  C   UNL     1       9.382  14.345   9.738  1.00  0.00     0.010 A 
ATOM     78  C   UNL     1       7.363  15.503   9.045  1.00  0.00     0.010 A 
ATOM     79  C   UNL     1       9.779  15.472  10.460  1.00  0.00     0.020 A 
ATOM     80  C   UNL     1       7.767  16.638   9.751  1.00  0.00     0.020 A 
ATOM     81  C   UNL     1       8.966  16.610  10.466  1.00  0.00     0.054 A 
BRANCH  81  82
ATOM     82  S   UNL     1       9.515  18.075  11.385  1.00  0.00     0.124 S 
ATOM     83  O   UNL     1       9.194  17.707  12.761  1.00  0.00    -0.237 OA
ATOM     84  O   UNL     1      10.940  18.141  11.067  1.00  0.00    -0.237 OA
ATOM     85  O   UNL     1       8.708  19.156  10.823  1.00  0.00    -0.744 OA
ENDBRANCH  81  82
ENDBRANCH  55  76
ENDBRANCH  29  30
ENDBRANCH  22  24
ENDBRANCH  21  22
ENDBRANCH   1  21
TORSDOF 16
