REMARK SMILES O=C(CC[C@@H]1CN(c2ccncc2)CC[C@@H]1[NH+]1CCOCC1)OCCOC(=O)c1ccc(-c2c3nc(c(-c4ccc(S(=O)(=O)[O-])cc4)c4ccc([nH]4)c(-c4ccc(S(=O)(=O)[O-])cc4)c4nc(c(-c5ccc(S(=O)(=O)[O-])cc5)c5ccc2[nH]5)C=C4)C=C3)cc1
REMARK SMILES IDX 24 1 23 2 2 3 1 4 3 5 4 6 5 7 6 8 16 9 7 10 15 11 14 12
REMARK SMILES IDX 17 13 18 14 22 15 19 17 21 18 20 19 8 20 9 21 13 22 10 23
REMARK SMILES IDX 12 24 11 25 25 26 26 27 27 28 28 29 29 30 30 31 88 32 31 33
REMARK SMILES IDX 87 34 32 35 33 36 34 37 81 38 35 39 86 40 80 41 82 42 36 43
REMARK SMILES IDX 85 44 79 45 78 46 37 48 67 49 48 50 66 51 49 52 52 53 65 54
REMARK SMILES IDX 83 55 50 56 51 57 64 59 84 60 53 61 38 62 39 63 47 64 40 65
REMARK SMILES IDX 46 66 41 67 42 68 43 69 44 70 45 71 68 72 69 73 77 74 70 75
REMARK SMILES IDX 76 76 71 77 72 78 73 79 74 80 75 81 54 82 55 83 63 84 56 85
REMARK SMILES IDX 62 86 57 87 58 88 59 89 60 90 61 91
REMARK H PARENT 17 16 82 47 52 58
REMARK Flexibility Score: inf
ROOT
ATOM      1  C   UNL     1       2.193  -0.799  -0.174  1.00  0.00     0.274 C 
ENDROOT
BRANCH   1   2
ATOM      2  O   UNL     1       3.004  -1.967  -0.386  1.00  0.00    -0.462 OA
BRANCH   2   3
ATOM      3  C   UNL     1       4.264  -1.814  -0.871  1.00  0.00     0.305 C 
ATOM      4  O   UNL     1       4.625  -2.399  -1.887  1.00  0.00    -0.252 OA
BRANCH   3   5
ATOM      5  C   UNL     1       5.225  -1.013  -0.009  1.00  0.00     0.123 C 
BRANCH   5   6
ATOM      6  C   UNL     1       6.028   0.022  -0.794  1.00  0.00     0.023 C 
BRANCH   6   7
ATOM      7  C   UNL     1       5.171   1.210  -1.265  1.00  0.00     0.067 C 
ATOM      8  C   UNL     1       5.866   1.985  -2.386  1.00  0.00     0.126 C 
ATOM      9  C   UNL     1       4.609   2.142  -0.129  1.00  0.00     0.190 C 
ATOM     10  N   UNL     1       4.930   2.994  -2.874  1.00  0.00    -0.371 N 
ATOM     11  C   UNL     1       3.776   3.272  -0.762  1.00  0.00     0.087 C 
ATOM     12  C   UNL     1       4.458   3.986  -1.925  1.00  0.00     0.122 C 
BRANCH   9  13
ATOM     13  N   UNL     1       5.549   2.482   0.953  1.00  0.00    -0.328 N 
ATOM     14  C   UNL     1       4.925   2.652   2.287  1.00  0.00     0.291 C 
ATOM     15  C   UNL     1       6.547   3.539   0.750  1.00  0.00     0.291 C 
ATOM     16  H   UNL     1       6.090   1.618   0.914  1.00  0.00     0.348 HD
ATOM     17  C   UNL     1       4.496   4.088   2.634  1.00  0.00     0.221 C 
ATOM     18  C   UNL     1       6.091   4.958   1.138  1.00  0.00     0.221 C 
ATOM     19  O   UNL     1       5.576   5.011   2.472  1.00  0.00    -0.370 OA
ENDBRANCH   9  13
BRANCH  10  20
ATOM     20  C   UNL     1       4.751   3.176  -4.229  1.00  0.00     0.040 A 
ATOM     21  C   UNL     1       5.020   4.394  -4.849  1.00  0.00     0.046 A 
ATOM     22  C   UNL     1       4.255   2.141  -5.024  1.00  0.00     0.046 A 
ATOM     23  C   UNL     1       4.779   4.529  -6.207  1.00  0.00     0.113 A 
ATOM     24  C   UNL     1       4.024   2.374  -6.371  1.00  0.00     0.113 A 
ATOM     25  N   UNL     1       4.272   3.550  -6.984  1.00  0.00    -0.265 NA
ENDBRANCH  10  20
ENDBRANCH   6   7
ENDBRANCH   5   6
ENDBRANCH   3   5
ENDBRANCH   2   3
ENDBRANCH   1   2
BRANCH   1  26
ATOM     26  C   UNL     1       1.726  -0.640   1.276  1.00  0.00     0.275 C 
BRANCH  26  27
ATOM     27  O   UNL     1       2.814  -0.784   2.197  1.00  0.00    -0.458 OA
BRANCH  27  28
ATOM     28  C   UNL     1       3.044  -2.070   2.579  1.00  0.00     0.338 C 
ATOM     29  O   UNL     1       2.330  -3.029   2.359  1.00  0.00    -0.246 OA
BRANCH  28  30
ATOM     30  C   UNL     1       4.404  -2.180   3.152  1.00  0.00     0.060 A 
ATOM     31  C   UNL     1       5.159  -3.312   2.820  1.00  0.00     0.016 A 
ATOM     32  C   UNL     1       4.935  -1.197   3.992  1.00  0.00     0.016 A 
ATOM     33  C   UNL     1       6.431  -3.490   3.365  1.00  0.00     0.010 A 
ATOM     34  C   UNL     1       6.204  -1.380   4.545  1.00  0.00     0.010 A 
ATOM     35  C   UNL     1       6.941  -2.544   4.262  1.00  0.00    -0.014 A 
BRANCH  35  36
ATOM     36  C   UNL     1       8.147  -2.856   5.064  1.00  0.00     0.031 A 
ATOM     37  C   UNL     1       7.956  -3.445   6.434  1.00  0.00     0.074 A 
ATOM     38  C   UNL     1       9.383  -2.597   4.606  1.00  0.00     0.049 A 
ATOM     39  N   UNL     1       8.849  -3.739   7.341  1.00  0.00    -0.248 NA
ATOM     40  C   UNL     1       6.568  -3.730   6.833  1.00  0.00     0.031 C 
ATOM     41  C   UNL     1       9.701  -2.049   3.289  1.00  0.00     0.029 A 
ATOM     42  N   UNL     1      10.603  -2.743   5.218  1.00  0.00    -0.354 N 
ATOM     43  C   UNL     1       8.132  -4.233   8.424  1.00  0.00     0.074 A 
ATOM     44  C   UNL     1       6.731  -4.175   8.069  1.00  0.00     0.031 C 
ATOM     45  C   UNL     1      11.032  -1.878   3.203  1.00  0.00     0.029 A 
ATOM     46  C   UNL     1      11.653  -2.277   4.466  1.00  0.00     0.049 A 
ATOM     47  H   UNL     1      10.714  -3.143   6.111  1.00  0.00     0.167 HD
ATOM     48  C   UNL     1       8.596  -4.690   9.611  1.00  0.00     0.031 A 
ATOM     49  C   UNL     1      12.961  -2.159   4.772  1.00  0.00     0.031 A 
ATOM     50  C   UNL     1       9.985  -4.717   9.977  1.00  0.00     0.049 A 
ATOM     51  C   UNL     1      13.457  -2.620   6.118  1.00  0.00     0.074 A 
ATOM     52  C   UNL     1      10.557  -5.183  11.147  1.00  0.00     0.029 A 
ATOM     53  N   UNL     1      11.018  -4.237   9.187  1.00  0.00    -0.354 N 
ATOM     54  N   UNL     1      12.775  -3.136   7.113  1.00  0.00    -0.248 NA
ATOM     55  C   UNL     1      14.898  -2.491   6.379  1.00  0.00     0.031 C 
ATOM     56  C   UNL     1      11.932  -4.932  11.087  1.00  0.00     0.029 A 
ATOM     57  C   UNL     1      12.223  -4.366   9.856  1.00  0.00     0.049 A 
ATOM     58  H   UNL     1      10.911  -3.861   8.283  1.00  0.00     0.167 HD
ATOM     59  C   UNL     1      13.707  -3.417   8.108  1.00  0.00     0.074 A 
ATOM     60  C   UNL     1      15.001  -3.017   7.594  1.00  0.00     0.031 C 
ATOM     61  C   UNL     1      13.507  -3.965   9.333  1.00  0.00     0.031 A 
BRANCH  48  62
ATOM     62  C   UNL     1       7.570  -5.141  10.613  1.00  0.00    -0.014 A 
ATOM     63  C   UNL     1       6.831  -6.324  10.422  1.00  0.00     0.010 A 
ATOM     64  C   UNL     1       7.321  -4.353  11.751  1.00  0.00     0.010 A 
ATOM     65  C   UNL     1       5.817  -6.674  11.317  1.00  0.00     0.020 A 
ATOM     66  C   UNL     1       6.327  -4.715  12.663  1.00  0.00     0.020 A 
ATOM     67  C   UNL     1       5.562  -5.859  12.424  1.00  0.00     0.054 A 
BRANCH  67  68
ATOM     68  S   UNL     1       4.216  -6.312  13.551  1.00  0.00     0.124 S 
ATOM     69  O   UNL     1       3.037  -5.924  12.780  1.00  0.00    -0.237 OA
ATOM     70  O   UNL     1       4.409  -7.750  13.722  1.00  0.00    -0.237 OA
ATOM     71  O   UNL     1       4.475  -5.506  14.742  1.00  0.00    -0.744 OA
ENDBRANCH  67  68
ENDBRANCH  48  62
BRANCH  49  72
ATOM     72  C   UNL     1      13.888  -1.553   3.778  1.00  0.00    -0.014 A 
ATOM     73  C   UNL     1      14.800  -2.348   3.065  1.00  0.00     0.010 A 
ATOM     74  C   UNL     1      13.822  -0.173   3.508  1.00  0.00     0.010 A 
ATOM     75  C   UNL     1      15.626  -1.774   2.092  1.00  0.00     0.020 A 
ATOM     76  C   UNL     1      14.630   0.399   2.522  1.00  0.00     0.020 A 
ATOM     77  C   UNL     1      15.529  -0.406   1.821  1.00  0.00     0.054 A 
BRANCH  77  78
ATOM     78  S   UNL     1      16.540   0.298   0.488  1.00  0.00     0.124 S 
ATOM     79  O   UNL     1      17.864   0.339   1.099  1.00  0.00    -0.237 OA
ATOM     80  O   UNL     1      16.368  -0.676  -0.587  1.00  0.00    -0.237 OA
ATOM     81  O   UNL     1      15.922   1.599   0.242  1.00  0.00    -0.744 OA
ENDBRANCH  77  78
ENDBRANCH  49  72
BRANCH  61  82
ATOM     82  C   UNL     1      14.710  -4.205  10.207  1.00  0.00    -0.014 A 
ATOM     83  C   UNL     1      15.349  -3.147  10.876  1.00  0.00     0.010 A 
ATOM     84  C   UNL     1      15.136  -5.525  10.444  1.00  0.00     0.010 A 
ATOM     85  C   UNL     1      16.398  -3.406  11.763  1.00  0.00     0.020 A 
ATOM     86  C   UNL     1      16.169  -5.789  11.347  1.00  0.00     0.020 A 
ATOM     87  C   UNL     1      16.798  -4.726  11.998  1.00  0.00     0.054 A 
BRANCH  87  88
ATOM     88  S   UNL     1      18.106  -5.043  13.216  1.00  0.00     0.124 S 
ATOM     89  O   UNL     1      19.303  -4.621  12.495  1.00  0.00    -0.237 OA
ATOM     90  O   UNL     1      17.714  -4.191  14.336  1.00  0.00    -0.237 OA
ATOM     91  O   UNL     1      18.003  -6.478  13.469  1.00  0.00    -0.744 OA
ENDBRANCH  87  88
ENDBRANCH  61  82
ENDBRANCH  35  36
ENDBRANCH  28  30
ENDBRANCH  27  28
ENDBRANCH  26  27
ENDBRANCH   1  26
TORSDOF 18
