REMARK SMILES COc1cc(/C=C/C(=O)OCCOC(=O)c2ccc(-c3c4nc(c(-c5ccc(S(=O)(=O)[O-])cc5)c5ccc([nH]5)c(-c5ccc(S(=O)(=O)[O-])cc5)c5nc(c(-c6ccc(S(=O)(=O)[O-])cc6)c6ccc3[nH]6)C=C5)C=C4)cc2)cc(OC)c1O
REMARK SMILES IDX 12 1 11 2 10 3 8 4 9 5 7 6 6 7 5 8 3 9 4 10 80 11 77 12
REMARK SMILES IDX 76 13 2 14 1 15 81 16 78 18 79 19 13 20 14 21 15 22 16 23
REMARK SMILES IDX 17 24 75 25 18 26 74 27 19 28 20 29 21 30 68 31 22 32 73 33
REMARK SMILES IDX 67 34 69 35 23 36 72 37 66 38 65 39 24 41 54 42 35 43 53 44
REMARK SMILES IDX 36 45 39 46 52 47 70 48 37 49 38 50 51 52 71 53 40 54 25 55
REMARK SMILES IDX 26 56 34 57 27 58 33 59 28 60 29 61 30 62 31 63 32 64 55 65
REMARK SMILES IDX 56 66 64 67 57 68 63 69 58 70 59 71 60 72 61 73 62 74 41 75
REMARK SMILES IDX 42 76 50 77 43 78 49 79 44 80 45 81 46 82 47 83 48 84
REMARK H PARENT 81 17 69 40 39 51
REMARK Flexibility Score: inf
ROOT
ATOM      1  C   UNL     1       0.195  -6.708   7.973  1.00  0.00     0.275 C 
ENDROOT
BRANCH   1   2
ATOM      2  C   UNL     1      -0.649  -7.293   6.835  1.00  0.00     0.275 C 
BRANCH   2   3
ATOM      3  O   UNL     1      -0.365  -6.653   5.577  1.00  0.00    -0.459 OA
BRANCH   3   4
ATOM      4  C   UNL     1      -1.273  -5.732   5.173  1.00  0.00     0.330 C 
ATOM      5  O   UNL     1      -2.321  -5.460   5.741  1.00  0.00    -0.247 OA
BRANCH   4   6
ATOM      6  C   UNL     1      -0.858  -5.006   3.956  1.00  0.00     0.094 C 
ATOM      7  C   UNL     1       0.284  -5.193   3.276  1.00  0.00     0.016 C 
BRANCH   7   8
ATOM      8  C   UNL     1       0.659  -4.356   2.126  1.00  0.00    -0.018 A 
ATOM      9  C   UNL     1       0.967  -2.159   1.099  1.00  0.00     0.165 A 
ATOM     10  C   UNL     1       0.545  -2.962   2.168  1.00  0.00     0.058 A 
ATOM     11  C   UNL     1       1.540  -2.764  -0.029  1.00  0.00     0.200 A 
ATOM     12  C   UNL     1       1.650  -4.163  -0.101  1.00  0.00     0.165 A 
ATOM     13  C   UNL     1       1.218  -4.941   0.987  1.00  0.00     0.058 A 
BRANCH   9  14
ATOM     14  O   UNL     1       0.829  -0.819   1.347  1.00  0.00    -0.493 OA
ATOM     15  C   UNL     1       0.647   0.068   0.252  1.00  0.00     0.278 C 
ENDBRANCH   9  14
BRANCH  11  16
ATOM     16  O   UNL     1       2.079  -1.988  -1.018  1.00  0.00    -0.502 OA
ATOM     17  H   UNL     1       2.008  -1.055  -0.973  1.00  0.00     0.293 HD
ENDBRANCH  11  16
BRANCH  12  18
ATOM     18  O   UNL     1       2.195  -4.923  -1.105  1.00  0.00    -0.493 OA
ATOM     19  C   UNL     1       2.589  -4.279  -2.307  1.00  0.00     0.278 C 
ENDBRANCH  12  18
ENDBRANCH   7   8
ENDBRANCH   4   6
ENDBRANCH   3   4
ENDBRANCH   2   3
ENDBRANCH   1   2
BRANCH   1  20
ATOM     20  O   UNL     1      -0.137  -5.335   8.246  1.00  0.00    -0.458 OA
BRANCH  20  21
ATOM     21  C   UNL     1       0.594  -4.424   7.558  1.00  0.00     0.338 C 
ATOM     22  O   UNL     1       1.498  -4.653   6.773  1.00  0.00    -0.246 OA
BRANCH  21  23
ATOM     23  C   UNL     1       0.066  -3.068   7.797  1.00  0.00     0.060 A 
ATOM     24  C   UNL     1      -0.238  -2.282   6.682  1.00  0.00     0.016 A 
ATOM     25  C   UNL     1      -0.066  -2.546   9.087  1.00  0.00     0.016 A 
ATOM     26  C   UNL     1      -0.673  -0.968   6.851  1.00  0.00     0.010 A 
ATOM     27  C   UNL     1      -0.501  -1.226   9.255  1.00  0.00     0.010 A 
ATOM     28  C   UNL     1      -0.797  -0.425   8.139  1.00  0.00    -0.014 A 
BRANCH  28  29
ATOM     29  C   UNL     1      -1.216   0.989   8.299  1.00  0.00     0.031 A 
ATOM     30  C   UNL     1      -0.201   2.048   8.627  1.00  0.00     0.074 A 
ATOM     31  C   UNL     1      -2.507   1.326   8.119  1.00  0.00     0.049 A 
ATOM     32  N   UNL     1      -0.374   3.336   8.784  1.00  0.00    -0.248 NA
ATOM     33  C   UNL     1       1.191   1.602   8.798  1.00  0.00     0.031 C 
ATOM     34  C   UNL     1      -3.582   0.394   7.776  1.00  0.00     0.029 A 
ATOM     35  N   UNL     1      -3.131   2.546   8.193  1.00  0.00    -0.354 N 
ATOM     36  C   UNL     1       0.881   3.855   9.077  1.00  0.00     0.074 A 
ATOM     37  C   UNL     1       1.803   2.739   9.101  1.00  0.00     0.031 C 
ATOM     38  C   UNL     1      -4.732   1.078   7.660  1.00  0.00     0.029 A 
ATOM     39  C   UNL     1      -4.483   2.488   7.950  1.00  0.00     0.049 A 
ATOM     40  H   UNL     1      -2.656   3.383   8.400  1.00  0.00     0.167 HD
ATOM     41  C   UNL     1       1.234   5.144   9.301  1.00  0.00     0.031 A 
ATOM     42  C   UNL     1      -5.419   3.457   7.971  1.00  0.00     0.031 A 
ATOM     43  C   UNL     1       0.315   6.253   9.290  1.00  0.00     0.049 A 
ATOM     44  C   UNL     1      -5.010   4.873   8.274  1.00  0.00     0.074 A 
ATOM     45  C   UNL     1       0.584   7.596   9.488  1.00  0.00     0.029 A 
ATOM     46  N   UNL     1      -1.052   6.148   9.077  1.00  0.00    -0.354 N 
ATOM     47  N   UNL     1      -3.813   5.350   8.518  1.00  0.00    -0.248 NA
ATOM     48  C   UNL     1      -6.078   5.882   8.297  1.00  0.00     0.031 C 
ATOM     49  C   UNL     1      -0.626   8.298   9.442  1.00  0.00     0.029 A 
ATOM     50  C   UNL     1      -1.642   7.398   9.164  1.00  0.00     0.049 A 
ATOM     51  H   UNL     1      -1.531   5.308   8.892  1.00  0.00     0.167 HD
ATOM     52  C   UNL     1      -3.981   6.717   8.706  1.00  0.00     0.074 A 
ATOM     53  C   UNL     1      -5.393   6.993   8.531  1.00  0.00     0.031 C 
ATOM     54  C   UNL     1      -3.050   7.659   8.995  1.00  0.00     0.031 A 
BRANCH  41  55
ATOM     55  C   UNL     1       2.681   5.424   9.608  1.00  0.00    -0.014 A 
ATOM     56  C   UNL     1       3.663   5.362   8.603  1.00  0.00     0.010 A 
ATOM     57  C   UNL     1       3.058   5.792  10.913  1.00  0.00     0.010 A 
ATOM     58  C   UNL     1       5.002   5.625   8.906  1.00  0.00     0.020 A 
ATOM     59  C   UNL     1       4.393   6.078  11.214  1.00  0.00     0.020 A 
ATOM     60  C   UNL     1       5.359   5.975  10.212  1.00  0.00     0.054 A 
BRANCH  60  61
ATOM     61  S   UNL     1       7.102   6.324  10.576  1.00  0.00     0.124 S 
ATOM     62  O   UNL     1       7.682   4.984  10.582  1.00  0.00    -0.237 OA
ATOM     63  O   UNL     1       7.501   7.175   9.457  1.00  0.00    -0.237 OA
ATOM     64  O   UNL     1       7.059   6.990  11.876  1.00  0.00    -0.744 OA
ENDBRANCH  60  61
ENDBRANCH  41  55
BRANCH  42  65
ATOM     65  C   UNL     1      -6.842   3.115   7.705  1.00  0.00    -0.014 A 
ATOM     66  C   UNL     1      -7.465   3.510   6.510  1.00  0.00     0.010 A 
ATOM     67  C   UNL     1      -7.577   2.374   8.649  1.00  0.00     0.010 A 
ATOM     68  C   UNL     1      -8.802   3.181   6.267  1.00  0.00     0.020 A 
ATOM     69  C   UNL     1      -8.905   2.021   8.399  1.00  0.00     0.020 A 
ATOM     70  C   UNL     1      -9.513   2.437   7.213  1.00  0.00     0.054 A 
BRANCH  70  71
ATOM     71  S   UNL     1     -11.229   1.969   6.853  1.00  0.00     0.124 S 
ATOM     72  O   UNL     1     -11.941   3.220   7.096  1.00  0.00    -0.237 OA
ATOM     73  O   UNL     1     -11.157   1.542   5.458  1.00  0.00    -0.237 OA
ATOM     74  O   UNL     1     -11.498   0.898   7.811  1.00  0.00    -0.744 OA
ENDBRANCH  70  71
ENDBRANCH  42  65
BRANCH  54  75
ATOM     75  C   UNL     1      -3.521   9.083   9.120  1.00  0.00    -0.014 A 
ATOM     76  C   UNL     1      -4.246   9.514  10.245  1.00  0.00     0.010 A 
ATOM     77  C   UNL     1      -3.193  10.015   8.117  1.00  0.00     0.010 A 
ATOM     78  C   UNL     1      -4.659  10.845  10.353  1.00  0.00     0.020 A 
ATOM     79  C   UNL     1      -3.585  11.351   8.233  1.00  0.00     0.020 A 
ATOM     80  C   UNL     1      -4.328  11.755   9.344  1.00  0.00     0.054 A 
BRANCH  80  81
ATOM     81  S   UNL     1      -4.840  13.486   9.523  1.00  0.00     0.124 S 
ATOM     82  O   UNL     1      -6.261  13.418   9.197  1.00  0.00    -0.237 OA
ATOM     83  O   UNL     1      -4.529  13.772  10.922  1.00  0.00    -0.237 OA
ATOM     84  O   UNL     1      -4.010  14.194   8.551  1.00  0.00    -0.744 OA
ENDBRANCH  80  81
ENDBRANCH  54  75
ENDBRANCH  28  29
ENDBRANCH  21  23
ENDBRANCH  20  21
ENDBRANCH   1  20
TORSDOF 18
