REMARK SMILES CC[C@@H]1SC[C@H](C(=O)OCCOC(=O)c2ccc(-c3c4nc(c(-c5ccc(S(=O)(=O)[O-])cc5)c5ccc([nH]5)c(-c5ccc(S(=O)(=O)[O-])cc5)c5nc(c(-c6ccc(S(=O)(=O)[O-])cc6)c6ccc3[nH]6)C=C5)C=C4)cc2)N1C(=O)c1ccc(C)cc1F
REMARK SMILES IDX 11 1 10 2 9 3 7 4 8 5 6 6 3 7 4 8 75 9 5 10 2 11 1 12 76 13
REMARK SMILES IDX 77 14 78 15 79 16 84 17 80 18 83 19 85 20 81 21 82 22 12 23
REMARK SMILES IDX 13 24 14 25 15 26 16 27 74 28 17 29 73 30 18 31 19 32 20 33
REMARK SMILES IDX 67 34 21 35 72 36 66 37 68 38 22 39 71 40 65 41 64 42 23 44
REMARK SMILES IDX 53 45 34 46 52 47 35 48 38 49 51 50 69 51 36 52 37 53 50 55
REMARK SMILES IDX 70 56 39 57 24 58 25 59 33 60 26 61 32 62 27 63 28 64 29 65
REMARK SMILES IDX 30 66 31 67 54 68 55 69 63 70 56 71 62 72 57 73 58 74 59 75
REMARK SMILES IDX 60 76 61 77 40 78 41 79 49 80 42 81 48 82 43 83 44 84 45 85
REMARK SMILES IDX 46 86 47 87
REMARK H PARENT 68 43 38 54
REMARK Flexibility Score: inf
ROOT
ATOM      1  C   UNL     1      -0.664   0.567  -8.099  1.00  0.00     0.275 C 
ENDROOT
BRANCH   1   2
ATOM      2  C   UNL     1      -1.899   0.500  -7.203  1.00  0.00     0.274 C 
BRANCH   2   3
ATOM      3  O   UNL     1      -1.628   1.010  -5.883  1.00  0.00    -0.461 OA
BRANCH   3   4
ATOM      4  C   UNL     1      -1.180   0.102  -4.968  1.00  0.00     0.329 C 
ATOM      5  O   UNL     1      -1.035  -1.092  -5.202  1.00  0.00    -0.250 OA
BRANCH   4   6
ATOM      6  C   UNL     1      -0.950   0.753  -3.593  1.00  0.00     0.206 C 
ATOM      7  C   UNL     1       0.783   0.700  -1.820  1.00  0.00     0.144 C 
ATOM      8  S   UNL     1      -0.335  -0.676  -1.407  1.00  0.00    -0.134 SA
ATOM      9  N   UNL     1       0.454   1.075  -3.207  1.00  0.00    -0.312 N 
ATOM     10  C   UNL     1      -1.607  -0.174  -2.564  1.00  0.00     0.109 C 
BRANCH   7  11
ATOM     11  C   UNL     1       2.219   0.319  -1.433  1.00  0.00     0.033 C 
ATOM     12  C   UNL     1       2.422  -0.038   0.040  1.00  0.00     0.007 C 
ENDBRANCH   7  11
BRANCH   9  13
ATOM     13  C   UNL     1       1.016   2.163  -3.905  1.00  0.00     0.258 C 
ATOM     14  O   UNL     1       0.351   2.807  -4.720  1.00  0.00    -0.269 OA
BRANCH  13  15
ATOM     15  C   UNL     1       2.400   2.635  -3.691  1.00  0.00     0.075 A 
ATOM     16  C   UNL     1       2.642   3.992  -3.445  1.00  0.00     0.017 A 
ATOM     17  C   UNL     1       3.490   1.790  -3.844  1.00  0.00     0.136 A 
ATOM     18  C   UNL     1       3.954   4.454  -3.255  1.00  0.00     0.004 A 
ATOM     19  C   UNL     1       4.791   2.233  -3.626  1.00  0.00     0.043 A 
ATOM     20  F   UNL     1       3.312   0.500  -4.122  1.00  0.00    -0.206 F 
ATOM     21  C   UNL     1       5.038   3.567  -3.310  1.00  0.00    -0.048 A 
ATOM     22  C   UNL     1       6.446   4.033  -3.073  1.00  0.00     0.044 C 
ENDBRANCH  13  15
ENDBRANCH   9  13
ENDBRANCH   4   6
ENDBRANCH   3   4
ENDBRANCH   2   3
ENDBRANCH   1   2
BRANCH   1  23
ATOM     23  O   UNL     1       0.349  -0.317  -7.592  1.00  0.00    -0.458 OA
BRANCH  23  24
ATOM     24  C   UNL     1       1.580   0.218  -7.457  1.00  0.00     0.338 C 
ATOM     25  O   UNL     1       1.944   1.332  -7.814  1.00  0.00    -0.246 OA
BRANCH  24  26
ATOM     26  C   UNL     1       2.500  -0.762  -6.853  1.00  0.00     0.060 A 
ATOM     27  C   UNL     1       2.179  -1.418  -5.664  1.00  0.00     0.016 A 
ATOM     28  C   UNL     1       3.769  -0.917  -7.413  1.00  0.00     0.016 A 
ATOM     29  C   UNL     1       3.156  -2.141  -4.982  1.00  0.00     0.010 A 
ATOM     30  C   UNL     1       4.722  -1.709  -6.768  1.00  0.00     0.010 A 
ATOM     31  C   UNL     1       4.444  -2.282  -5.517  1.00  0.00    -0.014 A 
BRANCH  31  32
ATOM     32  C   UNL     1       5.506  -2.984  -4.750  1.00  0.00     0.031 A 
ATOM     33  C   UNL     1       6.750  -2.254  -4.308  1.00  0.00     0.074 A 
ATOM     34  C   UNL     1       5.343  -4.280  -4.422  1.00  0.00     0.049 A 
ATOM     35  N   UNL     1       7.796  -2.713  -3.667  1.00  0.00    -0.248 NA
ATOM     36  C   UNL     1       6.823  -0.816  -4.606  1.00  0.00     0.031 C 
ATOM     37  C   UNL     1       4.164  -5.091  -4.731  1.00  0.00     0.029 A 
ATOM     38  N   UNL     1       6.181  -5.145  -3.765  1.00  0.00    -0.354 N 
ATOM     39  C   UNL     1       8.632  -1.620  -3.464  1.00  0.00     0.074 A 
ATOM     40  C   UNL     1       7.991  -0.477  -4.075  1.00  0.00     0.031 C 
ATOM     41  C   UNL     1       4.354  -6.335  -4.268  1.00  0.00     0.029 A 
ATOM     42  C   UNL     1       5.697  -6.429  -3.706  1.00  0.00     0.049 A 
ATOM     43  H   UNL     1       7.043  -4.873  -3.376  1.00  0.00     0.167 HD
ATOM     44  C   UNL     1       9.827  -1.570  -2.829  1.00  0.00     0.031 A 
ATOM     45  C   UNL     1       6.286  -7.572  -3.308  1.00  0.00     0.031 A 
ATOM     46  C   UNL     1      10.501  -2.719  -2.290  1.00  0.00     0.049 A 
ATOM     47  C   UNL     1       7.699  -7.532  -2.811  1.00  0.00     0.074 A 
ATOM     48  C   UNL     1      11.725  -2.780  -1.645  1.00  0.00     0.029 A 
ATOM     49  N   UNL     1      10.025  -4.018  -2.367  1.00  0.00    -0.354 N 
ATOM     50  N   UNL     1       8.471  -6.490  -2.614  1.00  0.00    -0.248 NA
ATOM     51  C   UNL     1       8.329  -8.821  -2.502  1.00  0.00     0.031 C 
ATOM     52  C   UNL     1      12.020  -4.126  -1.397  1.00  0.00     0.029 A 
ATOM     53  C   UNL     1      10.955  -4.896  -1.839  1.00  0.00     0.049 A 
ATOM     54  H   UNL     1       9.153  -4.279  -2.743  1.00  0.00     0.167 HD
ATOM     55  C   UNL     1       9.678  -6.997  -2.151  1.00  0.00     0.074 A 
ATOM     56  C   UNL     1       9.530  -8.438  -2.087  1.00  0.00     0.031 C 
ATOM     57  C   UNL     1      10.805  -6.328  -1.806  1.00  0.00     0.031 A 
BRANCH  44  58
ATOM     58  C   UNL     1      10.505  -0.232  -2.724  1.00  0.00    -0.014 A 
ATOM     59  C   UNL     1      10.090   0.714  -1.769  1.00  0.00     0.010 A 
ATOM     60  C   UNL     1      11.599   0.067  -3.555  1.00  0.00     0.010 A 
ATOM     61  C   UNL     1      10.744   1.945  -1.665  1.00  0.00     0.020 A 
ATOM     62  C   UNL     1      12.264   1.292  -3.445  1.00  0.00     0.020 A 
ATOM     63  C   UNL     1      11.824   2.228  -2.507  1.00  0.00     0.054 A 
BRANCH  63  64
ATOM     64  S   UNL     1      12.658   3.831  -2.341  1.00  0.00     0.124 S 
ATOM     65  O   UNL     1      11.655   4.747  -2.879  1.00  0.00    -0.237 OA
ATOM     66  O   UNL     1      12.886   3.926  -0.902  1.00  0.00    -0.237 OA
ATOM     67  O   UNL     1      13.864   3.682  -3.152  1.00  0.00    -0.744 OA
ENDBRANCH  63  64
ENDBRANCH  44  58
BRANCH  45  68
ATOM     68  C   UNL     1       5.554  -8.855  -3.474  1.00  0.00    -0.014 A 
ATOM     69  C   UNL     1       5.055  -9.552  -2.363  1.00  0.00     0.010 A 
ATOM     70  C   UNL     1       5.299  -9.348  -4.768  1.00  0.00     0.010 A 
ATOM     71  C   UNL     1       4.302 -10.716  -2.545  1.00  0.00     0.020 A 
ATOM     72  C   UNL     1       4.526 -10.495  -4.954  1.00  0.00     0.020 A 
ATOM     73  C   UNL     1       4.036 -11.176  -3.839  1.00  0.00     0.054 A 
BRANCH  73  74
ATOM     74  S   UNL     1       2.978 -12.632  -4.062  1.00  0.00     0.124 S 
ATOM     75  O   UNL     1       3.911 -13.726  -3.812  1.00  0.00    -0.237 OA
ATOM     76  O   UNL     1       1.945 -12.437  -3.048  1.00  0.00    -0.237 OA
ATOM     77  O   UNL     1       2.514 -12.506  -5.442  1.00  0.00    -0.744 OA
ENDBRANCH  73  74
ENDBRANCH  45  68
BRANCH  57  78
ATOM     78  C   UNL     1      11.968  -7.147  -1.325  1.00  0.00    -0.014 A 
ATOM     79  C   UNL     1      12.762  -7.872  -2.230  1.00  0.00     0.010 A 
ATOM     80  C   UNL     1      12.294  -7.159   0.043  1.00  0.00     0.010 A 
ATOM     81  C   UNL     1      13.851  -8.617  -1.771  1.00  0.00     0.020 A 
ATOM     82  C   UNL     1      13.395  -7.885   0.502  1.00  0.00     0.020 A 
ATOM     83  C   UNL     1      14.158  -8.621  -0.407  1.00  0.00     0.054 A 
BRANCH  83  84
ATOM     84  S   UNL     1      15.600  -9.560   0.165  1.00  0.00     0.124 S 
ATOM     85  O   UNL     1      15.086 -10.927   0.176  1.00  0.00    -0.237 OA
ATOM     86  O   UNL     1      16.601  -9.274  -0.861  1.00  0.00    -0.237 OA
ATOM     87  O   UNL     1      15.884  -8.989   1.479  1.00  0.00    -0.744 OA
ENDBRANCH  83  84
ENDBRANCH  57  78
ENDBRANCH  31  32
ENDBRANCH  24  26
ENDBRANCH  23  24
ENDBRANCH   1  23
TORSDOF 17
