REMARK SMILES O=C(OCCOC(=O)c1cncc(Oc2cc(F)ccc2F)n1)c1ccc(-c2c3nc(c(-c4ccc(S(=O)(=O)[O-])cc4)c4ccc([nH]4)c(-c4ccc(S(=O)(=O)[O-])cc4)c4nc(c(-c5ccc(S(=O)(=O)[O-])cc5)c5ccc2[nH]5)C=C4)C=C3)cc1
REMARK SMILES IDX 4 1 3 2 2 3 1 4 24 5 25 6 83 7 26 8 82 9 27 10 28 11 29 12
REMARK SMILES IDX 76 13 30 14 81 15 75 16 77 17 31 18 80 19 74 20 73 21 32 23
REMARK SMILES IDX 62 24 43 25 61 26 44 27 47 28 60 29 78 30 45 31 46 32 59 34
REMARK SMILES IDX 79 35 48 36 33 37 34 38 42 39 35 40 41 41 36 42 37 43 38 44
REMARK SMILES IDX 39 45 40 46 63 47 64 48 72 49 65 50 71 51 66 52 67 53 68 54
REMARK SMILES IDX 69 55 70 56 49 57 50 58 58 59 51 60 57 61 52 62 53 63 54 64
REMARK SMILES IDX 55 65 56 66 5 67 6 68 7 69 8 70 9 71 10 72 23 73 11 74 13 75
REMARK SMILES IDX 12 76 14 77 15 78 16 79 21 80 17 81 20 82 22 83 18 84 19 85
REMARK H PARENT 77 22 47 33
REMARK Flexibility Score: inf
ROOT
ATOM      1  C   UNL     1       4.133   0.135  -1.697  1.00  0.00     0.275 C 
ENDROOT
BRANCH   1   2
ATOM      2  O   UNL     1       3.260  -0.803  -1.048  1.00  0.00    -0.458 OA
BRANCH   2   3
ATOM      3  C   UNL     1       3.224  -1.184   0.249  1.00  0.00     0.338 C 
ATOM      4  O   UNL     1       2.531  -2.147   0.572  1.00  0.00    -0.246 OA
BRANCH   3   5
ATOM      5  C   UNL     1       3.889  -0.412   1.342  1.00  0.00     0.060 A 
ATOM      6  C   UNL     1       5.175   0.128   1.303  1.00  0.00     0.016 A 
ATOM      7  C   UNL     1       3.164  -0.299   2.537  1.00  0.00     0.016 A 
ATOM      8  C   UNL     1       5.700   0.806   2.412  1.00  0.00     0.010 A 
ATOM      9  C   UNL     1       3.680   0.377   3.647  1.00  0.00     0.010 A 
ATOM     10  C   UNL     1       4.965   0.920   3.597  1.00  0.00    -0.014 A 
BRANCH  10  11
ATOM     11  C   UNL     1       5.607   1.463   4.818  1.00  0.00     0.031 A 
ATOM     12  C   UNL     1       6.085   0.502   5.872  1.00  0.00     0.074 A 
ATOM     13  C   UNL     1       5.796   2.787   4.968  1.00  0.00     0.049 A 
ATOM     14  N   UNL     1       6.801   0.739   6.940  1.00  0.00    -0.248 NA
ATOM     15  C   UNL     1       5.711  -0.912   5.700  1.00  0.00     0.031 C 
ATOM     16  C   UNL     1       5.365   3.812   4.019  1.00  0.00     0.029 A 
ATOM     17  N   UNL     1       6.407   3.498   5.970  1.00  0.00    -0.354 N 
ATOM     18  C   UNL     1       6.988  -0.497   7.547  1.00  0.00     0.074 A 
ATOM     19  C   UNL     1       6.250  -1.469   6.773  1.00  0.00     0.031 C 
ATOM     20  C   UNL     1       5.727   5.022   4.481  1.00  0.00     0.029 A 
ATOM     21  C   UNL     1       6.424   4.857   5.753  1.00  0.00     0.049 A 
ATOM     22  H   UNL     1       6.797   3.075   6.769  1.00  0.00     0.167 HD
ATOM     23  C   UNL     1       7.736  -0.803   8.634  1.00  0.00     0.031 A 
ATOM     24  C   UNL     1       6.961   5.851   6.487  1.00  0.00     0.031 A 
ATOM     25  C   UNL     1       8.441   0.172   9.417  1.00  0.00     0.049 A 
ATOM     26  C   UNL     1       7.736   5.496   7.729  1.00  0.00     0.074 A 
ATOM     27  C   UNL     1       9.248  -0.024  10.523  1.00  0.00     0.029 A 
ATOM     28  N   UNL     1       8.406   1.540   9.182  1.00  0.00    -0.354 N 
ATOM     29  N   UNL     1       7.984   4.310   8.233  1.00  0.00    -0.248 NA
ATOM     30  C   UNL     1       8.331   6.609   8.481  1.00  0.00     0.031 C 
ATOM     31  C   UNL     1       9.665   1.230  10.983  1.00  0.00     0.029 A 
ATOM     32  C   UNL     1       9.158   2.203  10.134  1.00  0.00     0.049 A 
ATOM     33  H   UNL     1       7.919   1.973   8.445  1.00  0.00     0.167 HD
ATOM     34  C   UNL     1       8.801   4.531   9.337  1.00  0.00     0.074 A 
ATOM     35  C   UNL     1       9.003   5.964   9.425  1.00  0.00     0.031 C 
ATOM     36  C   UNL     1       9.346   3.631  10.194  1.00  0.00     0.031 A 
BRANCH  23  37
ATOM     37  C   UNL     1       7.803  -2.255   9.024  1.00  0.00    -0.014 A 
ATOM     38  C   UNL     1       8.501  -3.183   8.227  1.00  0.00     0.010 A 
ATOM     39  C   UNL     1       7.135  -2.708  10.175  1.00  0.00     0.010 A 
ATOM     40  C   UNL     1       8.475  -4.545   8.537  1.00  0.00     0.020 A 
ATOM     41  C   UNL     1       7.128  -4.067  10.503  1.00  0.00     0.020 A 
ATOM     42  C   UNL     1       7.776  -4.980   9.667  1.00  0.00     0.054 A 
BRANCH  42  43
ATOM     43  S   UNL     1       7.730  -6.756  10.031  1.00  0.00     0.124 S 
ATOM     44  O   UNL     1       6.781  -7.243   9.034  1.00  0.00    -0.237 OA
ATOM     45  O   UNL     1       9.118  -7.163   9.827  1.00  0.00    -0.237 OA
ATOM     46  O   UNL     1       7.266  -6.813  11.415  1.00  0.00    -0.744 OA
ENDBRANCH  42  43
ENDBRANCH  23  37
BRANCH  24  47
ATOM     47  C   UNL     1       6.834   7.267   6.040  1.00  0.00    -0.014 A 
ATOM     48  C   UNL     1       7.950   7.964   5.544  1.00  0.00     0.010 A 
ATOM     49  C   UNL     1       5.593   7.926   6.103  1.00  0.00     0.010 A 
ATOM     50  C   UNL     1       7.832   9.297   5.137  1.00  0.00     0.020 A 
ATOM     51  C   UNL     1       5.465   9.252   5.676  1.00  0.00     0.020 A 
ATOM     52  C   UNL     1       6.589   9.933   5.205  1.00  0.00     0.054 A 
BRANCH  52  53
ATOM     53  S   UNL     1       6.452  11.649   4.627  1.00  0.00     0.124 S 
ATOM     54  O   UNL     1       7.139  12.383   5.685  1.00  0.00    -0.237 OA
ATOM     55  O   UNL     1       7.140  11.603   3.339  1.00  0.00    -0.237 OA
ATOM     56  O   UNL     1       5.010  11.869   4.547  1.00  0.00    -0.744 OA
ENDBRANCH  52  53
ENDBRANCH  24  47
BRANCH  36  57
ATOM     57  C   UNL     1      10.247   4.167  11.272  1.00  0.00    -0.014 A 
ATOM     58  C   UNL     1       9.726   4.847  12.386  1.00  0.00     0.010 A 
ATOM     59  C   UNL     1      11.632   3.932  11.192  1.00  0.00     0.010 A 
ATOM     60  C   UNL     1      10.581   5.311  13.389  1.00  0.00     0.020 A 
ATOM     61  C   UNL     1      12.486   4.372  12.205  1.00  0.00     0.020 A 
ATOM     62  C   UNL     1      11.956   5.072  13.290  1.00  0.00     0.054 A 
BRANCH  62  63
ATOM     63  S   UNL     1      13.042   5.642  14.626  1.00  0.00     0.124 S 
ATOM     64  O   UNL     1      13.142   7.072  14.346  1.00  0.00    -0.237 OA
ATOM     65  O   UNL     1      12.290   5.287  15.827  1.00  0.00    -0.237 OA
ATOM     66  O   UNL     1      14.271   4.878  14.421  1.00  0.00    -0.744 OA
ENDBRANCH  62  63
ENDBRANCH  36  57
ENDBRANCH  10  11
ENDBRANCH   3   5
ENDBRANCH   2   3
ENDBRANCH   1   2
BRANCH   1  67
ATOM     67  C   UNL     1       3.628   1.576  -1.703  1.00  0.00     0.275 C 
BRANCH  67  68
ATOM     68  O   UNL     1       3.230   2.049  -0.408  1.00  0.00    -0.457 OA
BRANCH  68  69
ATOM     69  C   UNL     1       1.891   2.007  -0.146  1.00  0.00     0.358 C 
ATOM     70  O   UNL     1       1.023   1.598  -0.898  1.00  0.00    -0.244 OA
BRANCH  69  71
ATOM     71  C   UNL     1       1.654   2.526   1.222  1.00  0.00     0.170 A 
ATOM     72  C   UNL     1       2.265   3.710   1.611  1.00  0.00     0.147 A 
ATOM     73  N   UNL     1       0.860   1.793   2.058  1.00  0.00    -0.203 NA
ATOM     74  N   UNL     1       2.130   4.217   2.858  1.00  0.00    -0.257 NA
ATOM     75  C   UNL     1       0.755   2.289   3.317  1.00  0.00     0.238 A 
ATOM     76  C   UNL     1       1.379   3.471   3.705  1.00  0.00     0.179 A 
BRANCH  75  77
ATOM     77  O   UNL     1       0.113   1.582   4.330  1.00  0.00    -0.434 OA
BRANCH  77  78
ATOM     78  C   UNL     1      -0.567   0.445   3.975  1.00  0.00     0.168 A 
ATOM     79  C   UNL     1      -0.010  -0.800   4.265  1.00  0.00     0.089 A 
ATOM     80  C   UNL     1      -1.865   0.523   3.473  1.00  0.00     0.166 A 
ATOM     81  C   UNL     1      -0.732  -1.953   3.974  1.00  0.00     0.127 A 
ATOM     82  C   UNL     1      -2.595  -0.635   3.208  1.00  0.00     0.046 A 
ATOM     83  F   UNL     1      -2.445   1.716   3.282  1.00  0.00    -0.203 F 
ATOM     84  F   UNL     1      -0.189  -3.152   4.224  1.00  0.00    -0.207 F 
ATOM     85  C   UNL     1      -2.019  -1.883   3.448  1.00  0.00     0.042 A 
ENDBRANCH  77  78
ENDBRANCH  75  77
ENDBRANCH  69  71
ENDBRANCH  68  69
ENDBRANCH  67  68
ENDBRANCH   1  67
TORSDOF 16
