REMARK SMILES Nc1nccc(N2CCC[C@@](Cc3ccc(F)cc3F)(C(=O)OCCOC(=O)c3ccc(-c4c5nc(c(-c6ccc(S(=O)(=O)[O-])cc6)c6ccc([nH]6)c(-c6ccc(S(=O)(=O)[O-])cc6)c6nc(c(-c7ccc(S(=O)(=O)[O-])cc7)c7ccc4[nH]7)C=C6)C=C5)cc3)C2)n1
REMARK SMILES IDX 25 1 24 2 23 3 21 4 22 5 11 6 7 7 8 8 89 9 9 10 10 11 6 12
REMARK SMILES IDX 2 13 3 14 90 15 4 16 5 17 1 18 12 21 13 22 14 23 19 24 15 25
REMARK SMILES IDX 18 26 20 27 16 28 17 29 26 30 27 31 28 32 29 33 30 34 88 35
REMARK SMILES IDX 31 36 87 37 32 38 33 39 34 40 81 41 35 42 86 43 80 44 82 45
REMARK SMILES IDX 36 46 85 47 79 48 78 49 37 51 67 52 48 53 66 54 49 55 52 56
REMARK SMILES IDX 65 57 83 58 50 59 51 60 64 62 84 63 53 64 38 65 39 66 47 67
REMARK SMILES IDX 40 68 46 69 41 70 42 71 43 72 44 73 45 74 68 75 69 76 77 77
REMARK SMILES IDX 70 78 76 79 71 80 72 81 73 82 74 83 75 84 54 85 55 86 63 87
REMARK SMILES IDX 56 88 62 89 57 90 58 91 59 92 60 93 61 94
REMARK H PARENT 1 19 1 20 82 50 52 61
REMARK Flexibility Score: inf
ROOT
ATOM      1  C   UNL     1       2.153  -7.461  -4.000  1.00  0.00     0.275 C 
ENDROOT
BRANCH   1   2
ATOM      2  C   UNL     1       3.172  -6.360  -4.270  1.00  0.00     0.274 C 
BRANCH   2   3
ATOM      3  O   UNL     1       3.424  -5.587  -3.077  1.00  0.00    -0.462 OA
BRANCH   3   4
ATOM      4  C   UNL     1       2.830  -4.362  -3.026  1.00  0.00     0.314 C 
ATOM      5  O   UNL     1       2.082  -3.930  -3.896  1.00  0.00    -0.252 OA
BRANCH   4   6
ATOM      6  C   UNL     1       3.288  -3.523  -1.835  1.00  0.00     0.090 C 
ATOM      7  N   UNL     1       2.383  -1.995  -0.143  1.00  0.00    -0.355 N 
ATOM      8  C   UNL     1       2.848  -2.742   1.022  1.00  0.00     0.118 C 
ATOM      9  C   UNL     1       2.024  -2.812  -1.300  1.00  0.00     0.137 C 
ATOM     10  C   UNL     1       4.075  -3.567   0.620  1.00  0.00     0.023 C 
ATOM     11  C   UNL     1       3.862  -4.371  -0.672  1.00  0.00     0.023 C 
BRANCH   7  12
ATOM     12  C   UNL     1       1.488  -0.956   0.125  1.00  0.00     0.134 A 
ATOM     13  C   UNL     1      -0.637  -0.101   0.183  1.00  0.00     0.221 A 
ATOM     14  N   UNL     1      -0.213   1.137   0.458  1.00  0.00    -0.222 NA
ATOM     15  N   UNL     1       0.164  -1.157  -0.002  1.00  0.00    -0.196 NA
ATOM     16  C   UNL     1       1.112   1.305   0.571  1.00  0.00     0.119 A 
ATOM     17  C   UNL     1       2.013   0.283   0.430  1.00  0.00     0.067 A 
BRANCH  13  18
ATOM     18  N   UNL     1      -1.983  -0.281   0.085  1.00  0.00    -0.368 N 
ATOM     19  H   UNL     1      -2.593   0.480   0.217  1.00  0.00     0.159 HD
ATOM     20  H   UNL     1      -2.347  -1.173  -0.119  1.00  0.00     0.159 HD
ENDBRANCH  13  18
ENDBRANCH   7  12
BRANCH   6  21
ATOM     21  C   UNL     1       4.268  -2.444  -2.380  1.00  0.00     0.059 C 
BRANCH  21  22
ATOM     22  C   UNL     1       5.548  -2.955  -3.000  1.00  0.00    -0.011 A 
ATOM     23  C   UNL     1       5.568  -3.429  -4.322  1.00  0.00     0.010 A 
ATOM     24  C   UNL     1       6.745  -2.954  -2.274  1.00  0.00     0.129 A 
ATOM     25  C   UNL     1       6.749  -3.924  -4.875  1.00  0.00     0.040 A 
ATOM     26  C   UNL     1       7.928  -3.432  -2.822  1.00  0.00     0.078 A 
ATOM     27  F   UNL     1       6.769  -2.477  -1.022  1.00  0.00    -0.207 F 
ATOM     28  C   UNL     1       7.916  -3.922  -4.119  1.00  0.00     0.126 A 
ATOM     29  F   UNL     1       9.048  -4.395  -4.655  1.00  0.00    -0.207 F 
ENDBRANCH  21  22
ENDBRANCH   6  21
ENDBRANCH   4   6
ENDBRANCH   3   4
ENDBRANCH   2   3
ENDBRANCH   1   2
BRANCH   1  30
ATOM     30  O   UNL     1       0.922  -6.865  -3.565  1.00  0.00    -0.458 OA
BRANCH  30  31
ATOM     31  C   UNL     1       0.372  -7.401  -2.451  1.00  0.00     0.338 C 
ATOM     32  O   UNL     1       0.753  -8.387  -1.845  1.00  0.00    -0.246 OA
BRANCH  31  33
ATOM     33  C   UNL     1      -0.784  -6.586  -2.026  1.00  0.00     0.060 A 
ATOM     34  C   UNL     1      -0.689  -5.197  -1.991  1.00  0.00     0.016 A 
ATOM     35  C   UNL     1      -1.929  -7.215  -1.543  1.00  0.00     0.016 A 
ATOM     36  C   UNL     1      -1.677  -4.439  -1.364  1.00  0.00     0.010 A 
ATOM     37  C   UNL     1      -2.974  -6.443  -1.024  1.00  0.00     0.010 A 
ATOM     38  C   UNL     1      -2.843  -5.049  -0.883  1.00  0.00    -0.014 A 
BRANCH  38  39
ATOM     39  C   UNL     1      -3.899  -4.256  -0.187  1.00  0.00     0.031 A 
ATOM     40  C   UNL     1      -4.342  -4.649   1.202  1.00  0.00     0.074 A 
ATOM     41  C   UNL     1      -4.471  -3.187  -0.777  1.00  0.00     0.049 A 
ATOM     42  N   UNL     1      -5.392  -4.257   1.878  1.00  0.00    -0.248 NA
ATOM     43  C   UNL     1      -3.506  -5.630   1.914  1.00  0.00     0.031 C 
ATOM     44  C   UNL     1      -4.118  -2.643  -2.090  1.00  0.00     0.029 A 
ATOM     45  N   UNL     1      -5.472  -2.355  -0.336  1.00  0.00    -0.354 N 
ATOM     46  C   UNL     1      -5.390  -5.005   3.051  1.00  0.00     0.074 A 
ATOM     47  C   UNL     1      -4.225  -5.862   3.003  1.00  0.00     0.031 C 
ATOM     48  C   UNL     1      -4.850  -1.542  -2.324  1.00  0.00     0.029 A 
ATOM     49  C   UNL     1      -5.795  -1.359  -1.228  1.00  0.00     0.049 A 
ATOM     50  H   UNL     1      -5.915  -2.461   0.536  1.00  0.00     0.167 HD
ATOM     51  C   UNL     1      -6.285  -4.989   4.069  1.00  0.00     0.031 A 
ATOM     52  C   UNL     1      -6.770  -0.430  -1.199  1.00  0.00     0.031 A 
ATOM     53  C   UNL     1      -7.402  -4.087   4.151  1.00  0.00     0.049 A 
ATOM     54  C   UNL     1      -7.751  -0.427  -0.063  1.00  0.00     0.074 A 
ATOM     55  C   UNL     1      -8.356  -3.984   5.149  1.00  0.00     0.029 A 
ATOM     56  N   UNL     1      -7.699  -3.112   3.212  1.00  0.00    -0.354 N 
ATOM     57  N   UNL     1      -7.791  -1.206   0.991  1.00  0.00    -0.248 NA
ATOM     58  C   UNL     1      -8.837   0.560  -0.129  1.00  0.00     0.031 C 
ATOM     59  C   UNL     1      -9.247  -2.962   4.800  1.00  0.00     0.029 A 
ATOM     60  C   UNL     1      -8.825  -2.406   3.603  1.00  0.00     0.049 A 
ATOM     61  H   UNL     1      -7.186  -2.946   2.389  1.00  0.00     0.167 HD
ATOM     62  C   UNL     1      -8.908  -0.805   1.713  1.00  0.00     0.074 A 
ATOM     63  C   UNL     1      -9.502   0.301   0.989  1.00  0.00     0.031 C 
ATOM     64  C   UNL     1      -9.405  -1.314   2.867  1.00  0.00     0.031 A 
BRANCH  51  65
ATOM     65  C   UNL     1      -6.120  -6.023   5.151  1.00  0.00    -0.014 A 
ATOM     66  C   UNL     1      -5.123  -5.913   6.134  1.00  0.00     0.010 A 
ATOM     67  C   UNL     1      -7.003  -7.119   5.188  1.00  0.00     0.010 A 
ATOM     68  C   UNL     1      -4.982  -6.906   7.110  1.00  0.00     0.020 A 
ATOM     69  C   UNL     1      -6.880  -8.101   6.174  1.00  0.00     0.020 A 
ATOM     70  C   UNL     1      -5.855  -7.999   7.117  1.00  0.00     0.054 A 
BRANCH  70  71
ATOM     71  S   UNL     1      -5.660  -9.275   8.392  1.00  0.00     0.124 S 
ATOM     72  O   UNL     1      -4.544 -10.057   7.864  1.00  0.00    -0.237 OA
ATOM     73  O   UNL     1      -5.367  -8.495   9.591  1.00  0.00    -0.237 OA
ATOM     74  O   UNL     1      -6.952  -9.957   8.398  1.00  0.00    -0.744 OA
ENDBRANCH  70  71
ENDBRANCH  51  65
BRANCH  52  75
ATOM     75  C   UNL     1      -6.895   0.543  -2.317  1.00  0.00    -0.014 A 
ATOM     76  C   UNL     1      -6.538   1.889  -2.128  1.00  0.00     0.010 A 
ATOM     77  C   UNL     1      -7.338   0.122  -3.584  1.00  0.00     0.010 A 
ATOM     78  C   UNL     1      -6.620   2.798  -3.188  1.00  0.00     0.020 A 
ATOM     79  C   UNL     1      -7.397   1.022  -4.651  1.00  0.00     0.020 A 
ATOM     80  C   UNL     1      -7.045   2.357  -4.444  1.00  0.00     0.054 A 
BRANCH  80  81
ATOM     81  S   UNL     1      -7.066   3.527  -5.832  1.00  0.00     0.124 S 
ATOM     82  O   UNL     1      -8.331   4.224  -5.620  1.00  0.00    -0.237 OA
ATOM     83  O   UNL     1      -5.861   4.319  -5.604  1.00  0.00    -0.237 OA
ATOM     84  O   UNL     1      -7.016   2.658  -7.006  1.00  0.00    -0.744 OA
ENDBRANCH  80  81
ENDBRANCH  52  75
BRANCH  64  85
ATOM     85  C   UNL     1     -10.642  -0.667   3.421  1.00  0.00    -0.014 A 
ATOM     86  C   UNL     1     -11.905  -0.935   2.867  1.00  0.00     0.010 A 
ATOM     87  C   UNL     1     -10.541   0.196   4.527  1.00  0.00     0.010 A 
ATOM     88  C   UNL     1     -13.048  -0.326   3.392  1.00  0.00     0.020 A 
ATOM     89  C   UNL     1     -11.684   0.793   5.065  1.00  0.00     0.020 A 
ATOM     90  C   UNL     1     -12.929   0.540   4.484  1.00  0.00     0.054 A 
BRANCH  90  91
ATOM     91  S   UNL     1     -14.426   1.300   5.171  1.00  0.00     0.124 S 
ATOM     92  O   UNL     1     -14.669   2.392   4.233  1.00  0.00    -0.237 OA
ATOM     93  O   UNL     1     -15.395   0.207   5.127  1.00  0.00    -0.237 OA
ATOM     94  O   UNL     1     -14.020   1.708   6.514  1.00  0.00    -0.744 OA
ENDBRANCH  90  91
ENDBRANCH  64  85
ENDBRANCH  38  39
ENDBRANCH  31  33
ENDBRANCH  30  31
ENDBRANCH   1  30
TORSDOF 18
