REMARK SMILES CC(=O)n1cc2c3c(cccc31)C(=O)C[C@@H]2C(=O)OCCOC(=O)c1ccc(-c2c3nc(c(-c4ccc(S(=O)(=O)[O-])cc4)c4ccc([nH]4)c(-c4ccc(S(=O)(=O)[O-])cc4)c4nc(c(-c5ccc(S(=O)(=O)[O-])cc5)c5ccc2[nH]5)C=C4)C=C3)cc1
REMARK SMILES IDX 21 1 20 2 19 3 17 4 18 5 16 6 4 7 5 8 12 9 6 10 7 11 11 12
REMARK SMILES IDX 8 13 10 14 15 15 9 16 13 17 14 18 2 19 1 20 3 21 22 22 23 23
REMARK SMILES IDX 24 24 25 25 26 26 84 27 27 28 83 29 28 30 29 31 30 32 77 33
REMARK SMILES IDX 31 34 82 35 76 36 78 37 32 38 81 39 75 40 74 41 33 43 63 44
REMARK SMILES IDX 44 45 62 46 45 47 48 48 61 49 79 50 46 51 47 52 60 54 80 55
REMARK SMILES IDX 49 56 34 57 35 58 43 59 36 60 42 61 37 62 38 63 39 64 40 65
REMARK SMILES IDX 41 66 64 67 65 68 73 69 66 70 72 71 67 72 68 73 69 74 70 75
REMARK SMILES IDX 71 76 50 77 51 78 59 79 52 80 58 81 53 82 54 83 55 84 56 85
REMARK SMILES IDX 57 86
REMARK H PARENT 78 42 48 53
REMARK Flexibility Score: inf
ROOT
ATOM      1  C   UNL     1       6.449   4.769  -3.248  1.00  0.00     0.275 C 
ENDROOT
BRANCH   1   2
ATOM      2  C   UNL     1       5.316   3.753  -3.102  1.00  0.00     0.274 C 
BRANCH   2   3
ATOM      3  O   UNL     1       4.117   4.320  -2.534  1.00  0.00    -0.462 OA
BRANCH   3   4
ATOM      4  C   UNL     1       4.032   4.307  -1.172  1.00  0.00     0.314 C 
ATOM      5  O   UNL     1       4.840   3.746  -0.436  1.00  0.00    -0.252 OA
BRANCH   4   6
ATOM      6  C   UNL     1       2.759   4.958  -0.641  1.00  0.00     0.139 C 
ATOM      7  N   UNL     1       0.281   2.182  -0.882  1.00  0.00    -0.287 N 
ATOM      8  C   UNL     1       1.569   2.619  -0.580  1.00  0.00     0.100 A 
ATOM      9  C   UNL     1      -0.487   3.311  -1.193  1.00  0.00     0.057 A 
ATOM     10  C   UNL     1       1.641   3.978  -0.766  1.00  0.00    -0.006 A 
ATOM     11  C   UNL     1       0.356   4.407  -1.105  1.00  0.00     0.015 A 
ATOM     12  C   UNL     1      -1.841   3.503  -1.518  1.00  0.00     0.027 A 
ATOM     13  C   UNL     1      -0.097   5.704  -1.325  1.00  0.00     0.027 A 
ATOM     14  C   UNL     1      -2.298   4.823  -1.710  1.00  0.00     0.003 A 
ATOM     15  C   UNL     1       2.404   6.321  -1.294  1.00  0.00     0.101 C 
ATOM     16  C   UNL     1      -1.441   5.922  -1.608  1.00  0.00     0.012 A 
ATOM     17  C   UNL     1       0.933   6.757  -1.220  1.00  0.00     0.164 C 
ATOM     18  O   UNL     1       0.591   7.934  -1.162  1.00  0.00    -0.294 OA
BRANCH   7  19
ATOM     19  C   UNL     1      -0.166   0.845  -0.862  1.00  0.00     0.227 C 
ATOM     20  C   UNL     1       0.772  -0.129  -0.211  1.00  0.00     0.115 C 
ATOM     21  O   UNL     1      -1.261   0.547  -1.322  1.00  0.00    -0.274 OA
ENDBRANCH   7  19
ENDBRANCH   4   6
ENDBRANCH   3   4
ENDBRANCH   2   3
ENDBRANCH   1   2
BRANCH   1  22
ATOM     22  O   UNL     1       6.877   5.267  -1.980  1.00  0.00    -0.458 OA
BRANCH  22  23
ATOM     23  C   UNL     1       6.147   6.325  -1.560  1.00  0.00     0.338 C 
ATOM     24  O   UNL     1       5.170   6.800  -2.112  1.00  0.00    -0.246 OA
BRANCH  23  25
ATOM     25  C   UNL     1       6.728   6.934  -0.370  1.00  0.00     0.060 A 
ATOM     26  C   UNL     1       5.891   7.772   0.379  1.00  0.00     0.016 A 
ATOM     27  C   UNL     1       8.120   6.982  -0.279  1.00  0.00     0.016 A 
ATOM     28  C   UNL     1       6.458   8.828   1.052  1.00  0.00     0.010 A 
ATOM     29  C   UNL     1       8.682   8.052   0.373  1.00  0.00     0.010 A 
ATOM     30  C   UNL     1       7.837   9.004   0.948  1.00  0.00    -0.014 A 
BRANCH  30  31
ATOM     31  C   UNL     1       8.385  10.264   1.394  1.00  0.00     0.031 A 
ATOM     32  C   UNL     1       8.704  10.334   2.832  1.00  0.00     0.074 A 
ATOM     33  C   UNL     1       8.719  11.224   0.514  1.00  0.00     0.049 A 
ATOM     34  N   UNL     1       8.200  11.116   3.727  1.00  0.00    -0.248 NA
ATOM     35  C   UNL     1       9.635   9.322   3.354  1.00  0.00     0.031 C 
ATOM     36  C   UNL     1       8.768  11.129  -0.948  1.00  0.00     0.029 A 
ATOM     37  N   UNL     1       9.239  12.452   0.765  1.00  0.00    -0.354 N 
ATOM     38  C   UNL     1       8.873  10.809   4.901  1.00  0.00     0.074 A 
ATOM     39  C   UNL     1       9.621   9.601   4.654  1.00  0.00     0.031 C 
ATOM     40  C   UNL     1       9.522  12.145  -1.425  1.00  0.00     0.029 A 
ATOM     41  C   UNL     1       9.894  13.014  -0.320  1.00  0.00     0.049 A 
ATOM     42  H   UNL     1       9.158  12.902   1.637  1.00  0.00     0.167 HD
ATOM     43  C   UNL     1       8.976  11.674   5.943  1.00  0.00     0.031 A 
ATOM     44  C   UNL     1      10.778  14.041  -0.263  1.00  0.00     0.031 A 
ATOM     45  C   UNL     1       8.070  12.781   5.851  1.00  0.00     0.049 A 
ATOM     46  C   UNL     1      10.555  14.739   1.032  1.00  0.00     0.074 A 
ATOM     47  C   UNL     1       6.696  12.911   5.824  1.00  0.00     0.029 A 
ATOM     48  N   UNL     1       8.575  13.970   5.380  1.00  0.00    -0.354 N 
ATOM     49  N   UNL     1       9.460  15.380   1.336  1.00  0.00    -0.248 NA
ATOM     50  C   UNL     1      11.398  14.386   2.165  1.00  0.00     0.031 C 
ATOM     51  C   UNL     1       6.441  13.984   4.922  1.00  0.00     0.029 A 
ATOM     52  C   UNL     1       7.673  14.463   4.469  1.00  0.00     0.049 A 
ATOM     53  H   UNL     1       9.424  14.391   5.646  1.00  0.00     0.167 HD
ATOM     54  C   UNL     1       9.277  15.162   2.695  1.00  0.00     0.074 A 
ATOM     55  C   UNL     1      10.554  14.640   3.169  1.00  0.00     0.031 C 
ATOM     56  C   UNL     1       8.031  15.167   3.254  1.00  0.00     0.031 A 
BRANCH  43  57
ATOM     57  C   UNL     1      10.172  11.669   6.845  1.00  0.00    -0.014 A 
ATOM     58  C   UNL     1      10.102  12.248   8.121  1.00  0.00     0.010 A 
ATOM     59  C   UNL     1      11.446  11.293   6.363  1.00  0.00     0.010 A 
ATOM     60  C   UNL     1      11.263  12.440   8.881  1.00  0.00     0.020 A 
ATOM     61  C   UNL     1      12.599  11.434   7.129  1.00  0.00     0.020 A 
ATOM     62  C   UNL     1      12.503  12.030   8.378  1.00  0.00     0.054 A 
BRANCH  62  63
ATOM     63  S   UNL     1      14.003  12.366   9.332  1.00  0.00     0.124 S 
ATOM     64  O   UNL     1      13.984  13.822   9.424  1.00  0.00    -0.237 OA
ATOM     65  O   UNL     1      13.743  11.647  10.577  1.00  0.00    -0.237 OA
ATOM     66  O   UNL     1      15.069  11.805   8.505  1.00  0.00    -0.744 OA
ENDBRANCH  62  63
ENDBRANCH  43  57
BRANCH  44  67
ATOM     67  C   UNL     1      12.031  14.183  -1.051  1.00  0.00    -0.014 A 
ATOM     68  C   UNL     1      12.793  15.363  -0.968  1.00  0.00     0.010 A 
ATOM     69  C   UNL     1      12.628  13.063  -1.667  1.00  0.00     0.010 A 
ATOM     70  C   UNL     1      14.127  15.395  -1.410  1.00  0.00     0.020 A 
ATOM     71  C   UNL     1      13.950  13.091  -2.124  1.00  0.00     0.020 A 
ATOM     72  C   UNL     1      14.705  14.247  -1.958  1.00  0.00     0.054 A 
BRANCH  72  73
ATOM     73  S   UNL     1      16.477  14.243  -2.353  1.00  0.00     0.124 S 
ATOM     74  O   UNL     1      16.586  15.327  -3.324  1.00  0.00    -0.237 OA
ATOM     75  O   UNL     1      17.083  14.497  -1.049  1.00  0.00    -0.237 OA
ATOM     76  O   UNL     1      16.708  12.903  -2.891  1.00  0.00    -0.744 OA
ENDBRANCH  72  73
ENDBRANCH  44  67
BRANCH  56  77
ATOM     77  C   UNL     1       6.881  15.693   2.428  1.00  0.00    -0.014 A 
ATOM     78  C   UNL     1       6.408  15.043   1.271  1.00  0.00     0.010 A 
ATOM     79  C   UNL     1       6.145  16.775   2.940  1.00  0.00     0.010 A 
ATOM     80  C   UNL     1       5.229  15.470   0.640  1.00  0.00     0.020 A 
ATOM     81  C   UNL     1       4.964  17.197   2.323  1.00  0.00     0.020 A 
ATOM     82  C   UNL     1       4.508  16.540   1.179  1.00  0.00     0.054 A 
BRANCH  82  83
ATOM     83  S   UNL     1       2.949  17.044   0.397  1.00  0.00     0.124 S 
ATOM     84  O   UNL     1       3.361  17.368  -0.966  1.00  0.00    -0.237 OA
ATOM     85  O   UNL     1       2.122  15.848   0.537  1.00  0.00    -0.237 OA
ATOM     86  O   UNL     1       2.512  18.189   1.196  1.00  0.00    -0.744 OA
ENDBRANCH  82  83
ENDBRANCH  56  77
ENDBRANCH  30  31
ENDBRANCH  23  25
ENDBRANCH  22  23
ENDBRANCH   1  22
TORSDOF 15
