REMARK SMILES C[C@@H]1C[N@H+](Cc2ccccc2)CC[C@@H]1CC(=O)OCCOC(=O)c1ccc(-c2c3nc(c(-c4ccc(S(=O)(=O)[O-])cc4)c4ccc([nH]4)c(-c4ccc(S(=O)(=O)[O-])cc4)c4nc(c(-c5ccc(S(=O)(=O)[O-])cc5)c5ccc2[nH]5)C=C4)C=C3)cc1
REMARK SMILES IDX 19 1 18 2 16 3 17 4 15 5 14 6 1 7 2 8 3 9 4 10 13 11 12 12
REMARK SMILES IDX 5 14 6 15 7 16 11 17 8 18 10 19 9 20 20 21 21 22 22 23 23 24
REMARK SMILES IDX 24 25 25 26 83 27 26 28 82 29 27 30 28 31 29 32 76 33 30 34
REMARK SMILES IDX 81 35 75 36 77 37 31 38 80 39 74 40 73 41 32 43 62 44 43 45
REMARK SMILES IDX 61 46 44 47 47 48 60 49 78 50 45 51 46 52 59 54 79 55 48 56
REMARK SMILES IDX 33 57 34 58 42 59 35 60 41 61 36 62 37 63 38 64 39 65 40 66
REMARK SMILES IDX 63 67 64 68 72 69 65 70 71 71 66 72 67 73 68 74 69 75 70 76
REMARK SMILES IDX 49 77 50 78 58 79 51 80 57 81 52 82 53 83 54 84 55 85 56 86
REMARK H PARENT 4 13 77 42 47 53
REMARK Flexibility Score: inf
ROOT
ATOM      1  C   UNL     1       4.670   0.120  -0.253  1.00  0.00     0.274 C 
ENDROOT
BRANCH   1   2
ATOM      2  O   UNL     1       3.427  -0.043  -0.974  1.00  0.00    -0.462 OA
BRANCH   2   3
ATOM      3  C   UNL     1       2.722  -1.181  -0.754  1.00  0.00     0.306 C 
ATOM      4  O   UNL     1       3.092  -2.088  -0.020  1.00  0.00    -0.252 OA
BRANCH   3   5
ATOM      5  C   UNL     1       1.510  -1.283  -1.667  1.00  0.00     0.127 C 
BRANCH   5   6
ATOM      6  C   UNL     1       0.223  -0.409  -1.554  1.00  0.00     0.014 C 
ATOM      7  C   UNL     1       1.391   1.777  -0.492  1.00  0.00     0.014 C 
ATOM      8  C   UNL     1       0.260   1.136  -1.287  1.00  0.00     0.045 C 
ATOM      9  C   UNL     1      -1.094   1.692  -0.794  1.00  0.00     0.265 C 
ATOM     10  N   UNL     1      -1.776   0.897   0.212  1.00  0.00    -0.331 N 
ATOM     11  C   UNL     1      -0.924  -1.208  -0.867  1.00  0.00     0.066 C 
ATOM     12  C   UNL     1      -2.114  -0.409  -0.327  1.00  0.00     0.262 C 
ATOM     13  H   UNL     1      -2.672   1.345   0.403  1.00  0.00     0.348 HD
BRANCH  10  14
ATOM     14  C   UNL     1      -1.309   1.009   1.607  1.00  0.00     0.299 C 
BRANCH  14  15
ATOM     15  C   UNL     1      -0.881  -0.280   2.277  1.00  0.00     0.006 A 
ATOM     16  C   UNL     1      -1.766  -1.030   3.063  1.00  0.00     0.009 A 
ATOM     17  C   UNL     1       0.358  -0.836   1.972  1.00  0.00     0.009 A 
ATOM     18  C   UNL     1      -1.466  -2.351   3.410  1.00  0.00     0.001 A 
ATOM     19  C   UNL     1       0.597  -2.181   2.212  1.00  0.00     0.001 A 
ATOM     20  C   UNL     1      -0.306  -2.945   2.934  1.00  0.00     0.000 A 
ENDBRANCH  14  15
ENDBRANCH  10  14
ENDBRANCH   5   6
ENDBRANCH   3   5
ENDBRANCH   2   3
ENDBRANCH   1   2
BRANCH   1  21
ATOM     21  C   UNL     1       4.483   0.868   1.075  1.00  0.00     0.275 C 
BRANCH  21  22
ATOM     22  O   UNL     1       3.774   0.094   2.059  1.00  0.00    -0.458 OA
BRANCH  22  23
ATOM     23  C   UNL     1       4.542  -0.823   2.696  1.00  0.00     0.338 C 
ATOM     24  O   UNL     1       5.736  -1.018   2.517  1.00  0.00    -0.246 OA
BRANCH  23  25
ATOM     25  C   UNL     1       3.718  -1.642   3.599  1.00  0.00     0.060 A 
ATOM     26  C   UNL     1       3.482  -2.962   3.227  1.00  0.00     0.016 A 
ATOM     27  C   UNL     1       3.253  -1.163   4.828  1.00  0.00     0.016 A 
ATOM     28  C   UNL     1       2.756  -3.797   4.077  1.00  0.00     0.010 A 
ATOM     29  C   UNL     1       2.636  -2.046   5.734  1.00  0.00     0.010 A 
ATOM     30  C   UNL     1       2.425  -3.390   5.386  1.00  0.00    -0.014 A 
BRANCH  30  31
ATOM     31  C   UNL     1       2.121  -4.448   6.404  1.00  0.00     0.031 A 
ATOM     32  C   UNL     1       0.877  -4.476   7.255  1.00  0.00     0.074 A 
ATOM     33  C   UNL     1       3.037  -5.433   6.550  1.00  0.00     0.049 A 
ATOM     34  N   UNL     1       0.559  -5.324   8.206  1.00  0.00    -0.248 NA
ATOM     35  C   UNL     1      -0.130  -3.430   7.031  1.00  0.00     0.031 C 
ATOM     36  C   UNL     1       4.296  -5.522   5.801  1.00  0.00     0.029 A 
ATOM     37  N   UNL     1       3.048  -6.565   7.326  1.00  0.00    -0.354 N 
ATOM     38  C   UNL     1      -0.663  -4.900   8.719  1.00  0.00     0.074 A 
ATOM     39  C   UNL     1      -1.034  -3.718   7.963  1.00  0.00     0.031 C 
ATOM     40  C   UNL     1       4.877  -6.700   6.040  1.00  0.00     0.029 A 
ATOM     41  C   UNL     1       4.136  -7.376   7.091  1.00  0.00     0.049 A 
ATOM     42  H   UNL     1       2.348  -6.777   7.984  1.00  0.00     0.167 HD
ATOM     43  C   UNL     1      -1.389  -5.435   9.737  1.00  0.00     0.031 A 
ATOM     44  C   UNL     1       4.550  -8.511   7.683  1.00  0.00     0.031 A 
ATOM     45  C   UNL     1      -0.995  -6.602  10.496  1.00  0.00     0.049 A 
ATOM     46  C   UNL     1       3.766  -9.040   8.838  1.00  0.00     0.074 A 
ATOM     47  C   UNL     1      -1.657  -7.207  11.554  1.00  0.00     0.029 A 
ATOM     48  N   UNL     1       0.163  -7.339  10.287  1.00  0.00    -0.354 N 
ATOM     49  N   UNL     1       2.640  -8.590   9.336  1.00  0.00    -0.248 NA
ATOM     50  C   UNL     1       4.326 -10.201   9.537  1.00  0.00     0.031 C 
ATOM     51  C   UNL     1      -0.871  -8.268  12.020  1.00  0.00     0.029 A 
ATOM     52  C   UNL     1       0.250  -8.370  11.213  1.00  0.00     0.049 A 
ATOM     53  H   UNL     1       0.828  -7.156   9.584  1.00  0.00     0.167 HD
ATOM     54  C   UNL     1       2.358  -9.409  10.418  1.00  0.00     0.074 A 
ATOM     55  C   UNL     1       3.415 -10.401  10.480  1.00  0.00     0.031 C 
ATOM     56  C   UNL     1       1.320  -9.335  11.286  1.00  0.00     0.031 A 
BRANCH  43  57
ATOM     57  C   UNL     1      -2.659  -4.723  10.147  1.00  0.00    -0.014 A 
ATOM     58  C   UNL     1      -3.816  -4.746   9.347  1.00  0.00     0.010 A 
ATOM     59  C   UNL     1      -2.707  -4.052  11.385  1.00  0.00     0.010 A 
ATOM     60  C   UNL     1      -4.973  -4.067   9.751  1.00  0.00     0.020 A 
ATOM     61  C   UNL     1      -3.869  -3.394  11.804  1.00  0.00     0.020 A 
ATOM     62  C   UNL     1      -4.988  -3.384  10.971  1.00  0.00     0.054 A 
BRANCH  62  63
ATOM     63  S   UNL     1      -6.490  -2.487  11.457  1.00  0.00     0.124 S 
ATOM     64  O   UNL     1      -6.455  -1.335  10.559  1.00  0.00    -0.237 OA
ATOM     65  O   UNL     1      -7.548  -3.458  11.191  1.00  0.00    -0.237 OA
ATOM     66  O   UNL     1      -6.271  -2.180  12.869  1.00  0.00    -0.744 OA
ENDBRANCH  62  63
ENDBRANCH  43  57
BRANCH  44  67
ATOM     67  C   UNL     1       5.811  -9.154   7.221  1.00  0.00    -0.014 A 
ATOM     68  C   UNL     1       5.781 -10.378   6.534  1.00  0.00     0.010 A 
ATOM     69  C   UNL     1       7.042  -8.486   7.376  1.00  0.00     0.010 A 
ATOM     70  C   UNL     1       6.955 -10.911   5.992  1.00  0.00     0.020 A 
ATOM     71  C   UNL     1       8.208  -8.994   6.801  1.00  0.00     0.020 A 
ATOM     72  C   UNL     1       8.158 -10.207   6.115  1.00  0.00     0.054 A 
BRANCH  72  73
ATOM     73  S   UNL     1       9.645 -10.857   5.304  1.00  0.00     0.124 S 
ATOM     74  O   UNL     1      10.023 -11.949   6.195  1.00  0.00    -0.237 OA
ATOM     75  O   UNL     1       9.143 -11.255   3.991  1.00  0.00    -0.237 OA
ATOM     76  O   UNL     1      10.555  -9.713   5.293  1.00  0.00    -0.744 OA
ENDBRANCH  72  73
ENDBRANCH  44  67
BRANCH  56  77
ATOM     77  C   UNL     1       1.279 -10.376  12.371  1.00  0.00    -0.014 A 
ATOM     78  C   UNL     1       2.175 -10.332  13.455  1.00  0.00     0.010 A 
ATOM     79  C   UNL     1       0.332 -11.413  12.304  1.00  0.00     0.010 A 
ATOM     80  C   UNL     1       2.148 -11.329  14.433  1.00  0.00     0.020 A 
ATOM     81  C   UNL     1       0.286 -12.398  13.294  1.00  0.00     0.020 A 
ATOM     82  C   UNL     1       1.206 -12.358  14.344  1.00  0.00     0.054 A 
BRANCH  82  83
ATOM     83  S   UNL     1       1.175 -13.629  15.638  1.00  0.00     0.124 S 
ATOM     84  O   UNL     1       2.353 -14.426  15.309  1.00  0.00    -0.237 OA
ATOM     85  O   UNL     1       1.270 -12.841  16.864  1.00  0.00    -0.237 OA
ATOM     86  O   UNL     1      -0.108 -14.299  15.434  1.00  0.00    -0.744 OA
ENDBRANCH  82  83
ENDBRANCH  56  77
ENDBRANCH  30  31
ENDBRANCH  23  25
ENDBRANCH  22  23
ENDBRANCH  21  22
ENDBRANCH   1  21
TORSDOF 17
