REMARK SMILES Cc1ccccc1CNc1ccc(C(=O)OCCOC(=O)c2ccc(-c3c4nc(c(-c5ccc(S(=O)(=O)[O-])cc5)c5ccc([nH]5)c(-c5ccc(S(=O)(=O)[O-])cc5)c5nc(c(-c6ccc(S(=O)(=O)[O-])cc6)c6ccc3[nH]6)C=C5)C=C4)cc2)c(F)c1F
REMARK SMILES IDX 17 1 16 2 14 3 15 4 13 5 10 6 11 7 84 8 12 9 82 10 85 11
REMARK SMILES IDX 83 12 9 13 8 15 7 16 1 17 2 18 3 19 4 20 6 21 5 22 18 23
REMARK SMILES IDX 19 24 20 25 21 26 22 27 23 28 81 29 24 30 80 31 25 32 26 33
REMARK SMILES IDX 27 34 74 35 28 36 79 37 73 38 75 39 29 40 78 41 72 42 71 43
REMARK SMILES IDX 30 45 60 46 41 47 59 48 42 49 45 50 58 51 76 52 43 53 44 54
REMARK SMILES IDX 57 56 77 57 46 58 31 59 32 60 40 61 33 62 39 63 34 64 35 65
REMARK SMILES IDX 36 66 37 67 38 68 61 69 62 70 70 71 63 72 69 73 64 74 65 75
REMARK SMILES IDX 66 76 67 77 68 78 47 79 48 80 56 81 49 82 55 83 50 84 51 85
REMARK SMILES IDX 52 86 53 87 54 88
REMARK H PARENT 9 14 75 44 45 55
REMARK Flexibility Score: inf
ROOT
ATOM      1  C   UNL     1       0.312  10.763  -0.698  1.00  0.00     0.275 C 
ENDROOT
BRANCH   1   2
ATOM      2  O   UNL     1       0.510   9.424  -1.190  1.00  0.00    -0.458 OA
BRANCH   2   3
ATOM      3  C   UNL     1       0.457   8.495  -0.209  1.00  0.00     0.341 C 
ATOM      4  O   UNL     1       0.297   8.727   0.984  1.00  0.00    -0.246 OA
BRANCH   3   5
ATOM      5  C   UNL     1       0.818   7.139  -0.644  1.00  0.00     0.099 A 
ATOM      6  C   UNL     1       1.274   4.381  -0.960  1.00  0.00     0.074 A 
ATOM      7  C   UNL     1       2.026   5.123  -0.045  1.00  0.00     0.030 A 
ATOM      8  C   UNL     1       0.353   5.063  -1.770  1.00  0.00     0.182 A 
ATOM      9  C   UNL     1       1.789   6.486   0.125  1.00  0.00     0.021 A 
ATOM     10  C   UNL     1       0.134   6.432  -1.624  1.00  0.00     0.175 A 
ATOM     11  F   UNL     1      -0.390   4.358  -2.640  1.00  0.00    -0.201 F 
ATOM     12  F   UNL     1      -0.781   7.019  -2.394  1.00  0.00    -0.203 F 
BRANCH   6  13
ATOM     13  N   UNL     1       1.328   2.982  -0.973  1.00  0.00    -0.379 N 
ATOM     14  H   UNL     1       1.474   2.475  -1.804  1.00  0.00     0.161 HD
BRANCH  13  15
ATOM     15  C   UNL     1       1.157   2.320   0.313  1.00  0.00     0.149 C 
BRANCH  15  16
ATOM     16  C   UNL     1       0.421   1.012   0.134  1.00  0.00    -0.026 A 
ATOM     17  C   UNL     1       2.567  -0.375  -0.036  1.00  0.00     0.044 C 
ATOM     18  C   UNL     1       1.071  -0.228  -0.014  1.00  0.00    -0.046 A 
ATOM     19  C   UNL     1       0.294  -1.397  -0.102  1.00  0.00     0.004 A 
ATOM     20  C   UNL     1      -1.100  -1.338  -0.095  1.00  0.00     0.000 A 
ATOM     21  C   UNL     1      -0.988   1.056   0.104  1.00  0.00     0.006 A 
ATOM     22  C   UNL     1      -1.742  -0.110  -0.007  1.00  0.00     0.000 A 
ENDBRANCH  15  16
ENDBRANCH  13  15
ENDBRANCH   6  13
ENDBRANCH   3   5
ENDBRANCH   2   3
ENDBRANCH   1   2
BRANCH   1  23
ATOM     23  C   UNL     1      -0.050  11.765  -1.810  1.00  0.00     0.275 C 
BRANCH  23  24
ATOM     24  O   UNL     1      -1.334  11.635  -2.456  1.00  0.00    -0.458 OA
BRANCH  24  25
ATOM     25  C   UNL     1      -1.746  10.366  -2.735  1.00  0.00     0.338 C 
ATOM     26  O   UNL     1      -1.246   9.676  -3.600  1.00  0.00    -0.246 OA
BRANCH  25  27
ATOM     27  C   UNL     1      -2.627   9.922  -1.615  1.00  0.00     0.060 A 
ATOM     28  C   UNL     1      -2.901   8.560  -1.435  1.00  0.00     0.016 A 
ATOM     29  C   UNL     1      -2.893  10.836  -0.591  1.00  0.00     0.016 A 
ATOM     30  C   UNL     1      -3.314   8.088  -0.191  1.00  0.00     0.010 A 
ATOM     31  C   UNL     1      -3.178  10.367   0.662  1.00  0.00     0.010 A 
ATOM     32  C   UNL     1      -3.419   9.000   0.855  1.00  0.00    -0.014 A 
BRANCH  32  33
ATOM     33  C   UNL     1      -4.104   8.742   2.108  1.00  0.00     0.031 A 
ATOM     34  C   UNL     1      -3.431   8.188   3.292  1.00  0.00     0.074 A 
ATOM     35  C   UNL     1      -5.327   9.320   2.114  1.00  0.00     0.049 A 
ATOM     36  N   UNL     1      -4.052   7.798   4.349  1.00  0.00    -0.248 NA
ATOM     37  C   UNL     1      -1.986   7.999   3.393  1.00  0.00     0.031 C 
ATOM     38  C   UNL     1      -6.205   9.663   3.215  1.00  0.00     0.029 A 
ATOM     39  N   UNL     1      -6.101   9.598   0.975  1.00  0.00    -0.354 N 
ATOM     40  C   UNL     1      -3.115   7.648   5.353  1.00  0.00     0.074 A 
ATOM     41  C   UNL     1      -1.841   7.659   4.681  1.00  0.00     0.031 C 
ATOM     42  C   UNL     1      -7.459   9.758   2.729  1.00  0.00     0.029 A 
ATOM     43  C   UNL     1      -7.412   9.317   1.336  1.00  0.00     0.049 A 
ATOM     44  H   UNL     1      -5.780   9.924   0.103  1.00  0.00     0.167 HD
ATOM     45  C   UNL     1      -3.539   7.713   6.649  1.00  0.00     0.031 A 
ATOM     46  C   UNL     1      -8.035   8.212   0.827  1.00  0.00     0.031 A 
ATOM     47  C   UNL     1      -5.000   7.780   6.687  1.00  0.00     0.049 A 
ATOM     48  C   UNL     1      -8.357   7.258   1.953  1.00  0.00     0.074 A 
ATOM     49  C   UNL     1      -5.875   8.846   6.812  1.00  0.00     0.029 A 
ATOM     50  N   UNL     1      -5.738   6.713   6.183  1.00  0.00    -0.354 N 
ATOM     51  N   UNL     1      -7.623   7.097   3.024  1.00  0.00    -0.248 NA
ATOM     52  C   UNL     1      -9.608   6.515   2.000  1.00  0.00     0.031 C 
ATOM     53  C   UNL     1      -7.117   8.447   6.247  1.00  0.00     0.029 A 
ATOM     54  C   UNL     1      -6.999   7.136   5.809  1.00  0.00     0.049 A 
ATOM     55  H   UNL     1      -5.408   5.789   6.104  1.00  0.00     0.167 HD
ATOM     56  C   UNL     1      -8.340   6.378   3.946  1.00  0.00     0.074 A 
ATOM     57  C   UNL     1      -9.555   5.999   3.239  1.00  0.00     0.031 C 
ATOM     58  C   UNL     1      -7.956   6.194   5.246  1.00  0.00     0.031 A 
BRANCH  45  59
ATOM     59  C   UNL     1      -2.668   8.021   7.853  1.00  0.00    -0.014 A 
ATOM     60  C   UNL     1      -3.278   8.547   9.016  1.00  0.00     0.010 A 
ATOM     61  C   UNL     1      -1.267   7.888   7.904  1.00  0.00     0.010 A 
ATOM     62  C   UNL     1      -2.539   8.977  10.130  1.00  0.00     0.020 A 
ATOM     63  C   UNL     1      -0.511   8.322   9.012  1.00  0.00     0.020 A 
ATOM     64  C   UNL     1      -1.153   8.875  10.116  1.00  0.00     0.054 A 
BRANCH  64  65
ATOM     65  S   UNL     1      -0.215   9.464  11.553  1.00  0.00     0.124 S 
ATOM     66  O   UNL     1      -0.553  10.885  11.588  1.00  0.00    -0.237 OA
ATOM     67  O   UNL     1      -0.765   8.660  12.640  1.00  0.00    -0.237 OA
ATOM     68  O   UNL     1       1.174   9.169  11.207  1.00  0.00    -0.744 OA
ENDBRANCH  64  65
ENDBRANCH  45  59
BRANCH  46  69
ATOM     69  C   UNL     1      -7.637   7.839  -0.574  1.00  0.00    -0.014 A 
ATOM     70  C   UNL     1      -7.876   8.795  -1.591  1.00  0.00     0.010 A 
ATOM     71  C   UNL     1      -6.758   6.779  -0.864  1.00  0.00     0.010 A 
ATOM     72  C   UNL     1      -7.172   8.770  -2.800  1.00  0.00     0.020 A 
ATOM     73  C   UNL     1      -6.061   6.739  -2.091  1.00  0.00     0.020 A 
ATOM     74  C   UNL     1      -6.243   7.759  -3.031  1.00  0.00     0.054 A 
BRANCH  74  75
ATOM     75  S   UNL     1      -5.151   7.928  -4.481  1.00  0.00     0.124 S 
ATOM     76  O   UNL     1      -6.078   7.734  -5.592  1.00  0.00    -0.237 OA
ATOM     77  O   UNL     1      -4.647   9.290  -4.314  1.00  0.00    -0.237 OA
ATOM     78  O   UNL     1      -4.170   6.866  -4.287  1.00  0.00    -0.744 OA
ENDBRANCH  74  75
ENDBRANCH  46  69
BRANCH  58  79
ATOM     79  C   UNL     1      -8.536   5.159   6.179  1.00  0.00    -0.014 A 
ATOM     80  C   UNL     1      -9.262   4.042   5.744  1.00  0.00     0.010 A 
ATOM     81  C   UNL     1      -8.211   5.215   7.558  1.00  0.00     0.010 A 
ATOM     82  C   UNL     1      -9.713   3.073   6.645  1.00  0.00     0.020 A 
ATOM     83  C   UNL     1      -8.600   4.221   8.456  1.00  0.00     0.020 A 
ATOM     84  C   UNL     1      -9.380   3.170   7.996  1.00  0.00     0.054 A 
BRANCH  84  85
ATOM     85  S   UNL     1      -9.924   1.877   9.133  1.00  0.00     0.124 S 
ATOM     86  O   UNL     1     -11.283   2.308   9.445  1.00  0.00    -0.237 OA
ATOM     87  O   UNL     1      -9.821   0.666   8.321  1.00  0.00    -0.237 OA
ATOM     88  O   UNL     1      -8.968   1.962  10.234  1.00  0.00    -0.744 OA
ENDBRANCH  84  85
ENDBRANCH  58  79
ENDBRANCH  32  33
ENDBRANCH  25  27
ENDBRANCH  24  25
ENDBRANCH  23  24
ENDBRANCH   1  23
TORSDOF 17
