REMARK SMILES O=C(CCCN1C(=O)c2ccc3c4c(ccc(c24)C1=O)C(=O)NC3=O)OCCOC(=O)c1ccc(-c2c3nc(c(-c4ccc(S(=O)(=O)[O-])cc4)c4ccc([nH]4)c(-c4ccc(S(=O)(=O)[O-])cc4)c4nc(c(-c5ccc(S(=O)(=O)[O-])cc5)c5ccc2[nH]5)C=C4)C=C3)cc1
REMARK SMILES IDX 27 1 26 2 2 3 1 4 3 5 4 6 5 7 6 8 19 9 7 10 20 11 17 12 9 13
REMARK SMILES IDX 8 14 16 15 18 16 10 17 15 18 13 19 11 20 14 21 12 22 21 23
REMARK SMILES IDX 24 24 23 25 22 26 25 27 28 29 29 30 30 31 31 32 32 33 33 34
REMARK SMILES IDX 91 35 34 36 90 37 35 38 36 39 37 40 84 41 38 42 89 43 83 44
REMARK SMILES IDX 85 45 39 46 88 47 82 48 81 49 40 51 70 52 51 53 69 54 52 55
REMARK SMILES IDX 55 56 68 57 86 58 53 59 54 60 67 62 87 63 56 64 41 65 42 66
REMARK SMILES IDX 50 67 43 68 49 69 44 70 45 71 46 72 47 73 48 74 71 75 72 76
REMARK SMILES IDX 80 77 73 78 79 79 74 80 75 81 76 82 77 83 78 84 57 85 58 86
REMARK SMILES IDX 66 87 59 88 65 89 60 90 61 91 62 92 63 93 64 94
REMARK H PARENT 23 28 85 50 55 61
REMARK Flexibility Score: inf
ROOT
ATOM      1  C   UNL     1       3.779  -0.528  -1.576  1.00  0.00     0.274 C 
ENDROOT
BRANCH   1   2
ATOM      2  O   UNL     1       2.556  -0.803  -0.873  1.00  0.00    -0.462 OA
BRANCH   2   3
ATOM      3  C   UNL     1       2.564  -0.928   0.479  1.00  0.00     0.305 C 
ATOM      4  O   UNL     1       1.939  -1.827   1.033  1.00  0.00    -0.252 OA
BRANCH   3   5
ATOM      5  C   UNL     1       3.250   0.170   1.263  1.00  0.00     0.124 C 
BRANCH   5   6
ATOM      6  C   UNL     1       4.287  -0.322   2.268  1.00  0.00     0.034 C 
BRANCH   6   7
ATOM      7  C   UNL     1       5.667  -0.680   1.692  1.00  0.00     0.130 C 
BRANCH   7   8
ATOM      8  N   UNL     1       6.340   0.267   0.783  1.00  0.00    -0.274 N 
ATOM      9  C   UNL     1       6.227   1.643   0.977  1.00  0.00     0.261 C 
ATOM     10  C   UNL     1       7.228  -0.301  -0.138  1.00  0.00     0.261 C 
ATOM     11  O   UNL     1       5.674   2.171   1.935  1.00  0.00    -0.269 OA
ATOM     12  C   UNL     1       6.819   2.523  -0.061  1.00  0.00     0.049 A 
ATOM     13  C   UNL     1       7.917   0.609  -1.082  1.00  0.00     0.049 A 
ATOM     14  O   UNL     1       7.450  -1.506  -0.227  1.00  0.00    -0.269 OA
ATOM     15  C   UNL     1       6.545   3.897  -0.047  1.00  0.00     0.015 A 
ATOM     16  C   UNL     1       7.653   1.979  -1.041  1.00  0.00     0.009 A 
ATOM     17  C   UNL     1       8.798   0.079  -2.037  1.00  0.00     0.015 A 
ATOM     18  C   UNL     1       7.094   4.735  -1.018  1.00  0.00     0.015 A 
ATOM     19  C   UNL     1       8.251   2.832  -2.005  1.00  0.00     0.009 A 
ATOM     20  C   UNL     1       9.413   0.917  -2.964  1.00  0.00     0.015 A 
ATOM     21  C   UNL     1       7.950   4.203  -1.986  1.00  0.00     0.048 A 
ATOM     22  C   UNL     1       9.132   2.286  -2.952  1.00  0.00     0.048 A 
ATOM     23  C   UNL     1       8.557   5.094  -3.002  1.00  0.00     0.258 C 
ATOM     24  C   UNL     1       9.777   3.176  -3.945  1.00  0.00     0.258 C 
ATOM     25  N   UNL     1       9.424   4.502  -3.890  1.00  0.00    -0.288 N 
ATOM     26  O   UNL     1       8.302   6.290  -3.046  1.00  0.00    -0.269 OA
ATOM     27  O   UNL     1      10.579   2.746  -4.764  1.00  0.00    -0.269 OA
ATOM     28  H   UNL     1       9.836   5.094  -4.561  1.00  0.00     0.173 HD
ENDBRANCH   7   8
ENDBRANCH   6   7
ENDBRANCH   5   6
ENDBRANCH   3   5
ENDBRANCH   2   3
ENDBRANCH   1   2
BRANCH   1  29
ATOM     29  C   UNL     1       3.740   0.786  -2.359  1.00  0.00     0.275 C 
BRANCH  29  30
ATOM     30  O   UNL     1       3.421   1.897  -1.504  1.00  0.00    -0.458 OA
BRANCH  30  31
ATOM     31  C   UNL     1       2.091   2.193  -1.459  1.00  0.00     0.338 C 
ATOM     32  O   UNL     1       1.230   1.719  -2.170  1.00  0.00    -0.246 OA
BRANCH  31  33
ATOM     33  C   UNL     1       1.793   3.081  -0.308  1.00  0.00     0.060 A 
ATOM     34  C   UNL     1       0.563   2.905   0.333  1.00  0.00     0.016 A 
ATOM     35  C   UNL     1       2.670   4.078   0.131  1.00  0.00     0.016 A 
ATOM     36  C   UNL     1       0.186   3.754   1.373  1.00  0.00     0.010 A 
ATOM     37  C   UNL     1       2.300   4.917   1.192  1.00  0.00     0.010 A 
ATOM     38  C   UNL     1       1.037   4.787   1.792  1.00  0.00    -0.014 A 
BRANCH  38  39
ATOM     39  C   UNL     1       0.523   5.784   2.770  1.00  0.00     0.031 A 
ATOM     40  C   UNL     1       0.071   7.137   2.285  1.00  0.00     0.074 A 
ATOM     41  C   UNL     1       0.368   5.457   4.067  1.00  0.00     0.049 A 
ATOM     42  N   UNL     1      -0.571   8.075   2.935  1.00  0.00    -0.248 NA
ATOM     43  C   UNL     1       0.380   7.479   0.887  1.00  0.00     0.031 C 
ATOM     44  C   UNL     1       0.778   4.192   4.678  1.00  0.00     0.029 A 
ATOM     45  N   UNL     1      -0.198   6.161   5.102  1.00  0.00    -0.354 N 
ATOM     46  C   UNL     1      -0.766   9.104   2.021  1.00  0.00     0.074 A 
ATOM     47  C   UNL     1      -0.120   8.703   0.790  1.00  0.00     0.031 C 
ATOM     48  C   UNL     1       0.433   4.203   5.978  1.00  0.00     0.029 A 
ATOM     49  C   UNL     1      -0.220   5.473   6.292  1.00  0.00     0.049 A 
ATOM     50  H   UNL     1      -0.554   7.073   5.001  1.00  0.00     0.167 HD
ATOM     51  C   UNL     1      -1.447  10.265   2.175  1.00  0.00     0.031 A 
ATOM     52  C   UNL     1      -0.723   5.816   7.494  1.00  0.00     0.031 A 
ATOM     53  C   UNL     1      -2.076  10.684   3.399  1.00  0.00     0.049 A 
ATOM     54  C   UNL     1      -1.451   7.126   7.651  1.00  0.00     0.074 A 
ATOM     55  C   UNL     1      -2.799  11.839   3.644  1.00  0.00     0.029 A 
ATOM     56  N   UNL     1      -2.053   9.969   4.585  1.00  0.00    -0.354 N 
ATOM     57  N   UNL     1      -1.687   8.053   6.754  1.00  0.00    -0.248 NA
ATOM     58  C   UNL     1      -2.006   7.420   8.981  1.00  0.00     0.031 C 
ATOM     59  C   UNL     1      -3.178  11.841   4.992  1.00  0.00     0.029 A 
ATOM     60  C   UNL     1      -2.733  10.665   5.571  1.00  0.00     0.049 A 
ATOM     61  H   UNL     1      -1.617   9.095   4.709  1.00  0.00     0.167 HD
ATOM     62  C   UNL     1      -2.434   9.030   7.406  1.00  0.00     0.074 A 
ATOM     63  C   UNL     1      -2.632   8.568   8.764  1.00  0.00     0.031 C 
ATOM     64  C   UNL     1      -2.914  10.204   6.924  1.00  0.00     0.031 A 
BRANCH  51  65
ATOM     65  C   UNL     1      -1.550  11.167   0.974  1.00  0.00    -0.014 A 
ATOM     66  C   UNL     1      -2.381  10.825  -0.109  1.00  0.00     0.010 A 
ATOM     67  C   UNL     1      -0.845  12.383   0.941  1.00  0.00     0.010 A 
ATOM     68  C   UNL     1      -2.476  11.665  -1.220  1.00  0.00     0.020 A 
ATOM     69  C   UNL     1      -0.957  13.238  -0.160  1.00  0.00     0.020 A 
ATOM     70  C   UNL     1      -1.760  12.865  -1.240  1.00  0.00     0.054 A 
BRANCH  70  71
ATOM     71  S   UNL     1      -1.921  13.949  -2.686  1.00  0.00     0.124 S 
ATOM     72  O   UNL     1      -1.137  13.231  -3.688  1.00  0.00    -0.237 OA
ATOM     73  O   UNL     1      -3.364  13.968  -2.915  1.00  0.00    -0.237 OA
ATOM     74  O   UNL     1      -1.348  15.215  -2.236  1.00  0.00    -0.744 OA
ENDBRANCH  70  71
ENDBRANCH  51  65
BRANCH  52  75
ATOM     75  C   UNL     1      -0.567   4.898   8.656  1.00  0.00    -0.014 A 
ATOM     76  C   UNL     1      -1.672   4.212   9.189  1.00  0.00     0.010 A 
ATOM     77  C   UNL     1       0.696   4.728   9.250  1.00  0.00     0.010 A 
ATOM     78  C   UNL     1      -1.522   3.393  10.313  1.00  0.00     0.020 A 
ATOM     79  C   UNL     1       0.856   3.891  10.358  1.00  0.00     0.020 A 
ATOM     80  C   UNL     1      -0.258   3.241  10.893  1.00  0.00     0.054 A 
BRANCH  80  81
ATOM     81  S   UNL     1      -0.074   2.151  12.331  1.00  0.00     0.124 S 
ATOM     82  O   UNL     1      -0.612   2.975  13.408  1.00  0.00    -0.237 OA
ATOM     83  O   UNL     1      -0.881   0.991  11.957  1.00  0.00    -0.237 OA
ATOM     84  O   UNL     1       1.365   1.905  12.389  1.00  0.00    -0.744 OA
ENDBRANCH  80  81
ENDBRANCH  52  75
BRANCH  64  85
ATOM     85  C   UNL     1      -3.712  11.064   7.868  1.00  0.00    -0.014 A 
ATOM     86  C   UNL     1      -3.092  11.747   8.930  1.00  0.00     0.010 A 
ATOM     87  C   UNL     1      -5.099  11.208   7.679  1.00  0.00     0.010 A 
ATOM     88  C   UNL     1      -3.852  12.518   9.815  1.00  0.00     0.020 A 
ATOM     89  C   UNL     1      -5.858  12.000   8.545  1.00  0.00     0.020 A 
ATOM     90  C   UNL     1      -5.232  12.633   9.621  1.00  0.00     0.054 A 
BRANCH  90  91
ATOM     91  S   UNL     1      -6.198  13.646  10.776  1.00  0.00     0.124 S 
ATOM     92  O   UNL     1      -6.302  12.766  11.936  1.00  0.00    -0.237 OA
ATOM     93  O   UNL     1      -5.354  14.825  10.955  1.00  0.00    -0.237 OA
ATOM     94  O   UNL     1      -7.449  13.886  10.060  1.00  0.00    -0.744 OA
ENDBRANCH  90  91
ENDBRANCH  64  85
ENDBRANCH  38  39
ENDBRANCH  31  33
ENDBRANCH  30  31
ENDBRANCH  29  30
ENDBRANCH   1  29
TORSDOF 17
