REMARK SMILES Cc1ccc(N2C(=O)C[C@H](Sc3ccccc3C(=O)OCCOC(=O)c3ccc(-c4c5nc(c(-c6ccc(S(=O)(=O)[O-])cc6)c6ccc([nH]6)c(-c6ccc(S(=O)(=O)[O-])cc6)c6nc(c(-c7ccc(S(=O)(=O)[O-])cc7)c7ccc4[nH]7)C=C6)C=C5)cc3)C2=O)cc1
REMARK SMILES IDX 21 1 20 2 18 3 19 4 17 5 12 6 13 7 14 8 16 9 15 10 11 11
REMARK SMILES IDX 10 12 6 13 7 14 86 15 8 16 9 17 87 18 5 19 1 20 2 21 3 22
REMARK SMILES IDX 89 23 4 24 88 25 22 26 23 27 24 28 25 29 26 30 27 31 85 32
REMARK SMILES IDX 28 33 84 34 29 35 30 36 31 37 78 38 32 39 83 40 77 41 79 42
REMARK SMILES IDX 33 43 82 44 76 45 75 46 34 48 64 49 45 50 63 51 46 52 49 53
REMARK SMILES IDX 62 54 80 55 47 56 48 57 61 59 81 60 50 61 35 62 36 63 44 64
REMARK SMILES IDX 37 65 43 66 38 67 39 68 40 69 41 70 42 71 65 72 66 73 74 74
REMARK SMILES IDX 67 75 73 76 68 77 69 78 70 79 71 80 72 81 51 82 52 83 60 84
REMARK SMILES IDX 53 85 59 86 54 87 55 88 56 89 57 90 58 91
REMARK H PARENT 79 47 49 58
REMARK Flexibility Score: inf
ROOT
ATOM      1  C   UNL     1      -6.528   3.202  -3.570  1.00  0.00     0.275 C 
ENDROOT
BRANCH   1   2
ATOM      2  O   UNL     1      -6.522   3.968  -2.347  1.00  0.00    -0.458 OA
BRANCH   2   3
ATOM      3  C   UNL     1      -6.675   3.181  -1.100  1.00  0.00     0.339 C 
ATOM      4  O   UNL     1      -7.277   2.166  -1.565  1.00  0.00    -0.246 OA
BRANCH   3   5
ATOM      5  C   UNL     1      -5.944   3.611   0.900  1.00  0.00     0.073 A 
ATOM      6  C   UNL     1      -5.594   2.526   2.136  1.00  0.00     0.023 A 
ATOM      7  C   UNL     1      -5.148   2.833   3.462  1.00  0.00     0.016 A 
ATOM      8  C   UNL     1      -4.841   4.128   3.809  1.00  0.00     0.001 A 
ATOM      9  C   UNL     1      -5.551   4.899   1.568  1.00  0.00     0.017 A 
ATOM     10  C   UNL     1      -5.026   5.131   2.880  1.00  0.00     0.001 A 
BRANCH   6  11
ATOM     11  S   UNL     1      -5.892   0.466   2.354  1.00  0.00    -0.111 SA
BRANCH  11  12
ATOM     12  C   UNL     1      -4.650  -0.691   1.277  1.00  0.00     0.151 C 
ATOM     13  N   UNL     1      -2.538  -0.255   0.385  1.00  0.00    -0.250 N 
ATOM     14  C   UNL     1      -3.273  -0.598  -0.721  1.00  0.00     0.235 C 
ATOM     15  C   UNL     1      -3.222  -0.308   1.580  1.00  0.00     0.247 C 
ATOM     16  O   UNL     1      -2.870  -0.653  -1.876  1.00  0.00    -0.274 OA
ATOM     17  C   UNL     1      -4.656  -0.949  -0.274  1.00  0.00     0.126 C 
ATOM     18  O   UNL     1      -2.756  -0.146   2.702  1.00  0.00    -0.273 OA
BRANCH  13  19
ATOM     19  C   UNL     1      -1.147  -0.166   0.309  1.00  0.00     0.052 A 
ATOM     20  C   UNL     1       3.114   0.022  -0.066  1.00  0.00     0.044 C 
ATOM     21  C   UNL     1       1.622  -0.032   0.042  1.00  0.00    -0.051 A 
ATOM     22  C   UNL     1       0.980  -1.276   0.064  1.00  0.00     0.005 A 
ATOM     23  C   UNL     1       0.860   1.143   0.123  1.00  0.00     0.005 A 
ATOM     24  C   UNL     1      -0.403  -1.344   0.189  1.00  0.00     0.027 A 
ATOM     25  C   UNL     1      -0.525   1.079   0.261  1.00  0.00     0.027 A 
ENDBRANCH  13  19
ENDBRANCH  11  12
ENDBRANCH   6  11
ENDBRANCH   3   5
ENDBRANCH   2   3
ENDBRANCH   1   2
BRANCH   1  26
ATOM     26  C   UNL     1      -5.163   2.516  -3.799  1.00  0.00     0.275 C 
BRANCH  26  27
ATOM     27  O   UNL     1      -4.525   1.946  -2.633  1.00  0.00    -0.458 OA
BRANCH  27  28
ATOM     28  C   UNL     1      -3.763   2.771  -1.874  1.00  0.00     0.338 C 
ATOM     29  O   UNL     1      -2.674   3.250  -2.111  1.00  0.00    -0.246 OA
BRANCH  28  30
ATOM     30  C   UNL     1      -4.615   3.157  -0.749  1.00  0.00     0.060 A 
ATOM     31  C   UNL     1      -5.657   1.846  -0.092  1.00  0.00     0.016 A 
ATOM     32  C   UNL     1      -5.258   4.795  -0.864  1.00  0.00     0.016 A 
ATOM     33  C   UNL     1      -7.393   2.156   0.520  1.00  0.00     0.010 A 
ATOM     34  C   UNL     1      -6.980   5.098  -0.414  1.00  0.00     0.010 A 
ATOM     35  C   UNL     1      -8.034   3.813   0.298  1.00  0.00    -0.014 A 
BRANCH  35  36
ATOM     36  C   UNL     1      -9.428   4.170   0.097  1.00  0.00     0.031 A 
ATOM     37  C   UNL     1      -9.788   5.505   0.640  1.00  0.00     0.074 A 
ATOM     38  C   UNL     1     -10.109   3.473  -0.854  1.00  0.00     0.049 A 
ATOM     39  N   UNL     1     -10.983   5.945   0.722  1.00  0.00    -0.248 NA
ATOM     40  C   UNL     1      -8.841   6.485   1.208  1.00  0.00     0.031 C 
ATOM     41  C   UNL     1     -11.219   3.882  -1.717  1.00  0.00     0.029 A 
ATOM     42  N   UNL     1      -9.979   2.117  -1.159  1.00  0.00    -0.354 N 
ATOM     43  C   UNL     1     -10.902   7.316   0.878  1.00  0.00     0.074 A 
ATOM     44  C   UNL     1      -9.574   7.591   1.321  1.00  0.00     0.031 C 
ATOM     45  C   UNL     1     -11.825   2.790  -2.228  1.00  0.00     0.029 A 
ATOM     46  C   UNL     1     -11.182   1.611  -1.672  1.00  0.00     0.049 A 
ATOM     47  H   UNL     1      -9.157   1.590  -1.032  1.00  0.00     0.167 HD
ATOM     48  C   UNL     1     -11.933   8.057   0.408  1.00  0.00     0.031 A 
ATOM     49  C   UNL     1     -11.857   0.657  -0.963  1.00  0.00     0.031 A 
ATOM     50  C   UNL     1     -13.006   7.158  -0.009  1.00  0.00     0.049 A 
ATOM     51  C   UNL     1     -12.952   1.245  -0.112  1.00  0.00     0.074 A 
ATOM     52  C   UNL     1     -13.379   6.667  -1.245  1.00  0.00     0.029 A 
ATOM     53  N   UNL     1     -13.515   6.282   0.940  1.00  0.00    -0.354 N 
ATOM     54  N   UNL     1     -13.064   2.530   0.079  1.00  0.00    -0.248 NA
ATOM     55  C   UNL     1     -14.026   0.492   0.535  1.00  0.00     0.031 C 
ATOM     56  C   UNL     1     -14.019   5.410  -1.024  1.00  0.00     0.029 A 
ATOM     57  C   UNL     1     -14.042   5.156   0.339  1.00  0.00     0.049 A 
ATOM     58  H   UNL     1     -13.502   6.441   1.911  1.00  0.00     0.167 HD
ATOM     59  C   UNL     1     -14.165   2.794   0.825  1.00  0.00     0.074 A 
ATOM     60  C   UNL     1     -14.743   1.488   1.087  1.00  0.00     0.031 C 
ATOM     61  C   UNL     1     -14.520   4.061   1.175  1.00  0.00     0.031 A 
BRANCH  48  62
ATOM     62  C   UNL     1     -11.909   9.527   0.092  1.00  0.00    -0.014 A 
ATOM     63  C   UNL     1     -13.033  10.050  -0.575  1.00  0.00     0.010 A 
ATOM     64  C   UNL     1     -10.854  10.429   0.348  1.00  0.00     0.010 A 
ATOM     65  C   UNL     1     -13.118  11.390  -0.955  1.00  0.00     0.020 A 
ATOM     66  C   UNL     1     -10.931  11.784  -0.021  1.00  0.00     0.020 A 
ATOM     67  C   UNL     1     -12.072  12.256  -0.662  1.00  0.00     0.054 A 
BRANCH  67  68
ATOM     68  S   UNL     1     -12.261  14.000  -1.101  1.00  0.00     0.124 S 
ATOM     69  O   UNL     1     -12.426  13.942  -2.551  1.00  0.00    -0.237 OA
ATOM     70  O   UNL     1     -13.451  14.380  -0.345  1.00  0.00    -0.237 OA
ATOM     71  O   UNL     1     -11.014  14.611  -0.644  1.00  0.00    -0.744 OA
ENDBRANCH  67  68
ENDBRANCH  48  62
BRANCH  49  72
ATOM     72  C   UNL     1     -10.996  -0.507  -0.655  1.00  0.00    -0.014 A 
ATOM     73  C   UNL     1     -10.726  -1.360  -1.746  1.00  0.00     0.010 A 
ATOM     74  C   UNL     1     -10.136  -0.522   0.455  1.00  0.00     0.010 A 
ATOM     75  C   UNL     1      -9.569  -2.130  -1.778  1.00  0.00     0.020 A 
ATOM     76  C   UNL     1      -8.980  -1.316   0.434  1.00  0.00     0.020 A 
ATOM     77  C   UNL     1      -8.712  -2.115  -0.682  1.00  0.00     0.054 A 
BRANCH  77  78
ATOM     78  S   UNL     1      -7.275  -3.197  -0.756  1.00  0.00     0.124 S 
ATOM     79  O   UNL     1      -7.880  -4.520  -0.853  1.00  0.00    -0.237 OA
ATOM     80  O   UNL     1      -6.588  -2.732  -1.958  1.00  0.00    -0.237 OA
ATOM     81  O   UNL     1      -6.581  -2.931   0.502  1.00  0.00    -0.744 OA
ENDBRANCH  77  78
ENDBRANCH  49  72
BRANCH  61  82
ATOM     82  C   UNL     1     -15.437   4.343   2.324  1.00  0.00    -0.014 A 
ATOM     83  C   UNL     1     -15.684   3.414   3.344  1.00  0.00     0.010 A 
ATOM     84  C   UNL     1     -16.013   5.625   2.455  1.00  0.00     0.010 A 
ATOM     85  C   UNL     1     -16.627   3.675   4.332  1.00  0.00     0.020 A 
ATOM     86  C   UNL     1     -16.875   5.934   3.499  1.00  0.00     0.020 A 
ATOM     87  C   UNL     1     -17.235   4.928   4.383  1.00  0.00     0.054 A 
BRANCH  87  88
ATOM     88  S   UNL     1     -18.534   5.212   5.593  1.00  0.00     0.124 S 
ATOM     89  O   UNL     1     -19.659   4.507   4.984  1.00  0.00    -0.237 OA
ATOM     90  O   UNL     1     -17.985   4.599   6.800  1.00  0.00    -0.237 OA
ATOM     91  O   UNL     1     -18.653   6.667   5.635  1.00  0.00    -0.744 OA
ENDBRANCH  87  88
ENDBRANCH  61  82
ENDBRANCH  35  36
ENDBRANCH  28  30
ENDBRANCH  27  28
ENDBRANCH  26  27
ENDBRANCH   1  26
TORSDOF 17
