REMARK SMILES O=C(Cc1csc(NC(=O)[C@H]2CC(=O)N(C3CC3)C2)n1)OCCOC(=O)c1ccc(-c2c3nc(c(-c4ccc(S(=O)(=O)[O-])cc4)c4ccc([nH]4)c(-c4ccc(S(=O)(=O)[O-])cc4)c4nc(c(-c5ccc(S(=O)(=O)[O-])cc5)c5ccc2[nH]5)C=C4)C=C3)cc1
REMARK SMILES IDX 22 1 21 2 2 3 1 4 3 5 4 6 5 7 20 8 6 9 7 10 8 11 9 12 10 14
REMARK SMILES IDX 11 15 12 16 19 17 13 18 15 19 14 20 16 21 17 22 18 23 23 24
REMARK SMILES IDX 24 25 25 26 26 27 27 28 28 29 86 30 29 31 85 32 30 33 31 34
REMARK SMILES IDX 32 35 79 36 33 37 84 38 78 39 80 40 34 41 83 42 77 43 76 44
REMARK SMILES IDX 35 46 65 47 46 48 64 49 47 50 50 51 63 52 81 53 48 54 49 55
REMARK SMILES IDX 62 57 82 58 51 59 36 60 37 61 45 62 38 63 44 64 39 65 40 66
REMARK SMILES IDX 41 67 42 68 43 69 66 70 67 71 75 72 68 73 74 74 69 75 70 76
REMARK SMILES IDX 71 77 72 78 73 79 52 80 53 81 61 82 54 83 60 84 55 85 56 86
REMARK SMILES IDX 57 87 58 88 59 89
REMARK H PARENT 8 13 80 45 50 56
REMARK Flexibility Score: inf
ROOT
ATOM      1  C   UNL     1       0.755   3.179  -3.549  1.00  0.00     0.274 C 
ENDROOT
BRANCH   1   2
ATOM      2  O   UNL     1       0.924   1.842  -3.041  1.00  0.00    -0.462 OA
BRANCH   2   3
ATOM      3  C   UNL     1       1.698   1.547  -1.961  1.00  0.00     0.312 C 
ATOM      4  O   UNL     1       2.347   0.504  -1.944  1.00  0.00    -0.252 OA
BRANCH   3   5
ATOM      5  C   UNL     1       1.592   2.442  -0.752  1.00  0.00     0.179 C 
BRANCH   5   6
ATOM      6  C   UNL     1       2.664   3.457  -0.595  1.00  0.00     0.065 A 
ATOM      7  C   UNL     1       2.561   4.798  -0.911  1.00  0.00     0.093 A 
ATOM      8  N   UNL     1       3.834   3.124   0.071  1.00  0.00    -0.224 NA
ATOM      9  S   UNL     1       3.973   5.617  -0.441  1.00  0.00    -0.105 S 
ATOM     10  C   UNL     1       4.599   4.180   0.217  1.00  0.00     0.189 A 
BRANCH  10  11
ATOM     11  N   UNL     1       5.764   4.115   0.933  1.00  0.00    -0.302 N 
ATOM     12  C   UNL     1       6.807   4.971   1.118  1.00  0.00     0.231 C 
ATOM     13  H   UNL     1       5.872   3.266   1.419  1.00  0.00     0.172 HD
ATOM     14  O   UNL     1       7.671   4.645   1.936  1.00  0.00    -0.274 OA
BRANCH  12  15
ATOM     15  C   UNL     1       7.002   6.200   0.263  1.00  0.00     0.107 C 
ATOM     16  C   UNL     1       8.099   7.162   0.716  1.00  0.00     0.115 C 
ATOM     17  C   UNL     1       7.501   5.759  -1.100  1.00  0.00     0.133 C 
ATOM     18  C   UNL     1       8.544   7.785  -0.590  1.00  0.00     0.223 C 
ATOM     19  N   UNL     1       8.153   6.926  -1.622  1.00  0.00    -0.339 N 
ATOM     20  O   UNL     1       9.160   8.835  -0.685  1.00  0.00    -0.275 OA
BRANCH  19  21
ATOM     21  C   UNL     1       8.450   7.028  -3.016  1.00  0.00     0.085 C 
ATOM     22  C   UNL     1       8.748   8.319  -3.721  1.00  0.00     0.027 C 
ATOM     23  C   UNL     1       9.844   7.316  -3.497  1.00  0.00     0.027 C 
ENDBRANCH  19  21
ENDBRANCH  12  15
ENDBRANCH  10  11
ENDBRANCH   5   6
ENDBRANCH   3   5
ENDBRANCH   2   3
ENDBRANCH   1   2
BRANCH   1  24
ATOM     24  C   UNL     1      -0.702   3.645  -3.500  1.00  0.00     0.275 C 
BRANCH  24  25
ATOM     25  O   UNL     1      -1.143   3.805  -2.141  1.00  0.00    -0.458 OA
BRANCH  25  26
ATOM     26  C   UNL     1      -1.847   2.761  -1.628  1.00  0.00     0.338 C 
ATOM     27  O   UNL     1      -2.206   1.763  -2.226  1.00  0.00    -0.246 OA
BRANCH  26  28
ATOM     28  C   UNL     1      -1.915   2.910  -0.155  1.00  0.00     0.060 A 
ATOM     29  C   UNL     1      -1.651   1.779   0.630  1.00  0.00     0.016 A 
ATOM     30  C   UNL     1      -2.156   4.147   0.450  1.00  0.00     0.016 A 
ATOM     31  C   UNL     1      -1.631   1.882   2.022  1.00  0.00     0.010 A 
ATOM     32  C   UNL     1      -2.153   4.243   1.845  1.00  0.00     0.010 A 
ATOM     33  C   UNL     1      -1.902   3.110   2.638  1.00  0.00    -0.014 A 
BRANCH  33  34
ATOM     34  C   UNL     1      -2.061   3.193   4.110  1.00  0.00     0.031 A 
ATOM     35  C   UNL     1      -3.438   3.050   4.696  1.00  0.00     0.074 A 
ATOM     36  C   UNL     1      -1.006   3.424   4.913  1.00  0.00     0.049 A 
ATOM     37  N   UNL     1      -3.818   3.140   5.943  1.00  0.00    -0.248 NA
ATOM     38  C   UNL     1      -4.530   2.773   3.748  1.00  0.00     0.031 C 
ATOM     39  C   UNL     1       0.383   3.560   4.477  1.00  0.00     0.029 A 
ATOM     40  N   UNL     1      -0.951   3.605   6.274  1.00  0.00    -0.354 N 
ATOM     41  C   UNL     1      -5.191   2.936   5.933  1.00  0.00     0.074 A 
ATOM     42  C   UNL     1      -5.582   2.735   4.554  1.00  0.00     0.031 C 
ATOM     43  C   UNL     1       1.151   3.828   5.548  1.00  0.00     0.029 A 
ATOM     44  C   UNL     1       0.307   3.907   6.740  1.00  0.00     0.049 A 
ATOM     45  H   UNL     1      -1.737   3.525   6.861  1.00  0.00     0.167 HD
ATOM     46  C   UNL     1      -6.053   2.916   6.976  1.00  0.00     0.031 A 
ATOM     47  C   UNL     1       0.724   4.235   7.980  1.00  0.00     0.031 A 
ATOM     48  C   UNL     1      -5.675   3.132   8.345  1.00  0.00     0.049 A 
ATOM     49  C   UNL     1      -0.270   4.287   9.113  1.00  0.00     0.074 A 
ATOM     50  C   UNL     1      -6.475   3.084   9.473  1.00  0.00     0.029 A 
ATOM     51  N   UNL     1      -4.398   3.460   8.771  1.00  0.00    -0.354 N 
ATOM     52  N   UNL     1      -1.553   4.017   9.098  1.00  0.00    -0.248 NA
ATOM     53  C   UNL     1       0.243   4.691  10.432  1.00  0.00     0.031 C 
ATOM     54  C   UNL     1      -5.693   3.442  10.576  1.00  0.00     0.029 A 
ATOM     55  C   UNL     1      -4.396   3.661  10.140  1.00  0.00     0.049 A 
ATOM     56  H   UNL     1      -3.610   3.538   8.187  1.00  0.00     0.167 HD
ATOM     57  C   UNL     1      -1.994   4.195  10.406  1.00  0.00     0.074 A 
ATOM     58  C   UNL     1      -0.842   4.586  11.190  1.00  0.00     0.031 C 
ATOM     59  C   UNL     1      -3.243   4.048  10.912  1.00  0.00     0.031 A 
BRANCH  46  60
ATOM     60  C   UNL     1      -7.505   2.685   6.670  1.00  0.00    -0.014 A 
ATOM     61  C   UNL     1      -7.979   1.405   6.331  1.00  0.00     0.010 A 
ATOM     62  C   UNL     1      -8.412   3.754   6.766  1.00  0.00     0.010 A 
ATOM     63  C   UNL     1      -9.335   1.206   6.064  1.00  0.00     0.020 A 
ATOM     64  C   UNL     1      -9.772   3.555   6.520  1.00  0.00     0.020 A 
ATOM     65  C   UNL     1     -10.223   2.284   6.156  1.00  0.00     0.054 A 
BRANCH  65  66
ATOM     66  S   UNL     1     -11.982   1.993   5.829  1.00  0.00     0.124 S 
ATOM     67  O   UNL     1     -11.998   1.858   4.374  1.00  0.00    -0.237 OA
ATOM     68  O   UNL     1     -12.250   0.766   6.576  1.00  0.00    -0.237 OA
ATOM     69  O   UNL     1     -12.635   3.191   6.350  1.00  0.00    -0.744 OA
ENDBRANCH  65  66
ENDBRANCH  46  60
BRANCH  47  70
ATOM     70  C   UNL     1       2.149   4.590   8.221  1.00  0.00    -0.014 A 
ATOM     71  C   UNL     1       2.985   3.741   8.966  1.00  0.00     0.010 A 
ATOM     72  C   UNL     1       2.665   5.806   7.735  1.00  0.00     0.010 A 
ATOM     73  C   UNL     1       4.303   4.115   9.246  1.00  0.00     0.020 A 
ATOM     74  C   UNL     1       3.988   6.171   7.992  1.00  0.00     0.020 A 
ATOM     75  C   UNL     1       4.795   5.330   8.761  1.00  0.00     0.054 A 
BRANCH  75  76
ATOM     76  S   UNL     1       6.513   5.790   9.118  1.00  0.00     0.124 S 
ATOM     77  O   UNL     1       6.425   6.229  10.507  1.00  0.00    -0.237 OA
ATOM     78  O   UNL     1       7.230   4.538   8.894  1.00  0.00    -0.237 OA
ATOM     79  O   UNL     1       6.790   6.843   8.144  1.00  0.00    -0.744 OA
ENDBRANCH  75  76
ENDBRANCH  47  70
BRANCH  59  80
ATOM     80  C   UNL     1      -3.441   4.287  12.385  1.00  0.00    -0.014 A 
ATOM     81  C   UNL     1      -3.466   5.590  12.909  1.00  0.00     0.010 A 
ATOM     82  C   UNL     1      -3.701   3.198  13.238  1.00  0.00     0.010 A 
ATOM     83  C   UNL     1      -3.737   5.801  14.264  1.00  0.00     0.020 A 
ATOM     84  C   UNL     1      -3.996   3.406  14.588  1.00  0.00     0.020 A 
ATOM     85  C   UNL     1      -4.005   4.707  15.095  1.00  0.00     0.054 A 
BRANCH  85  86
ATOM     86  S   UNL     1      -4.435   5.011  16.831  1.00  0.00     0.124 S 
ATOM     87  O   UNL     1      -3.135   5.336  17.413  1.00  0.00    -0.237 OA
ATOM     88  O   UNL     1      -5.378   6.123  16.740  1.00  0.00    -0.237 OA
ATOM     89  O   UNL     1      -5.016   3.745  17.271  1.00  0.00    -0.744 OA
ENDBRANCH  85  86
ENDBRANCH  59  80
ENDBRANCH  33  34
ENDBRANCH  26  28
ENDBRANCH  25  26
ENDBRANCH  24  25
ENDBRANCH   1  24
TORSDOF 18
