REMARK SMILES CN1N[C@H](C(=O)N[C@@H](CC2=c3ccccc3=NC2)C(=O)OCCOC(=O)c2ccc(-c3c4nc(c(-c5ccc(S(=O)(=O)[O-])cc5)c5ccc([nH]5)c(-c5ccc(S(=O)(=O)[O-])cc5)c5nc(c(-c6ccc(S(=O)(=O)[O-])cc6)c6ccc3[nH]6)C=C5)C=C4)cc2)c2ccccc2C1=O
REMARK SMILES IDX 23 1 22 2 21 3 19 4 20 5 8 6 7 7 5 8 6 9 4 11 1 12 2 13 3 14
REMARK SMILES IDX 93 15 92 17 94 18 87 19 91 20 88 21 90 22 89 23 9 24 10 25
REMARK SMILES IDX 11 26 18 27 12 28 16 29 17 30 13 31 15 32 14 33 24 34 25 35
REMARK SMILES IDX 26 36 27 37 28 38 86 39 29 40 85 41 30 42 31 43 32 44 79 45
REMARK SMILES IDX 33 46 84 47 78 48 80 49 34 50 83 51 77 52 76 53 35 55 65 56
REMARK SMILES IDX 46 57 64 58 47 59 50 60 63 61 81 62 48 63 49 64 62 66 82 67
REMARK SMILES IDX 51 68 36 69 37 70 45 71 38 72 44 73 39 74 40 75 41 76 42 77
REMARK SMILES IDX 43 78 66 79 67 80 75 81 68 82 74 83 69 84 70 85 71 86 72 87
REMARK SMILES IDX 73 88 52 89 53 90 61 91 54 92 60 93 55 94 56 95 57 96 58 97
REMARK SMILES IDX 59 98
REMARK H PARENT 7 10 3 16 80 54 50 65
REMARK Flexibility Score: inf
ROOT
ATOM      1  C   UNL     1      -3.492   0.460   8.294  1.00  0.00     0.275 C 
ENDROOT
BRANCH   1   2
ATOM      2  C   UNL     1      -2.073   0.959   8.566  1.00  0.00     0.274 C 
BRANCH   2   3
ATOM      3  O   UNL     1      -1.474   1.556   7.397  1.00  0.00    -0.461 OA
BRANCH   3   4
ATOM      4  C   UNL     1      -0.625   0.743   6.716  1.00  0.00     0.329 C 
ATOM      5  O   UNL     1      -0.378  -0.416   7.035  1.00  0.00    -0.250 OA
BRANCH   4   6
ATOM      6  C   UNL     1       0.074   1.427   5.537  1.00  0.00     0.196 C 
BRANCH   6   7
ATOM      7  N   UNL     1      -0.387   2.767   5.148  1.00  0.00    -0.341 N 
ATOM      8  C   UNL     1      -0.448   3.383   3.931  1.00  0.00     0.244 C 
ATOM      9  O   UNL     1      -0.552   4.617   3.937  1.00  0.00    -0.273 OA
ATOM     10  H   UNL     1      -0.709   3.318   5.897  1.00  0.00     0.164 HD
BRANCH   8  11
ATOM     11  C   UNL     1      -0.511   2.610   2.588  1.00  0.00     0.195 C 
ATOM     12  C   UNL     1       1.712   0.684   0.424  1.00  0.00     0.169 C 
ATOM     13  N   UNL     1       0.581   0.869   1.317  1.00  0.00    -0.276 N 
ATOM     14  N   UNL     1       0.697   1.776   2.413  1.00  0.00    -0.215 NA
ATOM     15  C   UNL     1      -0.570   0.094   1.133  1.00  0.00     0.268 C 
ATOM     16  H   UNL     1       1.496   2.388   2.248  1.00  0.00     0.149 HD
ATOM     17  C   UNL     1      -1.818   0.637   1.731  1.00  0.00     0.046 A 
ATOM     18  O   UNL     1      -0.602  -0.926   0.465  1.00  0.00    -0.268 OA
ATOM     19  C   UNL     1      -1.805   1.848   2.430  1.00  0.00    -0.007 A 
ATOM     20  C   UNL     1      -3.026  -0.025   1.484  1.00  0.00     0.014 A 
ATOM     21  C   UNL     1      -3.030   2.392   2.855  1.00  0.00     0.007 A 
ATOM     22  C   UNL     1      -4.227   0.507   1.949  1.00  0.00     0.001 A 
ATOM     23  C   UNL     1      -4.229   1.717   2.629  1.00  0.00     0.000 A 
ENDBRANCH   8  11
ENDBRANCH   6   7
BRANCH   6  24
ATOM     24  C   UNL     1       1.590   1.404   5.876  1.00  0.00     0.070 C 
BRANCH  24  25
ATOM     25  C   UNL     1       2.221   2.542   6.645  1.00  0.00    -0.037 C 
ATOM     26  C   UNL     1       1.716   3.597   7.287  1.00  0.00     0.001 A 
ATOM     27  C   UNL     1       3.680   2.815   6.397  1.00  0.00     0.174 C 
ATOM     28  C   UNL     1       0.542   3.986   8.003  1.00  0.00     0.010 A 
ATOM     29  C   UNL     1       2.579   4.632   6.658  1.00  0.00     0.065 A 
ATOM     30  N   UNL     1       3.723   4.267   6.159  1.00  0.00    -0.280 NA
ATOM     31  C   UNL     1       0.170   5.277   8.003  1.00  0.00     0.001 A 
ATOM     32  C   UNL     1       1.974   5.972   6.501  1.00  0.00     0.028 A 
ATOM     33  C   UNL     1       0.819   6.239   7.131  1.00  0.00     0.002 A 
ENDBRANCH  24  25
ENDBRANCH   6  24
ENDBRANCH   4   6
ENDBRANCH   3   4
ENDBRANCH   2   3
ENDBRANCH   1   2
BRANCH   1  34
ATOM     34  O   UNL     1      -3.506  -0.627   7.351  1.00  0.00    -0.458 OA
BRANCH  34  35
ATOM     35  C   UNL     1      -3.713  -0.249   6.070  1.00  0.00     0.338 C 
ATOM     36  O   UNL     1      -3.900   0.892   5.672  1.00  0.00    -0.246 OA
BRANCH  35  37
ATOM     37  C   UNL     1      -3.604  -1.403   5.168  1.00  0.00     0.060 A 
ATOM     38  C   UNL     1      -4.729  -2.168   4.851  1.00  0.00     0.016 A 
ATOM     39  C   UNL     1      -2.398  -1.617   4.504  1.00  0.00     0.016 A 
ATOM     40  C   UNL     1      -4.639  -3.148   3.852  1.00  0.00     0.010 A 
ATOM     41  C   UNL     1      -2.327  -2.555   3.477  1.00  0.00     0.010 A 
ATOM     42  C   UNL     1      -3.445  -3.332   3.134  1.00  0.00    -0.014 A 
BRANCH  42  43
ATOM     43  C   UNL     1      -3.335  -4.293   2.001  1.00  0.00     0.031 A 
ATOM     44  C   UNL     1      -2.354  -5.433   2.071  1.00  0.00     0.074 A 
ATOM     45  C   UNL     1      -4.029  -4.091   0.861  1.00  0.00     0.049 A 
ATOM     46  N   UNL     1      -2.127  -6.376   1.192  1.00  0.00    -0.248 NA
ATOM     47  C   UNL     1      -1.514  -5.523   3.276  1.00  0.00     0.031 C 
ATOM     48  C   UNL     1      -4.963  -2.992   0.622  1.00  0.00     0.029 A 
ATOM     49  N   UNL     1      -4.029  -4.780  -0.329  1.00  0.00    -0.354 N 
ATOM     50  C   UNL     1      -1.150  -7.186   1.756  1.00  0.00     0.074 A 
ATOM     51  C   UNL     1      -0.739  -6.558   2.991  1.00  0.00     0.031 C 
ATOM     52  C   UNL     1      -5.409  -3.049  -0.642  1.00  0.00     0.029 A 
ATOM     53  C   UNL     1      -4.828  -4.216  -1.297  1.00  0.00     0.049 A 
ATOM     54  H   UNL     1      -3.507  -5.602  -0.474  1.00  0.00     0.167 HD
ATOM     55  C   UNL     1      -0.694  -8.387   1.330  1.00  0.00     0.031 A 
ATOM     56  C   UNL     1      -5.099  -4.606  -2.559  1.00  0.00     0.031 A 
ATOM     57  C   UNL     1      -1.104  -9.008   0.101  1.00  0.00     0.049 A 
ATOM     58  C   UNL     1      -4.562  -5.923  -3.045  1.00  0.00     0.074 A 
ATOM     59  C   UNL     1      -0.764 -10.255  -0.389  1.00  0.00     0.029 A 
ATOM     60  N   UNL     1      -1.945  -8.423  -0.835  1.00  0.00    -0.354 N 
ATOM     61  N   UNL     1      -3.757  -6.755  -2.430  1.00  0.00    -0.248 NA
ATOM     62  C   UNL     1      -5.019  -6.388  -4.362  1.00  0.00     0.031 C 
ATOM     63  C   UNL     1      -1.373 -10.411  -1.637  1.00  0.00     0.029 A 
ATOM     64  C   UNL     1      -2.132  -9.282  -1.902  1.00  0.00     0.049 A 
ATOM     65  H   UNL     1      -2.349  -7.529  -0.751  1.00  0.00     0.167 HD
ATOM     66  C   UNL     1      -3.654  -7.866  -3.258  1.00  0.00     0.074 A 
ATOM     67  C   UNL     1      -4.470  -7.595  -4.425  1.00  0.00     0.031 C 
ATOM     68  C   UNL     1      -2.960  -9.011  -3.053  1.00  0.00     0.031 A 
BRANCH  55  69
ATOM     69  C   UNL     1       0.225  -9.140   2.256  1.00  0.00    -0.014 A 
ATOM     70  C   UNL     1       1.555  -9.415   1.899  1.00  0.00     0.010 A 
ATOM     71  C   UNL     1      -0.262  -9.611   3.493  1.00  0.00     0.010 A 
ATOM     72  C   UNL     1       2.385 -10.134   2.766  1.00  0.00     0.020 A 
ATOM     73  C   UNL     1       0.572 -10.299   4.374  1.00  0.00     0.020 A 
ATOM     74  C   UNL     1       1.889 -10.568   4.000  1.00  0.00     0.054 A 
BRANCH  74  75
ATOM     75  S   UNL     1       2.987 -11.450   5.142  1.00  0.00     0.124 S 
ATOM     76  O   UNL     1       2.972 -12.805   4.601  1.00  0.00    -0.237 OA
ATOM     77  O   UNL     1       4.249 -10.726   5.002  1.00  0.00    -0.237 OA
ATOM     78  O   UNL     1       2.332 -11.285   6.439  1.00  0.00    -0.744 OA
ENDBRANCH  74  75
ENDBRANCH  55  69
BRANCH  56  79
ATOM     79  C   UNL     1      -6.049  -3.801  -3.374  1.00  0.00    -0.014 A 
ATOM     80  C   UNL     1      -5.656  -2.576  -3.946  1.00  0.00     0.010 A 
ATOM     81  C   UNL     1      -7.389  -4.211  -3.491  1.00  0.00     0.010 A 
ATOM     82  C   UNL     1      -6.596  -1.761  -4.588  1.00  0.00     0.020 A 
ATOM     83  C   UNL     1      -8.326  -3.407  -4.146  1.00  0.00     0.020 A 
ATOM     84  C   UNL     1      -7.929  -2.175  -4.669  1.00  0.00     0.054 A 
BRANCH  84  85
ATOM     85  S   UNL     1      -9.145  -1.071  -5.441  1.00  0.00     0.124 S 
ATOM     86  O   UNL     1      -9.259  -0.007  -4.447  1.00  0.00    -0.237 OA
ATOM     87  O   UNL     1      -8.488  -0.698  -6.691  1.00  0.00    -0.237 OA
ATOM     88  O   UNL     1     -10.329  -1.913  -5.591  1.00  0.00    -0.744 OA
ENDBRANCH  84  85
ENDBRANCH  56  79
BRANCH  68  89
ATOM     89  C   UNL     1      -3.051 -10.099  -4.089  1.00  0.00    -0.014 A 
ATOM     90  C   UNL     1      -3.696 -11.308  -3.766  1.00  0.00     0.010 A 
ATOM     91  C   UNL     1      -2.357  -9.993  -5.306  1.00  0.00     0.010 A 
ATOM     92  C   UNL     1      -3.599 -12.411  -4.615  1.00  0.00     0.020 A 
ATOM     93  C   UNL     1      -2.280 -11.088  -6.171  1.00  0.00     0.020 A 
ATOM     94  C   UNL     1      -2.873 -12.299  -5.804  1.00  0.00     0.054 A 
BRANCH  94  95
ATOM     95  S   UNL     1      -2.685 -13.765  -6.855  1.00  0.00     0.124 S 
ATOM     96  O   UNL     1      -1.666 -14.527  -6.139  1.00  0.00    -0.237 OA
ATOM     97  O   UNL     1      -4.027 -14.344  -6.846  1.00  0.00    -0.237 OA
ATOM     98  O   UNL     1      -2.264 -13.213  -8.141  1.00  0.00    -0.744 OA
ENDBRANCH  94  95
ENDBRANCH  68  89
ENDBRANCH  42  43
ENDBRANCH  35  37
ENDBRANCH  34  35
ENDBRANCH   1  34
TORSDOF 18
