REMARK SMILES N#Cc1ccc(C(=O)NC[C@H]2CC[C@H](C(=O)OCCOC(=O)c3ccc(-c4c5nc(c(-c6ccc(S(=O)(=O)[O-])cc6)c6ccc([nH]6)c(-c6ccc(S(=O)(=O)[O-])cc6)c6nc(c(-c7ccc(S(=O)(=O)[O-])cc7)c7ccc4[nH]7)C=C6)C=C5)cc3)O2)cc1
REMARK SMILES IDX 18 1 17 2 15 3 16 4 14 5 11 6 12 7 83 8 13 9 10 10 9 11 7 12
REMARK SMILES IDX 8 13 6 15 3 16 4 17 85 18 5 19 84 20 2 21 1 22 19 23 20 24
REMARK SMILES IDX 21 25 22 26 23 27 24 28 82 29 25 30 81 31 26 32 27 33 28 34
REMARK SMILES IDX 75 35 29 36 80 37 74 38 76 39 30 40 79 41 73 42 72 43 31 45
REMARK SMILES IDX 61 46 42 47 60 48 43 49 46 50 59 51 77 52 44 53 45 54 58 56
REMARK SMILES IDX 78 57 47 58 32 59 33 60 41 61 34 62 40 63 35 64 36 65 37 66
REMARK SMILES IDX 38 67 39 68 62 69 63 70 71 71 64 72 70 73 65 74 66 75 67 76
REMARK SMILES IDX 68 77 69 78 48 79 49 80 57 81 50 82 56 83 51 84 52 85 53 86
REMARK SMILES IDX 54 87 55 88
REMARK H PARENT 9 14 76 44 46 55
REMARK Flexibility Score: inf
ROOT
ATOM      1  C   UNL     1       0.790  -6.494   0.577  1.00  0.00     0.274 C 
ENDROOT
BRANCH   1   2
ATOM      2  O   UNL     1       1.710  -5.671  -0.158  1.00  0.00    -0.460 OA
BRANCH   2   3
ATOM      3  C   UNL     1       3.007  -6.082  -0.123  1.00  0.00     0.335 C 
ATOM      4  O   UNL     1       3.422  -7.016   0.555  1.00  0.00    -0.249 OA
BRANCH   3   5
ATOM      5  C   UNL     1       3.917  -5.239  -1.008  1.00  0.00     0.228 C 
ATOM      6  C   UNL     1       4.493  -2.989  -0.945  1.00  0.00     0.138 C 
ATOM      7  C   UNL     1       3.264  -3.119  -1.834  1.00  0.00     0.037 C 
ATOM      8  O   UNL     1       4.510  -4.213  -0.198  1.00  0.00    -0.361 OA
ATOM      9  C   UNL     1       3.272  -4.578  -2.219  1.00  0.00     0.047 C 
BRANCH   6  10
ATOM     10  C   UNL     1       5.873  -2.834  -1.633  1.00  0.00     0.148 C 
BRANCH  10  11
ATOM     11  N   UNL     1       5.833  -2.811  -3.082  1.00  0.00    -0.349 N 
ATOM     12  C   UNL     1       5.683  -1.810  -4.002  1.00  0.00     0.251 C 
ATOM     13  O   UNL     1       5.672  -2.140  -5.189  1.00  0.00    -0.269 OA
ATOM     14  H   UNL     1       5.934  -3.702  -3.489  1.00  0.00     0.163 HD
BRANCH  12  15
ATOM     15  C   UNL     1       5.570  -0.360  -3.661  1.00  0.00     0.039 A 
ATOM     16  C   UNL     1       5.513   2.430  -3.217  1.00  0.00     0.052 A 
ATOM     17  C   UNL     1       5.785   1.930  -4.490  1.00  0.00     0.020 A 
ATOM     18  C   UNL     1       5.224   1.542  -2.180  1.00  0.00     0.020 A 
ATOM     19  C   UNL     1       5.816   0.547  -4.706  1.00  0.00     0.015 A 
ATOM     20  C   UNL     1       5.231   0.160  -2.410  1.00  0.00     0.015 A 
BRANCH  16  21
ATOM     21  C   UNL     1       5.528   3.840  -2.970  1.00  0.00     0.099 C 
ATOM     22  N   UNL     1       5.544   4.982  -2.756  1.00  0.00    -0.192 NA
ENDBRANCH  16  21
ENDBRANCH  12  15
ENDBRANCH  10  11
ENDBRANCH   6  10
ENDBRANCH   3   5
ENDBRANCH   2   3
ENDBRANCH   1   2
BRANCH   1  23
ATOM     23  C   UNL     1       0.157  -7.565  -0.317  1.00  0.00     0.275 C 
BRANCH  23  24
ATOM     24  O   UNL     1       1.120  -8.529  -0.788  1.00  0.00    -0.458 OA
BRANCH  24  25
ATOM     25  C   UNL     1       1.659  -8.254  -1.999  1.00  0.00     0.338 C 
ATOM     26  O   UNL     1       1.403  -7.302  -2.718  1.00  0.00    -0.246 OA
BRANCH  25  27
ATOM     27  C   UNL     1       2.729  -9.205  -2.326  1.00  0.00     0.060 A 
ATOM     28  C   UNL     1       4.052  -8.771  -2.230  1.00  0.00     0.016 A 
ATOM     29  C   UNL     1       2.438 -10.454  -2.867  1.00  0.00     0.016 A 
ATOM     30  C   UNL     1       5.091  -9.559  -2.704  1.00  0.00     0.010 A 
ATOM     31  C   UNL     1       3.489 -11.273  -3.293  1.00  0.00     0.010 A 
ATOM     32  C   UNL     1       4.822 -10.828  -3.224  1.00  0.00    -0.014 A 
BRANCH  32  33
ATOM     33  C   UNL     1       5.944 -11.688  -3.671  1.00  0.00     0.031 A 
ATOM     34  C   UNL     1       6.069 -12.086  -5.114  1.00  0.00     0.074 A 
ATOM     35  C   UNL     1       6.847 -12.111  -2.764  1.00  0.00     0.049 A 
ATOM     36  N   UNL     1       6.911 -12.918  -5.667  1.00  0.00    -0.248 NA
ATOM     37  C   UNL     1       5.118 -11.475  -6.057  1.00  0.00     0.031 C 
ATOM     38  C   UNL     1       6.854 -11.749  -1.344  1.00  0.00     0.029 A 
ATOM     39  N   UNL     1       7.932 -12.940  -2.898  1.00  0.00    -0.354 N 
ATOM     40  C   UNL     1       6.575 -12.959  -7.015  1.00  0.00     0.074 A 
ATOM     41  C   UNL     1       5.437 -12.082  -7.192  1.00  0.00     0.031 C 
ATOM     42  C   UNL     1       7.898 -12.339  -0.744  1.00  0.00     0.029 A 
ATOM     43  C   UNL     1       8.585 -13.183  -1.713  1.00  0.00     0.049 A 
ATOM     44  H   UNL     1       8.215 -13.323  -3.760  1.00  0.00     0.167 HD
ATOM     45  C   UNL     1       7.164 -13.665  -8.009  1.00  0.00     0.031 A 
ATOM     46  C   UNL     1       9.595 -14.025  -1.425  1.00  0.00     0.031 A 
ATOM     47  C   UNL     1       8.293 -14.540  -7.811  1.00  0.00     0.049 A 
ATOM     48  C   UNL     1      10.174 -14.861  -2.531  1.00  0.00     0.074 A 
ATOM     49  C   UNL     1       8.976 -15.288  -8.754  1.00  0.00     0.029 A 
ATOM     50  N   UNL     1       8.901 -14.790  -6.588  1.00  0.00    -0.354 N 
ATOM     51  N   UNL     1       9.854 -14.880  -3.803  1.00  0.00    -0.248 NA
ATOM     52  C   UNL     1      11.250 -15.790  -2.164  1.00  0.00     0.031 C 
ATOM     53  C   UNL     1       9.943 -16.049  -8.091  1.00  0.00     0.029 A 
ATOM     54  C   UNL     1       9.923 -15.711  -6.747  1.00  0.00     0.049 A 
ATOM     55  H   UNL     1       8.643 -14.373  -5.734  1.00  0.00     0.167 HD
ATOM     56  C   UNL     1      10.709 -15.802  -4.394  1.00  0.00     0.074 A 
ATOM     57  C   UNL     1      11.574 -16.301  -3.343  1.00  0.00     0.031 C 
ATOM     58  C   UNL     1      10.773 -16.201  -5.689  1.00  0.00     0.031 A 
BRANCH  45  59
ATOM     59  C   UNL     1       6.571 -13.563  -9.392  1.00  0.00    -0.014 A 
ATOM     60  C   UNL     1       6.647 -12.376 -10.142  1.00  0.00     0.010 A 
ATOM     61  C   UNL     1       5.967 -14.696  -9.971  1.00  0.00     0.010 A 
ATOM     62  C   UNL     1       6.098 -12.312 -11.427  1.00  0.00     0.020 A 
ATOM     63  C   UNL     1       5.448 -14.647 -11.267  1.00  0.00     0.020 A 
ATOM     64  C   UNL     1       5.503 -13.450 -11.982  1.00  0.00     0.054 A 
BRANCH  64  65
ATOM     65  S   UNL     1       4.827 -13.345 -13.662  1.00  0.00     0.124 S 
ATOM     66  O   UNL     1       3.679 -12.462 -13.470  1.00  0.00    -0.237 OA
ATOM     67  O   UNL     1       5.939 -12.773 -14.416  1.00  0.00    -0.237 OA
ATOM     68  O   UNL     1       4.498 -14.729 -13.993  1.00  0.00    -0.744 OA
ENDBRANCH  64  65
ENDBRANCH  45  59
BRANCH  46  69
ATOM     69  C   UNL     1      10.091 -14.143  -0.025  1.00  0.00    -0.014 A 
ATOM     70  C   UNL     1      11.392 -13.735   0.312  1.00  0.00     0.010 A 
ATOM     71  C   UNL     1       9.255 -14.660   0.984  1.00  0.00     0.010 A 
ATOM     72  C   UNL     1      11.855 -13.858   1.625  1.00  0.00     0.020 A 
ATOM     73  C   UNL     1       9.701 -14.749   2.305  1.00  0.00     0.020 A 
ATOM     74  C   UNL     1      11.004 -14.360   2.614  1.00  0.00     0.054 A 
BRANCH  74  75
ATOM     75  S   UNL     1      11.616 -14.467   4.318  1.00  0.00     0.124 S 
ATOM     76  O   UNL     1      12.607 -15.534   4.219  1.00  0.00    -0.237 OA
ATOM     77  O   UNL     1      12.149 -13.126   4.544  1.00  0.00    -0.237 OA
ATOM     78  O   UNL     1      10.420 -14.793   5.092  1.00  0.00    -0.744 OA
ENDBRANCH  74  75
ENDBRANCH  46  69
BRANCH  58  79
ATOM     79  C   UNL     1      11.839 -17.203  -6.051  1.00  0.00    -0.014 A 
ATOM     80  C   UNL     1      11.776 -18.535  -5.605  1.00  0.00     0.010 A 
ATOM     81  C   UNL     1      12.896 -16.813  -6.893  1.00  0.00     0.010 A 
ATOM     82  C   UNL     1      12.769 -19.449  -5.966  1.00  0.00     0.020 A 
ATOM     83  C   UNL     1      13.870 -17.733  -7.289  1.00  0.00     0.020 A 
ATOM     84  C   UNL     1      13.807 -19.043  -6.811  1.00  0.00     0.054 A 
BRANCH  84  85
ATOM     85  S   UNL     1      15.054 -20.263  -7.304  1.00  0.00     0.124 S 
ATOM     86  O   UNL     1      15.775 -20.485  -6.054  1.00  0.00    -0.237 OA
ATOM     87  O   UNL     1      14.238 -21.382  -7.767  1.00  0.00    -0.237 OA
ATOM     88  O   UNL     1      15.815 -19.580  -8.348  1.00  0.00    -0.744 OA
ENDBRANCH  84  85
ENDBRANCH  58  79
ENDBRANCH  32  33
ENDBRANCH  25  27
ENDBRANCH  24  25
ENDBRANCH  23  24
ENDBRANCH   1  23
TORSDOF 18
