REMARK SMILES CCC[N@@H+](C1CC1)[C@@H]1CC[C@]([NH2+]C2CC2)(C(=O)OCCOC(=O)c2ccc(-c3c4nc(c(-c5ccc(S(=O)(=O)[O-])cc5)c5ccc([nH]5)c(-c5ccc(S(=O)(=O)[O-])cc5)c5nc(c(-c6ccc(S(=O)(=O)[O-])cc6)c6ccc3[nH]6)C=C5)C=C4)cc2)C1
REMARK SMILES IDX 19 1 18 2 16 3 17 4 11 5 8 6 9 7 84 8 10 9 4 10 3 12 2 13
REMARK SMILES IDX 1 14 5 15 6 16 7 17 12 18 13 21 14 22 15 23 20 24 21 25
REMARK SMILES IDX 22 26 23 27 24 28 25 29 83 30 26 31 82 32 27 33 28 34 29 35
REMARK SMILES IDX 76 36 30 37 81 38 75 39 77 40 31 41 80 42 74 43 73 44 32 46
REMARK SMILES IDX 62 47 43 48 61 49 44 50 47 51 60 52 78 53 45 54 46 55 59 57
REMARK SMILES IDX 79 58 48 59 33 60 34 61 42 62 35 63 41 64 36 65 37 66 38 67
REMARK SMILES IDX 39 68 40 69 63 70 64 71 72 72 65 73 71 74 66 75 67 76 68 77
REMARK SMILES IDX 69 78 70 79 49 80 50 81 58 82 51 83 57 84 52 85 53 86 54 87
REMARK SMILES IDX 55 88 56 89
REMARK H PARENT 4 11 12 19 12 20 77 45 47 56
REMARK Flexibility Score: inf
ROOT
ATOM      1  C   UNL     1      -1.143  -1.080  -5.032  1.00  0.00     0.274 C 
ENDROOT
BRANCH   1   2
ATOM      2  O   UNL     1      -0.125  -0.198  -4.519  1.00  0.00    -0.457 OA
BRANCH   2   3
ATOM      3  C   UNL     1      -0.463   0.553  -3.425  1.00  0.00     0.368 C 
ATOM      4  O   UNL     1      -1.596   0.607  -2.959  1.00  0.00    -0.245 OA
BRANCH   3   5
ATOM      5  C   UNL     1       0.733   1.406  -2.912  1.00  0.00     0.200 C 
ATOM      6  C   UNL     1       1.149   2.871  -0.976  1.00  0.00     0.191 C 
ATOM      7  C   UNL     1       0.301   3.638  -2.006  1.00  0.00     0.072 C 
ATOM      8  C   UNL     1       0.745   1.433  -1.368  1.00  0.00     0.146 C 
ATOM      9  C   UNL     1       0.457   2.865  -3.319  1.00  0.00     0.087 C 
BRANCH   6  10
ATOM     10  N   UNL     1       0.967   3.234   0.458  1.00  0.00    -0.330 N 
ATOM     11  H   UNL     1      -0.040   3.123   0.581  1.00  0.00     0.348 HD
BRANCH  10  12
ATOM     12  C   UNL     1       1.783   2.340   1.339  1.00  0.00     0.262 C 
BRANCH  12  13
ATOM     13  C   UNL     1       1.163   0.982   1.683  1.00  0.00     0.058 C 
ATOM     14  C   UNL     1       2.123  -0.182   1.452  1.00  0.00     0.010 C 
ENDBRANCH  12  13
ENDBRANCH  10  12
BRANCH  10  15
ATOM     15  C   UNL     1       1.299   4.643   0.855  1.00  0.00     0.184 C 
ATOM     16  C   UNL     1       2.164   5.553   0.027  1.00  0.00     0.071 C 
ATOM     17  C   UNL     1       0.710   5.879   0.248  1.00  0.00     0.071 C 
ENDBRANCH  10  15
ENDBRANCH   6  10
BRANCH   5  18
ATOM     18  N   UNL     1       2.000   0.865  -3.478  1.00  0.00    -0.329 N 
ATOM     19  H   UNL     1       1.934   0.935  -4.493  1.00  0.00     0.347 HD
ATOM     20  H   UNL     1       2.064  -0.083  -3.107  1.00  0.00     0.347 HD
BRANCH  18  21
ATOM     21  C   UNL     1       3.252   1.504  -3.077  1.00  0.00     0.183 C 
ATOM     22  C   UNL     1       4.041   0.919  -1.937  1.00  0.00     0.071 C 
ATOM     23  C   UNL     1       4.547   0.788  -3.341  1.00  0.00     0.071 C 
ENDBRANCH  18  21
ENDBRANCH   5  18
ENDBRANCH   3   5
ENDBRANCH   2   3
ENDBRANCH   1   2
BRANCH   1  24
ATOM     24  C   UNL     1      -0.931  -2.493  -4.494  1.00  0.00     0.275 C 
BRANCH  24  25
ATOM     25  O   UNL     1      -1.148  -2.490  -3.074  1.00  0.00    -0.458 OA
BRANCH  25  26
ATOM     26  C   UNL     1      -0.293  -3.235  -2.338  1.00  0.00     0.338 C 
ATOM     27  O   UNL     1       0.587  -3.971  -2.768  1.00  0.00    -0.246 OA
BRANCH  26  28
ATOM     28  C   UNL     1      -0.576  -3.060  -0.896  1.00  0.00     0.060 A 
ATOM     29  C   UNL     1      -1.006  -1.836  -0.389  1.00  0.00     0.016 A 
ATOM     30  C   UNL     1      -0.328  -4.115  -0.016  1.00  0.00     0.016 A 
ATOM     31  C   UNL     1      -1.088  -1.646   0.994  1.00  0.00     0.010 A 
ATOM     32  C   UNL     1      -0.493  -3.938   1.366  1.00  0.00     0.010 A 
ATOM     33  C   UNL     1      -0.813  -2.679   1.905  1.00  0.00    -0.014 A 
BRANCH  33  34
ATOM     34  C   UNL     1      -0.761  -2.427   3.387  1.00  0.00     0.031 A 
ATOM     35  C   UNL     1       0.439  -2.877   4.203  1.00  0.00     0.074 A 
ATOM     36  C   UNL     1      -1.736  -1.747   4.031  1.00  0.00     0.049 A 
ATOM     37  N   UNL     1       0.581  -2.935   5.506  1.00  0.00    -0.248 NA
ATOM     38  C   UNL     1       1.627  -3.331   3.463  1.00  0.00     0.031 C 
ATOM     39  C   UNL     1      -2.934  -1.175   3.416  1.00  0.00     0.029 A 
ATOM     40  N   UNL     1      -1.855  -1.394   5.358  1.00  0.00    -0.354 N 
ATOM     41  C   UNL     1       1.830  -3.507   5.734  1.00  0.00     0.074 A 
ATOM     42  C   UNL     1       2.415  -3.763   4.437  1.00  0.00     0.031 C 
ATOM     43  C   UNL     1      -3.609  -0.467   4.333  1.00  0.00     0.029 A 
ATOM     44  C   UNL     1      -2.971  -0.637   5.633  1.00  0.00     0.049 A 
ATOM     45  H   UNL     1      -1.201  -1.658   6.045  1.00  0.00     0.167 HD
ATOM     46  C   UNL     1       2.436  -3.803   6.911  1.00  0.00     0.031 A 
ATOM     47  C   UNL     1      -3.467  -0.168   6.796  1.00  0.00     0.031 A 
ATOM     48  C   UNL     1       1.901  -3.489   8.210  1.00  0.00     0.049 A 
ATOM     49  C   UNL     1      -2.794  -0.519   8.092  1.00  0.00     0.074 A 
ATOM     50  C   UNL     1       2.435  -3.780   9.455  1.00  0.00     0.029 A 
ATOM     51  N   UNL     1       0.732  -2.781   8.435  1.00  0.00    -0.354 N 
ATOM     52  N   UNL     1      -1.691  -1.198   8.289  1.00  0.00    -0.248 NA
ATOM     53  C   UNL     1      -3.459  -0.074   9.326  1.00  0.00     0.031 C 
ATOM     54  C   UNL     1       1.574  -3.270  10.434  1.00  0.00     0.029 A 
ATOM     55  C   UNL     1       0.529  -2.624   9.796  1.00  0.00     0.049 A 
ATOM     56  H   UNL     1       0.134  -2.440   7.731  1.00  0.00     0.167 HD
ATOM     57  C   UNL     1      -1.538  -1.275   9.668  1.00  0.00     0.074 A 
ATOM     58  C   UNL     1      -2.640  -0.543  10.257  1.00  0.00     0.031 C 
ATOM     59  C   UNL     1      -0.576  -1.911  10.380  1.00  0.00     0.031 A 
BRANCH  46  60
ATOM     60  C   UNL     1       3.739  -4.558   6.855  1.00  0.00    -0.014 A 
ATOM     61  C   UNL     1       4.945  -3.929   6.502  1.00  0.00     0.010 A 
ATOM     62  C   UNL     1       3.756  -5.918   7.219  1.00  0.00     0.010 A 
ATOM     63  C   UNL     1       6.140  -4.655   6.483  1.00  0.00     0.020 A 
ATOM     64  C   UNL     1       4.952  -6.641   7.226  1.00  0.00     0.020 A 
ATOM     65  C   UNL     1       6.135  -6.008   6.841  1.00  0.00     0.054 A 
BRANCH  65  66
ATOM     66  S   UNL     1       7.702  -6.923   6.838  1.00  0.00     0.124 S 
ATOM     67  O   UNL     1       7.912  -7.154   5.412  1.00  0.00    -0.237 OA
ATOM     68  O   UNL     1       8.628  -5.981   7.464  1.00  0.00    -0.237 OA
ATOM     69  O   UNL     1       7.408  -8.117   7.627  1.00  0.00    -0.744 OA
ENDBRANCH  65  66
ENDBRANCH  46  60
BRANCH  47  70
ATOM     70  C   UNL     1      -4.723   0.634   6.790  1.00  0.00    -0.014 A 
ATOM     71  C   UNL     1      -4.695   2.009   7.080  1.00  0.00     0.010 A 
ATOM     72  C   UNL     1      -5.949   0.029   6.457  1.00  0.00     0.010 A 
ATOM     73  C   UNL     1      -5.869   2.767   7.025  1.00  0.00     0.020 A 
ATOM     74  C   UNL     1      -7.117   0.788   6.371  1.00  0.00     0.020 A 
ATOM     75  C   UNL     1      -7.071   2.153   6.662  1.00  0.00     0.054 A 
BRANCH  75  76
ATOM     76  S   UNL     1      -8.568   3.165   6.492  1.00  0.00     0.124 S 
ATOM     77  O   UNL     1      -9.020   3.272   7.875  1.00  0.00    -0.237 OA
ATOM     78  O   UNL     1      -8.059   4.397   5.896  1.00  0.00    -0.237 OA
ATOM     79  O   UNL     1      -9.418   2.365   5.613  1.00  0.00    -0.744 OA
ENDBRANCH  75  76
ENDBRANCH  47  70
BRANCH  59  80
ATOM     80  C   UNL     1      -0.666  -1.838  11.880  1.00  0.00    -0.014 A 
ATOM     81  C   UNL     1      -1.611  -2.604  12.584  1.00  0.00     0.010 A 
ATOM     82  C   UNL     1       0.223  -1.016  12.595  1.00  0.00     0.010 A 
ATOM     83  C   UNL     1      -1.689  -2.522  13.977  1.00  0.00     0.020 A 
ATOM     84  C   UNL     1       0.161  -0.947  13.990  1.00  0.00     0.020 A 
ATOM     85  C   UNL     1      -0.807  -1.689  14.671  1.00  0.00     0.054 A 
BRANCH  85  86
ATOM     86  S   UNL     1      -0.912  -1.613  16.481  1.00  0.00     0.124 S 
ATOM     87  O   UNL     1      -2.087  -0.769  16.681  1.00  0.00    -0.237 OA
ATOM     88  O   UNL     1      -1.075  -3.015  16.855  1.00  0.00    -0.237 OA
ATOM     89  O   UNL     1       0.360  -1.013  16.876  1.00  0.00    -0.744 OA
ENDBRANCH  85  86
ENDBRANCH  59  80
ENDBRANCH  33  34
ENDBRANCH  26  28
ENDBRANCH  25  26
ENDBRANCH  24  25
ENDBRANCH   1  24
TORSDOF 20
