REMARK SMILES Cc1ccccc1[C@@H]1[NH2+][C@H](C(=O)OCCOC(=O)c2ccc(-c3c4nc(c(-c5ccc(S(=O)(=O)[O-])cc5)c5ccc([nH]5)c(-c5ccc(S(=O)(=O)[O-])cc5)c5nc(c(-c6ccc(S(=O)(=O)[O-])cc6)c6ccc3[nH]6)C=C5)C=C4)cc2)CC2=c3ccccc3=N[C@@H]21
REMARK SMILES IDX 15 1 14 2 13 3 11 4 12 5 10 6 8 7 9 8 88 9 80 12 87 13 79 14
REMARK SMILES IDX 81 15 86 16 82 17 85 18 83 19 84 20 7 21 1 22 2 23 3 24 4 25
REMARK SMILES IDX 6 26 5 27 16 28 17 29 18 30 19 31 20 32 78 33 21 34 77 35
REMARK SMILES IDX 22 36 23 37 24 38 71 39 25 40 76 41 70 42 72 43 26 44 75 45
REMARK SMILES IDX 69 46 68 47 27 49 57 50 38 51 56 52 39 53 42 54 55 55 73 56
REMARK SMILES IDX 40 57 41 58 54 60 74 61 43 62 28 63 29 64 37 65 30 66 36 67
REMARK SMILES IDX 31 68 32 69 33 70 34 71 35 72 58 73 59 74 67 75 60 76 66 77
REMARK SMILES IDX 61 78 62 79 63 80 64 81 65 82 44 83 45 84 53 85 46 86 52 87
REMARK SMILES IDX 47 88 48 89 49 90 50 91 51 92
REMARK H PARENT 9 10 9 11 72 48 42 59
REMARK Flexibility Score: inf
ROOT
ATOM      1  C   UNL     1      -0.620   4.110  -1.844  1.00  0.00     0.275 C 
ENDROOT
BRANCH   1   2
ATOM      2  C   UNL     1       0.837   4.629  -1.913  1.00  0.00     0.274 C 
BRANCH   2   3
ATOM      3  O   UNL     1       1.390   5.482  -0.865  1.00  0.00    -0.458 OA
BRANCH   3   4
ATOM      4  C   UNL     1       2.050   5.211   0.305  1.00  0.00     0.365 C 
ATOM      5  O   UNL     1       2.927   5.968   0.704  1.00  0.00    -0.245 OA
BRANCH   4   6
ATOM      6  C   UNL     1       1.571   3.974   1.074  1.00  0.00     0.298 C 
ATOM      7  C   UNL     1       1.666   1.574   0.452  1.00  0.00     0.243 C 
ATOM      8  N   UNL     1       1.544   2.958   0.049  1.00  0.00    -0.326 N 
ATOM      9  C   UNL     1       3.131   1.436   1.048  1.00  0.00     0.196 C 
ATOM     10  H   UNL     1       0.656   3.051  -0.445  1.00  0.00     0.347 HD
ATOM     11  H   UNL     1       2.383   3.135  -0.503  1.00  0.00     0.347 HD
ATOM     12  C   UNL     1       3.432   2.650   1.945  1.00  0.00    -0.024 C 
ATOM     13  N   UNL     1       4.227   1.524   0.031  1.00  0.00    -0.270 NA
ATOM     14  C   UNL     1       2.290   3.529   2.362  1.00  0.00     0.111 C 
ATOM     15  C   UNL     1       4.620   3.196   1.696  1.00  0.00     0.002 A 
ATOM     16  C   UNL     1       4.978   2.505   0.445  1.00  0.00     0.066 A 
ATOM     17  C   UNL     1       5.139   4.493   2.021  1.00  0.00     0.010 A 
ATOM     18  C   UNL     1       6.093   3.117  -0.316  1.00  0.00     0.028 A 
ATOM     19  C   UNL     1       6.035   5.054   1.197  1.00  0.00     0.001 A 
ATOM     20  C   UNL     1       6.547   4.330   0.049  1.00  0.00     0.002 A 
BRANCH   7  21
ATOM     21  C   UNL     1       1.100   0.896  -0.816  1.00  0.00     0.015 A 
ATOM     22  C   UNL     1      -1.262   0.577   0.241  1.00  0.00     0.045 C 
ATOM     23  C   UNL     1      -0.294   0.612  -0.921  1.00  0.00    -0.042 A 
ATOM     24  C   UNL     1      -0.897   0.517  -2.197  1.00  0.00     0.004 A 
ATOM     25  C   UNL     1      -0.170   0.738  -3.364  1.00  0.00     0.000 A 
ATOM     26  C   UNL     1       1.823   1.038  -2.030  1.00  0.00     0.010 A 
ATOM     27  C   UNL     1       1.190   1.000  -3.279  1.00  0.00     0.001 A 
ENDBRANCH   7  21
ENDBRANCH   4   6
ENDBRANCH   3   4
ENDBRANCH   2   3
ENDBRANCH   1   2
BRANCH   1  28
ATOM     28  O   UNL     1      -1.194   3.684  -0.569  1.00  0.00    -0.458 OA
BRANCH  28  29
ATOM     29  C   UNL     1      -1.518   4.386   0.580  1.00  0.00     0.338 C 
ATOM     30  O   UNL     1      -1.657   3.813   1.639  1.00  0.00    -0.246 OA
BRANCH  29  31
ATOM     31  C   UNL     1      -1.446   5.868   0.455  1.00  0.00     0.060 A 
ATOM     32  C   UNL     1      -0.548   6.673   1.188  1.00  0.00     0.016 A 
ATOM     33  C   UNL     1      -1.934   6.301  -0.733  1.00  0.00     0.016 A 
ATOM     34  C   UNL     1       0.105   7.749   0.545  1.00  0.00     0.010 A 
ATOM     35  C   UNL     1      -1.018   7.021  -1.427  1.00  0.00     0.010 A 
ATOM     36  C   UNL     1      -0.053   7.851  -0.834  1.00  0.00    -0.014 A 
BRANCH  36  37
ATOM     37  C   UNL     1       0.629   8.699  -1.837  1.00  0.00     0.031 A 
ATOM     38  C   UNL     1       2.106   8.913  -1.868  1.00  0.00     0.074 A 
ATOM     39  C   UNL     1      -0.240   9.218  -2.751  1.00  0.00     0.049 A 
ATOM     40  N   UNL     1       2.695  10.066  -1.849  1.00  0.00    -0.248 NA
ATOM     41  C   UNL     1       3.085   7.818  -1.933  1.00  0.00     0.031 C 
ATOM     42  C   UNL     1      -0.092  10.002  -3.955  1.00  0.00     0.029 A 
ATOM     43  N   UNL     1      -1.633   9.185  -2.623  1.00  0.00    -0.354 N 
ATOM     44  C   UNL     1       4.003   9.843  -2.274  1.00  0.00     0.074 A 
ATOM     45  C   UNL     1       4.261   8.450  -2.047  1.00  0.00     0.031 C 
ATOM     46  C   UNL     1      -1.267  10.640  -4.196  1.00  0.00     0.029 A 
ATOM     47  C   UNL     1      -2.206  10.316  -3.117  1.00  0.00     0.049 A 
ATOM     48  H   UNL     1      -2.136   8.438  -2.225  1.00  0.00     0.167 HD
ATOM     49  C   UNL     1       4.606  10.684  -3.168  1.00  0.00     0.031 A 
ATOM     50  C   UNL     1      -2.790  11.095  -2.161  1.00  0.00     0.031 A 
ATOM     51  C   UNL     1       3.606  11.601  -3.694  1.00  0.00     0.049 A 
ATOM     52  C   UNL     1      -1.939  12.319  -2.041  1.00  0.00     0.074 A 
ATOM     53  C   UNL     1       2.903  11.584  -4.887  1.00  0.00     0.029 A 
ATOM     54  N   UNL     1       2.948  12.470  -2.845  1.00  0.00    -0.354 N 
ATOM     55  N   UNL     1      -0.640  12.326  -2.167  1.00  0.00    -0.248 NA
ATOM     56  C   UNL     1      -2.529  13.645  -1.977  1.00  0.00     0.031 C 
ATOM     57  C   UNL     1       1.793  12.451  -4.741  1.00  0.00     0.029 A 
ATOM     58  C   UNL     1       1.810  12.956  -3.451  1.00  0.00     0.049 A 
ATOM     59  H   UNL     1       3.248  12.707  -1.938  1.00  0.00     0.167 HD
ATOM     60  C   UNL     1      -0.240  13.617  -2.379  1.00  0.00     0.074 A 
ATOM     61  C   UNL     1      -1.449  14.407  -2.205  1.00  0.00     0.031 C 
ATOM     62  C   UNL     1       1.018  13.963  -2.777  1.00  0.00     0.031 A 
BRANCH  49  63
ATOM     63  C   UNL     1       5.937  10.485  -3.886  1.00  0.00    -0.014 A 
ATOM     64  C   UNL     1       6.155  11.161  -5.112  1.00  0.00     0.010 A 
ATOM     65  C   UNL     1       7.025   9.732  -3.402  1.00  0.00     0.010 A 
ATOM     66  C   UNL     1       7.344  11.054  -5.845  1.00  0.00     0.020 A 
ATOM     67  C   UNL     1       8.231   9.612  -4.134  1.00  0.00     0.020 A 
ATOM     68  C   UNL     1       8.379  10.272  -5.355  1.00  0.00     0.054 A 
BRANCH  68  69
ATOM     69  S   UNL     1       9.912  10.178  -6.325  1.00  0.00     0.124 S 
ATOM     70  O   UNL     1       9.450   9.605  -7.588  1.00  0.00    -0.237 OA
ATOM     71  O   UNL     1      10.334  11.574  -6.389  1.00  0.00    -0.237 OA
ATOM     72  O   UNL     1      10.773   9.305  -5.531  1.00  0.00    -0.744 OA
ENDBRANCH  68  69
ENDBRANCH  49  63
BRANCH  50  73
ATOM     73  C   UNL     1      -3.440  10.319  -1.017  1.00  0.00    -0.014 A 
ATOM     74  C   UNL     1      -4.525   9.459  -1.332  1.00  0.00     0.010 A 
ATOM     75  C   UNL     1      -2.839  10.142   0.246  1.00  0.00     0.010 A 
ATOM     76  C   UNL     1      -4.927   8.416  -0.476  1.00  0.00     0.020 A 
ATOM     77  C   UNL     1      -3.253   9.105   1.121  1.00  0.00     0.020 A 
ATOM     78  C   UNL     1      -4.276   8.229   0.742  1.00  0.00     0.054 A 
BRANCH  78  79
ATOM     79  S   UNL     1      -4.648   6.708   1.693  1.00  0.00     0.124 S 
ATOM     80  O   UNL     1      -5.979   6.986   2.224  1.00  0.00    -0.237 OA
ATOM     81  O   UNL     1      -4.601   5.675   0.657  1.00  0.00    -0.237 OA
ATOM     82  O   UNL     1      -3.577   6.649   2.683  1.00  0.00    -0.744 OA
ENDBRANCH  78  79
ENDBRANCH  50  73
BRANCH  62  83
ATOM     83  C   UNL     1       1.620  15.334  -2.653  1.00  0.00    -0.014 A 
ATOM     84  C   UNL     1       1.033  16.369  -1.920  1.00  0.00     0.010 A 
ATOM     85  C   UNL     1       2.924  15.563  -3.163  1.00  0.00     0.010 A 
ATOM     86  C   UNL     1       1.670  17.599  -1.774  1.00  0.00     0.020 A 
ATOM     87  C   UNL     1       3.603  16.759  -2.956  1.00  0.00     0.020 A 
ATOM     88  C   UNL     1       2.951  17.785  -2.290  1.00  0.00     0.054 A 
BRANCH  88  89
ATOM     89  S   UNL     1       3.760  19.372  -2.036  1.00  0.00     0.124 S 
ATOM     90  O   UNL     1       3.086  20.207  -3.027  1.00  0.00    -0.237 OA
ATOM     91  O   UNL     1       3.442  19.672  -0.642  1.00  0.00    -0.237 OA
ATOM     92  O   UNL     1       5.168  19.092  -2.303  1.00  0.00    -0.744 OA
ENDBRANCH  88  89
ENDBRANCH  62  83
ENDBRANCH  36  37
ENDBRANCH  29  31
ENDBRANCH  28  29
ENDBRANCH   1  28
TORSDOF 15
