REMARK SMILES O=C(Cc1ccccc1Nc1c(F)cccc1C(F)(F)F)OCCOC(=O)c1ccc(-c2c3nc(c(-c4ccc(S(=O)(=O)[O-])cc4)c4ccc([nH]4)c(-c4ccc(S(=O)(=O)[O-])cc4)c4nc(c(-c5ccc(S(=O)(=O)[O-])cc5)c5ccc2[nH]5)C=C4)C=C3)cc1
REMARK SMILES IDX 23 1 22 2 2 3 1 4 3 5 4 6 5 7 9 8 6 9 8 10 7 11 10 12 11 14
REMARK SMILES IDX 12 15 17 16 13 17 14 18 16 19 15 20 18 21 19 22 20 23 21 24
REMARK SMILES IDX 24 25 25 26 26 27 27 28 28 29 29 30 87 31 30 32 86 33 31 34
REMARK SMILES IDX 32 35 33 36 80 37 34 38 85 39 79 40 81 41 35 42 84 43 78 44
REMARK SMILES IDX 77 45 36 47 66 48 47 49 65 50 48 51 51 52 64 53 82 54 49 55
REMARK SMILES IDX 50 56 63 58 83 59 52 60 37 61 38 62 46 63 39 64 45 65 40 66
REMARK SMILES IDX 41 67 42 68 43 69 44 70 67 71 68 72 76 73 69 74 75 75 70 76
REMARK SMILES IDX 71 77 72 78 73 79 74 80 53 81 54 82 62 83 55 84 61 85 56 86
REMARK SMILES IDX 57 87 58 88 59 89 60 90
REMARK H PARENT 10 13 81 46 51 57
REMARK Flexibility Score: inf
ROOT
ATOM      1  C   UNL     1       4.558  -0.948  -0.489  1.00  0.00     0.274 C 
ENDROOT
BRANCH   1   2
ATOM      2  O   UNL     1       3.252  -1.222   0.063  1.00  0.00    -0.462 OA
BRANCH   2   3
ATOM      3  C   UNL     1       2.515  -0.357   0.800  1.00  0.00     0.310 C 
ATOM      4  O   UNL     1       1.444  -0.724   1.284  1.00  0.00    -0.252 OA
BRANCH   3   5
ATOM      5  C   UNL     1       3.042   1.035   1.044  1.00  0.00     0.160 C 
BRANCH   5   6
ATOM      6  C   UNL     1       3.930   1.242   2.255  1.00  0.00    -0.013 A 
ATOM      7  C   UNL     1       4.261   0.176   3.109  1.00  0.00     0.006 A 
ATOM      8  C   UNL     1       4.435   2.536   2.538  1.00  0.00     0.042 A 
ATOM      9  C   UNL     1       5.088   0.375   4.214  1.00  0.00     0.000 A 
ATOM     10  C   UNL     1       5.273   2.709   3.649  1.00  0.00     0.026 A 
ATOM     11  C   UNL     1       5.592   1.641   4.484  1.00  0.00     0.002 A 
BRANCH   8  12
ATOM     12  N   UNL     1       4.134   3.619   1.675  1.00  0.00    -0.352 N 
ATOM     13  H   UNL     1       3.560   3.407   0.904  1.00  0.00     0.167 HD
BRANCH  12  14
ATOM     14  C   UNL     1       4.553   4.964   1.781  1.00  0.00     0.087 A 
ATOM     15  C   UNL     1       3.644   5.890   2.318  1.00  0.00     0.147 A 
ATOM     16  C   UNL     1       5.838   5.408   1.436  1.00  0.00     0.082 A 
ATOM     17  F   UNL     1       2.435   5.458   2.709  1.00  0.00    -0.205 F 
ATOM     18  C   UNL     1       3.959   7.232   2.469  1.00  0.00     0.041 A 
ATOM     19  C   UNL     1       6.145   6.781   1.580  1.00  0.00     0.015 A 
ATOM     20  C   UNL     1       5.209   7.688   2.079  1.00  0.00     0.004 A 
BRANCH  16  21
ATOM     21  C   UNL     1       6.915   4.474   0.952  1.00  0.00     0.418 C 
ATOM     22  F   UNL     1       7.855   5.111   0.188  1.00  0.00    -0.166 F 
ATOM     23  F   UNL     1       7.621   3.915   1.978  1.00  0.00    -0.166 F 
ATOM     24  F   UNL     1       6.484   3.439   0.177  1.00  0.00    -0.166 F 
ENDBRANCH  16  21
ENDBRANCH  12  14
ENDBRANCH   8  12
ENDBRANCH   5   6
ENDBRANCH   3   5
ENDBRANCH   2   3
ENDBRANCH   1   2
BRANCH   1  25
ATOM     25  C   UNL     1       4.468  -0.622  -1.981  1.00  0.00     0.275 C 
BRANCH  25  26
ATOM     26  O   UNL     1       3.957   0.709  -2.175  1.00  0.00    -0.458 OA
BRANCH  26  27
ATOM     27  C   UNL     1       2.625   0.804  -2.421  1.00  0.00     0.338 C 
ATOM     28  O   UNL     1       1.854  -0.120  -2.581  1.00  0.00    -0.246 OA
BRANCH  27  29
ATOM     29  C   UNL     1       2.197   2.222  -2.296  1.00  0.00     0.060 A 
ATOM     30  C   UNL     1       0.899   2.478  -1.835  1.00  0.00     0.016 A 
ATOM     31  C   UNL     1       3.046   3.288  -2.610  1.00  0.00     0.016 A 
ATOM     32  C   UNL     1       0.435   3.792  -1.724  1.00  0.00     0.010 A 
ATOM     33  C   UNL     1       2.581   4.603  -2.495  1.00  0.00     0.010 A 
ATOM     34  C   UNL     1       1.264   4.864  -2.079  1.00  0.00    -0.014 A 
BRANCH  34  35
ATOM     35  C   UNL     1       0.736   6.252  -2.131  1.00  0.00     0.031 A 
ATOM     36  C   UNL     1       0.379   6.853  -3.462  1.00  0.00     0.074 A 
ATOM     37  C   UNL     1       0.581   6.989  -1.016  1.00  0.00     0.049 A 
ATOM     38  N   UNL     1      -0.040   8.063  -3.731  1.00  0.00    -0.248 NA
ATOM     39  C   UNL     1       0.483   5.973  -4.637  1.00  0.00     0.031 C 
ATOM     40  C   UNL     1       0.812   6.523   0.346  1.00  0.00     0.029 A 
ATOM     41  N   UNL     1       0.229   8.309  -0.862  1.00  0.00    -0.354 N 
ATOM     42  C   UNL     1      -0.304   8.074  -5.093  1.00  0.00     0.074 A 
ATOM     43  C   UNL     1       0.078   6.777  -5.610  1.00  0.00     0.031 C 
ATOM     44  C   UNL     1       0.682   7.562   1.191  1.00  0.00     0.029 A 
ATOM     45  C   UNL     1       0.378   8.764   0.427  1.00  0.00     0.049 A 
ATOM     46  H   UNL     1      -0.098   8.872  -1.600  1.00  0.00     0.167 HD
ATOM     47  C   UNL     1      -0.858   9.059  -5.839  1.00  0.00     0.031 A 
ATOM     48  C   UNL     1       0.322  10.013   0.928  1.00  0.00     0.031 A 
ATOM     49  C   UNL     1      -1.210  10.361  -5.340  1.00  0.00     0.049 A 
ATOM     50  C   UNL     1      -0.077  11.154   0.042  1.00  0.00     0.074 A 
ATOM     51  C   UNL     1      -1.826  11.403  -6.012  1.00  0.00     0.029 A 
ATOM     52  N   UNL     1      -0.957  10.809  -4.054  1.00  0.00    -0.354 N 
ATOM     53  N   UNL     1      -0.363  11.138  -1.236  1.00  0.00    -0.248 NA
ATOM     54  C   UNL     1      -0.203  12.473   0.678  1.00  0.00     0.031 C 
ATOM     55  C   UNL     1      -1.895  12.501  -5.147  1.00  0.00     0.029 A 
ATOM     56  C   UNL     1      -1.370  12.125  -3.922  1.00  0.00     0.049 A 
ATOM     57  H   UNL     1      -0.545  10.272  -3.340  1.00  0.00     0.167 HD
ATOM     58  C   UNL     1      -0.771  12.430  -1.543  1.00  0.00     0.074 A 
ATOM     59  C   UNL     1      -0.654  13.210  -0.328  1.00  0.00     0.031 C 
ATOM     60  C   UNL     1      -1.242  12.907  -2.720  1.00  0.00     0.031 A 
BRANCH  47  61
ATOM     61  C   UNL     1      -1.135   8.750  -7.283  1.00  0.00    -0.014 A 
ATOM     62  C   UNL     1      -2.192   7.893  -7.638  1.00  0.00     0.010 A 
ATOM     63  C   UNL     1      -0.366   9.351  -8.294  1.00  0.00     0.010 A 
ATOM     64  C   UNL     1      -2.456   7.615  -8.980  1.00  0.00     0.020 A 
ATOM     65  C   UNL     1      -0.640   9.092  -9.639  1.00  0.00     0.020 A 
ATOM     66  C   UNL     1      -1.675   8.214  -9.973  1.00  0.00     0.054 A 
BRANCH  66  67
ATOM     67  S   UNL     1      -2.053   7.854 -11.709  1.00  0.00     0.124 S 
ATOM     68  O   UNL     1      -1.547   6.490 -11.850  1.00  0.00    -0.237 OA
ATOM     69  O   UNL     1      -3.506   7.993 -11.758  1.00  0.00    -0.237 OA
ATOM     70  O   UNL     1      -1.307   8.873 -12.444  1.00  0.00    -0.744 OA
ENDBRANCH  66  67
ENDBRANCH  47  61
BRANCH  48  71
ATOM     71  C   UNL     1       0.717  10.274   2.335  1.00  0.00    -0.014 A 
ATOM     72  C   UNL     1      -0.239  10.387   3.356  1.00  0.00     0.010 A 
ATOM     73  C   UNL     1       2.079  10.449   2.640  1.00  0.00     0.010 A 
ATOM     74  C   UNL     1       0.164  10.672   4.666  1.00  0.00     0.020 A 
ATOM     75  C   UNL     1       2.485  10.716   3.948  1.00  0.00     0.020 A 
ATOM     76  C   UNL     1       1.523  10.835   4.952  1.00  0.00     0.054 A 
BRANCH  76  77
ATOM     77  S   UNL     1       2.042  11.148   6.663  1.00  0.00     0.124 S 
ATOM     78  O   UNL     1       1.841  12.588   6.780  1.00  0.00    -0.237 OA
ATOM     79  O   UNL     1       1.125  10.314   7.436  1.00  0.00    -0.237 OA
ATOM     80  O   UNL     1       3.434  10.704   6.675  1.00  0.00    -0.744 OA
ENDBRANCH  76  77
ENDBRANCH  48  71
BRANCH  60  81
ATOM     81  C   UNL     1      -1.737  14.325  -2.738  1.00  0.00    -0.014 A 
ATOM     82  C   UNL     1      -0.852  15.416  -2.729  1.00  0.00     0.010 A 
ATOM     83  C   UNL     1      -3.123  14.564  -2.795  1.00  0.00     0.010 A 
ATOM     84  C   UNL     1      -1.347  16.724  -2.750  1.00  0.00     0.020 A 
ATOM     85  C   UNL     1      -3.620  15.867  -2.841  1.00  0.00     0.020 A 
ATOM     86  C   UNL     1      -2.728  16.940  -2.804  1.00  0.00     0.054 A 
BRANCH  86  87
ATOM     87  S   UNL     1      -3.348  18.644  -2.875  1.00  0.00     0.124 S 
ATOM     88  O   UNL     1      -3.195  19.080  -1.490  1.00  0.00    -0.237 OA
ATOM     89  O   UNL     1      -2.446  19.275  -3.836  1.00  0.00    -0.237 OA
ATOM     90  O   UNL     1      -4.727  18.491  -3.333  1.00  0.00    -0.744 OA
ENDBRANCH  86  87
ENDBRANCH  60  81
ENDBRANCH  34  35
ENDBRANCH  27  29
ENDBRANCH  26  27
ENDBRANCH  25  26
ENDBRANCH   1  25
TORSDOF 18
