REMARK SMILES Cn1cc(-c2cc(C(F)(F)F)c3c(C4CC4)nn(CC(=O)OCCOC(=O)c4ccc(-c5c6nc(c(-c7ccc(S(=O)(=O)[O-])cc7)c7ccc([nH]7)c(-c7ccc(S(=O)(=O)[O-])cc7)c7nc(c(-c8ccc(S(=O)(=O)[O-])cc8)c8ccc5[nH]8)C=C7)C=C6)cc4)c3n2)cn1
REMARK SMILES IDX 24 1 23 2 22 3 20 4 21 5 19 6 18 7 5 8 6 9 89 10 7 11 88 12
REMARK SMILES IDX 12 13 13 14 17 15 4 16 1 17 2 18 3 19 91 20 90 21 8 22 9 23
REMARK SMILES IDX 10 24 11 25 14 26 15 27 16 28 25 29 26 30 27 31 28 32 29 33
REMARK SMILES IDX 87 34 30 35 86 36 31 37 32 38 33 39 80 40 34 41 85 42 79 43
REMARK SMILES IDX 81 44 35 45 84 46 78 47 77 48 36 50 66 51 47 52 65 53 48 54
REMARK SMILES IDX 51 55 64 56 82 57 49 58 50 59 63 61 83 62 52 63 37 64 38 65
REMARK SMILES IDX 46 66 39 67 45 68 40 69 41 70 42 71 43 72 44 73 67 74 68 75
REMARK SMILES IDX 76 76 69 77 75 78 70 79 71 80 72 81 73 82 74 83 53 84 54 85
REMARK SMILES IDX 62 86 55 87 61 88 56 89 57 90 58 91 59 92 60 93
REMARK H PARENT 81 49 51 60
REMARK Flexibility Score: inf
ROOT
ATOM      1  C   UNL     1      -5.850  -2.122  -1.841  1.00  0.00     0.275 C 
ENDROOT
BRANCH   1   2
ATOM      2  C   UNL     1      -5.106  -1.561  -3.046  1.00  0.00     0.274 C 
BRANCH   2   3
ATOM      3  O   UNL     1      -3.693  -1.742  -2.846  1.00  0.00    -0.461 OA
BRANCH   3   4
ATOM      4  C   UNL     1      -2.994  -0.616  -2.582  1.00  0.00     0.327 C 
ATOM      5  O   UNL     1      -3.421   0.521  -2.793  1.00  0.00    -0.250 OA
BRANCH   4   6
ATOM      6  C   UNL     1      -1.599  -0.838  -2.112  1.00  0.00     0.269 C 
BRANCH   6   7
ATOM      7  N   UNL     1      -1.163  -2.112  -1.540  1.00  0.00    -0.236 N 
ATOM      8  C   UNL     1       2.102  -1.467  -0.594  1.00  0.00     0.077 A 
ATOM      9  C   UNL     1       2.514  -2.698  -0.102  1.00  0.00     0.043 A 
ATOM     10  N   UNL     1       1.141  -1.399  -1.544  1.00  0.00    -0.228 NA
ATOM     11  C   UNL     1       1.649  -3.810  -0.243  1.00  0.00     0.071 A 
ATOM     12  C   UNL     1       0.174  -2.301  -1.290  1.00  0.00     0.159 A 
ATOM     13  C   UNL     1       0.314  -3.449  -0.529  1.00  0.00     0.055 A 
ATOM     14  C   UNL     1      -1.026  -3.691  -0.109  1.00  0.00     0.076 A 
ATOM     15  N   UNL     1      -1.926  -2.963  -0.809  1.00  0.00    -0.174 NA
BRANCH   8  16
ATOM     16  C   UNL     1       1.913  -0.335   0.328  1.00  0.00     0.038 A 
ATOM     17  C   UNL     1      -1.104   0.868   1.695  1.00  0.00     0.173 C 
ATOM     18  N   UNL     1       0.301   0.740   1.372  1.00  0.00    -0.275 N 
ATOM     19  C   UNL     1       0.978  -0.451   1.350  1.00  0.00     0.118 A 
ATOM     20  N   UNL     1       0.944   1.717   0.701  1.00  0.00    -0.181 NA
ATOM     21  C   UNL     1       1.870   1.045   0.004  1.00  0.00     0.145 A 
ENDBRANCH   8  16
BRANCH  11  22
ATOM     22  C   UNL     1       2.206  -5.201  -0.365  1.00  0.00     0.417 C 
ATOM     23  F   UNL     1       1.814  -6.092   0.572  1.00  0.00    -0.166 F 
ATOM     24  F   UNL     1       1.873  -5.760  -1.567  1.00  0.00    -0.166 F 
ATOM     25  F   UNL     1       3.571  -5.222  -0.339  1.00  0.00    -0.166 F 
ENDBRANCH  11  22
BRANCH  14  26
ATOM     26  C   UNL     1      -1.507  -4.394   1.176  1.00  0.00     0.041 C 
ATOM     27  C   UNL     1      -0.698  -5.332   2.034  1.00  0.00     0.011 C 
ATOM     28  C   UNL     1      -0.894  -3.935   2.498  1.00  0.00     0.011 C 
ENDBRANCH  14  26
ENDBRANCH   6   7
ENDBRANCH   4   6
ENDBRANCH   3   4
ENDBRANCH   2   3
ENDBRANCH   1   2
BRANCH   1  29
ATOM     29  O   UNL     1      -6.164  -1.127  -0.852  1.00  0.00    -0.458 OA
BRANCH  29  30
ATOM     30  C   UNL     1      -5.168  -0.853   0.020  1.00  0.00     0.338 C 
ATOM     31  O   UNL     1      -4.025  -0.533  -0.241  1.00  0.00    -0.246 OA
BRANCH  30  32
ATOM     32  C   UNL     1      -5.583  -1.142   1.396  1.00  0.00     0.060 A 
ATOM     33  C   UNL     1      -4.646  -0.864   2.397  1.00  0.00     0.016 A 
ATOM     34  C   UNL     1      -6.762  -1.843   1.673  1.00  0.00     0.016 A 
ATOM     35  C   UNL     1      -4.827  -1.386   3.656  1.00  0.00     0.010 A 
ATOM     36  C   UNL     1      -6.950  -2.360   2.940  1.00  0.00     0.010 A 
ATOM     37  C   UNL     1      -5.958  -2.167   3.903  1.00  0.00    -0.014 A 
BRANCH  37  38
ATOM     38  C   UNL     1      -6.130  -2.653   5.258  1.00  0.00     0.031 A 
ATOM     39  C   UNL     1      -6.415  -1.584   6.252  1.00  0.00     0.074 A 
ATOM     40  C   UNL     1      -6.170  -3.963   5.554  1.00  0.00     0.049 A 
ATOM     41  N   UNL     1      -5.761  -1.281   7.326  1.00  0.00    -0.248 NA
ATOM     42  C   UNL     1      -7.510  -0.652   5.926  1.00  0.00     0.031 C 
ATOM     43  C   UNL     1      -6.212  -5.093   4.624  1.00  0.00     0.029 A 
ATOM     44  N   UNL     1      -6.335  -4.549   6.769  1.00  0.00    -0.354 N 
ATOM     45  C   UNL     1      -6.464  -0.228   7.904  1.00  0.00     0.074 A 
ATOM     46  C   UNL     1      -7.434   0.212   6.934  1.00  0.00     0.031 C 
ATOM     47  C   UNL     1      -6.650  -6.186   5.288  1.00  0.00     0.029 A 
ATOM     48  C   UNL     1      -6.799  -5.854   6.697  1.00  0.00     0.049 A 
ATOM     49  H   UNL     1      -6.143  -4.090   7.619  1.00  0.00     0.167 HD
ATOM     50  C   UNL     1      -6.369   0.094   9.222  1.00  0.00     0.031 A 
ATOM     51  C   UNL     1      -7.378  -6.548   7.708  1.00  0.00     0.031 A 
ATOM     52  C   UNL     1      -5.212  -0.468   9.853  1.00  0.00     0.049 A 
ATOM     53  C   UNL     1      -7.007  -5.867   8.976  1.00  0.00     0.074 A 
ATOM     54  C   UNL     1      -3.850  -0.324   9.685  1.00  0.00     0.029 A 
ATOM     55  N   UNL     1      -5.388  -1.611  10.594  1.00  0.00    -0.354 N 
ATOM     56  N   UNL     1      -5.790  -5.803   9.440  1.00  0.00    -0.248 NA
ATOM     57  C   UNL     1      -7.938  -4.901   9.543  1.00  0.00     0.031 C 
ATOM     58  C   UNL     1      -3.308  -1.619   9.932  1.00  0.00     0.029 A 
ATOM     59  C   UNL     1      -4.367  -2.467  10.264  1.00  0.00     0.049 A 
ATOM     60  H   UNL     1      -6.110  -1.784  11.241  1.00  0.00     0.167 HD
ATOM     61  C   UNL     1      -5.700  -4.559  10.050  1.00  0.00     0.074 A 
ATOM     62  C   UNL     1      -7.078  -4.097  10.174  1.00  0.00     0.031 C 
ATOM     63  C   UNL     1      -4.507  -3.904  10.152  1.00  0.00     0.031 A 
BRANCH  50  64
ATOM     64  C   UNL     1      -7.546   0.623   9.993  1.00  0.00    -0.014 A 
ATOM     65  C   UNL     1      -7.361   1.186  11.268  1.00  0.00     0.010 A 
ATOM     66  C   UNL     1      -8.872   0.340   9.595  1.00  0.00     0.010 A 
ATOM     67  C   UNL     1      -8.455   1.430  12.111  1.00  0.00     0.020 A 
ATOM     68  C   UNL     1      -9.969   0.623  10.405  1.00  0.00     0.020 A 
ATOM     69  C   UNL     1      -9.751   1.141  11.673  1.00  0.00     0.054 A 
BRANCH  69  70
ATOM     70  S   UNL     1     -11.143   1.349  12.811  1.00  0.00     0.124 S 
ATOM     71  O   UNL     1     -10.773   0.460  13.907  1.00  0.00    -0.237 OA
ATOM     72  O   UNL     1     -11.087   2.778  13.105  1.00  0.00    -0.237 OA
ATOM     73  O   UNL     1     -12.297   0.924  12.023  1.00  0.00    -0.744 OA
ENDBRANCH  69  70
ENDBRANCH  50  64
BRANCH  51  74
ATOM     74  C   UNL     1      -8.519  -7.497   7.611  1.00  0.00    -0.014 A 
ATOM     75  C   UNL     1      -8.943  -8.216   8.744  1.00  0.00     0.010 A 
ATOM     76  C   UNL     1      -9.369  -7.495   6.485  1.00  0.00     0.010 A 
ATOM     77  C   UNL     1     -10.204  -8.834   8.779  1.00  0.00     0.020 A 
ATOM     78  C   UNL     1     -10.619  -8.123   6.506  1.00  0.00     0.020 A 
ATOM     79  C   UNL     1     -11.046  -8.757   7.668  1.00  0.00     0.054 A 
BRANCH  79  80
ATOM     80  S   UNL     1     -12.741  -9.395   7.788  1.00  0.00     0.124 S 
ATOM     81  O   UNL     1     -12.526 -10.802   8.111  1.00  0.00    -0.237 OA
ATOM     82  O   UNL     1     -13.302  -8.577   8.860  1.00  0.00    -0.237 OA
ATOM     83  O   UNL     1     -13.300  -9.143   6.461  1.00  0.00    -0.744 OA
ENDBRANCH  79  80
ENDBRANCH  51  74
BRANCH  63  84
ATOM     84  C   UNL     1      -3.241  -4.670   9.847  1.00  0.00    -0.014 A 
ATOM     85  C   UNL     1      -2.924  -5.145   8.559  1.00  0.00     0.010 A 
ATOM     86  C   UNL     1      -2.262  -4.743  10.852  1.00  0.00     0.010 A 
ATOM     87  C   UNL     1      -1.656  -5.678   8.286  1.00  0.00     0.020 A 
ATOM     88  C   UNL     1      -0.992  -5.260  10.582  1.00  0.00     0.020 A 
ATOM     89  C   UNL     1      -0.693  -5.719   9.298  1.00  0.00     0.054 A 
BRANCH  89  90
ATOM     90  S   UNL     1       0.972  -6.331   8.912  1.00  0.00     0.124 S 
ATOM     91  O   UNL     1       0.717  -7.696   8.459  1.00  0.00    -0.237 OA
ATOM     92  O   UNL     1       1.419  -5.400   7.877  1.00  0.00    -0.237 OA
ATOM     93  O   UNL     1       1.688  -6.225  10.182  1.00  0.00    -0.744 OA
ENDBRANCH  89  90
ENDBRANCH  63  84
ENDBRANCH  37  38
ENDBRANCH  30  32
ENDBRANCH  29  30
ENDBRANCH   1  29
TORSDOF 18
