REMARK SMILES CC(C)c1nc(N2C[C@H](C)OC(C)(C)C2)sc1C(=O)OCCOC(=O)c1ccc(-c2c3nc(c(-c4ccc(S(=O)(=O)[O-])cc4)c4ccc([nH]4)c(-c4ccc(S(=O)(=O)[O-])cc4)c4nc(c(-c5ccc(S(=O)(=O)[O-])cc5)c5ccc2[nH]5)C=C4)C=C3)cc1
REMARK SMILES IDX 22 1 21 2 20 3 18 4 19 5 17 6 4 7 5 8 6 9 16 10 2 11 1 12
REMARK SMILES IDX 3 13 7 14 8 15 15 16 9 17 12 18 11 19 10 20 13 21 14 22
REMARK SMILES IDX 23 23 24 24 25 25 26 26 27 27 85 28 28 29 84 30 29 31 30 32
REMARK SMILES IDX 31 33 78 34 32 35 83 36 77 37 79 38 33 39 82 40 76 41 75 42
REMARK SMILES IDX 34 44 64 45 45 46 63 47 46 48 49 49 62 50 80 51 47 52 48 53
REMARK SMILES IDX 61 55 81 56 50 57 35 58 36 59 44 60 37 61 43 62 38 63 39 64
REMARK SMILES IDX 40 65 41 66 42 67 65 68 66 69 74 70 67 71 73 72 68 73 69 74
REMARK SMILES IDX 70 75 71 76 72 77 51 78 52 79 60 80 53 81 59 82 54 83 55 84
REMARK SMILES IDX 56 85 57 86 58 87
REMARK H PARENT 79 43 49 54
REMARK Flexibility Score: inf
ROOT
ATOM      1  C   UNL     1       0.136   5.275  -2.394  1.00  0.00     0.275 C 
ENDROOT
BRANCH   1   2
ATOM      2  C   UNL     1       0.472   4.524  -1.101  1.00  0.00     0.275 C 
BRANCH   2   3
ATOM      3  O   UNL     1       0.043   3.149  -1.164  1.00  0.00    -0.458 OA
BRANCH   3   4
ATOM      4  C   UNL     1      -1.034   2.793  -0.404  1.00  0.00     0.350 C 
ATOM      5  O   UNL     1      -1.619   3.566   0.344  1.00  0.00    -0.245 OA
BRANCH   4   6
ATOM      6  C   UNL     1      -1.422   1.423  -0.676  1.00  0.00     0.137 A 
ATOM      7  C   UNL     1      -0.723   0.326  -1.159  1.00  0.00     0.071 A 
ATOM      8  N   UNL     1      -1.510  -0.800  -1.398  1.00  0.00    -0.224 NA
ATOM      9  C   UNL     1      -2.771  -0.557  -1.129  1.00  0.00     0.186 A 
ATOM     10  S   UNL     1      -3.036   0.930  -0.324  1.00  0.00    -0.089 S 
BRANCH   7  11
ATOM     11  C   UNL     1       0.765   0.199  -1.356  1.00  0.00     0.034 C 
ATOM     12  C   UNL     1       1.407  -0.337  -0.072  1.00  0.00     0.014 C 
ATOM     13  C   UNL     1       1.135  -0.679  -2.552  1.00  0.00     0.014 C 
ENDBRANCH   7  11
BRANCH   9  14
ATOM     14  N   UNL     1      -3.776  -1.424  -1.360  1.00  0.00    -0.343 N 
ATOM     15  C   UNL     1      -4.767  -1.218  -2.409  1.00  0.00     0.150 C 
ATOM     16  C   UNL     1      -4.011  -2.546  -0.470  1.00  0.00     0.153 C 
ATOM     17  C   UNL     1      -4.935  -2.534  -3.204  1.00  0.00     0.135 C 
ATOM     18  C   UNL     1      -4.216  -3.841  -1.296  1.00  0.00     0.081 C 
ATOM     19  O   UNL     1      -5.204  -3.656  -2.336  1.00  0.00    -0.369 OA
ATOM     20  C   UNL     1      -6.094  -2.443  -4.190  1.00  0.00     0.040 C 
ATOM     21  C   UNL     1      -2.890  -4.339  -1.888  1.00  0.00     0.044 C 
ATOM     22  C   UNL     1      -4.784  -4.929  -0.375  1.00  0.00     0.044 C 
ENDBRANCH   9  14
ENDBRANCH   4   6
ENDBRANCH   3   4
ENDBRANCH   2   3
ENDBRANCH   1   2
BRANCH   1  23
ATOM     23  O   UNL     1      -1.282   5.485  -2.522  1.00  0.00    -0.458 OA
BRANCH  23  24
ATOM     24  C   UNL     1      -1.927   4.560  -3.269  1.00  0.00     0.338 C 
ATOM     25  O   UNL     1      -1.431   3.618  -3.865  1.00  0.00    -0.246 OA
BRANCH  24  26
ATOM     26  C   UNL     1      -3.378   4.732  -3.122  1.00  0.00     0.060 A 
ATOM     27  C   UNL     1      -4.032   3.823  -2.298  1.00  0.00     0.016 A 
ATOM     28  C   UNL     1      -4.107   5.672  -3.843  1.00  0.00     0.016 A 
ATOM     29  C   UNL     1      -5.416   3.797  -2.214  1.00  0.00     0.010 A 
ATOM     30  C   UNL     1      -5.505   5.682  -3.725  1.00  0.00     0.010 A 
ATOM     31  C   UNL     1      -6.172   4.731  -2.926  1.00  0.00    -0.014 A 
BRANCH  31  32
ATOM     32  C   UNL     1      -7.655   4.667  -2.861  1.00  0.00     0.031 A 
ATOM     33  C   UNL     1      -8.445   4.327  -4.095  1.00  0.00     0.074 A 
ATOM     34  C   UNL     1      -8.287   4.867  -1.687  1.00  0.00     0.049 A 
ATOM     35  N   UNL     1      -9.742   4.319  -4.269  1.00  0.00    -0.248 NA
ATOM     36  C   UNL     1      -7.677   3.952  -5.294  1.00  0.00     0.031 C 
ATOM     37  C   UNL     1      -7.630   5.129  -0.404  1.00  0.00     0.029 A 
ATOM     38  N   UNL     1      -9.625   4.872  -1.379  1.00  0.00    -0.354 N 
ATOM     39  C   UNL     1      -9.944   3.983  -5.603  1.00  0.00     0.074 A 
ATOM     40  C   UNL     1      -8.637   3.804  -6.196  1.00  0.00     0.031 C 
ATOM     41  C   UNL     1      -8.564   5.247   0.553  1.00  0.00     0.029 A 
ATOM     42  C   UNL     1      -9.885   5.147  -0.057  1.00  0.00     0.049 A 
ATOM     43  H   UNL     1     -10.332   4.695  -2.042  1.00  0.00     0.167 HD
ATOM     44  C   UNL     1     -11.114   3.840  -6.270  1.00  0.00     0.031 A 
ATOM     45  C   UNL     1     -11.053   5.338   0.588  1.00  0.00     0.031 A 
ATOM     46  C   UNL     1     -12.410   4.003  -5.663  1.00  0.00     0.049 A 
ATOM     47  C   UNL     1     -12.335   5.246  -0.193  1.00  0.00     0.074 A 
ATOM     48  C   UNL     1     -13.657   3.870  -6.250  1.00  0.00     0.029 A 
ATOM     49  N   UNL     1     -12.628   4.332  -4.333  1.00  0.00    -0.354 N 
ATOM     50  N   UNL     1     -12.509   4.951  -1.460  1.00  0.00    -0.248 NA
ATOM     51  C   UNL     1     -13.578   5.518   0.540  1.00  0.00     0.031 C 
ATOM     52  C   UNL     1     -14.626   4.179  -5.290  1.00  0.00     0.029 A 
ATOM     53  C   UNL     1     -13.987   4.435  -4.088  1.00  0.00     0.049 A 
ATOM     54  H   UNL     1     -11.921   4.473  -3.663  1.00  0.00     0.167 HD
ATOM     55  C   UNL     1     -13.883   4.977  -1.668  1.00  0.00     0.074 A 
ATOM     56  C   UNL     1     -14.493   5.298  -0.394  1.00  0.00     0.031 C 
ATOM     57  C   UNL     1     -14.578   4.754  -2.812  1.00  0.00     0.031 A 
BRANCH  44  58
ATOM     58  C   UNL     1     -11.049   3.542  -7.746  1.00  0.00    -0.014 A 
ATOM     59  C   UNL     1     -10.627   2.292  -8.231  1.00  0.00     0.010 A 
ATOM     60  C   UNL     1     -11.462   4.526  -8.665  1.00  0.00     0.010 A 
ATOM     61  C   UNL     1     -10.583   2.044  -9.607  1.00  0.00     0.020 A 
ATOM     62  C   UNL     1     -11.448   4.272 -10.039  1.00  0.00     0.020 A 
ATOM     63  C   UNL     1     -10.993   3.037 -10.502  1.00  0.00     0.054 A 
BRANCH  63  64
ATOM     64  S   UNL     1     -10.949   2.679 -12.280  1.00  0.00     0.124 S 
ATOM     65  O   UNL     1      -9.514   2.671 -12.550  1.00  0.00    -0.237 OA
ATOM     66  O   UNL     1     -11.611   1.380 -12.361  1.00  0.00    -0.237 OA
ATOM     67  O   UNL     1     -11.688   3.790 -12.877  1.00  0.00    -0.744 OA
ENDBRANCH  63  64
ENDBRANCH  44  58
BRANCH  45  68
ATOM     68  C   UNL     1     -11.060   5.683   2.037  1.00  0.00    -0.014 A 
ATOM     69  C   UNL     1     -11.590   4.792   2.986  1.00  0.00     0.010 A 
ATOM     70  C   UNL     1     -10.531   6.911   2.478  1.00  0.00     0.010 A 
ATOM     71  C   UNL     1     -11.610   5.130   4.343  1.00  0.00     0.020 A 
ATOM     72  C   UNL     1     -10.518   7.239   3.836  1.00  0.00     0.020 A 
ATOM     73  C   UNL     1     -11.070   6.351   4.760  1.00  0.00     0.054 A 
BRANCH  73  74
ATOM     74  S   UNL     1     -11.068   6.750   6.529  1.00  0.00     0.124 S 
ATOM     75  O   UNL     1     -12.479   7.026   6.780  1.00  0.00    -0.237 OA
ATOM     76  O   UNL     1     -10.546   5.525   7.129  1.00  0.00    -0.237 OA
ATOM     77  O   UNL     1     -10.179   7.907   6.619  1.00  0.00    -0.744 OA
ENDBRANCH  73  74
ENDBRANCH  45  68
BRANCH  57  78
ATOM     78  C   UNL     1     -16.080   4.805  -2.729  1.00  0.00    -0.014 A 
ATOM     79  C   UNL     1     -16.764   6.021  -2.555  1.00  0.00     0.010 A 
ATOM     80  C   UNL     1     -16.820   3.618  -2.880  1.00  0.00     0.010 A 
ATOM     81  C   UNL     1     -18.160   6.044  -2.501  1.00  0.00     0.020 A 
ATOM     82  C   UNL     1     -18.216   3.641  -2.858  1.00  0.00     0.020 A 
ATOM     83  C   UNL     1     -18.878   4.853  -2.654  1.00  0.00     0.054 A 
BRANCH  83  84
ATOM     84  S   UNL     1     -20.690   4.917  -2.625  1.00  0.00     0.124 S 
ATOM     85  O   UNL     1     -20.963   5.164  -1.212  1.00  0.00    -0.237 OA
ATOM     86  O   UNL     1     -20.985   6.028  -3.526  1.00  0.00    -0.237 OA
ATOM     87  O   UNL     1     -21.091   3.600  -3.116  1.00  0.00    -0.744 OA
ENDBRANCH  83  84
ENDBRANCH  57  78
ENDBRANCH  31  32
ENDBRANCH  24  26
ENDBRANCH  23  24
ENDBRANCH   1  23
TORSDOF 16
