REMARK SMILES Cc1nn(C)c(=O)c(C(=O)N[C@H](C)CC(=O)OCCOC(=O)c2ccc(-c3c4nc(c(-c5ccc(S(=O)(=O)[O-])cc5)c5ccc([nH]5)c(-c5ccc(S(=O)(=O)[O-])cc5)c5nc(c(-c6ccc(S(=O)(=O)[O-])cc6)c6ccc3[nH]6)C=C5)C=C4)cc2)c1C
REMARK SMILES IDX 18 1 17 2 15 3 16 4 14 5 12 6 13 7 11 8 9 9 10 10 8 12 1 13
REMARK SMILES IDX 2 14 3 15 83 16 4 17 84 18 5 19 6 20 7 21 19 22 20 23 21 24
REMARK SMILES IDX 22 25 23 26 24 27 82 28 25 29 81 30 26 31 27 32 28 33 75 34
REMARK SMILES IDX 29 35 80 36 74 37 76 38 30 39 79 40 73 41 72 42 31 44 61 45
REMARK SMILES IDX 42 46 60 47 43 48 46 49 59 50 77 51 44 52 45 53 58 55 78 56
REMARK SMILES IDX 47 57 32 58 33 59 41 60 34 61 40 62 35 63 36 64 37 65 38 66
REMARK SMILES IDX 39 67 62 68 63 69 71 70 64 71 70 72 65 73 66 74 67 75 68 76
REMARK SMILES IDX 69 77 48 78 49 79 57 80 50 81 56 82 51 83 52 84 53 85 54 86
REMARK SMILES IDX 55 87
REMARK H PARENT 11 11 76 43 46 54
REMARK Flexibility Score: inf
ROOT
ATOM      1  C   UNL     1      -3.103   3.945  -1.734  1.00  0.00     0.274 C 
ENDROOT
BRANCH   1   2
ATOM      2  O   UNL     1      -1.668   4.094  -1.675  1.00  0.00    -0.462 OA
BRANCH   2   3
ATOM      3  C   UNL     1      -1.191   4.772  -0.611  1.00  0.00     0.307 C 
ATOM      4  O   UNL     1      -1.902   5.287   0.248  1.00  0.00    -0.252 OA
BRANCH   3   5
ATOM      5  C   UNL     1       0.308   4.952  -0.567  1.00  0.00     0.147 C 
BRANCH   5   6
ATOM      6  C   UNL     1       1.316   4.165  -1.418  1.00  0.00     0.090 C 
ATOM      7  C   UNL     1       0.857   3.405  -2.652  1.00  0.00     0.031 C 
BRANCH   6   8
ATOM      8  N   UNL     1       2.487   5.042  -1.636  1.00  0.00    -0.349 N 
ATOM      9  C   UNL     1       2.773   6.041  -2.521  1.00  0.00     0.257 C 
ATOM     10  O   UNL     1       3.586   6.903  -2.192  1.00  0.00    -0.269 OA
ATOM     11  H   UNL     1       3.221   4.868  -1.003  1.00  0.00     0.164 HD
BRANCH   9  12
ATOM     12  C   UNL     1       2.181   6.060  -3.878  1.00  0.00     0.111 A 
ATOM     13  C   UNL     1      -0.975   5.951  -5.822  1.00  0.00     0.069 C 
ATOM     14  C   UNL     1       0.477   6.271  -5.542  1.00  0.00     0.062 A 
ATOM     15  N   UNL     1       1.283   6.315  -6.553  1.00  0.00    -0.175 NA
ATOM     16  C   UNL     1       0.910   6.420  -4.127  1.00  0.00    -0.010 A 
ATOM     17  N   UNL     1       2.622   6.347  -6.263  1.00  0.00    -0.232 N 
ATOM     18  C   UNL     1      -0.079   6.997  -3.173  1.00  0.00     0.047 C 
ATOM     19  C   UNL     1       3.510   6.619  -7.375  1.00  0.00     0.178 C 
ATOM     20  C   UNL     1       3.134   5.960  -5.027  1.00  0.00     0.279 A 
ATOM     21  O   UNL     1       4.307   5.634  -4.858  1.00  0.00    -0.267 OA
ENDBRANCH   9  12
ENDBRANCH   6   8
ENDBRANCH   5   6
ENDBRANCH   3   5
ENDBRANCH   2   3
ENDBRANCH   1   2
BRANCH   1  22
ATOM     22  C   UNL     1      -3.540   2.540  -1.317  1.00  0.00     0.275 C 
BRANCH  22  23
ATOM     23  O   UNL     1      -3.232   2.285   0.063  1.00  0.00    -0.458 OA
BRANCH  23  24
ATOM     24  C   UNL     1      -2.046   1.675   0.279  1.00  0.00     0.338 C 
ATOM     25  O   UNL     1      -1.244   1.290  -0.559  1.00  0.00    -0.246 OA
BRANCH  24  26
ATOM     26  C   UNL     1      -1.759   1.658   1.715  1.00  0.00     0.060 A 
ATOM     27  C   UNL     1      -0.977   2.688   2.237  1.00  0.00     0.016 A 
ATOM     28  C   UNL     1      -2.155   0.588   2.515  1.00  0.00     0.016 A 
ATOM     29  C   UNL     1      -0.550   2.644   3.554  1.00  0.00     0.010 A 
ATOM     30  C   UNL     1      -1.756   0.561   3.854  1.00  0.00     0.010 A 
ATOM     31  C   UNL     1      -0.936   1.579   4.373  1.00  0.00    -0.014 A 
BRANCH  31  32
ATOM     32  C   UNL     1      -0.432   1.525   5.761  1.00  0.00     0.031 A 
ATOM     33  C   UNL     1       0.607   0.510   6.133  1.00  0.00     0.074 A 
ATOM     34  C   UNL     1      -0.870   2.427   6.659  1.00  0.00     0.049 A 
ATOM     35  N   UNL     1       1.116   0.248   7.307  1.00  0.00    -0.248 NA
ATOM     36  C   UNL     1       1.147  -0.318   5.041  1.00  0.00     0.031 C 
ATOM     37  C   UNL     1      -1.819   3.507   6.377  1.00  0.00     0.029 A 
ATOM     38  N   UNL     1      -0.564   2.589   7.984  1.00  0.00    -0.354 N 
ATOM     39  C   UNL     1       2.012  -0.795   7.104  1.00  0.00     0.074 A 
ATOM     40  C   UNL     1       1.974  -1.121   5.696  1.00  0.00     0.031 C 
ATOM     41  C   UNL     1      -2.000   4.233   7.492  1.00  0.00     0.029 A 
ATOM     42  C   UNL     1      -1.232   3.633   8.578  1.00  0.00     0.049 A 
ATOM     43  H   UNL     1       0.072   2.013   8.466  1.00  0.00     0.167 HD
ATOM     44  C   UNL     1       2.789  -1.423   8.017  1.00  0.00     0.031 A 
ATOM     45  C   UNL     1      -1.247   4.041   9.861  1.00  0.00     0.031 A 
ATOM     46  C   UNL     1       2.817  -1.081   9.413  1.00  0.00     0.049 A 
ATOM     47  C   UNL     1      -0.431   3.283  10.867  1.00  0.00     0.074 A 
ATOM     48  C   UNL     1       3.553  -1.665  10.429  1.00  0.00     0.029 A 
ATOM     49  N   UNL     1       2.078  -0.058   9.989  1.00  0.00    -0.354 N 
ATOM     50  N   UNL     1       0.372   2.264  10.672  1.00  0.00    -0.248 NA
ATOM     51  C   UNL     1      -0.534   3.715  12.267  1.00  0.00     0.031 C 
ATOM     52  C   UNL     1       3.227  -1.019  11.627  1.00  0.00     0.029 A 
ATOM     53  C   UNL     1       2.323  -0.005  11.349  1.00  0.00     0.049 A 
ATOM     54  H   UNL     1       1.469   0.542   9.501  1.00  0.00     0.167 HD
ATOM     55  C   UNL     1       0.872   1.931  11.924  1.00  0.00     0.074 A 
ATOM     56  C   UNL     1       0.297   2.871  12.867  1.00  0.00     0.031 C 
ATOM     57  C   UNL     1       1.726   0.934  12.264  1.00  0.00     0.031 A 
BRANCH  44  58
ATOM     58  C   UNL     1       3.630  -2.572   7.536  1.00  0.00    -0.014 A 
ATOM     59  C   UNL     1       4.798  -2.359   6.783  1.00  0.00     0.010 A 
ATOM     60  C   UNL     1       3.252  -3.889   7.859  1.00  0.00     0.010 A 
ATOM     61  C   UNL     1       5.554  -3.445   6.331  1.00  0.00     0.020 A 
ATOM     62  C   UNL     1       4.017  -4.975   7.426  1.00  0.00     0.020 A 
ATOM     63  C   UNL     1       5.155  -4.747   6.651  1.00  0.00     0.054 A 
BRANCH  63  64
ATOM     64  S   UNL     1       6.158  -6.138   6.058  1.00  0.00     0.124 S 
ATOM     65  O   UNL     1       5.827  -6.163   4.636  1.00  0.00    -0.237 OA
ATOM     66  O   UNL     1       7.518  -5.713   6.378  1.00  0.00    -0.237 OA
ATOM     67  O   UNL     1       5.665  -7.275   6.832  1.00  0.00    -0.744 OA
ENDBRANCH  63  64
ENDBRANCH  44  58
BRANCH  45  68
ATOM     68  C   UNL     1      -2.095   5.197  10.254  1.00  0.00    -0.014 A 
ATOM     69  C   UNL     1      -1.512   6.433  10.579  1.00  0.00     0.010 A 
ATOM     70  C   UNL     1      -3.498   5.081  10.248  1.00  0.00     0.010 A 
ATOM     71  C   UNL     1      -2.317   7.535  10.883  1.00  0.00     0.020 A 
ATOM     72  C   UNL     1      -4.305   6.186  10.530  1.00  0.00     0.020 A 
ATOM     73  C   UNL     1      -3.709   7.407  10.850  1.00  0.00     0.054 A 
BRANCH  73  74
ATOM     74  S   UNL     1      -4.734   8.872  11.161  1.00  0.00     0.124 S 
ATOM     75  O   UNL     1      -4.617   9.022  12.608  1.00  0.00    -0.237 OA
ATOM     76  O   UNL     1      -4.070   9.899  10.362  1.00  0.00    -0.237 OA
ATOM     77  O   UNL     1      -6.054   8.474  10.676  1.00  0.00    -0.744 OA
ENDBRANCH  73  74
ENDBRANCH  45  68
BRANCH  57  78
ATOM     78  C   UNL     1       2.089   0.808  13.716  1.00  0.00    -0.014 A 
ATOM     79  C   UNL     1       1.195   0.225  14.630  1.00  0.00     0.010 A 
ATOM     80  C   UNL     1       3.367   1.201  14.152  1.00  0.00     0.010 A 
ATOM     81  C   UNL     1       1.570   0.048  15.963  1.00  0.00     0.020 A 
ATOM     82  C   UNL     1       3.752   1.006  15.480  1.00  0.00     0.020 A 
ATOM     83  C   UNL     1       2.847   0.437  16.379  1.00  0.00     0.054 A 
BRANCH  83  84
ATOM     84  S   UNL     1       3.334   0.133  18.099  1.00  0.00     0.124 S 
ATOM     85  O   UNL     1       2.594   1.170  18.812  1.00  0.00    -0.237 OA
ATOM     86  O   UNL     1       2.874  -1.236  18.326  1.00  0.00    -0.237 OA
ATOM     87  O   UNL     1       4.785   0.301  18.083  1.00  0.00    -0.744 OA
ENDBRANCH  83  84
ENDBRANCH  57  78
ENDBRANCH  31  32
ENDBRANCH  24  26
ENDBRANCH  23  24
ENDBRANCH  22  23
ENDBRANCH   1  22
TORSDOF 17
