REMARK SMILES CCN(CC)C(=O)[C@@H]1CC=CC[C@H]1C(=O)Nc1ccc(C(=O)OCCOC(=O)c2ccc(-c3c4nc(c(-c5ccc(S(=O)(=O)[O-])cc5)c5ccc([nH]5)c(-c5ccc(S(=O)(=O)[O-])cc5)c5nc(c(-c6ccc(S(=O)(=O)[O-])cc6)c6ccc3[nH]6)C=C5)C=C4)cc2)cc1
REMARK SMILES IDX 24 1 23 2 21 3 22 4 20 5 17 6 18 7 90 8 19 9 89 10 16 11
REMARK SMILES IDX 14 12 15 13 13 15 8 16 9 17 10 18 12 19 11 20 6 21 3 22 7 23
REMARK SMILES IDX 2 24 1 25 4 26 5 27 25 28 26 29 27 30 28 31 29 32 30 33
REMARK SMILES IDX 88 34 31 35 87 36 32 37 33 38 34 39 81 40 35 41 86 42 80 43
REMARK SMILES IDX 82 44 36 45 85 46 79 47 78 48 37 50 67 51 48 52 66 53 49 54
REMARK SMILES IDX 52 55 65 56 83 57 50 58 51 59 64 61 84 62 53 63 38 64 39 65
REMARK SMILES IDX 47 66 40 67 46 68 41 69 42 70 43 71 44 72 45 73 68 74 69 75
REMARK SMILES IDX 77 76 70 77 76 78 71 79 72 80 73 81 74 82 75 83 54 84 55 85
REMARK SMILES IDX 63 86 56 87 62 88 57 89 58 90 59 91 60 92 61 93
REMARK H PARENT 16 14 82 49 52 60
REMARK Flexibility Score: inf
ROOT
ATOM      1  C   UNL     1      -2.482  -1.008   0.962  1.00  0.00     0.275 C 
ENDROOT
BRANCH   1   2
ATOM      2  O   UNL     1      -1.341  -0.702   0.139  1.00  0.00    -0.458 OA
BRANCH   2   3
ATOM      3  C   UNL     1      -1.649  -0.199  -1.080  1.00  0.00     0.338 C 
ATOM      4  O   UNL     1      -2.773  -0.077  -1.548  1.00  0.00    -0.246 OA
BRANCH   3   5
ATOM      5  C   UNL     1      -0.444   0.271  -1.803  1.00  0.00     0.060 A 
ATOM      6  C   UNL     1       1.690   0.956  -3.444  1.00  0.00     0.041 A 
ATOM      7  C   UNL     1       0.430   1.477  -3.718  1.00  0.00     0.027 A 
ATOM      8  C   UNL     1       1.925   0.280  -2.248  1.00  0.00     0.027 A 
ATOM      9  C   UNL     1      -0.643   1.093  -2.924  1.00  0.00     0.018 A 
ATOM     10  C   UNL     1       0.854  -0.081  -1.428  1.00  0.00     0.018 A 
BRANCH   6  11
ATOM     11  N   UNL     1       2.666   1.093  -4.433  1.00  0.00    -0.326 N 
ATOM     12  C   UNL     1       3.049   0.150  -5.356  1.00  0.00     0.228 C 
ATOM     13  O   UNL     1       3.595   0.591  -6.378  1.00  0.00    -0.274 OA
ATOM     14  H   UNL     1       3.130   1.960  -4.473  1.00  0.00     0.169 HD
BRANCH  12  15
ATOM     15  C   UNL     1       2.752  -1.358  -5.273  1.00  0.00     0.095 C 
ATOM     16  C   UNL     1       3.258  -2.171  -4.053  1.00  0.00     0.095 C 
ATOM     17  C   UNL     1       2.501  -3.537  -3.949  1.00  0.00     0.041 C 
ATOM     18  C   UNL     1       1.038  -3.525  -4.226  1.00  0.00    -0.030 C 
ATOM     19  C   UNL     1       1.236  -1.476  -5.607  1.00  0.00     0.041 C 
ATOM     20  C   UNL     1       0.470  -2.595  -4.991  1.00  0.00    -0.030 C 
BRANCH  16  21
ATOM     21  C   UNL     1       4.773  -2.564  -3.971  1.00  0.00     0.226 C 
ATOM     22  N   UNL     1       5.758  -1.653  -3.608  1.00  0.00    -0.343 N 
ATOM     23  O   UNL     1       5.094  -3.756  -4.084  1.00  0.00    -0.275 OA
BRANCH  22  24
ATOM     24  C   UNL     1       7.028  -2.169  -3.083  1.00  0.00     0.116 C 
ATOM     25  C   UNL     1       7.033  -2.133  -1.560  1.00  0.00     0.027 C 
ENDBRANCH  22  24
BRANCH  22  26
ATOM     26  C   UNL     1       5.729  -0.214  -3.812  1.00  0.00     0.116 C 
ATOM     27  C   UNL     1       6.261   0.141  -5.194  1.00  0.00     0.027 C 
ENDBRANCH  22  26
ENDBRANCH  16  21
ENDBRANCH  12  15
ENDBRANCH   6  11
ENDBRANCH   3   5
ENDBRANCH   2   3
ENDBRANCH   1   2
BRANCH   1  28
ATOM     28  C   UNL     1      -2.722   0.114   1.970  1.00  0.00     0.275 C 
BRANCH  28  29
ATOM     29  O   UNL     1      -2.889   1.369   1.285  1.00  0.00    -0.458 OA
BRANCH  29  30
ATOM     30  C   UNL     1      -2.012   2.344   1.617  1.00  0.00     0.338 C 
ATOM     31  O   UNL     1      -1.149   2.298   2.483  1.00  0.00    -0.246 OA
BRANCH  30  32
ATOM     32  C   UNL     1      -2.216   3.527   0.761  1.00  0.00     0.060 A 
ATOM     33  C   UNL     1      -2.136   3.404  -0.624  1.00  0.00     0.016 A 
ATOM     34  C   UNL     1      -2.358   4.788   1.334  1.00  0.00     0.016 A 
ATOM     35  C   UNL     1      -2.106   4.537  -1.435  1.00  0.00     0.010 A 
ATOM     36  C   UNL     1      -2.441   5.918   0.509  1.00  0.00     0.010 A 
ATOM     37  C   UNL     1      -2.281   5.814  -0.886  1.00  0.00    -0.014 A 
BRANCH  37  38
ATOM     38  C   UNL     1      -2.265   7.035  -1.748  1.00  0.00     0.031 A 
ATOM     39  C   UNL     1      -1.319   8.171  -1.439  1.00  0.00     0.074 A 
ATOM     40  C   UNL     1      -3.092   7.150  -2.809  1.00  0.00     0.049 A 
ATOM     41  N   UNL     1      -1.312   9.393  -1.908  1.00  0.00    -0.248 NA
ATOM     42  C   UNL     1      -0.255   7.901  -0.459  1.00  0.00     0.031 C 
ATOM     43  C   UNL     1      -4.030   6.126  -3.277  1.00  0.00     0.029 A 
ATOM     44  N   UNL     1      -3.277   8.189  -3.692  1.00  0.00    -0.354 N 
ATOM     45  C   UNL     1      -0.301  10.059  -1.223  1.00  0.00     0.074 A 
ATOM     46  C   UNL     1       0.292   9.100  -0.315  1.00  0.00     0.031 C 
ATOM     47  C   UNL     1      -4.653   6.567  -4.379  1.00  0.00     0.029 A 
ATOM     48  C   UNL     1      -4.246   7.943  -4.637  1.00  0.00     0.049 A 
ATOM     49  H   UNL     1      -2.764   9.028  -3.651  1.00  0.00     0.167 HD
ATOM     50  C   UNL     1       0.090  11.352  -1.331  1.00  0.00     0.031 A 
ATOM     51  C   UNL     1      -4.797   8.743  -5.572  1.00  0.00     0.031 A 
ATOM     52  C   UNL     1      -0.459  12.290  -2.275  1.00  0.00     0.049 A 
ATOM     53  C   UNL     1      -4.371  10.180  -5.659  1.00  0.00     0.074 A 
ATOM     54  C   UNL     1      -0.106  13.614  -2.478  1.00  0.00     0.029 A 
ATOM     55  N   UNL     1      -1.465  12.002  -3.184  1.00  0.00    -0.354 N 
ATOM     56  N   UNL     1      -3.463  10.811  -4.955  1.00  0.00    -0.248 NA
ATOM     57  C   UNL     1      -5.067  11.019  -6.644  1.00  0.00     0.031 C 
ATOM     58  C   UNL     1      -0.928  14.137  -3.483  1.00  0.00     0.029 A 
ATOM     59  C   UNL     1      -1.761  13.127  -3.936  1.00  0.00     0.049 A 
ATOM     60  H   UNL     1      -1.905  11.127  -3.281  1.00  0.00     0.167 HD
ATOM     61  C   UNL     1      -3.485  12.126  -5.405  1.00  0.00     0.074 A 
ATOM     62  C   UNL     1      -4.474  12.191  -6.463  1.00  0.00     0.031 C 
ATOM     63  C   UNL     1      -2.760  13.185  -4.972  1.00  0.00     0.031 A 
BRANCH  50  64
ATOM     64  C   UNL     1       1.129  11.848  -0.359  1.00  0.00    -0.014 A 
ATOM     65  C   UNL     1       2.482  11.485  -0.470  1.00  0.00     0.010 A 
ATOM     66  C   UNL     1       0.738  12.722   0.673  1.00  0.00     0.010 A 
ATOM     67  C   UNL     1       3.416  11.948   0.462  1.00  0.00     0.020 A 
ATOM     68  C   UNL     1       1.672  13.208   1.591  1.00  0.00     0.020 A 
ATOM     69  C   UNL     1       3.003  12.800   1.492  1.00  0.00     0.054 A 
BRANCH  69  70
ATOM     70  S   UNL     1       4.233  13.390   2.688  1.00  0.00     0.124 S 
ATOM     71  O   UNL     1       4.420  12.211   3.531  1.00  0.00    -0.237 OA
ATOM     72  O   UNL     1       5.368  13.740   1.839  1.00  0.00    -0.237 OA
ATOM     73  O   UNL     1       3.572  14.520   3.336  1.00  0.00    -0.744 OA
ENDBRANCH  69  70
ENDBRANCH  50  64
BRANCH  51  74
ATOM     74  C   UNL     1      -5.877   8.209  -6.447  1.00  0.00    -0.014 A 
ATOM     75  C   UNL     1      -5.636   7.955  -7.808  1.00  0.00     0.010 A 
ATOM     76  C   UNL     1      -7.139   7.903  -5.905  1.00  0.00     0.010 A 
ATOM     77  C   UNL     1      -6.635   7.391  -8.608  1.00  0.00     0.020 A 
ATOM     78  C   UNL     1      -8.129   7.313  -6.694  1.00  0.00     0.020 A 
ATOM     79  C   UNL     1      -7.872   7.064  -8.043  1.00  0.00     0.054 A 
BRANCH  79  80
ATOM     80  S   UNL     1      -9.118   6.236  -9.069  1.00  0.00     0.124 S 
ATOM     81  O   UNL     1      -9.662   7.347  -9.842  1.00  0.00    -0.237 OA
ATOM     82  O   UNL     1      -8.320   5.271  -9.823  1.00  0.00    -0.237 OA
ATOM     83  O   UNL     1     -10.027   5.646  -8.089  1.00  0.00    -0.744 OA
ENDBRANCH  79  80
ENDBRANCH  51  74
BRANCH  63  84
ATOM     84  C   UNL     1      -3.009  14.508  -5.641  1.00  0.00    -0.014 A 
ATOM     85  C   UNL     1      -4.161  15.258  -5.346  1.00  0.00     0.010 A 
ATOM     86  C   UNL     1      -2.062  15.027  -6.542  1.00  0.00     0.010 A 
ATOM     87  C   UNL     1      -4.375  16.494  -5.962  1.00  0.00     0.020 A 
ATOM     88  C   UNL     1      -2.262  16.272  -7.143  1.00  0.00     0.020 A 
ATOM     89  C   UNL     1      -3.425  16.992  -6.859  1.00  0.00     0.054 A 
BRANCH  89  90
ATOM     90  S   UNL     1      -3.704  18.617  -7.616  1.00  0.00     0.124 S 
ATOM     91  O   UNL     1      -4.715  18.311  -8.625  1.00  0.00    -0.237 OA
ATOM     92  O   UNL     1      -4.166  19.423  -6.489  1.00  0.00    -0.237 OA
ATOM     93  O   UNL     1      -2.391  18.984  -8.140  1.00  0.00    -0.744 OA
ENDBRANCH  89  90
ENDBRANCH  63  84
ENDBRANCH  37  38
ENDBRANCH  30  32
ENDBRANCH  29  30
ENDBRANCH  28  29
ENDBRANCH   1  28
TORSDOF 19
