REMARK SMILES O=Cc1ccc2c(c1)C=C(C(=O)OCCOC(=O)c1ccc(-c3c4nc(c(-c5ccc(S(=O)(=O)[O-])cc5)c5ccc([nH]5)c(-c5ccc(S(=O)(=O)[O-])cc5)c5nc(c(-c6ccc(S(=O)(=O)[O-])cc6)c6ccc3[nH]6)C=C5)C=C4)cc1)[C@H](C(F)(F)F)O2
REMARK SMILES IDX 15 1 14 2 13 3 11 4 12 5 10 6 3 7 4 8 8 9 5 10 7 11 6 12
REMARK SMILES IDX 9 13 84 14 79 15 2 16 1 17 80 18 81 19 82 20 83 21 16 22
REMARK SMILES IDX 17 23 18 24 19 25 20 26 78 27 21 28 77 29 22 30 23 31 24 32
REMARK SMILES IDX 71 33 25 34 76 35 70 36 72 37 26 38 75 39 69 40 68 41 27 43
REMARK SMILES IDX 57 44 38 45 56 46 39 47 42 48 55 49 73 50 40 51 41 52 54 54
REMARK SMILES IDX 74 55 43 56 28 57 29 58 37 59 30 60 36 61 31 62 32 63 33 64
REMARK SMILES IDX 34 65 35 66 58 67 59 68 67 69 60 70 66 71 61 72 62 73 63 74
REMARK SMILES IDX 64 75 65 76 44 77 45 78 53 79 46 80 52 81 47 82 48 83 49 84
REMARK SMILES IDX 50 85 51 86
REMARK H PARENT 72 42 42 53
REMARK Flexibility Score: inf
ROOT
ATOM      1  C   UNL     1       8.581  -3.241  -6.482  1.00  0.00     0.275 C 
ENDROOT
BRANCH   1   2
ATOM      2  C   UNL     1       8.923  -2.411  -5.241  1.00  0.00     0.275 C 
BRANCH   2   3
ATOM      3  O   UNL     1       7.768  -1.713  -4.723  1.00  0.00    -0.459 OA
BRANCH   3   4
ATOM      4  C   UNL     1       7.803  -0.357  -4.810  1.00  0.00     0.338 C 
ATOM      5  O   UNL     1       8.706   0.290  -5.311  1.00  0.00    -0.246 OA
BRANCH   4   6
ATOM      6  C   UNL     1       6.586   0.269  -4.236  1.00  0.00     0.087 C 
ATOM      7  C   UNL     1       2.853   0.366  -1.174  1.00  0.00     0.015 A 
ATOM      8  C   UNL     1       2.449   1.594  -1.705  1.00  0.00     0.015 A 
ATOM      9  C   UNL     1       4.006  -0.276  -1.648  1.00  0.00     0.023 A 
ATOM     10  C   UNL     1       3.233   2.211  -2.677  1.00  0.00     0.048 A 
ATOM     11  C   UNL     1       4.776   0.331  -2.647  1.00  0.00     0.018 A 
ATOM     12  C   UNL     1       4.394   1.585  -3.130  1.00  0.00     0.128 A 
ATOM     13  C   UNL     1       5.988  -0.295  -3.171  1.00  0.00     0.027 C 
ATOM     14  O   UNL     1       5.168   2.302  -3.994  1.00  0.00    -0.475 OA
ATOM     15  C   UNL     1       6.040   1.539  -4.874  1.00  0.00     0.316 C 
BRANCH   7  16
ATOM     16  C   UNL     1       2.077  -0.248  -0.077  1.00  0.00     0.260 C 
ATOM     17  O   UNL     1       1.028   0.232   0.334  1.00  0.00    -0.298 OA
ENDBRANCH   7  16
BRANCH  15  18
ATOM     18  C   UNL     1       7.040   2.538  -5.492  1.00  0.00     0.430 C 
ATOM     19  F   UNL     1       7.582   2.067  -6.637  1.00  0.00    -0.167 F 
ATOM     20  F   UNL     1       6.401   3.687  -5.834  1.00  0.00    -0.167 F 
ATOM     21  F   UNL     1       8.029   2.871  -4.636  1.00  0.00    -0.167 F 
ENDBRANCH  15  18
ENDBRANCH   4   6
ENDBRANCH   3   4
ENDBRANCH   2   3
ENDBRANCH   1   2
BRANCH   1  22
ATOM     22  O   UNL     1       8.164  -2.403  -7.574  1.00  0.00    -0.458 OA
BRANCH  22  23
ATOM     23  C   UNL     1       6.823  -2.293  -7.736  1.00  0.00     0.338 C 
ATOM     24  O   UNL     1       5.957  -2.877  -7.105  1.00  0.00    -0.246 OA
BRANCH  23  25
ATOM     25  C   UNL     1       6.538  -1.165  -8.640  1.00  0.00     0.060 A 
ATOM     26  C   UNL     1       5.758  -0.133  -8.118  1.00  0.00     0.016 A 
ATOM     27  C   UNL     1       7.016  -1.093  -9.948  1.00  0.00     0.016 A 
ATOM     28  C   UNL     1       5.524   1.024  -8.858  1.00  0.00     0.010 A 
ATOM     29  C   UNL     1       6.734   0.046 -10.716  1.00  0.00     0.010 A 
ATOM     30  C   UNL     1       6.011   1.121 -10.165  1.00  0.00    -0.014 A 
BRANCH  30  31
ATOM     31  C   UNL     1       5.730   2.334 -10.969  1.00  0.00     0.031 A 
ATOM     32  C   UNL     1       4.491   2.399 -11.812  1.00  0.00     0.074 A 
ATOM     33  C   UNL     1       6.572   3.383 -10.930  1.00  0.00     0.049 A 
ATOM     34  N   UNL     1       4.122   3.316 -12.667  1.00  0.00    -0.248 NA
ATOM     35  C   UNL     1       3.534   1.292 -11.659  1.00  0.00     0.031 C 
ATOM     36  C   UNL     1       7.748   3.490 -10.066  1.00  0.00     0.029 A 
ATOM     37  N   UNL     1       6.571   4.556 -11.643  1.00  0.00    -0.354 N 
ATOM     38  C   UNL     1       2.896   2.897 -13.165  1.00  0.00     0.074 A 
ATOM     39  C   UNL     1       2.583   1.641 -12.515  1.00  0.00     0.031 C 
ATOM     40  C   UNL     1       8.372   4.654 -10.323  1.00  0.00     0.029 A 
ATOM     41  C   UNL     1       7.670   5.347 -11.402  1.00  0.00     0.049 A 
ATOM     42  H   UNL     1       5.852   4.807 -12.268  1.00  0.00     0.167 HD
ATOM     43  C   UNL     1       2.111   3.498 -14.091  1.00  0.00     0.031 A 
ATOM     44  C   UNL     1       8.087   6.474 -12.013  1.00  0.00     0.031 A 
ATOM     45  C   UNL     1       2.446   4.726 -14.763  1.00  0.00     0.049 A 
ATOM     46  C   UNL     1       7.272   7.043 -13.148  1.00  0.00     0.074 A 
ATOM     47  C   UNL     1       1.723   5.400 -15.732  1.00  0.00     0.029 A 
ATOM     48  N   UNL     1       3.606   5.455 -14.551  1.00  0.00    -0.354 N 
ATOM     49  N   UNL     1       6.118   6.633 -13.621  1.00  0.00    -0.248 NA
ATOM     50  C   UNL     1       7.821   8.218 -13.840  1.00  0.00     0.031 C 
ATOM     51  C   UNL     1       2.479   6.497 -16.156  1.00  0.00     0.029 A 
ATOM     52  C   UNL     1       3.642   6.546 -15.403  1.00  0.00     0.049 A 
ATOM     53  H   UNL     1       4.302   5.230 -13.892  1.00  0.00     0.167 HD
ATOM     54  C   UNL     1       5.797   7.511 -14.653  1.00  0.00     0.074 A 
ATOM     55  C   UNL     1       6.867   8.484 -14.723  1.00  0.00     0.031 C 
ATOM     56  C   UNL     1       4.715   7.508 -15.470  1.00  0.00     0.031 A 
BRANCH  43  57
ATOM     57  C   UNL     1       0.843   2.791 -14.488  1.00  0.00    -0.014 A 
ATOM     58  C   UNL     1      -0.271   2.746 -13.631  1.00  0.00     0.010 A 
ATOM     59  C   UNL     1       0.758   2.192 -15.758  1.00  0.00     0.010 A 
ATOM     60  C   UNL     1      -1.436   2.082 -14.025  1.00  0.00     0.020 A 
ATOM     61  C   UNL     1      -0.414   1.549 -16.165  1.00  0.00     0.020 A 
ATOM     62  C   UNL     1      -1.498   1.484 -15.289  1.00  0.00     0.054 A 
BRANCH  62  63
ATOM     63  S   UNL     1      -3.027   0.640 -15.778  1.00  0.00     0.124 S 
ATOM     64  O   UNL     1      -2.994  -0.553 -14.936  1.00  0.00    -0.237 OA
ATOM     65  O   UNL     1      -4.056   1.619 -15.440  1.00  0.00    -0.237 OA
ATOM     66  O   UNL     1      -2.847   0.397 -17.208  1.00  0.00    -0.744 OA
ENDBRANCH  62  63
ENDBRANCH  43  57
BRANCH  44  67
ATOM     67  C   UNL     1       9.382   7.102 -11.624  1.00  0.00    -0.014 A 
ATOM     68  C   UNL     1       9.419   8.376 -11.030  1.00  0.00     0.010 A 
ATOM     69  C   UNL     1      10.595   6.432 -11.873  1.00  0.00     0.010 A 
ATOM     70  C   UNL     1      10.643   8.974 -10.711  1.00  0.00     0.020 A 
ATOM     71  C   UNL     1      11.818   7.012 -11.528  1.00  0.00     0.020 A 
ATOM     72  C   UNL     1      11.835   8.287 -10.961  1.00  0.00     0.054 A 
BRANCH  72  73
ATOM     73  S   UNL     1      13.410   9.066 -10.506  1.00  0.00     0.124 S 
ATOM     74  O   UNL     1      13.535  10.111 -11.518  1.00  0.00    -0.237 OA
ATOM     75  O   UNL     1      13.151   9.530  -9.145  1.00  0.00    -0.237 OA
ATOM     76  O   UNL     1      14.375   7.974 -10.611  1.00  0.00    -0.744 OA
ENDBRANCH  72  73
ENDBRANCH  44  67
BRANCH  56  77
ATOM     77  C   UNL     1       4.614   8.597 -16.506  1.00  0.00    -0.014 A 
ATOM     78  C   UNL     1       5.438   8.595 -17.645  1.00  0.00     0.010 A 
ATOM     79  C   UNL     1       3.625   9.591 -16.379  1.00  0.00     0.010 A 
ATOM     80  C   UNL     1       5.286   9.576 -18.631  1.00  0.00     0.020 A 
ATOM     81  C   UNL     1       3.452  10.556 -17.375  1.00  0.00     0.020 A 
ATOM     82  C   UNL     1       4.290  10.547 -18.492  1.00  0.00     0.054 A 
BRANCH  82  83
ATOM     83  S   UNL     1       4.068  11.764 -19.819  1.00  0.00     0.124 S 
ATOM     84  O   UNL     1       5.243  12.614 -19.654  1.00  0.00    -0.237 OA
ATOM     85  O   UNL     1       4.058  10.931 -21.019  1.00  0.00    -0.237 OA
ATOM     86  O   UNL     1       2.791  12.399 -19.499  1.00  0.00    -0.744 OA
ENDBRANCH  82  83
ENDBRANCH  56  77
ENDBRANCH  30  31
ENDBRANCH  23  25
ENDBRANCH  22  23
ENDBRANCH   1  22
TORSDOF 16
