REMARK SMILES C[NH2+][C@]1(C(=O)OCCOC(=O)c2ccc(-c3c4nc(c(-c5ccc(S(=O)(=O)[O-])cc5)c5ccc([nH]5)c(-c5ccc(S(=O)(=O)[O-])cc5)c5nc(c(-c6ccc(S(=O)(=O)[O-])cc6)c6ccc3[nH]6)C=C5)C=C4)cc2)CCC[C@@H]1CCn1nc(C)c(Cl)c1C
REMARK SMILES IDX 7 1 6 2 4 3 5 4 3 5 72 6 75 7 73 8 74 9 2 10 1 11 76 14
REMARK SMILES IDX 77 15 78 16 79 17 84 18 80 19 82 20 85 21 81 22 83 23 8 24
REMARK SMILES IDX 9 25 10 26 11 27 12 28 13 29 71 30 14 31 70 32 15 33 16 34
REMARK SMILES IDX 17 35 64 36 18 37 69 38 63 39 65 40 19 41 68 42 62 43 61 44
REMARK SMILES IDX 20 46 50 47 31 48 49 49 32 50 35 51 48 52 66 53 33 54 34 55
REMARK SMILES IDX 47 57 67 58 36 59 21 60 22 61 30 62 23 63 29 64 24 65 25 66
REMARK SMILES IDX 26 67 27 68 28 69 51 70 52 71 60 72 53 73 59 74 54 75 55 76
REMARK SMILES IDX 56 77 57 78 58 79 37 80 38 81 46 82 39 83 45 84 40 85 41 86
REMARK SMILES IDX 42 87 43 88 44 89
REMARK H PARENT 2 12 2 13 65 45 35 56
REMARK Flexibility Score: inf
ROOT
ATOM      1  C   UNL     1       2.365  -0.706  -0.221  1.00  0.00     0.274 C 
ENDROOT
BRANCH   1   2
ATOM      2  O   UNL     1       0.934  -0.540  -0.193  1.00  0.00    -0.457 OA
BRANCH   2   3
ATOM      3  C   UNL     1       0.261  -1.443   0.575  1.00  0.00     0.368 C 
ATOM      4  O   UNL     1       0.815  -2.326   1.222  1.00  0.00    -0.245 OA
BRANCH   3   5
ATOM      5  C   UNL     1      -1.285  -1.266   0.521  1.00  0.00     0.197 C 
ATOM      6  C   UNL     1      -1.756  -0.127  -0.416  1.00  0.00     0.081 C 
ATOM      7  C   UNL     1      -1.863  -2.470  -0.279  1.00  0.00     0.064 C 
ATOM      8  C   UNL     1      -3.207  -0.485  -0.736  1.00  0.00     0.008 C 
ATOM      9  C   UNL     1      -3.260  -2.017  -0.728  1.00  0.00     0.011 C 
BRANCH   5  10
ATOM     10  N   UNL     1      -1.774  -0.931   1.872  1.00  0.00    -0.334 N 
ATOM     11  C   UNL     1      -2.635  -1.831   2.599  1.00  0.00     0.331 C 
ATOM     12  H   UNL     1      -0.947  -0.791   2.453  1.00  0.00     0.347 HD
ATOM     13  H   UNL     1      -2.384  -0.133   1.697  1.00  0.00     0.347 HD
ENDBRANCH   5  10
BRANCH   7  14
ATOM     14  C   UNL     1      -1.813  -3.873   0.352  1.00  0.00     0.034 C 
BRANCH  14  15
ATOM     15  C   UNL     1      -1.760  -5.023  -0.666  1.00  0.00     0.145 C 
BRANCH  15  16
ATOM     16  N   UNL     1      -0.594  -5.005  -1.537  1.00  0.00    -0.268 N 
ATOM     17  N   UNL     1       0.557  -5.536  -1.077  1.00  0.00    -0.176 NA
ATOM     18  C   UNL     1      -0.486  -4.514  -2.818  1.00  0.00     0.054 A 
ATOM     19  C   UNL     1       1.442  -5.328  -2.059  1.00  0.00     0.078 A 
ATOM     20  C   UNL     1       0.840  -4.687  -3.162  1.00  0.00     0.084 A 
ATOM     21  C   UNL     1      -1.589  -3.896  -3.593  1.00  0.00     0.068 C 
ATOM     22  C   UNL     1       2.848  -5.771  -1.886  1.00  0.00     0.070 C 
ATOM     23  Cl  UNL     1       1.597  -4.226  -4.610  1.00  0.00    -0.080 Cl
ENDBRANCH  15  16
ENDBRANCH  14  15
ENDBRANCH   7  14
ENDBRANCH   3   5
ENDBRANCH   2   3
ENDBRANCH   1   2
BRANCH   1  24
ATOM     24  C   UNL     1       3.058   0.247   0.752  1.00  0.00     0.275 C 
BRANCH  24  25
ATOM     25  O   UNL     1       2.677  -0.043   2.107  1.00  0.00    -0.458 OA
BRANCH  25  26
ATOM     26  C   UNL     1       1.885   0.881   2.699  1.00  0.00     0.338 C 
ATOM     27  O   UNL     1       1.520   1.949   2.237  1.00  0.00    -0.246 OA
BRANCH  26  28
ATOM     28  C   UNL     1       1.475   0.410   4.031  1.00  0.00     0.060 A 
ATOM     29  C   UNL     1       0.539  -0.614   4.125  1.00  0.00     0.016 A 
ATOM     30  C   UNL     1       1.887   1.086   5.178  1.00  0.00     0.016 A 
ATOM     31  C   UNL     1      -0.074  -0.897   5.339  1.00  0.00     0.010 A 
ATOM     32  C   UNL     1       1.344   0.728   6.419  1.00  0.00     0.010 A 
ATOM     33  C   UNL     1       0.325  -0.238   6.507  1.00  0.00    -0.014 A 
BRANCH  33  34
ATOM     34  C   UNL     1      -0.368  -0.522   7.794  1.00  0.00     0.031 A 
ATOM     35  C   UNL     1      -1.075   0.588   8.530  1.00  0.00     0.074 A 
ATOM     36  C   UNL     1      -0.408  -1.776   8.289  1.00  0.00     0.049 A 
ATOM     37  N   UNL     1      -1.585   0.585   9.735  1.00  0.00    -0.248 NA
ATOM     38  C   UNL     1      -1.218   1.871   7.821  1.00  0.00     0.031 C 
ATOM     39  C   UNL     1       0.168  -2.963   7.650  1.00  0.00     0.029 A 
ATOM     40  N   UNL     1      -0.977  -2.266   9.439  1.00  0.00    -0.354 N 
ATOM     41  C   UNL     1      -2.047   1.879   9.954  1.00  0.00     0.074 A 
ATOM     42  C   UNL     1      -1.767   2.636   8.754  1.00  0.00     0.031 C 
ATOM     43  C   UNL     1      -0.120  -4.045   8.389  1.00  0.00     0.029 A 
ATOM     44  C   UNL     1      -0.816  -3.622   9.599  1.00  0.00     0.049 A 
ATOM     45  H   UNL     1      -1.455  -1.700  10.087  1.00  0.00     0.167 HD
ATOM     46  C   UNL     1      -2.639   2.390  11.060  1.00  0.00     0.031 A 
ATOM     47  C   UNL     1      -1.148  -4.434  10.621  1.00  0.00     0.031 A 
ATOM     48  C   UNL     1      -2.958   1.621  12.234  1.00  0.00     0.049 A 
ATOM     49  C   UNL     1      -1.782  -3.842  11.847  1.00  0.00     0.074 A 
ATOM     50  C   UNL     1      -3.542   2.050  13.413  1.00  0.00     0.029 A 
ATOM     51  N   UNL     1      -2.740   0.259  12.367  1.00  0.00    -0.354 N 
ATOM     52  N   UNL     1      -2.125  -2.598  12.075  1.00  0.00    -0.248 NA
ATOM     53  C   UNL     1      -2.050  -4.760  12.962  1.00  0.00     0.031 C 
ATOM     54  C   UNL     1      -3.653   0.950  14.271  1.00  0.00     0.029 A 
ATOM     55  C   UNL     1      -3.173  -0.170  13.610  1.00  0.00     0.049 A 
ATOM     56  H   UNL     1      -2.336  -0.319  11.680  1.00  0.00     0.167 HD
ATOM     57  C   UNL     1      -2.647  -2.581  13.363  1.00  0.00     0.074 A 
ATOM     58  C   UNL     1      -2.599  -3.945  13.852  1.00  0.00     0.031 C 
ATOM     59  C   UNL     1      -3.113  -1.530  14.080  1.00  0.00     0.031 A 
BRANCH  46  60
ATOM     60  C   UNL     1      -2.929   3.866  11.069  1.00  0.00    -0.014 A 
ATOM     61  C   UNL     1      -4.003   4.411  10.344  1.00  0.00     0.010 A 
ATOM     62  C   UNL     1      -2.117   4.720  11.838  1.00  0.00     0.010 A 
ATOM     63  C   UNL     1      -4.234   5.790  10.356  1.00  0.00     0.020 A 
ATOM     64  C   UNL     1      -2.358   6.096  11.870  1.00  0.00     0.020 A 
ATOM     65  C   UNL     1      -3.405   6.625  11.112  1.00  0.00     0.054 A 
BRANCH  65  66
ATOM     66  S   UNL     1      -3.726   8.411  11.120  1.00  0.00     0.124 S 
ATOM     67  O   UNL     1      -3.167   8.822   9.835  1.00  0.00    -0.237 OA
ATOM     68  O   UNL     1      -5.182   8.478  11.220  1.00  0.00    -0.237 OA
ATOM     69  O   UNL     1      -3.002   8.887  12.296  1.00  0.00    -0.744 OA
ENDBRANCH  65  66
ENDBRANCH  46  60
BRANCH  47  70
ATOM     70  C   UNL     1      -0.827  -5.885  10.547  1.00  0.00    -0.014 A 
ATOM     71  C   UNL     1      -1.849  -6.837  10.392  1.00  0.00     0.010 A 
ATOM     72  C   UNL     1       0.510  -6.319  10.601  1.00  0.00     0.010 A 
ATOM     73  C   UNL     1      -1.539  -8.197  10.294  1.00  0.00     0.020 A 
ATOM     74  C   UNL     1       0.826  -7.673  10.477  1.00  0.00     0.020 A 
ATOM     75  C   UNL     1      -0.203  -8.606  10.333  1.00  0.00     0.054 A 
BRANCH  75  76
ATOM     76  S   UNL     1       0.190 -10.366  10.129  1.00  0.00     0.124 S 
ATOM     77  O   UNL     1      -0.060 -10.889  11.469  1.00  0.00    -0.237 OA
ATOM     78  O   UNL     1      -0.756 -10.789   9.099  1.00  0.00    -0.237 OA
ATOM     79  O   UNL     1       1.589 -10.355   9.709  1.00  0.00    -0.744 OA
ENDBRANCH  75  76
ENDBRANCH  47  70
BRANCH  59  80
ATOM     80  C   UNL     1      -3.623  -1.819  15.463  1.00  0.00    -0.014 A 
ATOM     81  C   UNL     1      -2.732  -2.038  16.528  1.00  0.00     0.010 A 
ATOM     82  C   UNL     1      -5.008  -1.829  15.706  1.00  0.00     0.010 A 
ATOM     83  C   UNL     1      -3.220  -2.292  17.812  1.00  0.00     0.020 A 
ATOM     84  C   UNL     1      -5.498  -2.063  16.993  1.00  0.00     0.020 A 
ATOM     85  C   UNL     1      -4.601  -2.307  18.035  1.00  0.00     0.054 A 
BRANCH  85  86
ATOM     86  S   UNL     1      -5.215  -2.598  19.717  1.00  0.00     0.124 S 
ATOM     87  O   UNL     1      -5.084  -4.047  19.840  1.00  0.00    -0.237 OA
ATOM     88  O   UNL     1      -4.297  -1.812  20.539  1.00  0.00    -0.237 OA
ATOM     89  O   UNL     1      -6.586  -2.096  19.675  1.00  0.00    -0.744 OA
ENDBRANCH  85  86
ENDBRANCH  59  80
ENDBRANCH  33  34
ENDBRANCH  26  28
ENDBRANCH  25  26
ENDBRANCH  24  25
ENDBRANCH   1  24
TORSDOF 18
