REMARK SMILES O=C(NC1CCCCCC1)N[C@@H]1C=C[C@H](C(=O)OCCOC(=O)c2ccc(-c3c4nc(c(-c5ccc(S(=O)(=O)[O-])cc5)c5ccc([nH]5)c(-c5ccc(S(=O)(=O)[O-])cc5)c5nc(c(-c6ccc(S(=O)(=O)[O-])cc6)c6ccc3[nH]6)C=C5)C=C4)cc2)C1
REMARK SMILES IDX 18 1 16 2 17 3 15 4 12 5 13 6 84 7 14 8 11 9 1 10 2 11 3 12
REMARK SMILES IDX 4 15 5 16 6 17 10 19 9 20 8 21 7 22 19 24 20 25 21 26 22 27
REMARK SMILES IDX 23 28 24 29 25 30 83 31 26 32 82 33 27 34 28 35 29 36 76 37
REMARK SMILES IDX 30 38 81 39 75 40 77 41 31 42 80 43 74 44 73 45 32 47 62 48
REMARK SMILES IDX 43 49 61 50 44 51 47 52 60 53 78 54 45 55 46 56 59 58 79 59
REMARK SMILES IDX 48 60 33 61 34 62 42 63 35 64 41 65 36 66 37 67 38 68 39 69
REMARK SMILES IDX 40 70 63 71 64 72 72 73 65 74 71 75 66 76 67 77 68 78 69 79
REMARK SMILES IDX 70 80 49 81 50 82 58 83 51 84 57 85 52 86 53 87 54 88 55 89
REMARK SMILES IDX 56 90
REMARK H PARENT 3 13 11 14 77 46 47 57
REMARK Flexibility Score: 80.00
ROOT
ATOM      1  O   UNL     1      -1.717  -3.218  -1.891  1.00  0.00    -0.462 OA
ENDROOT
BRANCH   1   2
ATOM      2  C   UNL     1      -0.667  -3.818  -1.263  1.00  0.00     0.312 C 
ATOM      3  O   UNL     1      -0.468  -5.028  -1.269  1.00  0.00    -0.252 OA
BRANCH   2   4
ATOM      4  C   UNL     1       0.166  -2.818  -0.457  1.00  0.00     0.124 C 
ATOM      5  C   UNL     1       1.881  -1.289  -1.409  1.00  0.00     0.107 C 
ATOM      6  C   UNL     1       2.480  -2.520  -0.820  1.00  0.00    -0.006 C 
ATOM      7  C   UNL     1       0.378  -1.444  -1.118  1.00  0.00     0.048 C 
ATOM      8  C   UNL     1       1.566  -3.326  -0.270  1.00  0.00    -0.014 C 
BRANCH   5   9
ATOM      9  N   UNL     1       2.182  -1.202  -2.819  1.00  0.00    -0.332 N 
ATOM     10  O   UNL     1       4.202  -0.207  -2.503  1.00  0.00    -0.249 OA
ATOM     11  C   UNL     1       3.312  -0.589  -3.259  1.00  0.00     0.315 C 
ATOM     12  N   UNL     1       3.440  -0.361  -4.588  1.00  0.00    -0.335 N 
ATOM     13  H   UNL     1       4.309   0.021  -4.848  1.00  0.00     0.165 HD
ATOM     14  H   UNL     1       1.557  -1.593  -3.473  1.00  0.00     0.165 HD
BRANCH  12  15
ATOM     15  C   UNL     1       2.522  -0.578  -5.710  1.00  0.00     0.083 C 
BRANCH  15  16
ATOM     16  C   UNL     1       2.215   0.753  -6.413  1.00  0.00     0.025 C 
BRANCH  16  17
ATOM     17  C   UNL     1       3.046   1.071  -7.657  1.00  0.00     0.002 CG0
ATOM     18  G   UNL     1       2.508   0.402  -8.924  1.00  0.00     0.000 G0
ENDBRANCH  16  17
ENDBRANCH  15  16
BRANCH  15  19
ATOM     19  C   UNL     1       3.100  -1.677  -6.601  1.00  0.00     0.025 C 
BRANCH  19  20
ATOM     20  C   UNL     1       2.325  -1.942  -7.886  1.00  0.00     0.002 C 
BRANCH  20  21
ATOM     21  C   UNL     1       2.810  -1.086  -9.051  1.00  0.00     0.000 C 
BRANCH  21  22
ATOM     22  C   UNL     1       2.508   0.402  -8.924  1.00  0.00     0.000 CG0
ATOM     23  G   UNL     1       3.046   1.071  -7.657  1.00  0.00     0.000 G0
ENDBRANCH  21  22
ENDBRANCH  20  21
ENDBRANCH  19  20
ENDBRANCH  15  19
ENDBRANCH  12  15
ENDBRANCH   5   9
ENDBRANCH   2   4
ENDBRANCH   1   2
BRANCH   1  24
ATOM     24  C   UNL     1      -2.582  -4.084  -2.654  1.00  0.00     0.274 C 
BRANCH  24  25
ATOM     25  C   UNL     1      -2.257  -4.044  -4.150  1.00  0.00     0.275 C 
BRANCH  25  26
ATOM     26  O   UNL     1      -1.013  -4.705  -4.449  1.00  0.00    -0.458 OA
BRANCH  26  27
ATOM     27  C   UNL     1       0.063  -3.892  -4.478  1.00  0.00     0.338 C 
ATOM     28  O   UNL     1       0.083  -2.683  -4.301  1.00  0.00    -0.246 OA
BRANCH  27  29
ATOM     29  C   UNL     1       1.303  -4.653  -4.663  1.00  0.00     0.060 A 
ATOM     30  C   UNL     1       2.126  -4.814  -3.549  1.00  0.00     0.016 A 
ATOM     31  C   UNL     1       1.760  -4.984  -5.937  1.00  0.00     0.016 A 
ATOM     32  C   UNL     1       3.443  -5.227  -3.701  1.00  0.00     0.010 A 
ATOM     33  C   UNL     1       3.083  -5.417  -6.091  1.00  0.00     0.010 A 
ATOM     34  C   UNL     1       3.938  -5.502  -4.978  1.00  0.00    -0.014 A 
BRANCH  34  35
ATOM     35  C   UNL     1       5.346  -5.915  -5.138  1.00  0.00     0.031 A 
ATOM     36  C   UNL     1       6.404  -4.928  -5.530  1.00  0.00     0.074 A 
ATOM     37  C   UNL     1       5.665  -7.199  -4.909  1.00  0.00     0.049 A 
ATOM     38  N   UNL     1       7.623  -5.148  -5.947  1.00  0.00    -0.248 NA
ATOM     39  C   UNL     1       6.044  -3.506  -5.446  1.00  0.00     0.031 C 
ATOM     40  C   UNL     1       4.735  -8.223  -4.429  1.00  0.00     0.029 A 
ATOM     41  N   UNL     1       6.855  -7.859  -5.054  1.00  0.00    -0.354 N 
ATOM     42  C   UNL     1       8.161  -3.897  -6.225  1.00  0.00     0.074 A 
ATOM     43  C   UNL     1       7.135  -2.920  -5.923  1.00  0.00     0.031 C 
ATOM     44  C   UNL     1       5.388  -9.392  -4.337  1.00  0.00     0.029 A 
ATOM     45  C   UNL     1       6.760  -9.204  -4.800  1.00  0.00     0.049 A 
ATOM     46  H   UNL     1       7.694  -7.414  -5.314  1.00  0.00     0.167 HD
ATOM     47  C   UNL     1       9.399  -3.599  -6.689  1.00  0.00     0.031 A 
ATOM     48  C   UNL     1       7.665 -10.184  -4.968  1.00  0.00     0.031 A 
ATOM     49  C   UNL     1      10.423  -4.583  -6.926  1.00  0.00     0.049 A 
ATOM     50  C   UNL     1       9.021  -9.840  -5.507  1.00  0.00     0.074 A 
ATOM     51  C   UNL     1      11.707  -4.398  -7.411  1.00  0.00     0.029 A 
ATOM     52  N   UNL     1      10.289  -5.939  -6.663  1.00  0.00    -0.354 N 
ATOM     53  N   UNL     1       9.483  -8.669  -5.875  1.00  0.00    -0.248 NA
ATOM     54  C   UNL     1       9.972 -10.946  -5.659  1.00  0.00     0.031 C 
ATOM     55  C   UNL     1      12.342  -5.645  -7.455  1.00  0.00     0.029 A 
ATOM     56  C   UNL     1      11.464  -6.601  -6.969  1.00  0.00     0.049 A 
ATOM     57  H   UNL     1       9.475  -6.367  -6.309  1.00  0.00     0.167 HD
ATOM     58  C   UNL     1      10.784  -8.896  -6.302  1.00  0.00     0.074 A 
ATOM     59  C   UNL     1      11.039 -10.313  -6.130  1.00  0.00     0.031 C 
ATOM     60  C   UNL     1      11.687  -8.013  -6.795  1.00  0.00     0.031 A 
BRANCH  47  61
ATOM     61  C   UNL     1       9.704  -2.160  -7.006  1.00  0.00    -0.014 A 
ATOM     62  C   UNL     1       9.981  -1.227  -5.993  1.00  0.00     0.010 A 
ATOM     63  C   UNL     1       9.768  -1.750  -8.351  1.00  0.00     0.010 A 
ATOM     64  C   UNL     1      10.291   0.099  -6.318  1.00  0.00     0.020 A 
ATOM     65  C   UNL     1      10.094  -0.431  -8.681  1.00  0.00     0.020 A 
ATOM     66  C   UNL     1      10.339   0.490  -7.660  1.00  0.00     0.054 A 
BRANCH  66  67
ATOM     67  S   UNL     1      10.772   2.205  -8.069  1.00  0.00     0.124 S 
ATOM     68  O   UNL     1       9.497   2.891  -7.873  1.00  0.00    -0.237 OA
ATOM     69  O   UNL     1      11.812   2.522  -7.094  1.00  0.00    -0.237 OA
ATOM     70  O   UNL     1      11.229   2.123  -9.455  1.00  0.00    -0.744 OA
ENDBRANCH  66  67
ENDBRANCH  47  61
BRANCH  48  71
ATOM     71  C   UNL     1       7.274 -11.582  -4.667  1.00  0.00    -0.014 A 
ATOM     72  C   UNL     1       7.703 -12.204  -3.484  1.00  0.00     0.010 A 
ATOM     73  C   UNL     1       6.398 -12.266  -5.530  1.00  0.00     0.010 A 
ATOM     74  C   UNL     1       7.255 -13.489  -3.163  1.00  0.00     0.020 A 
ATOM     75  C   UNL     1       5.933 -13.541  -5.202  1.00  0.00     0.020 A 
ATOM     76  C   UNL     1       6.369 -14.147  -4.022  1.00  0.00     0.054 A 
BRANCH  76  77
ATOM     77  S   UNL     1       5.714 -15.771  -3.547  1.00  0.00     0.124 S 
ATOM     78  O   UNL     1       6.770 -16.668  -4.005  1.00  0.00    -0.237 OA
ATOM     79  O   UNL     1       5.569 -15.651  -2.098  1.00  0.00    -0.237 OA
ATOM     80  O   UNL     1       4.455 -15.854  -4.284  1.00  0.00    -0.744 OA
ENDBRANCH  76  77
ENDBRANCH  48  71
BRANCH  60  81
ATOM     81  C   UNL     1      13.034  -8.561  -7.163  1.00  0.00    -0.014 A 
ATOM     82  C   UNL     1      13.225  -9.235  -8.381  1.00  0.00     0.010 A 
ATOM     83  C   UNL     1      14.124  -8.375  -6.295  1.00  0.00     0.010 A 
ATOM     84  C   UNL     1      14.483  -9.743  -8.713  1.00  0.00     0.020 A 
ATOM     85  C   UNL     1      15.386  -8.870  -6.630  1.00  0.00     0.020 A 
ATOM     86  C   UNL     1      15.554  -9.564  -7.831  1.00  0.00     0.054 A 
BRANCH  86  87
ATOM     87  S   UNL     1      17.187 -10.207  -8.289  1.00  0.00     0.124 S 
ATOM     88  O   UNL     1      17.062 -11.620  -7.944  1.00  0.00    -0.237 OA
ATOM     89  O   UNL     1      17.264  -9.914  -9.718  1.00  0.00    -0.237 OA
ATOM     90  O   UNL     1      18.106  -9.438  -7.453  1.00  0.00    -0.744 OA
ENDBRANCH  86  87
ENDBRANCH  60  81
ENDBRANCH  34  35
ENDBRANCH  27  29
ENDBRANCH  26  27
ENDBRANCH  25  26
ENDBRANCH  24  25
ENDBRANCH   1  24
TORSDOF 16
