REMARK SMILES C[C@@H](C(=O)OCCOC(=O)c1ccc(-c2c3nc(c(-c4ccc(S(=O)(=O)[O-])cc4)c4ccc([nH]4)c(-c4ccc(S(=O)(=O)[O-])cc4)c4nc(c(-c5ccc(S(=O)(=O)[O-])cc5)c5ccc2[nH]5)C=C4)C=C3)cc1)c1ccc(-c2cccc(OC(=O)NCCC3CCCCC3)c2)c(F)c1
REMARK SMILES IDX 3 1 4 2 2 3 1 4 71 5 72 6 95 7 73 8 93 9 74 10 94 11 75 12
REMARK SMILES IDX 76 13 92 14 77 15 79 16 78 17 80 18 81 19 82 20 83 21 84 23
REMARK SMILES IDX 85 24 86 25 87 26 91 27 88 28 90 29 89 30 5 31 6 32 7 33
REMARK SMILES IDX 8 34 9 35 10 36 11 37 12 38 70 39 13 40 69 41 14 42 15 43
REMARK SMILES IDX 16 44 63 45 17 46 68 47 62 48 64 49 18 50 67 51 61 52 60 53
REMARK SMILES IDX 19 55 49 56 30 57 48 58 31 59 34 60 47 61 65 62 32 63 33 64
REMARK SMILES IDX 46 66 66 67 35 68 20 69 21 70 29 71 22 72 28 73 23 74 24 75
REMARK SMILES IDX 25 76 26 77 27 78 50 79 51 80 59 81 52 82 58 83 53 84 54 85
REMARK SMILES IDX 55 86 56 87 57 88 36 89 37 90 45 91 38 92 44 93 39 94 40 95
REMARK SMILES IDX 41 96 42 97 43 98
REMARK H PARENT 83 22 64 54 34 65
REMARK Flexibility Score: inf
ROOT
ATOM      1  C   UNL     1       1.159  -0.099  -2.291  1.00  0.00     0.313 C 
ATOM      2  O   UNL     1       0.697   0.111  -3.407  1.00  0.00    -0.252 OA
ENDROOT
BRANCH   1   3
ATOM      3  C   UNL     1       0.717   0.669  -1.038  1.00  0.00     0.126 C 
ATOM      4  C   UNL     1       1.454   0.238   0.235  1.00  0.00     0.025 C 
BRANCH   3   5
ATOM      5  C   UNL     1      -0.799   0.675  -0.859  1.00  0.00    -0.031 A 
ATOM      6  C   UNL     1      -1.579   1.699  -1.417  1.00  0.00     0.005 A 
ATOM      7  C   UNL     1      -1.472  -0.339  -0.170  1.00  0.00     0.044 A 
ATOM      8  C   UNL     1      -2.982   1.701  -1.293  1.00  0.00     0.012 A 
ATOM      9  C   UNL     1      -2.869  -0.332  -0.057  1.00  0.00     0.131 A 
ATOM     10  C   UNL     1      -3.671   0.674  -0.621  1.00  0.00     0.018 A 
ATOM     11  F   UNL     1      -3.428  -1.385   0.559  1.00  0.00    -0.206 F 
BRANCH  10  12
ATOM     12  C   UNL     1      -5.160   0.625  -0.570  1.00  0.00    -0.012 A 
ATOM     13  C   UNL     1      -5.946   1.059  -1.656  1.00  0.00     0.009 A 
ATOM     14  C   UNL     1      -5.849   0.106   0.549  1.00  0.00     0.056 A 
ATOM     15  C   UNL     1      -7.343   0.960  -1.637  1.00  0.00     0.004 A 
ATOM     16  C   UNL     1      -7.244  -0.019   0.558  1.00  0.00     0.133 A 
ATOM     17  C   UNL     1      -7.993   0.410  -0.535  1.00  0.00     0.047 A 
BRANCH  16  18
ATOM     18  O   UNL     1      -8.003  -0.528   1.650  1.00  0.00    -0.410 OA
BRANCH  18  19
ATOM     19  C   UNL     1      -7.483  -1.268   2.710  1.00  0.00     0.412 C 
ATOM     20  O   UNL     1      -6.312  -1.614   2.842  1.00  0.00    -0.224 OA
ATOM     21  N   UNL     1      -8.390  -1.596   3.683  1.00  0.00    -0.321 N 
ATOM     22  H   UNL     1      -8.024  -2.076   4.460  1.00  0.00     0.167 HD
BRANCH  21  23
ATOM     23  C   UNL     1      -9.816  -1.333   3.727  1.00  0.00     0.119 C 
BRANCH  23  24
ATOM     24  C   UNL     1     -10.655  -2.615   3.794  1.00  0.00     0.025 C 
BRANCH  24  25
ATOM     25  C   UNL     1     -10.434  -3.531   5.020  1.00  0.00    -0.009 C 
ATOM     26  C   UNL     1     -10.882  -2.900   6.345  1.00  0.00     0.003 C 
ATOM     27  C   UNL     1     -11.176  -4.867   4.814  1.00  0.00     0.003 C 
ATOM     28  C   UNL     1     -10.677  -3.862   7.520  1.00  0.00     0.000 C 
ATOM     29  C   UNL     1     -10.970  -5.828   5.980  1.00  0.00     0.000 C 
ATOM     30  C   UNL     1     -11.377  -5.200   7.303  1.00  0.00     0.000 C 
ENDBRANCH  24  25
ENDBRANCH  23  24
ENDBRANCH  21  23
ENDBRANCH  18  19
ENDBRANCH  16  18
ENDBRANCH  10  12
ENDBRANCH   3   5
ENDBRANCH   1   3
BRANCH   1  31
ATOM     31  O   UNL     1       2.157  -0.992  -2.037  1.00  0.00    -0.462 OA
BRANCH  31  32
ATOM     32  C   UNL     1       2.664  -1.761  -3.149  1.00  0.00     0.274 C 
BRANCH  32  33
ATOM     33  C   UNL     1       2.283  -3.232  -3.004  1.00  0.00     0.275 C 
BRANCH  33  34
ATOM     34  O   UNL     1       0.872  -3.387  -3.223  1.00  0.00    -0.458 OA
BRANCH  34  35
ATOM     35  C   UNL     1       0.130  -3.526  -2.103  1.00  0.00     0.338 C 
ATOM     36  O   UNL     1       0.526  -3.613  -0.953  1.00  0.00    -0.246 OA
BRANCH  35  37
ATOM     37  C   UNL     1      -1.292  -3.479  -2.461  1.00  0.00     0.060 A 
ATOM     38  C   UNL     1      -1.836  -2.262  -2.862  1.00  0.00     0.016 A 
ATOM     39  C   UNL     1      -2.113  -4.578  -2.225  1.00  0.00     0.016 A 
ATOM     40  C   UNL     1      -3.217  -2.104  -2.884  1.00  0.00     0.010 A 
ATOM     41  C   UNL     1      -3.498  -4.439  -2.363  1.00  0.00     0.010 A 
ATOM     42  C   UNL     1      -4.075  -3.179  -2.618  1.00  0.00    -0.014 A 
BRANCH  42  43
ATOM     43  C   UNL     1      -5.550  -2.966  -2.486  1.00  0.00     0.031 A 
ATOM     44  C   UNL     1      -6.276  -3.482  -1.268  1.00  0.00     0.074 A 
ATOM     45  C   UNL     1      -6.256  -2.311  -3.426  1.00  0.00     0.049 A 
ATOM     46  N   UNL     1      -7.554  -3.707  -1.089  1.00  0.00    -0.248 NA
ATOM     47  C   UNL     1      -5.433  -3.871  -0.132  1.00  0.00     0.031 C 
ATOM     48  C   UNL     1      -5.709  -1.728  -4.651  1.00  0.00     0.029 A 
ATOM     49  N   UNL     1      -7.597  -2.019  -3.492  1.00  0.00    -0.354 N 
ATOM     50  C   UNL     1      -7.649  -4.371   0.132  1.00  0.00     0.074 A 
ATOM     51  C   UNL     1      -6.295  -4.537   0.617  1.00  0.00     0.031 C 
ATOM     52  C   UNL     1      -6.690  -1.107  -5.319  1.00  0.00     0.029 A 
ATOM     53  C   UNL     1      -7.953  -1.340  -4.630  1.00  0.00     0.049 A 
ATOM     54  H   UNL     1      -8.239  -2.273  -2.790  1.00  0.00     0.167 HD
ATOM     55  C   UNL     1      -8.759  -4.795   0.791  1.00  0.00     0.031 A 
ATOM     56  C   UNL     1      -9.163  -0.988  -5.104  1.00  0.00     0.031 A 
ATOM     57  C   UNL     1     -10.105  -4.503   0.338  1.00  0.00     0.049 A 
ATOM     58  C   UNL     1     -10.386  -1.339  -4.311  1.00  0.00     0.074 A 
ATOM     59  C   UNL     1     -11.322  -4.890   0.875  1.00  0.00     0.029 A 
ATOM     60  N   UNL     1     -10.407  -3.672  -0.739  1.00  0.00    -0.354 N 
ATOM     61  N   UNL     1     -10.470  -1.993  -3.176  1.00  0.00    -0.248 NA
ATOM     62  C   UNL     1     -11.677  -0.909  -4.861  1.00  0.00     0.031 C 
ATOM     63  C   UNL     1     -12.351  -4.258   0.159  1.00  0.00     0.029 A 
ATOM     64  C   UNL     1     -11.781  -3.510  -0.857  1.00  0.00     0.049 A 
ATOM     65  H   UNL     1      -9.740  -3.259  -1.333  1.00  0.00     0.167 HD
ATOM     66  C   UNL     1     -11.825  -2.069  -2.884  1.00  0.00     0.074 A 
ATOM     67  C   UNL     1     -12.518  -1.340  -3.930  1.00  0.00     0.031 C 
ATOM     68  C   UNL     1     -12.445  -2.723  -1.869  1.00  0.00     0.031 A 
BRANCH  55  69
ATOM     69  C   UNL     1      -8.530  -5.606   2.056  1.00  0.00    -0.014 A 
ATOM     70  C   UNL     1      -7.837  -5.065   3.157  1.00  0.00     0.010 A 
ATOM     71  C   UNL     1      -8.960  -6.941   2.148  1.00  0.00     0.010 A 
ATOM     72  C   UNL     1      -7.518  -5.835   4.279  1.00  0.00     0.020 A 
ATOM     73  C   UNL     1      -8.684  -7.712   3.290  1.00  0.00     0.020 A 
ATOM     74  C   UNL     1      -7.938  -7.161   4.336  1.00  0.00     0.054 A 
BRANCH  74  75
ATOM     75  S   UNL     1      -7.588  -8.139   5.826  1.00  0.00     0.124 S 
ATOM     76  O   UNL     1      -6.345  -8.812   5.463  1.00  0.00    -0.237 OA
ATOM     77  O   UNL     1      -7.465  -7.126   6.873  1.00  0.00    -0.237 OA
ATOM     78  O   UNL     1      -8.762  -9.001   5.942  1.00  0.00    -0.744 OA
ENDBRANCH  74  75
ENDBRANCH  55  69
BRANCH  56  79
ATOM     79  C   UNL     1      -9.248  -0.327  -6.435  1.00  0.00    -0.014 A 
ATOM     80  C   UNL     1      -9.609   1.025  -6.557  1.00  0.00     0.010 A 
ATOM     81  C   UNL     1      -8.873  -1.042  -7.590  1.00  0.00     0.010 A 
ATOM     82  C   UNL     1      -9.577   1.653  -7.806  1.00  0.00     0.020 A 
ATOM     83  C   UNL     1      -8.804  -0.409  -8.832  1.00  0.00     0.020 A 
ATOM     84  C   UNL     1      -9.162   0.935  -8.933  1.00  0.00     0.054 A 
BRANCH  84  85
ATOM     85  S   UNL     1      -9.010   1.797 -10.522  1.00  0.00     0.124 S 
ATOM     86  O   UNL     1     -10.399   1.874 -10.959  1.00  0.00    -0.237 OA
ATOM     87  O   UNL     1      -8.396   3.066 -10.138  1.00  0.00    -0.237 OA
ATOM     88  O   UNL     1      -8.151   0.914 -11.308  1.00  0.00    -0.744 OA
ENDBRANCH  84  85
ENDBRANCH  56  79
BRANCH  68  89
ATOM     89  C   UNL     1     -13.949  -2.639  -1.848  1.00  0.00    -0.014 A 
ATOM     90  C   UNL     1     -14.717  -3.402  -2.748  1.00  0.00     0.010 A 
ATOM     91  C   UNL     1     -14.601  -1.778  -0.949  1.00  0.00     0.010 A 
ATOM     92  C   UNL     1     -16.108  -3.272  -2.779  1.00  0.00     0.020 A 
ATOM     93  C   UNL     1     -15.995  -1.659  -0.964  1.00  0.00     0.020 A 
ATOM     94  C   UNL     1     -16.738  -2.395  -1.891  1.00  0.00     0.054 A 
BRANCH  94  95
ATOM     95  S   UNL     1     -18.546  -2.247  -1.954  1.00  0.00     0.124 S 
ATOM     96  O   UNL     1     -18.749  -1.508  -3.196  1.00  0.00    -0.237 OA
ATOM     97  O   UNL     1     -18.982  -3.641  -1.973  1.00  0.00    -0.237 OA
ATOM     98  O   UNL     1     -18.875  -1.514  -0.733  1.00  0.00    -0.744 OA
ENDBRANCH  94  95
ENDBRANCH  68  89
ENDBRANCH  42  43
ENDBRANCH  35  37
ENDBRANCH  34  35
ENDBRANCH  33  34
ENDBRANCH  32  33
ENDBRANCH  31  32
ENDBRANCH   1  31
TORSDOF 21
