REMARK SMILES Cc1ccc(S(=O)(=O)N(CC(=O)OCCOC(=O)c2ccc(-c3c4nc(c(-c5ccc(S(=O)(=O)[O-])cc5)c5ccc([nH]5)c(-c5ccc(S(=O)(=O)[O-])cc5)c5nc(c(-c6ccc(S(=O)(=O)[O-])cc6)c6ccc3[nH]6)C=C5)C=C4)cc2)c2cc(Cl)cc(Cl)c2)cc1
REMARK SMILES IDX 14 1 13 2 11 3 12 4 10 5 9 6 6 7 7 8 8 9 5 10 1 11 2 12 3 13
REMARK SMILES IDX 88 14 4 15 87 16 79 17 80 18 86 19 81 20 84 21 82 22 83 23
REMARK SMILES IDX 85 24 15 25 16 26 17 27 18 28 19 29 20 30 78 31 21 32 77 33
REMARK SMILES IDX 22 34 23 35 24 36 71 37 25 38 76 39 70 40 72 41 26 42 75 43
REMARK SMILES IDX 69 44 68 45 27 47 57 48 38 49 56 50 39 51 42 52 55 53 73 54
REMARK SMILES IDX 40 55 41 56 54 58 74 59 43 60 28 61 29 62 37 63 30 64 36 65
REMARK SMILES IDX 31 66 32 67 33 68 34 69 35 70 58 71 59 72 67 73 60 74 66 75
REMARK SMILES IDX 61 76 62 77 63 78 64 79 65 80 44 81 45 82 53 83 46 84 52 85
REMARK SMILES IDX 47 86 48 87 49 88 50 89 51 90
REMARK H PARENT 72 46 42 57
REMARK Flexibility Score: inf
ROOT
ATOM      1  C   UNL     1      -4.646   3.305  -4.771  1.00  0.00     0.274 C 
ENDROOT
BRANCH   1   2
ATOM      2  O   UNL     1      -4.016   2.611  -3.676  1.00  0.00    -0.461 OA
BRANCH   2   3
ATOM      3  C   UNL     1      -4.599   1.481  -3.205  1.00  0.00     0.326 C 
ATOM      4  O   UNL     1      -5.495   0.916  -3.813  1.00  0.00    -0.250 OA
BRANCH   3   5
ATOM      5  C   UNL     1      -3.876   0.992  -1.964  1.00  0.00     0.258 C 
BRANCH   5   6
ATOM      6  N   UNL     1      -4.472   0.540  -0.666  1.00  0.00    -0.255 N 
BRANCH   6   7
ATOM      7  S   UNL     1      -3.797  -0.898  -0.023  1.00  0.00     0.264 S 
ATOM      8  O   UNL     1      -3.985  -1.924  -1.033  1.00  0.00    -0.201 OA
ATOM      9  O   UNL     1      -4.240  -1.117   1.338  1.00  0.00    -0.201 OA
BRANCH   7  10
ATOM     10  C   UNL     1      -2.026  -0.618   0.093  1.00  0.00     0.088 A 
ATOM     11  C   UNL     1       2.261  -0.136   0.277  1.00  0.00     0.044 C 
ATOM     12  C   UNL     1       0.765  -0.290   0.218  1.00  0.00    -0.051 A 
ATOM     13  C   UNL     1       0.211  -1.539  -0.085  1.00  0.00     0.005 A 
ATOM     14  C   UNL     1      -0.094   0.786   0.491  1.00  0.00     0.005 A 
ATOM     15  C   UNL     1      -1.175  -1.701  -0.156  1.00  0.00     0.022 A 
ATOM     16  C   UNL     1      -1.489   0.625   0.437  1.00  0.00     0.022 A 
ENDBRANCH   7  10
ENDBRANCH   6   7
BRANCH   6  17
ATOM     17  C   UNL     1      -5.836   0.866  -0.273  1.00  0.00     0.055 A 
ATOM     18  C   UNL     1      -6.893   0.907  -1.181  1.00  0.00     0.047 A 
ATOM     19  C   UNL     1      -6.149   1.109   1.073  1.00  0.00     0.047 A 
ATOM     20  C   UNL     1      -8.152   1.396  -0.818  1.00  0.00     0.044 A 
ATOM     21  C   UNL     1      -7.449   1.475   1.454  1.00  0.00     0.044 A 
ATOM     22  Cl  UNL     1      -9.350   1.641  -2.034  1.00  0.00    -0.084 Cl
ATOM     23  C   UNL     1      -8.439   1.687   0.504  1.00  0.00     0.041 A 
ATOM     24  Cl  UNL     1      -7.850   1.620   3.124  1.00  0.00    -0.084 Cl
ENDBRANCH   6  17
ENDBRANCH   5   6
ENDBRANCH   3   5
ENDBRANCH   2   3
ENDBRANCH   1   2
BRANCH   1  25
ATOM     25  C   UNL     1      -5.962   4.030  -4.381  1.00  0.00     0.275 C 
BRANCH  25  26
ATOM     26  O   UNL     1      -5.877   5.034  -3.338  1.00  0.00    -0.458 OA
BRANCH  26  27
ATOM     27  C   UNL     1      -5.691   4.615  -2.045  1.00  0.00     0.338 C 
ATOM     28  O   UNL     1      -6.432   3.870  -1.442  1.00  0.00    -0.246 OA
BRANCH  27  29
ATOM     29  C   UNL     1      -4.267   4.859  -1.684  1.00  0.00     0.060 A 
ATOM     30  C   UNL     1      -3.662   4.421  -0.493  1.00  0.00     0.016 A 
ATOM     31  C   UNL     1      -3.473   5.179  -2.770  1.00  0.00     0.016 A 
ATOM     32  C   UNL     1      -2.264   4.309  -0.449  1.00  0.00     0.010 A 
ATOM     33  C   UNL     1      -2.253   4.595  -2.857  1.00  0.00     0.010 A 
ATOM     34  C   UNL     1      -1.580   4.370  -1.663  1.00  0.00    -0.014 A 
BRANCH  34  35
ATOM     35  C   UNL     1      -0.182   4.697  -1.901  1.00  0.00     0.031 A 
ATOM     36  C   UNL     1       0.815   3.650  -2.148  1.00  0.00     0.074 A 
ATOM     37  C   UNL     1      -0.080   5.973  -2.365  1.00  0.00     0.049 A 
ATOM     38  N   UNL     1       2.063   3.752  -1.856  1.00  0.00    -0.248 NA
ATOM     39  C   UNL     1       0.469   2.371  -2.780  1.00  0.00     0.031 C 
ATOM     40  C   UNL     1       0.915   6.628  -3.191  1.00  0.00     0.029 A 
ATOM     41  N   UNL     1      -1.033   6.992  -2.191  1.00  0.00    -0.354 N 
ATOM     42  C   UNL     1       2.700   2.776  -2.597  1.00  0.00     0.074 A 
ATOM     43  C   UNL     1       1.678   1.831  -2.982  1.00  0.00     0.031 C 
ATOM     44  C   UNL     1       0.712   7.964  -3.114  1.00  0.00     0.029 A 
ATOM     45  C   UNL     1      -0.372   8.203  -2.157  1.00  0.00     0.049 A 
ATOM     46  H   UNL     1      -2.005   6.864  -2.108  1.00  0.00     0.167 HD
ATOM     47  C   UNL     1       3.940   3.006  -3.117  1.00  0.00     0.031 A 
ATOM     48  C   UNL     1      -0.301   8.837  -0.947  1.00  0.00     0.031 A 
ATOM     49  C   UNL     1       4.285   4.423  -2.979  1.00  0.00     0.049 A 
ATOM     50  C   UNL     1       1.110   8.690  -0.421  1.00  0.00     0.074 A 
ATOM     51  C   UNL     1       4.226   5.460  -3.897  1.00  0.00     0.029 A 
ATOM     52  N   UNL     1       4.367   5.014  -1.723  1.00  0.00    -0.354 N 
ATOM     53  N   UNL     1       1.909   7.714  -0.760  1.00  0.00    -0.248 NA
ATOM     54  C   UNL     1       1.751   9.664   0.451  1.00  0.00     0.031 C 
ATOM     55  C   UNL     1       4.170   6.680  -3.174  1.00  0.00     0.029 A 
ATOM     56  C   UNL     1       4.196   6.386  -1.820  1.00  0.00     0.049 A 
ATOM     57  H   UNL     1       4.525   4.527  -0.883  1.00  0.00     0.167 HD
ATOM     58  C   UNL     1       3.164   7.974  -0.300  1.00  0.00     0.074 A 
ATOM     59  C   UNL     1       3.007   9.183   0.495  1.00  0.00     0.031 C 
ATOM     60  C   UNL     1       4.255   7.224  -0.631  1.00  0.00     0.031 A 
BRANCH  47  61
ATOM     61  C   UNL     1       4.639   2.067  -4.077  1.00  0.00    -0.014 A 
ATOM     62  C   UNL     1       5.537   2.581  -5.036  1.00  0.00     0.010 A 
ATOM     63  C   UNL     1       4.492   0.663  -4.048  1.00  0.00     0.010 A 
ATOM     64  C   UNL     1       6.204   1.758  -5.954  1.00  0.00     0.020 A 
ATOM     65  C   UNL     1       5.141  -0.173  -4.977  1.00  0.00     0.020 A 
ATOM     66  C   UNL     1       5.995   0.384  -5.927  1.00  0.00     0.054 A 
BRANCH  66  67
ATOM     67  S   UNL     1       6.883  -0.652  -7.122  1.00  0.00     0.124 S 
ATOM     68  O   UNL     1       6.447  -0.099  -8.402  1.00  0.00    -0.237 OA
ATOM     69  O   UNL     1       8.279  -0.406  -6.774  1.00  0.00    -0.237 OA
ATOM     70  O   UNL     1       6.400  -2.002  -6.837  1.00  0.00    -0.744 OA
ENDBRANCH  66  67
ENDBRANCH  47  61
BRANCH  48  71
ATOM     71  C   UNL     1      -1.569   8.748  -0.127  1.00  0.00    -0.014 A 
ATOM     72  C   UNL     1      -2.746   9.310  -0.684  1.00  0.00     0.010 A 
ATOM     73  C   UNL     1      -1.725   7.865   0.959  1.00  0.00     0.010 A 
ATOM     74  C   UNL     1      -4.025   8.933  -0.246  1.00  0.00     0.020 A 
ATOM     75  C   UNL     1      -3.011   7.496   1.414  1.00  0.00     0.020 A 
ATOM     76  C   UNL     1      -4.152   8.012   0.791  1.00  0.00     0.054 A 
BRANCH  76  77
ATOM     77  S   UNL     1      -5.809   7.349   1.177  1.00  0.00     0.124 S 
ATOM     78  O   UNL     1      -6.320   8.334   2.123  1.00  0.00    -0.237 OA
ATOM     79  O   UNL     1      -6.454   7.335  -0.134  1.00  0.00    -0.237 OA
ATOM     80  O   UNL     1      -5.514   6.030   1.731  1.00  0.00    -0.744 OA
ENDBRANCH  76  77
ENDBRANCH  48  71
BRANCH  60  81
ATOM     81  C   UNL     1       5.563   7.308   0.092  1.00  0.00    -0.014 A 
ATOM     82  C   UNL     1       5.655   7.689   1.436  1.00  0.00     0.010 A 
ATOM     83  C   UNL     1       6.734   6.838  -0.545  1.00  0.00     0.010 A 
ATOM     84  C   UNL     1       6.885   7.700   2.091  1.00  0.00     0.020 A 
ATOM     85  C   UNL     1       7.955   6.786   0.119  1.00  0.00     0.020 A 
ATOM     86  C   UNL     1       8.028   7.257   1.425  1.00  0.00     0.054 A 
BRANCH  86  87
ATOM     87  S   UNL     1       9.607   7.260   2.296  1.00  0.00     0.124 S 
ATOM     88  O   UNL     1      10.044   8.641   2.107  1.00  0.00    -0.237 OA
ATOM     89  O   UNL     1       9.226   6.903   3.660  1.00  0.00    -0.237 OA
ATOM     90  O   UNL     1      10.390   6.250   1.589  1.00  0.00    -0.744 OA
ENDBRANCH  86  87
ENDBRANCH  60  81
ENDBRANCH  34  35
ENDBRANCH  27  29
ENDBRANCH  26  27
ENDBRANCH  25  26
ENDBRANCH   1  25
TORSDOF 18
