REMARK SMILES Cc1ccc2nc(CC3(CC(=O)OCCOC(=O)c4ccc(-c5c6nc(c(-c7ccc(S(=O)(=O)[O-])cc7)c7ccc([nH]7)c(-c7ccc(S(=O)(=O)[O-])cc7)c7nc(c(-c8ccc(S(=O)(=O)[O-])cc8)c8ccc5[nH]8)C=C7)C=C6)cc4)CCCCC3)sc2c1
REMARK SMILES IDX 14 1 13 2 11 3 12 4 10 5 9 6 79 7 83 8 80 9 82 10 81 11 8 12
REMARK SMILES IDX 7 13 1 14 2 15 3 16 86 17 4 18 85 19 5 20 84 21 6 22 15 23
REMARK SMILES IDX 16 24 17 25 18 26 19 27 20 28 78 29 21 30 77 31 22 32 23 33
REMARK SMILES IDX 24 34 71 35 25 36 76 37 70 38 72 39 26 40 75 41 69 42 68 43
REMARK SMILES IDX 27 45 57 46 38 47 56 48 39 49 42 50 55 51 73 52 40 53 41 54
REMARK SMILES IDX 54 56 74 57 43 58 28 59 29 60 37 61 30 62 36 63 31 64 32 65
REMARK SMILES IDX 33 66 34 67 35 68 58 69 59 70 67 71 60 72 66 73 61 74 62 75
REMARK SMILES IDX 63 76 64 77 65 78 44 79 45 80 53 81 46 82 52 83 47 84 48 85
REMARK SMILES IDX 49 86 50 87 51 88
REMARK H PARENT 72 44 42 55
REMARK Flexibility Score: inf
ROOT
ATOM      1  C   UNL     1      -5.951  -4.507   1.215  1.00  0.00     0.274 C 
ENDROOT
BRANCH   1   2
ATOM      2  O   UNL     1      -5.392  -3.626   0.221  1.00  0.00    -0.462 OA
BRANCH   2   3
ATOM      3  C   UNL     1      -6.283  -2.975  -0.559  1.00  0.00     0.306 C 
ATOM      4  O   UNL     1      -7.500  -3.113  -0.489  1.00  0.00    -0.252 OA
BRANCH   3   5
ATOM      5  C   UNL     1      -5.665  -2.030  -1.571  1.00  0.00     0.130 C 
BRANCH   5   6
ATOM      6  C   UNL     1      -4.124  -1.777  -1.633  1.00  0.00    -0.013 C 
ATOM      7  C   UNL     1      -3.861  -0.838  -2.854  1.00  0.00     0.008 C 
ATOM      8  C   UNL     1      -3.328  -3.084  -1.886  1.00  0.00     0.008 C 
ATOM      9  C   UNL     1      -4.174  -1.482  -4.210  1.00  0.00     0.001 C 
ATOM     10  C   UNL     1      -3.704  -3.769  -3.198  1.00  0.00     0.001 C 
ATOM     11  C   UNL     1      -3.490  -2.836  -4.385  1.00  0.00     0.000 C 
BRANCH   6  12
ATOM     12  C   UNL     1      -3.686  -1.054  -0.315  1.00  0.00     0.075 C 
BRANCH  12  13
ATOM     13  C   UNL     1      -2.217  -0.731  -0.217  1.00  0.00     0.094 A 
ATOM     14  C   UNL     1       3.668   1.184   0.006  1.00  0.00     0.044 C 
ATOM     15  C   UNL     1       2.382   0.408  -0.014  1.00  0.00    -0.050 A 
ATOM     16  C   UNL     1       2.392  -0.984   0.095  1.00  0.00     0.006 A 
ATOM     17  C   UNL     1       1.160   1.095  -0.126  1.00  0.00     0.024 A 
ATOM     18  C   UNL     1       1.197  -1.711   0.090  1.00  0.00     0.030 A 
ATOM     19  C   UNL     1      -0.035   0.351  -0.138  1.00  0.00     0.055 A 
ATOM     20  C   UNL     1      -0.034  -1.039  -0.029  1.00  0.00     0.082 A 
ATOM     21  S   UNL     1      -1.664   0.896  -0.279  1.00  0.00    -0.119 S 
ATOM     22  N   UNL     1      -1.280  -1.639  -0.053  1.00  0.00    -0.241 NA
ENDBRANCH  12  13
ENDBRANCH   6  12
ENDBRANCH   5   6
ENDBRANCH   3   5
ENDBRANCH   2   3
ENDBRANCH   1   2
BRANCH   1  23
ATOM     23  C   UNL     1      -5.943  -3.834   2.583  1.00  0.00     0.275 C 
BRANCH  23  24
ATOM     24  O   UNL     1      -6.654  -2.587   2.508  1.00  0.00    -0.458 OA
BRANCH  24  25
ATOM     25  C   UNL     1      -5.973  -1.499   2.931  1.00  0.00     0.338 C 
ATOM     26  O   UNL     1      -4.862  -1.467   3.431  1.00  0.00    -0.246 OA
BRANCH  25  27
ATOM     27  C   UNL     1      -6.789  -0.293   2.716  1.00  0.00     0.060 A 
ATOM     28  C   UNL     1      -7.256   0.034   1.441  1.00  0.00     0.016 A 
ATOM     29  C   UNL     1      -7.016   0.563   3.793  1.00  0.00     0.016 A 
ATOM     30  C   UNL     1      -7.917   1.243   1.230  1.00  0.00     0.010 A 
ATOM     31  C   UNL     1      -7.736   1.741   3.593  1.00  0.00     0.010 A 
ATOM     32  C   UNL     1      -8.175   2.102   2.308  1.00  0.00    -0.014 A 
BRANCH  32  33
ATOM     33  C   UNL     1      -8.902   3.382   2.113  1.00  0.00     0.031 A 
ATOM     34  C   UNL     1      -8.210   4.689   2.386  1.00  0.00     0.074 A 
ATOM     35  C   UNL     1     -10.197   3.368   1.742  1.00  0.00     0.049 A 
ATOM     36  N   UNL     1      -8.718   5.892   2.463  1.00  0.00    -0.248 NA
ATOM     37  C   UNL     1      -6.757   4.634   2.615  1.00  0.00     0.031 C 
ATOM     38  C   UNL     1     -10.974   2.170   1.419  1.00  0.00     0.029 A 
ATOM     39  N   UNL     1     -11.093   4.397   1.593  1.00  0.00    -0.354 N 
ATOM     40  C   UNL     1      -7.660   6.731   2.792  1.00  0.00     0.074 A 
ATOM     41  C   UNL     1      -6.480   5.899   2.901  1.00  0.00     0.031 C 
ATOM     42  C   UNL     1     -12.228   2.532   1.107  1.00  0.00     0.029 A 
ATOM     43  C   UNL     1     -12.361   3.975   1.272  1.00  0.00     0.049 A 
ATOM     44  H   UNL     1     -10.851   5.344   1.705  1.00  0.00     0.167 HD
ATOM     45  C   UNL     1      -7.673   8.070   2.993  1.00  0.00     0.031 A 
ATOM     46  C   UNL     1     -13.513   4.663   1.164  1.00  0.00     0.031 A 
ATOM     47  C   UNL     1      -8.847   8.894   2.870  1.00  0.00     0.049 A 
ATOM     48  C   UNL     1     -13.511   6.142   1.423  1.00  0.00     0.074 A 
ATOM     49  C   UNL     1      -8.961  10.263   3.038  1.00  0.00     0.029 A 
ATOM     50  N   UNL     1     -10.111   8.425   2.544  1.00  0.00    -0.354 N 
ATOM     51  N   UNL     1     -12.507   6.917   1.756  1.00  0.00    -0.248 NA
ATOM     52  C   UNL     1     -14.799   6.838   1.299  1.00  0.00     0.031 C 
ATOM     53  C   UNL     1     -10.302  10.617   2.848  1.00  0.00     0.029 A 
ATOM     54  C   UNL     1     -11.013   9.474   2.519  1.00  0.00     0.049 A 
ATOM     55  H   UNL     1     -10.333   7.484   2.357  1.00  0.00     0.167 HD
ATOM     56  C   UNL     1     -13.039   8.195   1.872  1.00  0.00     0.074 A 
ATOM     57  C   UNL     1     -14.450   8.092   1.558  1.00  0.00     0.031 C 
ATOM     58  C   UNL     1     -12.415   9.350   2.209  1.00  0.00     0.031 A 
BRANCH  45  59
ATOM     59  C   UNL     1      -6.382   8.723   3.407  1.00  0.00    -0.014 A 
ATOM     60  C   UNL     1      -5.339   8.929   2.488  1.00  0.00     0.010 A 
ATOM     61  C   UNL     1      -6.223   9.163   4.734  1.00  0.00     0.010 A 
ATOM     62  C   UNL     1      -4.145   9.531   2.897  1.00  0.00     0.020 A 
ATOM     63  C   UNL     1      -5.039   9.784   5.143  1.00  0.00     0.020 A 
ATOM     64  C   UNL     1      -4.000   9.947   4.225  1.00  0.00     0.054 A 
BRANCH  64  65
ATOM     65  S   UNL     1      -2.446  10.736   4.730  1.00  0.00     0.124 S 
ATOM     66  O   UNL     1      -1.551   9.588   4.849  1.00  0.00    -0.237 OA
ATOM     67  O   UNL     1      -2.163  11.638   3.617  1.00  0.00    -0.237 OA
ATOM     68  O   UNL     1      -2.786  11.395   5.989  1.00  0.00    -0.744 OA
ENDBRANCH  64  65
ENDBRANCH  45  59
BRANCH  46  69
ATOM     69  C   UNL     1     -14.770   3.942   0.832  1.00  0.00    -0.014 A 
ATOM     70  C   UNL     1     -15.345   4.064  -0.444  1.00  0.00     0.010 A 
ATOM     71  C   UNL     1     -15.372   3.093   1.779  1.00  0.00     0.010 A 
ATOM     72  C   UNL     1     -16.503   3.349  -0.768  1.00  0.00     0.020 A 
ATOM     73  C   UNL     1     -16.515   2.359   1.451  1.00  0.00     0.020 A 
ATOM     74  C   UNL     1     -17.078   2.498   0.181  1.00  0.00     0.054 A 
BRANCH  74  75
ATOM     75  S   UNL     1     -18.531   1.516  -0.284  1.00  0.00     0.124 S 
ATOM     76  O   UNL     1     -19.607   2.496  -0.171  1.00  0.00    -0.237 OA
ATOM     77  O   UNL     1     -18.206   1.086  -1.642  1.00  0.00    -0.237 OA
ATOM     78  O   UNL     1     -18.549   0.446   0.711  1.00  0.00    -0.744 OA
ENDBRANCH  74  75
ENDBRANCH  46  69
BRANCH  58  79
ATOM     79  C   UNL     1     -13.251  10.598   2.230  1.00  0.00    -0.014 A 
ATOM     80  C   UNL     1     -14.135  10.860   3.291  1.00  0.00     0.010 A 
ATOM     81  C   UNL     1     -13.119  11.540   1.193  1.00  0.00     0.010 A 
ATOM     82  C   UNL     1     -14.895  12.033   3.301  1.00  0.00     0.020 A 
ATOM     83  C   UNL     1     -13.863  12.722   1.210  1.00  0.00     0.020 A 
ATOM     84  C   UNL     1     -14.757  12.954   2.257  1.00  0.00     0.054 A 
BRANCH  84  85
ATOM     85  S   UNL     1     -15.724  14.488   2.307  1.00  0.00     0.124 S 
ATOM     86  O   UNL     1     -17.039  14.032   1.865  1.00  0.00    -0.237 OA
ATOM     87  O   UNL     1     -15.636  14.882   3.711  1.00  0.00    -0.237 OA
ATOM     88  O   UNL     1     -15.023  15.368   1.375  1.00  0.00    -0.744 OA
ENDBRANCH  84  85
ENDBRANCH  58  79
ENDBRANCH  32  33
ENDBRANCH  25  27
ENDBRANCH  24  25
ENDBRANCH  23  24
ENDBRANCH   1  23
TORSDOF 17
