REMARK SMILES O=C(OCCOC(=O)[C@]1(NC(=O)C2CCN(C(=O)C3CC3)CC2)CCCc2ccccc21)c1ccc(-c2c3nc(c(-c4ccc(S(=O)(=O)[O-])cc4)c4ccc([nH]4)c(-c4ccc(S(=O)(=O)[O-])cc4)c4nc(c(-c5ccc(S(=O)(=O)[O-])cc5)c5ccc2[nH]5)C=C4)C=C3)cc1
REMARK SMILES IDX 4 1 3 2 2 3 1 4 33 5 34 6 92 7 35 8 91 9 36 10 37 11 38 12
REMARK SMILES IDX 85 13 39 14 90 15 84 16 86 17 40 18 89 19 83 20 82 21 41 23
REMARK SMILES IDX 71 24 52 25 70 26 53 27 56 28 69 29 87 30 54 31 55 32 68 34
REMARK SMILES IDX 88 35 57 36 42 37 43 38 51 39 44 40 50 41 45 42 46 43 47 44
REMARK SMILES IDX 48 45 49 46 72 47 73 48 81 49 74 50 80 51 75 52 76 53 77 54
REMARK SMILES IDX 78 55 79 56 58 57 59 58 67 59 60 60 66 61 61 62 62 63 63 64
REMARK SMILES IDX 64 65 65 66 5 67 6 68 7 69 8 70 9 71 24 72 32 73 25 74 27 75
REMARK SMILES IDX 31 76 26 77 28 78 30 79 29 80 10 81 11 82 12 84 13 85 14 86
REMARK SMILES IDX 23 87 15 88 22 89 16 90 17 91 18 92 19 93 20 94 21 95
REMARK H PARENT 86 22 56 33 10 83
REMARK Flexibility Score: inf
ROOT
ATOM      1  C   UNL     1       5.086   0.152  -2.194  1.00  0.00     0.275 C 
ENDROOT
BRANCH   1   2
ATOM      2  O   UNL     1       4.976  -0.902  -1.223  1.00  0.00    -0.458 OA
BRANCH   2   3
ATOM      3  C   UNL     1       3.795  -0.920  -0.589  1.00  0.00     0.338 C 
ATOM      4  O   UNL     1       2.746  -0.929  -1.198  1.00  0.00    -0.246 OA
BRANCH   3   5
ATOM      5  C   UNL     1       4.088  -0.482   0.819  1.00  0.00     0.060 A 
ATOM      6  C   UNL     1       5.496   0.557   0.882  1.00  0.00     0.016 A 
ATOM      7  C   UNL     1       3.054  -0.761   2.243  1.00  0.00     0.016 A 
ATOM      8  C   UNL     1       5.877   1.371   2.389  1.00  0.00     0.010 A 
ATOM      9  C   UNL     1       3.300   0.009   3.823  1.00  0.00     0.010 A 
ATOM     10  C   UNL     1       4.743   1.075   4.034  1.00  0.00    -0.014 A 
BRANCH  10  11
ATOM     11  C   UNL     1       4.911   1.150   5.621  1.00  0.00     0.031 A 
ATOM     12  C   UNL     1       5.539  -0.024   6.332  1.00  0.00     0.074 A 
ATOM     13  C   UNL     1       4.712   2.292   6.303  1.00  0.00     0.049 A 
ATOM     14  N   UNL     1       6.515  -0.020   7.197  1.00  0.00    -0.248 NA
ATOM     15  C   UNL     1       5.069  -1.377   5.975  1.00  0.00     0.031 C 
ATOM     16  C   UNL     1       3.888   3.384   5.836  1.00  0.00     0.029 A 
ATOM     17  N   UNL     1       5.512   2.853   7.276  1.00  0.00    -0.354 N 
ATOM     18  C   UNL     1       6.813  -1.357   7.431  1.00  0.00     0.074 A 
ATOM     19  C   UNL     1       5.931  -2.153   6.617  1.00  0.00     0.031 C 
ATOM     20  C   UNL     1       4.447   4.534   6.234  1.00  0.00     0.029 A 
ATOM     21  C   UNL     1       5.559   4.236   7.132  1.00  0.00     0.049 A 
ATOM     22  H   UNL     1       5.984   2.346   7.976  1.00  0.00     0.167 HD
ATOM     23  C   UNL     1       7.725  -1.858   8.293  1.00  0.00     0.031 A 
ATOM     24  C   UNL     1       6.443   5.135   7.621  1.00  0.00     0.031 A 
ATOM     25  C   UNL     1       8.427  -1.009   9.215  1.00  0.00     0.049 A 
ATOM     26  C   UNL     1       7.448   4.582   8.592  1.00  0.00     0.074 A 
ATOM     27  C   UNL     1       9.238  -1.359  10.275  1.00  0.00     0.029 A 
ATOM     28  N   UNL     1       8.328   0.378   9.216  1.00  0.00    -0.354 N 
ATOM     29  N   UNL     1       7.792   3.329   8.792  1.00  0.00    -0.248 NA
ATOM     30  C   UNL     1       8.093   5.545   9.488  1.00  0.00     0.031 C 
ATOM     31  C   UNL     1       9.540  -0.188  10.979  1.00  0.00     0.029 A 
ATOM     32  C   UNL     1       9.014   0.900  10.293  1.00  0.00     0.049 A 
ATOM     33  H   UNL     1       7.840   0.909   8.547  1.00  0.00     0.167 HD
ATOM     34  C   UNL     1       8.627   3.342   9.899  1.00  0.00     0.074 A 
ATOM     35  C   UNL     1       8.820   4.739  10.250  1.00  0.00     0.031 C 
ATOM     36  C   UNL     1       9.142   2.302  10.603  1.00  0.00     0.031 A 
BRANCH  23  37
ATOM     37  C   UNL     1       7.859  -3.353   8.388  1.00  0.00    -0.014 A 
ATOM     38  C   UNL     1       8.491  -4.112   7.384  1.00  0.00     0.010 A 
ATOM     39  C   UNL     1       7.340  -4.016   9.514  1.00  0.00     0.010 A 
ATOM     40  C   UNL     1       8.591  -5.504   7.506  1.00  0.00     0.020 A 
ATOM     41  C   UNL     1       7.456  -5.401   9.650  1.00  0.00     0.020 A 
ATOM     42  C   UNL     1       8.076  -6.139   8.642  1.00  0.00     0.054 A 
BRANCH  42  43
ATOM     43  S   UNL     1       8.250  -7.939   8.794  1.00  0.00     0.124 S 
ATOM     44  O   UNL     1       7.394  -8.419   7.711  1.00  0.00    -0.237 OA
ATOM     45  O   UNL     1       9.683  -8.136   8.596  1.00  0.00    -0.237 OA
ATOM     46  O   UNL     1       7.764  -8.223  10.142  1.00  0.00    -0.744 OA
ENDBRANCH  42  43
ENDBRANCH  23  37
BRANCH  24  47
ATOM     47  C   UNL     1       6.337   6.603   7.321  1.00  0.00    -0.014 A 
ATOM     48  C   UNL     1       7.434   7.391   6.914  1.00  0.00     0.010 A 
ATOM     49  C   UNL     1       5.093   7.246   7.464  1.00  0.00     0.010 A 
ATOM     50  C   UNL     1       7.275   8.765   6.647  1.00  0.00     0.020 A 
ATOM     51  C   UNL     1       4.911   8.587   7.132  1.00  0.00     0.020 A 
ATOM     52  C   UNL     1       6.008   9.348   6.745  1.00  0.00     0.054 A 
BRANCH  52  53
ATOM     53  S   UNL     1       5.782  11.107   6.361  1.00  0.00     0.124 S 
ATOM     54  O   UNL     1       6.384  11.750   7.525  1.00  0.00    -0.237 OA
ATOM     55  O   UNL     1       6.509  11.255   5.104  1.00  0.00    -0.237 OA
ATOM     56  O   UNL     1       4.331  11.247   6.251  1.00  0.00    -0.744 OA
ENDBRANCH  52  53
ENDBRANCH  24  47
BRANCH  36  57
ATOM     57  C   UNL     1       9.954   2.659  11.812  1.00  0.00    -0.014 A 
ATOM     58  C   UNL     1       9.355   3.213  12.958  1.00  0.00     0.010 A 
ATOM     59  C   UNL     1      11.334   2.398  11.803  1.00  0.00     0.010 A 
ATOM     60  C   UNL     1      10.141   3.555  14.057  1.00  0.00     0.020 A 
ATOM     61  C   UNL     1      12.113   2.698  12.916  1.00  0.00     0.020 A 
ATOM     62  C   UNL     1      11.515   3.295  14.027  1.00  0.00     0.054 A 
BRANCH  62  63
ATOM     63  S   UNL     1      12.513   3.733  15.471  1.00  0.00     0.124 S 
ATOM     64  O   UNL     1      12.498   5.192  15.416  1.00  0.00    -0.237 OA
ATOM     65  O   UNL     1      11.760   3.135  16.570  1.00  0.00    -0.237 OA
ATOM     66  O   UNL     1      13.808   3.113  15.197  1.00  0.00    -0.744 OA
ENDBRANCH  62  63
ENDBRANCH  36  57
ENDBRANCH  10  11
ENDBRANCH   3   5
ENDBRANCH   2   3
ENDBRANCH   1   2
BRANCH   1  67
ATOM     67  C   UNL     1       4.324   1.519  -1.967  1.00  0.00     0.274 C 
BRANCH  67  68
ATOM     68  O   UNL     1       3.956   1.826  -0.592  1.00  0.00    -0.460 OA
BRANCH  68  69
ATOM     69  C   UNL     1       2.652   1.916  -0.180  1.00  0.00     0.336 C 
ATOM     70  O   UNL     1       1.737   2.184  -0.952  1.00  0.00    -0.249 OA
BRANCH  69  71
ATOM     71  C   UNL     1       2.469   1.717   1.425  1.00  0.00     0.164 C 
ATOM     72  C   UNL     1       2.000   3.187   1.835  1.00  0.00     0.046 C 
ATOM     73  C   UNL     1       3.972   1.353   2.277  1.00  0.00    -0.008 A 
ATOM     74  C   UNL     1       2.956   4.327   1.587  1.00  0.00     0.008 C 
ATOM     75  C   UNL     1       4.615   2.951   2.888  1.00  0.00    -0.042 A 
ATOM     76  C   UNL     1       5.087  -0.274   2.757  1.00  0.00     0.007 A 
ATOM     77  C   UNL     1       4.024   4.309   2.640  1.00  0.00     0.036 C 
ATOM     78  C   UNL     1       6.118   2.972   3.836  1.00  0.00     0.004 A 
ATOM     79  C   UNL     1       6.617  -0.083   3.695  1.00  0.00     0.000 A 
ATOM     80  C   UNL     1       7.073   1.527   4.220  1.00  0.00     0.000 A 
BRANCH  71  81
ATOM     81  N   UNL     1       1.127   1.016   1.953  1.00  0.00    -0.336 N 
ATOM     82  C   UNL     1       0.300  -0.056   1.722  1.00  0.00     0.224 C 
ATOM     83  H   UNL     1       0.771   1.537   2.708  1.00  0.00     0.164 HD
ATOM     84  O   UNL     1      -0.583  -0.308   2.545  1.00  0.00    -0.275 OA
BRANCH  82  85
ATOM     85  C   UNL     1       0.464  -0.905   0.488  1.00  0.00     0.082 C 
ATOM     86  C   UNL     1      -0.389  -0.429  -0.684  1.00  0.00     0.035 C 
ATOM     87  C   UNL     1       0.477  -2.448   0.671  1.00  0.00     0.035 C 
ATOM     88  C   UNL     1      -1.704  -1.194  -0.763  1.00  0.00     0.120 C 
ATOM     89  C   UNL     1      -0.847  -3.140   0.376  1.00  0.00     0.120 C 
ATOM     90  N   UNL     1      -1.393  -2.620  -0.862  1.00  0.00    -0.342 N 
ATOM     91  C   UNL     1      -1.371  -3.181  -2.139  1.00  0.00     0.225 C 
ATOM     92  O   UNL     1      -1.923  -2.607  -3.079  1.00  0.00    -0.275 OA
BRANCH  91  93
ATOM     93  C   UNL     1      -0.674  -4.452  -2.510  1.00  0.00     0.079 C 
ATOM     94  C   UNL     1       0.440  -5.182  -1.819  1.00  0.00     0.014 C 
ATOM     95  C   UNL     1      -0.944  -5.774  -1.845  1.00  0.00     0.014 C 
ENDBRANCH  91  93
ENDBRANCH  82  85
ENDBRANCH  71  81
ENDBRANCH  69  71
ENDBRANCH  68  69
ENDBRANCH  67  68
ENDBRANCH   1  67
TORSDOF 17
