REMARK SMILES C=Cc1cccc(-c2ccc([C@@H](C)C(=O)OCCOC(=O)c3ccc(-c4c5nc(c(-c6ccc(S(=O)(=O)[O-])cc6)c6ccc([nH]6)c(-c6ccc(S(=O)(=O)[O-])cc6)c6nc(c(-c7ccc(S(=O)(=O)[O-])cc7)c7ccc4[nH]7)C=C6)C=C5)cc3)cc2)c1
REMARK SMILES IDX 17 1 16 2 14 3 15 4 12 5 13 6 11 7 8 8 9 9 83 10 10 11 82 12
REMARK SMILES IDX 7 13 3 14 4 15 84 16 5 17 6 18 2 19 1 20 18 21 19 22 20 23
REMARK SMILES IDX 21 24 22 25 23 26 81 27 24 28 80 29 25 30 26 31 27 32 74 33
REMARK SMILES IDX 28 34 79 35 73 36 75 37 29 38 78 39 72 40 71 41 30 43 60 44
REMARK SMILES IDX 41 45 59 46 42 47 45 48 58 49 76 50 43 51 44 52 57 54 77 55
REMARK SMILES IDX 46 56 31 57 32 58 40 59 33 60 39 61 34 62 35 63 36 64 37 65
REMARK SMILES IDX 38 66 61 67 62 68 70 69 63 70 69 71 64 72 65 73 66 74 67 75
REMARK SMILES IDX 68 76 47 77 48 78 56 79 49 80 55 81 50 82 51 83 52 84 53 85
REMARK SMILES IDX 54 86
REMARK H PARENT 75 42 45 53
REMARK Flexibility Score: inf
ROOT
ATOM      1  C   UNL     1      -6.217   6.432   2.159  1.00  0.00     0.274 C 
ENDROOT
BRANCH   1   2
ATOM      2  O   UNL     1      -6.374   5.562   1.023  1.00  0.00    -0.462 OA
BRANCH   2   3
ATOM      3  C   UNL     1      -6.649   6.155  -0.168  1.00  0.00     0.313 C 
ATOM      4  O   UNL     1      -6.886   7.352  -0.301  1.00  0.00    -0.252 OA
BRANCH   3   5
ATOM      5  C   UNL     1      -6.695   5.188  -1.344  1.00  0.00     0.126 C 
ATOM      6  C   UNL     1      -8.148   4.849  -1.674  1.00  0.00     0.025 C 
BRANCH   5   7
ATOM      7  C   UNL     1      -5.823   3.947  -1.230  1.00  0.00    -0.034 A 
ATOM      8  C   UNL     1      -4.186   1.624  -1.094  1.00  0.00    -0.018 A 
ATOM      9  C   UNL     1      -5.292   1.787  -0.245  1.00  0.00     0.009 A 
ATOM     10  C   UNL     1      -3.903   2.655  -2.001  1.00  0.00     0.009 A 
ATOM     11  C   UNL     1      -6.101   2.925  -0.315  1.00  0.00     0.005 A 
ATOM     12  C   UNL     1      -4.708   3.799  -2.069  1.00  0.00     0.005 A 
BRANCH   8  13
ATOM     13  C   UNL     1      -3.375   0.396  -1.053  1.00  0.00    -0.018 A 
ATOM     14  C   UNL     1      -1.205  -0.735  -0.899  1.00  0.00    -0.026 A 
ATOM     15  C   UNL     1      -1.849  -1.970  -1.028  1.00  0.00     0.008 A 
ATOM     16  C   UNL     1      -1.974   0.440  -0.924  1.00  0.00     0.016 A 
ATOM     17  C   UNL     1      -3.235  -2.036  -1.153  1.00  0.00     0.001 A 
ATOM     18  C   UNL     1      -3.989  -0.863  -1.164  1.00  0.00     0.009 A 
BRANCH  14  19
ATOM     19  C   UNL     1       0.260  -0.712  -0.806  1.00  0.00     0.000 C 
ATOM     20  C   UNL     1       0.951   0.113  -0.010  1.00  0.00     0.009 C 
ENDBRANCH  14  19
ENDBRANCH   8  13
ENDBRANCH   5   7
ENDBRANCH   3   5
ENDBRANCH   2   3
ENDBRANCH   1   2
BRANCH   1  21
ATOM     21  C   UNL     1      -4.739   6.688   2.454  1.00  0.00     0.275 C 
BRANCH  21  22
ATOM     22  O   UNL     1      -4.146   7.522   1.443  1.00  0.00    -0.458 OA
BRANCH  22  23
ATOM     23  C   UNL     1      -3.491   6.861   0.461  1.00  0.00     0.338 C 
ATOM     24  O   UNL     1      -3.316   5.661   0.361  1.00  0.00    -0.246 OA
BRANCH  23  25
ATOM     25  C   UNL     1      -3.053   7.824  -0.555  1.00  0.00     0.060 A 
ATOM     26  C   UNL     1      -3.719   7.868  -1.783  1.00  0.00     0.016 A 
ATOM     27  C   UNL     1      -1.933   8.619  -0.319  1.00  0.00     0.016 A 
ATOM     28  C   UNL     1      -3.256   8.707  -2.795  1.00  0.00     0.010 A 
ATOM     29  C   UNL     1      -1.478   9.466  -1.329  1.00  0.00     0.010 A 
ATOM     30  C   UNL     1      -2.127   9.505  -2.576  1.00  0.00    -0.014 A 
BRANCH  30  31
ATOM     31  C   UNL     1      -1.571  10.354  -3.654  1.00  0.00     0.031 A 
ATOM     32  C   UNL     1      -0.276   9.962  -4.303  1.00  0.00     0.074 A 
ATOM     33  C   UNL     1      -2.195  11.493  -4.005  1.00  0.00     0.049 A 
ATOM     34  N   UNL     1       0.490  10.655  -5.102  1.00  0.00    -0.248 NA
ATOM     35  C   UNL     1       0.226   8.610  -4.003  1.00  0.00     0.031 C 
ATOM     36  C   UNL     1      -3.486  11.948  -3.486  1.00  0.00     0.029 A 
ATOM     37  N   UNL     1      -1.810  12.489  -4.867  1.00  0.00    -0.354 N 
ATOM     38  C   UNL     1       1.584   9.842  -5.374  1.00  0.00     0.074 A 
ATOM     39  C   UNL     1       1.381   8.603  -4.654  1.00  0.00     0.031 C 
ATOM     40  C   UNL     1      -3.777  13.143  -4.026  1.00  0.00     0.029 A 
ATOM     41  C   UNL     1      -2.669  13.562  -4.880  1.00  0.00     0.049 A 
ATOM     42  H   UNL     1      -0.997  12.440  -5.421  1.00  0.00     0.167 HD
ATOM     43  C   UNL     1       2.662  10.112  -6.147  1.00  0.00     0.031 A 
ATOM     44  C   UNL     1      -2.553  14.765  -5.475  1.00  0.00     0.031 A 
ATOM     45  C   UNL     1       2.851  11.349  -6.856  1.00  0.00     0.049 A 
ATOM     46  C   UNL     1      -1.317  15.069  -6.278  1.00  0.00     0.074 A 
ATOM     47  C   UNL     1       3.909  11.727  -7.663  1.00  0.00     0.029 A 
ATOM     48  N   UNL     1       1.957  12.410  -6.843  1.00  0.00    -0.354 N 
ATOM     49  N   UNL     1      -0.277  14.302  -6.508  1.00  0.00    -0.248 NA
ATOM     50  C   UNL     1      -1.235  16.399  -6.897  1.00  0.00     0.031 C 
ATOM     51  C   UNL     1       3.673  13.032  -8.108  1.00  0.00     0.029 A 
ATOM     52  C   UNL     1       2.444  13.447  -7.618  1.00  0.00     0.049 A 
ATOM     53  H   UNL     1       1.103  12.422  -6.355  1.00  0.00     0.167 HD
ATOM     54  C   UNL     1       0.569  15.046  -7.323  1.00  0.00     0.074 A 
ATOM     55  C   UNL     1      -0.080  16.322  -7.546  1.00  0.00     0.031 C 
ATOM     56  C   UNL     1       1.772  14.702  -7.842  1.00  0.00     0.031 A 
BRANCH  43  57
ATOM     57  C   UNL     1       3.740   9.066  -6.226  1.00  0.00    -0.014 A 
ATOM     58  C   UNL     1       3.557   7.881  -6.962  1.00  0.00     0.010 A 
ATOM     59  C   UNL     1       4.967   9.285  -5.574  1.00  0.00     0.010 A 
ATOM     60  C   UNL     1       4.568   6.917  -7.010  1.00  0.00     0.020 A 
ATOM     61  C   UNL     1       5.989   8.334  -5.639  1.00  0.00     0.020 A 
ATOM     62  C   UNL     1       5.775   7.146  -6.343  1.00  0.00     0.054 A 
BRANCH  62  63
ATOM     63  S   UNL     1       7.075   5.884  -6.428  1.00  0.00     0.124 S 
ATOM     64  O   UNL     1       6.567   4.867  -5.511  1.00  0.00    -0.237 OA
ATOM     65  O   UNL     1       7.072   5.513  -7.841  1.00  0.00    -0.237 OA
ATOM     66  O   UNL     1       8.273   6.589  -5.976  1.00  0.00    -0.744 OA
ENDBRANCH  62  63
ENDBRANCH  43  57
BRANCH  44  67
ATOM     67  C   UNL     1      -3.623  15.783  -5.299  1.00  0.00    -0.014 A 
ATOM     68  C   UNL     1      -4.473  16.117  -6.367  1.00  0.00     0.010 A 
ATOM     69  C   UNL     1      -3.811  16.409  -4.053  1.00  0.00     0.010 A 
ATOM     70  C   UNL     1      -5.486  17.065  -6.195  1.00  0.00     0.020 A 
ATOM     71  C   UNL     1      -4.838  17.339  -3.870  1.00  0.00     0.020 A 
ATOM     72  C   UNL     1      -5.663  17.669  -4.946  1.00  0.00     0.054 A 
BRANCH  72  73
ATOM     73  S   UNL     1      -7.021  18.853  -4.728  1.00  0.00     0.124 S 
ATOM     74  O   UNL     1      -6.495  20.043  -5.389  1.00  0.00    -0.237 OA
ATOM     75  O   UNL     1      -8.132  18.191  -5.408  1.00  0.00    -0.237 OA
ATOM     76  O   UNL     1      -7.159  18.950  -3.277  1.00  0.00    -0.744 OA
ENDBRANCH  72  73
ENDBRANCH  44  67
BRANCH  56  77
ATOM     77  C   UNL     1       2.448  15.690  -8.751  1.00  0.00    -0.014 A 
ATOM     78  C   UNL     1       3.118  16.814  -8.238  1.00  0.00     0.010 A 
ATOM     79  C   UNL     1       2.492  15.432 -10.134  1.00  0.00     0.010 A 
ATOM     80  C   UNL     1       3.815  17.669  -9.096  1.00  0.00     0.020 A 
ATOM     81  C   UNL     1       3.204  16.273 -10.991  1.00  0.00     0.020 A 
ATOM     82  C   UNL     1       3.857  17.391 -10.467  1.00  0.00     0.054 A 
BRANCH  82  83
ATOM     83  S   UNL     1       4.836  18.468 -11.550  1.00  0.00     0.124 S 
ATOM     84  O   UNL     1       3.977  19.643 -11.667  1.00  0.00    -0.237 OA
ATOM     85  O   UNL     1       6.066  18.662 -10.785  1.00  0.00    -0.237 OA
ATOM     86  O   UNL     1       4.989  17.682 -12.772  1.00  0.00    -0.744 OA
ENDBRANCH  82  83
ENDBRANCH  56  77
ENDBRANCH  30  31
ENDBRANCH  23  25
ENDBRANCH  22  23
ENDBRANCH  21  22
ENDBRANCH   1  21
TORSDOF 17
