REMARK SMILES CS(=O)(=O)c1ccc(/C=C(/C(=O)OCCOC(=O)c2ccc(-c3c4nc(c(-c5ccc(S(=O)(=O)[O-])cc5)c5ccc([nH]5)c(-c5ccc(S(=O)(=O)[O-])cc5)c5nc(c(-c6ccc(S(=O)(=O)[O-])cc6)c6ccc3[nH]6)C=C5)C=C4)cc2)c2ccc(F)cc2)cc1
REMARK SMILES IDX 15 1 14 2 13 3 11 4 12 5 10 6 9 7 8 8 5 9 6 10 87 11 7 12
REMARK SMILES IDX 86 13 2 14 1 15 3 16 4 17 79 18 80 19 85 20 81 21 84 22
REMARK SMILES IDX 82 23 83 24 16 25 17 26 18 27 19 28 20 29 78 30 21 31 77 32
REMARK SMILES IDX 22 33 23 34 24 35 71 36 25 37 76 38 70 39 72 40 26 41 75 42
REMARK SMILES IDX 69 43 68 44 27 46 57 47 38 48 56 49 39 50 42 51 55 52 73 53
REMARK SMILES IDX 40 54 41 55 54 57 74 58 43 59 28 60 29 61 37 62 30 63 36 64
REMARK SMILES IDX 31 65 32 66 33 67 34 68 35 69 58 70 59 71 67 72 60 73 66 74
REMARK SMILES IDX 61 75 62 76 63 77 64 78 65 79 44 80 45 81 53 82 46 83 52 84
REMARK SMILES IDX 47 85 48 86 49 87 50 88 51 89
REMARK H PARENT 72 45 42 56
REMARK Flexibility Score: inf
ROOT
ATOM      1  C   UNL     1       4.378   9.900  -4.343  1.00  0.00     0.275 C 
ENDROOT
BRANCH   1   2
ATOM      2  C   UNL     1       3.015   9.295  -4.673  1.00  0.00     0.275 C 
BRANCH   2   3
ATOM      3  O   UNL     1       2.850   8.019  -4.019  1.00  0.00    -0.458 OA
BRANCH   3   4
ATOM      4  C   UNL     1       3.046   6.935  -4.814  1.00  0.00     0.338 C 
ATOM      5  O   UNL     1       3.287   6.968  -6.013  1.00  0.00    -0.246 OA
BRANCH   4   6
ATOM      6  C   UNL     1       2.970   5.657  -4.046  1.00  0.00     0.067 C 
ATOM      7  C   UNL     1       1.924   5.474  -3.206  1.00  0.00     0.024 C 
BRANCH   7   8
ATOM      8  C   UNL     1       1.466   4.210  -2.577  1.00  0.00    -0.025 A 
ATOM      9  C   UNL     1       0.439   1.733  -1.730  1.00  0.00     0.067 A 
ATOM     10  C   UNL     1       1.813   1.911  -1.833  1.00  0.00     0.021 A 
ATOM     11  C   UNL     1      -0.431   2.795  -1.978  1.00  0.00     0.021 A 
ATOM     12  C   UNL     1       2.314   3.159  -2.205  1.00  0.00     0.009 A 
ATOM     13  C   UNL     1       0.085   4.025  -2.405  1.00  0.00     0.009 A 
BRANCH   9  14
ATOM     14  S   UNL     1      -0.188   0.129  -1.311  1.00  0.00     0.175 S 
ATOM     15  C   UNL     1       0.634  -0.281   0.206  1.00  0.00     0.163 C 
ATOM     16  O   UNL     1       0.260  -0.784  -2.339  1.00  0.00    -0.224 OA
ATOM     17  O   UNL     1      -1.603   0.278  -1.008  1.00  0.00    -0.224 OA
ENDBRANCH   9  14
ENDBRANCH   7   8
BRANCH   6  18
ATOM     18  C   UNL     1       3.932   4.590  -4.383  1.00  0.00    -0.011 A 
ATOM     19  C   UNL     1       5.091   4.436  -3.600  1.00  0.00     0.012 A 
ATOM     20  C   UNL     1       3.667   3.674  -5.410  1.00  0.00     0.012 A 
ATOM     21  C   UNL     1       5.940   3.348  -3.807  1.00  0.00     0.040 A 
ATOM     22  C   UNL     1       4.528   2.595  -5.623  1.00  0.00     0.040 A 
ATOM     23  C   UNL     1       5.646   2.434  -4.812  1.00  0.00     0.123 A 
ATOM     24  F   UNL     1       6.451   1.382  -4.999  1.00  0.00    -0.207 F 
ENDBRANCH   6  18
ENDBRANCH   4   6
ENDBRANCH   3   4
ENDBRANCH   2   3
ENDBRANCH   1   2
BRANCH   1  25
ATOM     25  O   UNL     1       5.426   9.061  -4.860  1.00  0.00    -0.458 OA
BRANCH  25  26
ATOM     26  C   UNL     1       6.248   8.509  -3.939  1.00  0.00     0.338 C 
ATOM     27  O   UNL     1       6.233   8.697  -2.732  1.00  0.00    -0.246 OA
BRANCH  26  28
ATOM     28  C   UNL     1       7.191   7.576  -4.584  1.00  0.00     0.060 A 
ATOM     29  C   UNL     1       6.713   6.581  -5.428  1.00  0.00     0.016 A 
ATOM     30  C   UNL     1       8.536   7.581  -4.213  1.00  0.00     0.016 A 
ATOM     31  C   UNL     1       7.543   5.517  -5.780  1.00  0.00     0.010 A 
ATOM     32  C   UNL     1       9.394   6.572  -4.677  1.00  0.00     0.010 A 
ATOM     33  C   UNL     1       8.899   5.486  -5.419  1.00  0.00    -0.014 A 
BRANCH  33  34
ATOM     34  C   UNL     1       9.764   4.311  -5.770  1.00  0.00     0.031 A 
ATOM     35  C   UNL     1      10.616   3.630  -4.717  1.00  0.00     0.074 A 
ATOM     36  C   UNL     1       9.783   3.812  -7.026  1.00  0.00     0.049 A 
ATOM     37  N   UNL     1      11.582   2.756  -4.872  1.00  0.00    -0.248 NA
ATOM     38  C   UNL     1      10.367   3.990  -3.311  1.00  0.00     0.031 C 
ATOM     39  C   UNL     1       8.990   4.306  -8.154  1.00  0.00     0.029 A 
ATOM     40  N   UNL     1      10.485   2.757  -7.562  1.00  0.00    -0.354 N 
ATOM     41  C   UNL     1      12.108   2.531  -3.603  1.00  0.00     0.074 A 
ATOM     42  C   UNL     1      11.346   3.350  -2.684  1.00  0.00     0.031 C 
ATOM     43  C   UNL     1       9.180   3.510  -9.214  1.00  0.00     0.029 A 
ATOM     44  C   UNL     1      10.211   2.532  -8.892  1.00  0.00     0.049 A 
ATOM     45  H   UNL     1      11.122   2.215  -7.044  1.00  0.00     0.167 HD
ATOM     46  C   UNL     1      13.136   1.726  -3.236  1.00  0.00     0.031 A 
ATOM     47  C   UNL     1      10.759   1.683  -9.784  1.00  0.00     0.031 A 
ATOM     48  C   UNL     1      13.845   0.850  -4.135  1.00  0.00     0.049 A 
ATOM     49  C   UNL     1      11.905   0.812  -9.365  1.00  0.00     0.074 A 
ATOM     50  C   UNL     1      14.891  -0.012  -3.851  1.00  0.00     0.029 A 
ATOM     51  N   UNL     1      13.563   0.700  -5.484  1.00  0.00    -0.354 N 
ATOM     52  N   UNL     1      12.461   0.699  -8.183  1.00  0.00    -0.248 NA
ATOM     53  C   UNL     1      12.522  -0.016 -10.409  1.00  0.00     0.031 C 
ATOM     54  C   UNL     1      15.268  -0.654  -5.036  1.00  0.00     0.029 A 
ATOM     55  C   UNL     1      14.424  -0.228  -6.048  1.00  0.00     0.049 A 
ATOM     56  H   UNL     1      12.856   1.182  -5.970  1.00  0.00     0.167 HD
ATOM     57  C   UNL     1      13.501  -0.208  -8.344  1.00  0.00     0.074 A 
ATOM     58  C   UNL     1      13.476  -0.637  -9.728  1.00  0.00     0.031 C 
ATOM     59  C   UNL     1      14.404  -0.635  -7.428  1.00  0.00     0.031 A 
BRANCH  46  60
ATOM     60  C   UNL     1      13.604   1.784  -1.803  1.00  0.00    -0.014 A 
ATOM     61  C   UNL     1      12.870   1.200  -0.756  1.00  0.00     0.010 A 
ATOM     62  C   UNL     1      14.845   2.384  -1.514  1.00  0.00     0.010 A 
ATOM     63  C   UNL     1      13.352   1.248   0.557  1.00  0.00     0.020 A 
ATOM     64  C   UNL     1      15.343   2.411  -0.208  1.00  0.00     0.020 A 
ATOM     65  C   UNL     1      14.584   1.857   0.823  1.00  0.00     0.054 A 
BRANCH  65  66
ATOM     66  S   UNL     1      15.199   1.882   2.530  1.00  0.00     0.124 S 
ATOM     67  O   UNL     1      14.362   2.915   3.136  1.00  0.00    -0.237 OA
ATOM     68  O   UNL     1      14.941   0.518   2.986  1.00  0.00    -0.237 OA
ATOM     69  O   UNL     1      16.611   2.230   2.385  1.00  0.00    -0.744 OA
ENDBRANCH  65  66
ENDBRANCH  46  60
BRANCH  47  70
ATOM     70  C   UNL     1      10.275   1.688 -11.193  1.00  0.00    -0.014 A 
ATOM     71  C   UNL     1       9.547   0.603 -11.706  1.00  0.00     0.010 A 
ATOM     72  C   UNL     1      10.505   2.809 -12.014  1.00  0.00     0.010 A 
ATOM     73  C   UNL     1       9.047   0.642 -13.012  1.00  0.00     0.020 A 
ATOM     74  C   UNL     1       9.979   2.866 -13.306  1.00  0.00     0.020 A 
ATOM     75  C   UNL     1       9.259   1.778 -13.800  1.00  0.00     0.054 A 
BRANCH  75  76
ATOM     76  S   UNL     1       8.522   1.856 -15.456  1.00  0.00     0.124 S 
ATOM     77  O   UNL     1       9.456   1.056 -16.241  1.00  0.00    -0.237 OA
ATOM     78  O   UNL     1       7.202   1.266 -15.247  1.00  0.00    -0.237 OA
ATOM     79  O   UNL     1       8.513   3.286 -15.756  1.00  0.00    -0.744 OA
ENDBRANCH  75  76
ENDBRANCH  47  70
BRANCH  59  80
ATOM     80  C   UNL     1      15.435  -1.625  -7.894  1.00  0.00    -0.014 A 
ATOM     81  C   UNL     1      16.513  -1.219  -8.701  1.00  0.00     0.010 A 
ATOM     82  C   UNL     1      15.339  -2.972  -7.501  1.00  0.00     0.010 A 
ATOM     83  C   UNL     1      17.459  -2.151  -9.136  1.00  0.00     0.020 A 
ATOM     84  C   UNL     1      16.296  -3.902  -7.916  1.00  0.00     0.020 A 
ATOM     85  C   UNL     1      17.342  -3.488  -8.745  1.00  0.00     0.054 A 
BRANCH  85  86
ATOM     86  S   UNL     1      18.595  -4.675  -9.301  1.00  0.00     0.124 S 
ATOM     87  O   UNL     1      18.218  -4.882 -10.697  1.00  0.00    -0.237 OA
ATOM     88  O   UNL     1      19.845  -3.949  -9.089  1.00  0.00    -0.237 OA
ATOM     89  O   UNL     1      18.395  -5.826  -8.424  1.00  0.00    -0.744 OA
ENDBRANCH  85  86
ENDBRANCH  59  80
ENDBRANCH  33  34
ENDBRANCH  26  28
ENDBRANCH  25  26
ENDBRANCH   1  25
TORSDOF 17
