REMARK SMILES CC1=C(C(=O)OCCOC(=O)c2ccc(-c3c4nc(c(-c5ccc(S(=O)(=O)[O-])cc5)c5ccc([nH]5)c(-c5ccc(S(=O)(=O)[O-])cc5)c5nc(c(-c6ccc(S(=O)(=O)[O-])cc6)c6ccc3[nH]6)C=C5)C=C4)cc2)N2C(=O)[C@H](NC(=O)c3c(Cl)c(C(F)(F)F)nn3C)[C@@H]2SC1
REMARK SMILES IDX 7 1 6 2 4 3 5 4 3 5 1 6 2 7 92 8 72 9 91 10 73 11 90 12
REMARK SMILES IDX 74 13 75 14 76 15 77 16 78 18 79 19 80 20 88 21 81 22 82 23
REMARK SMILES IDX 87 24 89 25 83 26 84 27 85 28 86 29 8 30 9 31 10 32 11 33
REMARK SMILES IDX 12 34 13 35 71 36 14 37 70 38 15 39 16 40 17 41 64 42 18 43
REMARK SMILES IDX 69 44 63 45 65 46 19 47 68 48 62 49 61 50 20 52 50 53 31 54
REMARK SMILES IDX 49 55 32 56 35 57 48 58 66 59 33 60 34 61 47 63 67 64 36 65
REMARK SMILES IDX 21 66 22 67 30 68 23 69 29 70 24 71 25 72 26 73 27 74 28 75
REMARK SMILES IDX 51 76 52 77 60 78 53 79 59 80 54 81 55 82 56 83 57 84 58 85
REMARK SMILES IDX 37 86 38 87 46 88 39 89 45 90 40 91 41 92 42 93 43 94 44 95
REMARK H PARENT 76 17 65 51 35 62
REMARK Flexibility Score: inf
ROOT
ATOM      1  C   UNL     1       2.134  -3.274  -1.388  1.00  0.00     0.275 C 
ENDROOT
BRANCH   1   2
ATOM      2  O   UNL     1       1.593  -2.342  -0.427  1.00  0.00    -0.457 OA
BRANCH   2   3
ATOM      3  C   UNL     1       0.455  -2.710   0.224  1.00  0.00     0.355 C 
ATOM      4  O   UNL     1      -0.114  -3.776   0.063  1.00  0.00    -0.244 OA
BRANCH   3   5
ATOM      5  C   UNL     1       0.042  -1.666   1.245  1.00  0.00     0.131 C 
ATOM      6  C   UNL     1       0.845   0.284  -0.163  1.00  0.00     0.043 C 
ATOM      7  C   UNL     1       0.219  -0.327   1.071  1.00  0.00    -0.032 C 
ATOM      8  C   UNL     1      -0.229   0.737   2.068  1.00  0.00     0.105 C 
ATOM      9  N   UNL     1      -0.523  -2.107   2.410  1.00  0.00    -0.289 N 
ATOM     10  S   UNL     1      -1.397   0.166   3.342  1.00  0.00    -0.129 SA
ATOM     11  C   UNL     1      -1.094  -3.216   2.938  1.00  0.00     0.253 C 
ATOM     12  C   UNL     1      -0.462  -1.342   3.637  1.00  0.00     0.181 C 
ATOM     13  O   UNL     1      -1.415  -4.286   2.493  1.00  0.00    -0.272 OA
ATOM     14  C   UNL     1      -1.137  -2.541   4.349  1.00  0.00     0.206 C 
BRANCH  14  15
ATOM     15  N   UNL     1      -2.460  -2.373   4.982  1.00  0.00    -0.336 N 
ATOM     16  C   UNL     1      -2.839  -2.675   6.276  1.00  0.00     0.271 C 
ATOM     17  H   UNL     1      -3.165  -1.996   4.407  1.00  0.00     0.164 HD
ATOM     18  O   UNL     1      -4.042  -2.645   6.526  1.00  0.00    -0.267 OA
BRANCH  16  19
ATOM     19  C   UNL     1      -1.841  -2.981   7.274  1.00  0.00     0.145 A 
ATOM     20  C   UNL     1      -1.851  -3.987   8.229  1.00  0.00     0.104 A 
ATOM     21  N   UNL     1      -0.752  -2.221   7.611  1.00  0.00    -0.261 N 
ATOM     22  Cl  UNL     1      -3.030  -5.186   8.456  1.00  0.00    -0.079 Cl
ATOM     23  C   UNL     1      -0.684  -3.812   9.019  1.00  0.00     0.185 A 
ATOM     24  N   UNL     1       0.022  -2.754   8.566  1.00  0.00    -0.166 NA
ATOM     25  C   UNL     1      -0.394  -0.903   7.143  1.00  0.00     0.174 C 
BRANCH  23  26
ATOM     26  C   UNL     1      -0.257  -4.622  10.216  1.00  0.00     0.436 C 
ATOM     27  F   UNL     1      -1.285  -4.816  11.085  1.00  0.00    -0.164 F 
ATOM     28  F   UNL     1       0.209  -5.839   9.861  1.00  0.00    -0.164 F 
ATOM     29  F   UNL     1       0.729  -4.012  10.930  1.00  0.00    -0.164 F 
ENDBRANCH  23  26
ENDBRANCH  16  19
ENDBRANCH  14  15
ENDBRANCH   3   5
ENDBRANCH   2   3
ENDBRANCH   1   2
BRANCH   1  30
ATOM     30  C   UNL     1       3.535  -3.741  -0.978  1.00  0.00     0.275 C 
BRANCH  30  31
ATOM     31  O   UNL     1       3.490  -4.556   0.208  1.00  0.00    -0.458 OA
BRANCH  31  32
ATOM     32  C   UNL     1       3.645  -3.870   1.364  1.00  0.00     0.338 C 
ATOM     33  O   UNL     1       3.889  -2.679   1.484  1.00  0.00    -0.246 OA
BRANCH  32  34
ATOM     34  C   UNL     1       3.244  -4.704   2.509  1.00  0.00     0.060 A 
ATOM     35  C   UNL     1       2.160  -4.228   3.240  1.00  0.00     0.016 A 
ATOM     36  C   UNL     1       3.929  -5.840   2.939  1.00  0.00     0.016 A 
ATOM     37  C   UNL     1       1.755  -4.870   4.401  1.00  0.00     0.010 A 
ATOM     38  C   UNL     1       3.520  -6.484   4.122  1.00  0.00     0.010 A 
ATOM     39  C   UNL     1       2.435  -5.992   4.871  1.00  0.00    -0.014 A 
BRANCH  39  40
ATOM     40  C   UNL     1       2.056  -6.501   6.217  1.00  0.00     0.031 A 
ATOM     41  C   UNL     1       2.964  -6.224   7.386  1.00  0.00     0.074 A 
ATOM     42  C   UNL     1       0.846  -7.060   6.432  1.00  0.00     0.049 A 
ATOM     43  N   UNL     1       2.827  -6.565   8.640  1.00  0.00    -0.248 NA
ATOM     44  C   UNL     1       4.179  -5.442   7.106  1.00  0.00     0.031 C 
ATOM     45  C   UNL     1      -0.190  -7.256   5.416  1.00  0.00     0.029 A 
ATOM     46  N   UNL     1       0.272  -7.540   7.585  1.00  0.00    -0.354 N 
ATOM     47  C   UNL     1       3.946  -6.067   9.296  1.00  0.00     0.074 A 
ATOM     48  C   UNL     1       4.762  -5.413   8.295  1.00  0.00     0.031 C 
ATOM     49  C   UNL     1      -1.270  -7.812   5.992  1.00  0.00     0.029 A 
ATOM     50  C   UNL     1      -0.986  -8.069   7.402  1.00  0.00     0.049 A 
ATOM     51  H   UNL     1       0.719  -7.510   8.461  1.00  0.00     0.167 HD
ATOM     52  C   UNL     1       4.269  -6.151  10.609  1.00  0.00     0.031 A 
ATOM     53  C   UNL     1      -1.810  -8.706   8.261  1.00  0.00     0.031 A 
ATOM     54  C   UNL     1       3.454  -6.804  11.602  1.00  0.00     0.049 A 
ATOM     55  C   UNL     1      -1.380  -8.889   9.696  1.00  0.00     0.074 A 
ATOM     56  C   UNL     1       3.708  -6.958  12.954  1.00  0.00     0.029 A 
ATOM     57  N   UNL     1       2.228  -7.406  11.357  1.00  0.00    -0.354 N 
ATOM     58  N   UNL     1      -0.275  -8.494  10.283  1.00  0.00    -0.248 NA
ATOM     59  C   UNL     1      -2.312  -9.591  10.588  1.00  0.00     0.031 C 
ATOM     60  C   UNL     1       2.674  -7.718  13.511  1.00  0.00     0.029 A 
ATOM     61  C   UNL     1       1.731  -7.963  12.526  1.00  0.00     0.049 A 
ATOM     62  H   UNL     1       1.778  -7.435  10.482  1.00  0.00     0.167 HD
ATOM     63  C   UNL     1      -0.402  -8.849  11.621  1.00  0.00     0.074 A 
ATOM     64  C   UNL     1      -1.690  -9.499  11.756  1.00  0.00     0.031 C 
ATOM     65  C   UNL     1       0.462  -8.641  12.647  1.00  0.00     0.031 A 
BRANCH  52  66
ATOM     66  C   UNL     1       5.605  -5.592  11.031  1.00  0.00    -0.014 A 
ATOM     67  C   UNL     1       5.865  -4.209  11.043  1.00  0.00     0.010 A 
ATOM     68  C   UNL     1       6.619  -6.479  11.439  1.00  0.00     0.010 A 
ATOM     69  C   UNL     1       7.127  -3.730  11.409  1.00  0.00     0.020 A 
ATOM     70  C   UNL     1       7.870  -6.003  11.839  1.00  0.00     0.020 A 
ATOM     71  C   UNL     1       8.123  -4.631  11.802  1.00  0.00     0.054 A 
BRANCH  71  72
ATOM     72  S   UNL     1       9.748  -3.982  12.278  1.00  0.00     0.124 S 
ATOM     73  O   UNL     1      10.280  -3.527  10.995  1.00  0.00    -0.237 OA
ATOM     74  O   UNL     1       9.405  -2.925  13.226  1.00  0.00    -0.237 OA
ATOM     75  O   UNL     1      10.429  -5.138  12.857  1.00  0.00    -0.744 OA
ENDBRANCH  71  72
ENDBRANCH  52  66
BRANCH  53  76
ATOM     76  C   UNL     1      -3.117  -9.249   7.785  1.00  0.00    -0.014 A 
ATOM     77  C   UNL     1      -4.338  -8.749   8.273  1.00  0.00     0.010 A 
ATOM     78  C   UNL     1      -3.143 -10.294   6.844  1.00  0.00     0.010 A 
ATOM     79  C   UNL     1      -5.553  -9.295   7.846  1.00  0.00     0.020 A 
ATOM     80  C   UNL     1      -4.355 -10.820   6.388  1.00  0.00     0.020 A 
ATOM     81  C   UNL     1      -5.554 -10.326   6.903  1.00  0.00     0.054 A 
BRANCH  81  82
ATOM     82  S   UNL     1      -7.142 -10.998   6.338  1.00  0.00     0.124 S 
ATOM     83  O   UNL     1      -7.617 -11.700   7.527  1.00  0.00    -0.237 OA
ATOM     84  O   UNL     1      -7.885  -9.793   5.976  1.00  0.00    -0.237 OA
ATOM     85  O   UNL     1      -6.773 -11.855   5.214  1.00  0.00    -0.744 OA
ENDBRANCH  81  82
ENDBRANCH  53  76
BRANCH  65  86
ATOM     86  C   UNL     1       0.038  -9.110  14.017  1.00  0.00    -0.014 A 
ATOM     87  C   UNL     1      -0.091 -10.478  14.320  1.00  0.00     0.010 A 
ATOM     88  C   UNL     1      -0.208  -8.164  15.030  1.00  0.00     0.010 A 
ATOM     89  C   UNL     1      -0.510 -10.887  15.590  1.00  0.00     0.020 A 
ATOM     90  C   UNL     1      -0.590  -8.569  16.312  1.00  0.00     0.020 A 
ATOM     91  C   UNL     1      -0.759  -9.929  16.577  1.00  0.00     0.054 A 
BRANCH  91  92
ATOM     92  S   UNL     1      -1.286 -10.487  18.221  1.00  0.00     0.124 S 
ATOM     93  O   UNL     1      -2.651 -10.941  17.966  1.00  0.00    -0.237 OA
ATOM     94  O   UNL     1      -0.321 -11.540  18.526  1.00  0.00    -0.237 OA
ATOM     95  O   UNL     1      -1.174  -9.288  19.049  1.00  0.00    -0.744 OA
ENDBRANCH  91  92
ENDBRANCH  65  86
ENDBRANCH  39  40
ENDBRANCH  32  34
ENDBRANCH  31  32
ENDBRANCH  30  31
ENDBRANCH   1  30
TORSDOF 17
