REMARK SMILES O=C(OCCOC(=O)[C@@H]1[C@H](C(=O)NCc2cccnc2)[C@H]2C=C[C@@H]1C2)c1ccc(-c2c3nc(c(-c4ccc(S(=O)(=O)[O-])cc4)c4ccc([nH]4)c(-c4ccc(S(=O)(=O)[O-])cc4)c4nc(c(-c5ccc(S(=O)(=O)[O-])cc5)c5ccc2[nH]5)C=C4)C=C3)cc1
REMARK SMILES IDX 4 1 3 2 2 3 1 4 26 5 27 6 85 7 28 8 84 9 29 10 30 11 31 12
REMARK SMILES IDX 78 13 32 14 83 15 77 16 79 17 33 18 82 19 76 20 75 21 34 23
REMARK SMILES IDX 64 24 45 25 63 26 46 27 49 28 62 29 80 30 47 31 48 32 61 34
REMARK SMILES IDX 81 35 50 36 35 37 36 38 44 39 37 40 43 41 38 42 39 43 40 44
REMARK SMILES IDX 41 45 42 46 65 47 66 48 74 49 67 50 73 51 68 52 69 53 70 54
REMARK SMILES IDX 71 55 72 56 51 57 52 58 60 59 53 60 59 61 54 62 55 63 56 64
REMARK SMILES IDX 57 65 58 66 5 67 6 68 7 69 8 70 9 71 10 72 24 73 21 74 23 75
REMARK SMILES IDX 25 76 22 77 11 78 12 79 13 80 14 82 15 83 16 84 20 85 17 86
REMARK SMILES IDX 19 87 18 88
REMARK H PARENT 79 22 49 33 13 81
REMARK Flexibility Score: inf
ROOT
ATOM      1  C   UNL     1       3.083   0.705  -1.172  1.00  0.00     0.275 C 
ENDROOT
BRANCH   1   2
ATOM      2  O   UNL     1       2.105  -0.350  -1.234  1.00  0.00    -0.458 OA
BRANCH   2   3
ATOM      3  C   UNL     1       2.076  -1.607  -0.738  1.00  0.00     0.338 C 
ATOM      4  O   UNL     1       1.040  -2.253  -0.902  1.00  0.00    -0.246 OA
BRANCH   3   5
ATOM      5  C   UNL     1       3.173  -2.274   0.052  1.00  0.00     0.060 A 
ATOM      6  C   UNL     1       4.492  -1.849   0.180  1.00  0.00     0.016 A 
ATOM      7  C   UNL     1       2.827  -3.448   0.748  1.00  0.00     0.016 A 
ATOM      8  C   UNL     1       5.391  -2.481   1.066  1.00  0.00     0.010 A 
ATOM      9  C   UNL     1       3.713  -4.061   1.653  1.00  0.00     0.010 A 
ATOM     10  C   UNL     1       4.997  -3.538   1.875  1.00  0.00    -0.014 A 
BRANCH  10  11
ATOM     11  C   UNL     1       5.938  -4.151   2.862  1.00  0.00     0.031 A 
ATOM     12  C   UNL     1       6.471  -5.500   2.525  1.00  0.00     0.074 A 
ATOM     13  C   UNL     1       6.370  -3.558   4.004  1.00  0.00     0.049 A 
ATOM     14  N   UNL     1       7.264  -6.258   3.228  1.00  0.00    -0.248 NA
ATOM     15  C   UNL     1       6.115  -6.034   1.200  1.00  0.00     0.031 C 
ATOM     16  C   UNL     1       6.140  -2.177   4.385  1.00  0.00     0.029 A 
ATOM     17  N   UNL     1       7.071  -4.042   5.090  1.00  0.00    -0.354 N 
ATOM     18  C   UNL     1       7.567  -7.319   2.398  1.00  0.00     0.074 A 
ATOM     19  C   UNL     1       6.776  -7.177   1.196  1.00  0.00     0.031 C 
ATOM     20  C   UNL     1       6.526  -1.953   5.650  1.00  0.00     0.029 A 
ATOM     21  C   UNL     1       7.095  -3.176   6.172  1.00  0.00     0.049 A 
ATOM     22  H   UNL     1       7.513  -4.922   5.095  1.00  0.00     0.167 HD
ATOM     23  C   UNL     1       8.491  -8.283   2.586  1.00  0.00     0.031 A 
ATOM     24  C   UNL     1       7.527  -3.329   7.441  1.00  0.00     0.031 A 
ATOM     25  C   UNL     1       9.242  -8.451   3.793  1.00  0.00     0.049 A 
ATOM     26  C   UNL     1       8.318  -4.566   7.741  1.00  0.00     0.074 A 
ATOM     27  C   UNL     1      10.153  -9.441   4.105  1.00  0.00     0.029 A 
ATOM     28  N   UNL     1       9.156  -7.616   4.899  1.00  0.00    -0.354 N 
ATOM     29  N   UNL     1       8.615  -5.551   6.928  1.00  0.00    -0.248 NA
ATOM     30  C   UNL     1       8.912  -4.677   9.078  1.00  0.00     0.031 C 
ATOM     31  C   UNL     1      10.572  -9.241   5.424  1.00  0.00     0.029 A 
ATOM     32  C   UNL     1       9.972  -8.090   5.911  1.00  0.00     0.049 A 
ATOM     33  H   UNL     1       8.598  -6.807   4.955  1.00  0.00     0.167 HD
ATOM     34  C   UNL     1       9.500  -6.356   7.626  1.00  0.00     0.074 A 
ATOM     35  C   UNL     1       9.677  -5.750   8.932  1.00  0.00     0.031 C 
ATOM     36  C   UNL     1      10.131  -7.478   7.206  1.00  0.00     0.031 A 
BRANCH  23  37
ATOM     37  C   UNL     1       8.700  -9.208   1.430  1.00  0.00    -0.014 A 
ATOM     38  C   UNL     1       9.341  -8.748   0.263  1.00  0.00     0.010 A 
ATOM     39  C   UNL     1       8.179 -10.509   1.472  1.00  0.00     0.010 A 
ATOM     40  C   UNL     1       9.419  -9.565  -0.862  1.00  0.00     0.020 A 
ATOM     41  C   UNL     1       8.279 -11.339   0.356  1.00  0.00     0.020 A 
ATOM     42  C   UNL     1       8.884 -10.855  -0.808  1.00  0.00     0.054 A 
BRANCH  42  43
ATOM     43  S   UNL     1       9.002 -11.898  -2.284  1.00  0.00     0.124 S 
ATOM     44  O   UNL     1       8.046 -11.256  -3.183  1.00  0.00    -0.237 OA
ATOM     45  O   UNL     1      10.407 -11.758  -2.658  1.00  0.00    -0.237 OA
ATOM     46  O   UNL     1       8.615 -13.222  -1.804  1.00  0.00    -0.744 OA
ENDBRANCH  42  43
ENDBRANCH  23  37
BRANCH  24  47
ATOM     47  C   UNL     1       7.277  -2.302   8.502  1.00  0.00    -0.014 A 
ATOM     48  C   UNL     1       8.325  -1.537   9.047  1.00  0.00     0.010 A 
ATOM     49  C   UNL     1       5.984  -2.146   9.042  1.00  0.00     0.010 A 
ATOM     50  C   UNL     1       8.100  -0.686  10.139  1.00  0.00     0.020 A 
ATOM     51  C   UNL     1       5.750  -1.279  10.120  1.00  0.00     0.020 A 
ATOM     52  C   UNL     1       6.816  -0.571  10.677  1.00  0.00     0.054 A 
BRANCH  52  53
ATOM     53  S   UNL     1       6.562   0.513  12.116  1.00  0.00     0.124 S 
ATOM     54  O   UNL     1       7.287  -0.198  13.165  1.00  0.00    -0.237 OA
ATOM     55  O   UNL     1       7.163   1.768  11.671  1.00  0.00    -0.237 OA
ATOM     56  O   UNL     1       5.109   0.543  12.271  1.00  0.00    -0.744 OA
ENDBRANCH  52  53
ENDBRANCH  24  47
BRANCH  36  57
ATOM     57  C   UNL     1      11.107  -8.102   8.159  1.00  0.00    -0.014 A 
ATOM     58  C   UNL     1      10.674  -8.737   9.334  1.00  0.00     0.010 A 
ATOM     59  C   UNL     1      12.479  -8.082   7.846  1.00  0.00     0.010 A 
ATOM     60  C   UNL     1      11.602  -9.311  10.203  1.00  0.00     0.020 A 
ATOM     61  C   UNL     1      13.405  -8.689   8.693  1.00  0.00     0.020 A 
ATOM     62  C   UNL     1      12.961  -9.286   9.874  1.00  0.00     0.054 A 
BRANCH  62  63
ATOM     63  S   UNL     1      14.140 -10.084  10.994  1.00  0.00     0.124 S 
ATOM     64  O   UNL     1      14.192  -9.136  12.103  1.00  0.00    -0.237 OA
ATOM     65  O   UNL     1      13.490 -11.360  11.284  1.00  0.00    -0.237 OA
ATOM     66  O   UNL     1      15.361 -10.180  10.198  1.00  0.00    -0.744 OA
ENDBRANCH  62  63
ENDBRANCH  36  57
ENDBRANCH  10  11
ENDBRANCH   3   5
ENDBRANCH   2   3
ENDBRANCH   1   2
BRANCH   1  67
ATOM     67  C   UNL     1       2.972   1.558   0.083  1.00  0.00     0.274 C 
BRANCH  67  68
ATOM     68  O   UNL     1       2.882   0.778   1.285  1.00  0.00    -0.462 OA
BRANCH  68  69
ATOM     69  C   UNL     1       1.756   1.016   2.009  1.00  0.00     0.310 C 
ATOM     70  O   UNL     1       0.830   1.724   1.644  1.00  0.00    -0.252 OA
BRANCH  69  71
ATOM     71  C   UNL     1       1.729   0.317   3.339  1.00  0.00     0.119 C 
ATOM     72  C   UNL     1       2.841   0.659   4.369  1.00  0.00     0.100 C 
ATOM     73  C   UNL     1       1.748  -1.226   3.266  1.00  0.00     0.027 C 
ATOM     74  C   UNL     1       3.246  -0.734   4.875  1.00  0.00     0.025 C 
ATOM     75  C   UNL     1       1.192  -1.780   4.552  1.00  0.00    -0.027 C 
ATOM     76  C   UNL     1       3.202  -1.524   3.582  1.00  0.00     0.017 C 
ATOM     77  C   UNL     1       2.067  -1.463   5.522  1.00  0.00    -0.027 C 
BRANCH  72  78
ATOM     78  C   UNL     1       3.893   1.749   4.037  1.00  0.00     0.224 C 
ATOM     79  O   UNL     1       3.646   2.883   4.493  1.00  0.00    -0.275 OA
ATOM     80  N   UNL     1       5.028   1.764   3.304  1.00  0.00    -0.352 N 
ATOM     81  H   UNL     1       5.389   2.680   3.282  1.00  0.00     0.163 HD
BRANCH  80  82
ATOM     82  C   UNL     1       5.904   0.881   2.533  1.00  0.00     0.153 C 
BRANCH  82  83
ATOM     83  C   UNL     1       6.400   1.415   1.195  1.00  0.00    -0.010 A 
ATOM     84  C   UNL     1       6.986   0.549   0.257  1.00  0.00     0.009 A 
ATOM     85  C   UNL     1       6.268   2.730   0.776  1.00  0.00     0.116 A 
ATOM     86  C   UNL     1       7.194   0.939  -1.065  1.00  0.00     0.020 A 
ATOM     87  N   UNL     1       6.490   3.157  -0.497  1.00  0.00    -0.264 NA
ATOM     88  C   UNL     1       6.910   2.245  -1.398  1.00  0.00     0.111 A 
ENDBRANCH  82  83
ENDBRANCH  80  82
ENDBRANCH  72  78
ENDBRANCH  69  71
ENDBRANCH  68  69
ENDBRANCH  67  68
ENDBRANCH   1  67
TORSDOF 17
