REMARK SMILES [NH3+][C@@]1(C(=O)OCCOC(=O)c2ccc(-c3c4nc(c(-c5ccc(S(=O)(=O)[O-])cc5)c5ccc([nH]5)c(-c5ccc(S(=O)(=O)[O-])cc5)c5nc(c(-c6ccc(S(=O)(=O)[O-])cc6)c6ccc3[nH]6)C=C5)C=C4)cc2)CCC[C@@H](Oc2ccccc2[N+](=O)[O-])C1
REMARK SMILES IDX 6 1 5 2 3 3 4 4 2 5 71 6 85 7 72 8 74 9 73 10 1 11 75 15
REMARK SMILES IDX 76 16 77 17 81 18 78 19 80 20 79 21 82 22 83 23 84 24 7 25
REMARK SMILES IDX 8 26 9 27 10 28 11 29 12 30 70 31 13 32 69 33 14 34 15 35
REMARK SMILES IDX 16 36 63 37 17 38 68 39 62 40 64 41 18 42 67 43 61 44 60 45
REMARK SMILES IDX 19 47 49 48 30 49 48 50 31 51 34 52 47 53 65 54 32 55 33 56
REMARK SMILES IDX 46 58 66 59 35 60 20 61 21 62 29 63 22 64 28 65 23 66 24 67
REMARK SMILES IDX 25 68 26 69 27 70 50 71 51 72 59 73 52 74 58 75 53 76 54 77
REMARK SMILES IDX 55 78 56 79 57 80 36 81 37 82 45 83 38 84 44 85 39 86 40 87
REMARK SMILES IDX 41 88 42 89 43 90
REMARK H PARENT 1 12 1 13 1 14 64 46 34 57
REMARK Flexibility Score: inf
ROOT
ATOM      1  C   UNL     1      -4.798  -0.289   0.076  1.00  0.00     0.274 C 
ENDROOT
BRANCH   1   2
ATOM      2  O   UNL     1      -3.458  -0.621  -0.328  1.00  0.00    -0.457 OA
BRANCH   2   3
ATOM      3  C   UNL     1      -2.470   0.223   0.090  1.00  0.00     0.368 C 
ATOM      4  O   UNL     1      -2.660   1.180   0.833  1.00  0.00    -0.245 OA
BRANCH   3   5
ATOM      5  C   UNL     1      -1.074  -0.136  -0.528  1.00  0.00     0.196 C 
ATOM      6  C   UNL     1      -0.261  -1.107   0.343  1.00  0.00     0.081 C 
ATOM      7  C   UNL     1      -0.289   1.197  -0.621  1.00  0.00     0.126 C 
ATOM      8  C   UNL     1       1.153  -1.351  -0.197  1.00  0.00     0.011 C 
ATOM      9  C   UNL     1       1.204   1.126  -0.965  1.00  0.00     0.180 C 
ATOM     10  C   UNL     1       1.956  -0.056  -0.331  1.00  0.00     0.046 C 
BRANCH   5  11
ATOM     11  N   UNL     1      -1.324  -0.803  -1.817  1.00  0.00    -0.343 N 
ATOM     12  H   UNL     1      -0.434  -1.052  -2.249  1.00  0.00     0.345 HD
ATOM     13  H   UNL     1      -1.836  -0.172  -2.433  1.00  0.00     0.345 HD
ATOM     14  H   UNL     1      -1.874  -1.648  -1.662  1.00  0.00     0.345 HD
ENDBRANCH   5  11
BRANCH   9  15
ATOM     15  O   UNL     1       1.549   1.440  -2.332  1.00  0.00    -0.483 OA
BRANCH  15  16
ATOM     16  C   UNL     1       1.069   0.632  -3.312  1.00  0.00     0.197 A 
ATOM     17  C   UNL     1       1.764  -0.541  -3.612  1.00  0.00     0.054 A 
ATOM     18  C   UNL     1      -0.058   0.955  -4.076  1.00  0.00     0.310 A 
ATOM     19  C   UNL     1       1.260  -1.438  -4.558  1.00  0.00     0.004 A 
ATOM     20  C   UNL     1      -0.579   0.055  -5.018  1.00  0.00     0.090 A 
ATOM     21  C   UNL     1       0.078  -1.153  -5.242  1.00  0.00     0.007 A 
BRANCH  18  22
ATOM     22  N   UNL     1      -0.800   2.178  -3.839  1.00  0.00     0.066 N 
ATOM     23  O   UNL     1      -2.014   2.050  -3.613  1.00  0.00    -0.258 OA
ATOM     24  O   UNL     1      -0.192   3.252  -3.909  1.00  0.00    -0.258 OA
ENDBRANCH  18  22
ENDBRANCH  15  16
ENDBRANCH   9  15
ENDBRANCH   3   5
ENDBRANCH   2   3
ENDBRANCH   1   2
BRANCH   1  25
ATOM     25  C   UNL     1      -5.259  -1.223   1.188  1.00  0.00     0.275 C 
BRANCH  25  26
ATOM     26  O   UNL     1      -4.425  -1.024   2.342  1.00  0.00    -0.458 OA
BRANCH  26  27
ATOM     27  C   UNL     1      -3.722  -2.103   2.758  1.00  0.00     0.338 C 
ATOM     28  O   UNL     1      -3.809  -3.248   2.355  1.00  0.00    -0.246 OA
BRANCH  27  29
ATOM     29  C   UNL     1      -2.750  -1.679   3.780  1.00  0.00     0.060 A 
ATOM     30  C   UNL     1      -1.801  -0.719   3.451  1.00  0.00     0.016 A 
ATOM     31  C   UNL     1      -2.687  -2.320   5.013  1.00  0.00     0.016 A 
ATOM     32  C   UNL     1      -0.721  -0.472   4.287  1.00  0.00     0.010 A 
ATOM     33  C   UNL     1      -1.669  -1.977   5.914  1.00  0.00     0.010 A 
ATOM     34  C   UNL     1      -0.653  -1.076   5.545  1.00  0.00    -0.014 A 
BRANCH  34  35
ATOM     35  C   UNL     1       0.503  -0.786   6.437  1.00  0.00     0.031 A 
ATOM     36  C   UNL     1       1.380  -1.908   6.924  1.00  0.00     0.074 A 
ATOM     37  C   UNL     1       0.801   0.487   6.772  1.00  0.00     0.049 A 
ATOM     38  N   UNL     1       2.322  -1.884   7.832  1.00  0.00    -0.248 NA
ATOM     39  C   UNL     1       1.164  -3.234   6.321  1.00  0.00     0.031 C 
ATOM     40  C   UNL     1       0.080   1.680   6.316  1.00  0.00     0.029 A 
ATOM     41  N   UNL     1       1.808   0.996   7.554  1.00  0.00    -0.354 N 
ATOM     42  C   UNL     1       2.758  -3.198   7.962  1.00  0.00     0.074 A 
ATOM     43  C   UNL     1       1.988  -3.993   7.030  1.00  0.00     0.031 C 
ATOM     44  C   UNL     1       0.703   2.776   6.772  1.00  0.00     0.029 A 
ATOM     45  C   UNL     1       1.800   2.368   7.639  1.00  0.00     0.049 A 
ATOM     46  H   UNL     1       2.472   0.431   8.011  1.00  0.00     0.167 HD
ATOM     47  C   UNL     1       3.704  -3.696   8.794  1.00  0.00     0.031 A 
ATOM     48  C   UNL     1       2.558   3.209   8.369  1.00  0.00     0.031 A 
ATOM     49  C   UNL     1       4.495  -2.891   9.687  1.00  0.00     0.049 A 
ATOM     50  C   UNL     1       3.589   2.634   9.295  1.00  0.00     0.074 A 
ATOM     51  C   UNL     1       5.463  -3.297  10.589  1.00  0.00     0.029 A 
ATOM     52  N   UNL     1       4.425  -1.508   9.774  1.00  0.00    -0.354 N 
ATOM     53  N   UNL     1       3.914   1.377   9.483  1.00  0.00    -0.248 NA
ATOM     54  C   UNL     1       4.335   3.587  10.126  1.00  0.00     0.031 C 
ATOM     55  C   UNL     1       5.958  -2.161  11.242  1.00  0.00     0.029 A 
ATOM     56  C   UNL     1       5.327  -1.045  10.716  1.00  0.00     0.049 A 
ATOM     57  H   UNL     1       3.821  -0.940   9.243  1.00  0.00     0.167 HD
ATOM     58  C   UNL     1       4.898   1.387  10.463  1.00  0.00     0.074 A 
ATOM     59  C   UNL     1       5.140   2.777  10.799  1.00  0.00     0.031 C 
ATOM     60  C   UNL     1       5.536   0.341  11.045  1.00  0.00     0.031 A 
BRANCH  47  61
ATOM     61  C   UNL     1       3.886  -5.190   8.818  1.00  0.00    -0.014 A 
ATOM     62  C   UNL     1       4.537  -5.872   7.776  1.00  0.00     0.010 A 
ATOM     63  C   UNL     1       3.399  -5.922   9.917  1.00  0.00     0.010 A 
ATOM     64  C   UNL     1       4.662  -7.265   7.814  1.00  0.00     0.020 A 
ATOM     65  C   UNL     1       3.542  -7.311   9.970  1.00  0.00     0.020 A 
ATOM     66  C   UNL     1       4.156  -7.976   8.908  1.00  0.00     0.054 A 
BRANCH  66  67
ATOM     67  S   UNL     1       4.334  -9.782   8.939  1.00  0.00     0.124 S 
ATOM     68  O   UNL     1       3.293 -10.202   8.005  1.00  0.00    -0.237 OA
ATOM     69  O   UNL     1       5.707  -9.980   8.481  1.00  0.00    -0.237 OA
ATOM     70  O   UNL     1       4.093 -10.128  10.338  1.00  0.00    -0.744 OA
ENDBRANCH  66  67
ENDBRANCH  47  61
BRANCH  48  71
ATOM     71  C   UNL     1       2.317   4.676   8.300  1.00  0.00    -0.014 A 
ATOM     72  C   UNL     1       3.255   5.530   7.696  1.00  0.00     0.010 A 
ATOM     73  C   UNL     1       1.127   5.223   8.817  1.00  0.00     0.010 A 
ATOM     74  C   UNL     1       3.009   6.905   7.612  1.00  0.00     0.020 A 
ATOM     75  C   UNL     1       0.865   6.591   8.709  1.00  0.00     0.020 A 
ATOM     76  C   UNL     1       1.813   7.426   8.117  1.00  0.00     0.054 A 
BRANCH  76  77
ATOM     77  S   UNL     1       1.474   9.199   7.935  1.00  0.00     0.124 S 
ATOM     78  O   UNL     1       2.253   9.769   9.029  1.00  0.00    -0.237 OA
ATOM     79  O   UNL     1       1.969   9.484   6.590  1.00  0.00    -0.237 OA
ATOM     80  O   UNL     1       0.023   9.284   8.086  1.00  0.00    -0.744 OA
ENDBRANCH  76  77
ENDBRANCH  48  71
BRANCH  60  81
ATOM     81  C   UNL     1       6.559   0.677  12.092  1.00  0.00    -0.014 A 
ATOM     82  C   UNL     1       6.166   1.106  13.373  1.00  0.00     0.010 A 
ATOM     83  C   UNL     1       7.927   0.567  11.790  1.00  0.00     0.010 A 
ATOM     84  C   UNL     1       7.127   1.467  14.319  1.00  0.00     0.020 A 
ATOM     85  C   UNL     1       8.891   0.907  12.742  1.00  0.00     0.020 A 
ATOM     86  C   UNL     1       8.484   1.376  13.993  1.00  0.00     0.054 A 
BRANCH  86  87
ATOM     87  S   UNL     1       9.719   1.851  15.233  1.00  0.00     0.124 S 
ATOM     88  O   UNL     1       9.709   3.307  15.127  1.00  0.00    -0.237 OA
ATOM     89  O   UNL     1       9.164   1.307  16.471  1.00  0.00    -0.237 OA
ATOM     90  O   UNL     1      10.941   1.198  14.768  1.00  0.00    -0.744 OA
ENDBRANCH  86  87
ENDBRANCH  60  81
ENDBRANCH  34  35
ENDBRANCH  27  29
ENDBRANCH  26  27
ENDBRANCH  25  26
ENDBRANCH   1  25
TORSDOF 18
