REMARK SMILES Cc1ccc(-c2cnnc(-n3nc(C)c4c3NC(=O)C[C@@H]4c3ccc(C(=O)OCCOC(=O)c4ccc(-c5c6nc(c(-c7ccc(S(=O)(=O)[O-])cc7)c7ccc([nH]7)c(-c7ccc(S(=O)(=O)[O-])cc7)c7nc(c(-c8ccc(S(=O)(=O)[O-])cc8)c8ccc5[nH]8)C=C7)C=C6)cc4)cc3)n2)cc1
REMARK SMILES IDX 29 1 28 2 26 3 27 4 25 5 22 6 23 7 95 8 24 9 94 10 21 11
REMARK SMILES IDX 11 12 12 13 16 14 13 15 15 16 17 17 14 18 18 19 20 21 19 22
REMARK SMILES IDX 10 23 6 24 7 25 96 26 8 27 9 28 5 29 1 30 2 31 3 32 98 33
REMARK SMILES IDX 4 34 97 35 30 36 31 37 32 38 33 39 34 40 35 41 93 42 36 43
REMARK SMILES IDX 92 44 37 45 38 46 39 47 86 48 40 49 91 50 85 51 87 52 41 53
REMARK SMILES IDX 90 54 84 55 83 56 42 58 72 59 53 60 71 61 54 62 57 63 70 64
REMARK SMILES IDX 88 65 55 66 56 67 69 69 89 70 58 71 43 72 44 73 52 74 45 75
REMARK SMILES IDX 51 76 46 77 47 78 48 79 49 80 50 81 73 82 74 83 82 84 75 85
REMARK SMILES IDX 81 86 76 87 77 88 78 89 79 90 80 91 59 92 60 93 68 94 61 95
REMARK SMILES IDX 67 96 62 97 63 98 64 99 65 100 66 101
REMARK H PARENT 17 20 87 57 57 68
REMARK Flexibility Score: inf
ROOT
ATOM      1  C   UNL     1     -11.219   7.541  -7.443  1.00  0.00     0.275 C 
ENDROOT
BRANCH   1   2
ATOM      2  O   UNL     1     -10.056   6.699  -7.508  1.00  0.00    -0.458 OA
BRANCH   2   3
ATOM      3  C   UNL     1     -10.251   5.487  -6.946  1.00  0.00     0.338 C 
ATOM      4  O   UNL     1     -11.244   5.131  -6.333  1.00  0.00    -0.246 OA
BRANCH   3   5
ATOM      5  C   UNL     1      -9.037   4.666  -6.954  1.00  0.00     0.060 A 
ATOM      6  C   UNL     1      -7.281   2.674  -6.150  1.00  0.00    -0.040 A 
ATOM      7  C   UNL     1      -8.081   2.465  -7.267  1.00  0.00     0.005 A 
ATOM      8  C   UNL     1      -7.202   3.972  -5.599  1.00  0.00     0.005 A 
ATOM      9  C   UNL     1      -8.967   3.458  -7.649  1.00  0.00     0.016 A 
ATOM     10  C   UNL     1      -8.109   4.952  -5.967  1.00  0.00     0.016 A 
BRANCH   6  11
ATOM     11  C   UNL     1      -6.685   1.442  -5.510  1.00  0.00     0.064 C 
ATOM     12  N   UNL     1      -5.694   2.057  -2.102  1.00  0.00    -0.180 N 
ATOM     13  N   UNL     1      -6.998   2.398  -1.924  1.00  0.00    -0.168 NA
ATOM     14  C   UNL     1      -5.391   2.048  -3.449  1.00  0.00     0.143 A 
ATOM     15  C   UNL     1      -7.575   2.070  -3.083  1.00  0.00     0.066 A 
ATOM     16  C   UNL     1      -6.588   1.750  -4.061  1.00  0.00     0.026 A 
ATOM     17  N   UNL     1      -4.247   2.262  -4.197  1.00  0.00    -0.310 N 
ATOM     18  C   UNL     1      -9.045   2.239  -3.219  1.00  0.00     0.069 C 
ATOM     19  C   UNL     1      -4.265   1.986  -5.614  1.00  0.00     0.226 C 
ATOM     20  H   UNL     1      -3.429   2.600  -3.767  1.00  0.00     0.171 HD
ATOM     21  C   UNL     1      -5.341   1.041  -6.096  1.00  0.00     0.113 C 
ATOM     22  O   UNL     1      -3.349   2.412  -6.271  1.00  0.00    -0.275 OA
BRANCH  12  23
ATOM     23  C   UNL     1      -4.994   1.358  -1.088  1.00  0.00     0.272 A 
ATOM     24  C   UNL     1      -3.166   0.239  -0.335  1.00  0.00     0.095 A 
ATOM     25  C   UNL     1      -3.965  -0.425   0.579  1.00  0.00     0.164 A 
ATOM     26  N   UNL     1      -3.677   1.116  -1.236  1.00  0.00    -0.208 NA
ATOM     27  N   UNL     1      -5.271  -0.153   0.681  1.00  0.00    -0.153 NA
ATOM     28  N   UNL     1      -5.779   0.787  -0.137  1.00  0.00    -0.109 NA
BRANCH  24  29
ATOM     29  C   UNL     1      -1.709   0.133  -0.292  1.00  0.00     0.002 A 
ATOM     30  C   UNL     1       2.591  -0.064   0.065  1.00  0.00     0.044 C 
ATOM     31  C   UNL     1       1.099   0.011  -0.050  1.00  0.00    -0.051 A 
ATOM     32  C   UNL     1       0.339  -1.163  -0.095  1.00  0.00     0.004 A 
ATOM     33  C   UNL     1       0.453   1.246  -0.128  1.00  0.00     0.004 A 
ATOM     34  C   UNL     1      -1.052  -1.103  -0.214  1.00  0.00     0.011 A 
ATOM     35  C   UNL     1      -0.934   1.304  -0.252  1.00  0.00     0.011 A 
ENDBRANCH  24  29
ENDBRANCH  12  23
ENDBRANCH   6  11
ENDBRANCH   3   5
ENDBRANCH   2   3
ENDBRANCH   1   2
BRANCH   1  36
ATOM     36  C   UNL     1     -11.162   8.652  -8.505  1.00  0.00     0.275 C 
BRANCH  36  37
ATOM     37  O   UNL     1     -11.279   8.262  -9.889  1.00  0.00    -0.458 OA
BRANCH  37  38
ATOM     38  C   UNL     1     -10.559   7.171 -10.262  1.00  0.00     0.338 C 
ATOM     39  O   UNL     1      -9.349   7.159 -10.370  1.00  0.00    -0.246 OA
BRANCH  38  40
ATOM     40  C   UNL     1     -11.472   5.999 -10.210  1.00  0.00     0.060 A 
ATOM     41  C   UNL     1     -10.922   4.721 -10.108  1.00  0.00     0.016 A 
ATOM     42  C   UNL     1     -12.824   6.217  -9.921  1.00  0.00     0.016 A 
ATOM     43  C   UNL     1     -11.691   3.683  -9.598  1.00  0.00     0.010 A 
ATOM     44  C   UNL     1     -13.533   5.236  -9.278  1.00  0.00     0.010 A 
ATOM     45  C   UNL     1     -12.960   3.969  -9.120  1.00  0.00    -0.014 A 
BRANCH  45  46
ATOM     46  C   UNL     1     -13.925   2.934  -8.827  1.00  0.00     0.031 A 
ATOM     47  C   UNL     1     -14.214   2.483  -7.458  1.00  0.00     0.074 A 
ATOM     48  C   UNL     1     -14.667   2.749  -9.941  1.00  0.00     0.049 A 
ATOM     49  N   UNL     1     -15.098   1.595  -7.189  1.00  0.00    -0.248 NA
ATOM     50  C   UNL     1     -13.522   2.931  -6.249  1.00  0.00     0.031 C 
ATOM     51  C   UNL     1     -16.023   2.299 -10.159  1.00  0.00     0.029 A 
ATOM     52  N   UNL     1     -14.140   2.848 -11.234  1.00  0.00    -0.354 N 
ATOM     53  C   UNL     1     -15.358   1.657  -5.833  1.00  0.00     0.074 A 
ATOM     54  C   UNL     1     -14.268   2.401  -5.269  1.00  0.00     0.031 C 
ATOM     55  C   UNL     1     -16.129   1.890 -11.442  1.00  0.00     0.029 A 
ATOM     56  C   UNL     1     -14.780   1.897 -12.011  1.00  0.00     0.049 A 
ATOM     57  H   UNL     1     -13.445   3.477 -11.536  1.00  0.00     0.167 HD
ATOM     58  C   UNL     1     -16.573   1.212  -5.411  1.00  0.00     0.031 A 
ATOM     59  C   UNL     1     -14.054   0.773 -12.302  1.00  0.00     0.031 A 
ATOM     60  C   UNL     1     -17.265   0.591  -6.538  1.00  0.00     0.049 A 
ATOM     61  C   UNL     1     -14.632  -0.433 -11.590  1.00  0.00     0.074 A 
ATOM     62  C   UNL     1     -18.203   1.070  -7.436  1.00  0.00     0.029 A 
ATOM     63  N   UNL     1     -16.683  -0.520  -7.127  1.00  0.00    -0.354 N 
ATOM     64  N   UNL     1     -15.220  -0.421 -10.421  1.00  0.00    -0.248 NA
ATOM     65  C   UNL     1     -14.663  -1.739 -12.222  1.00  0.00     0.031 C 
ATOM     66  C   UNL     1     -18.146   0.247  -8.597  1.00  0.00     0.029 A 
ATOM     67  C   UNL     1     -17.169  -0.716  -8.404  1.00  0.00     0.049 A 
ATOM     68  H   UNL     1     -16.012  -1.094  -6.692  1.00  0.00     0.167 HD
ATOM     69  C   UNL     1     -15.836  -1.633 -10.207  1.00  0.00     0.074 A 
ATOM     70  C   UNL     1     -15.377  -2.443 -11.328  1.00  0.00     0.031 C 
ATOM     71  C   UNL     1     -16.706  -1.867  -9.170  1.00  0.00     0.031 A 
BRANCH  58  72
ATOM     72  C   UNL     1     -17.265   1.556  -4.113  1.00  0.00    -0.014 A 
ATOM     73  C   UNL     1     -18.677   1.474  -4.086  1.00  0.00     0.010 A 
ATOM     74  C   UNL     1     -16.647   1.997  -2.927  1.00  0.00     0.010 A 
ATOM     75  C   UNL     1     -19.436   1.845  -2.973  1.00  0.00     0.020 A 
ATOM     76  C   UNL     1     -17.402   2.373  -1.794  1.00  0.00     0.020 A 
ATOM     77  C   UNL     1     -18.795   2.300  -1.829  1.00  0.00     0.054 A 
BRANCH  77  78
ATOM     78  S   UNL     1     -19.818   2.773  -0.409  1.00  0.00     0.124 S 
ATOM     79  O   UNL     1     -20.615   3.872  -0.950  1.00  0.00    -0.237 OA
ATOM     80  O   UNL     1     -20.554   1.544  -0.128  1.00  0.00    -0.237 OA
ATOM     81  O   UNL     1     -18.843   3.160   0.609  1.00  0.00    -0.744 OA
ENDBRANCH  77  78
ENDBRANCH  58  72
BRANCH  59  82
ATOM     82  C   UNL     1     -12.588   1.022 -12.579  1.00  0.00    -0.014 A 
ATOM     83  C   UNL     1     -12.251   1.958 -13.591  1.00  0.00     0.010 A 
ATOM     84  C   UNL     1     -11.563   0.617 -11.705  1.00  0.00     0.010 A 
ATOM     85  C   UNL     1     -10.987   2.563 -13.647  1.00  0.00     0.020 A 
ATOM     86  C   UNL     1     -10.280   1.204 -11.775  1.00  0.00     0.020 A 
ATOM     87  C   UNL     1     -10.013   2.201 -12.719  1.00  0.00     0.054 A 
BRANCH  87  88
ATOM     88  S   UNL     1      -8.492   3.203 -12.617  1.00  0.00     0.124 S 
ATOM     89  O   UNL     1      -7.695   2.680 -13.721  1.00  0.00    -0.237 OA
ATOM     90  O   UNL     1      -9.001   4.560 -12.795  1.00  0.00    -0.237 OA
ATOM     91  O   UNL     1      -7.989   2.904 -11.276  1.00  0.00    -0.744 OA
ENDBRANCH  87  88
ENDBRANCH  59  82
BRANCH  71  92
ATOM     92  C   UNL     1     -17.254  -3.214  -8.727  1.00  0.00    -0.014 A 
ATOM     93  C   UNL     1     -17.269  -4.373  -9.503  1.00  0.00     0.010 A 
ATOM     94  C   UNL     1     -17.794  -3.338  -7.417  1.00  0.00     0.010 A 
ATOM     95  C   UNL     1     -17.691  -5.601  -8.977  1.00  0.00     0.020 A 
ATOM     96  C   UNL     1     -18.224  -4.549  -6.878  1.00  0.00     0.020 A 
ATOM     97  C   UNL     1     -18.149  -5.683  -7.664  1.00  0.00     0.054 A 
BRANCH  97  98
ATOM     98  S   UNL     1     -18.665  -7.285  -7.020  1.00  0.00     0.124 S 
ATOM     99  O   UNL     1     -19.749  -7.643  -7.931  1.00  0.00    -0.237 OA
ATOM    100  O   UNL     1     -17.443  -8.074  -7.155  1.00  0.00    -0.237 OA
ATOM    101  O   UNL     1     -19.071  -6.998  -5.647  1.00  0.00    -0.744 OA
ENDBRANCH  97  98
ENDBRANCH  71  92
ENDBRANCH  45  46
ENDBRANCH  38  40
ENDBRANCH  37  38
ENDBRANCH  36  37
ENDBRANCH   1  36
TORSDOF 17
