REMARK SMILES C[N@@H+]1CC2(CC[NH+](C(=O)c3cc(-c4ccncc4)n[nH]3)CC2)C[C@H]1C(=O)OCCOC(=O)c1ccc(-c2c3nc(c(-c4ccc(S(=O)(=O)[O-])cc4)c4ccc([nH]4)c(-c4ccc(S(=O)(=O)[O-])cc4)c4nc(c(-c5ccc(S(=O)(=O)[O-])cc5)c5ccc2[nH]5)C=C4)C=C3)cc1
REMARK SMILES IDX 28 1 27 2 25 3 26 4 24 5 1 6 2 7 3 8 4 10 23 11 5 12 22 13
REMARK SMILES IDX 6 14 21 15 7 16 8 18 9 19 10 20 11 21 20 22 12 23 19 24
REMARK SMILES IDX 13 26 14 27 18 28 15 29 17 30 16 31 29 32 30 33 31 34 32 35
REMARK SMILES IDX 33 36 34 37 92 38 35 39 91 40 36 41 37 42 38 43 85 44 39 45
REMARK SMILES IDX 90 46 84 47 86 48 40 49 89 50 83 51 82 52 41 54 71 55 52 56
REMARK SMILES IDX 70 57 53 58 56 59 69 60 87 61 54 62 55 63 68 65 88 66 57 67
REMARK SMILES IDX 42 68 43 69 51 70 44 71 50 72 45 73 46 74 47 75 48 76 49 77
REMARK SMILES IDX 72 78 73 79 81 80 74 81 80 82 75 83 76 84 77 85 78 86 79 87
REMARK SMILES IDX 58 88 59 89 67 90 60 91 66 92 61 93 62 94 63 95 64 96 65 97
REMARK H PARENT 2 9 7 17 20 25 86 53 56 64
REMARK Flexibility Score: inf
ROOT
ATOM      1  C   UNL     1      -0.331  -5.564  -0.907  1.00  0.00     0.274 C 
ENDROOT
BRANCH   1   2
ATOM      2  O   UNL     1      -0.267  -4.199  -0.456  1.00  0.00    -0.458 OA
BRANCH   2   3
ATOM      3  C   UNL     1       0.401  -3.975   0.709  1.00  0.00     0.365 C 
ATOM      4  O   UNL     1       0.828  -4.864   1.440  1.00  0.00    -0.245 OA
BRANCH   3   5
ATOM      5  C   UNL     1       0.562  -2.488   1.063  1.00  0.00     0.295 C 
ATOM      6  C   UNL     1       1.071  -0.372  -0.035  1.00  0.00     0.333 C 
ATOM      7  N   UNL     1       0.236  -1.571  -0.050  1.00  0.00    -0.325 N 
ATOM      8  C   UNL     1      -1.188  -1.255   0.080  1.00  0.00     0.270 C 
ATOM      9  H   UNL     1       0.426  -2.010  -0.950  1.00  0.00     0.348 HD
ATOM     10  C   UNL     1      -1.579  -1.459   1.561  1.00  0.00     0.036 C 
ATOM     11  C   UNL     1      -0.343  -2.095   2.213  1.00  0.00     0.091 C 
ATOM     12  C   UNL     1      -2.789  -2.413   1.678  1.00  0.00     0.075 C 
ATOM     13  C   UNL     1      -1.903  -0.119   2.265  1.00  0.00     0.075 C 
ATOM     14  C   UNL     1      -4.062  -1.745   1.178  1.00  0.00     0.271 C 
ATOM     15  C   UNL     1      -3.234   0.483   1.818  1.00  0.00     0.271 C 
ATOM     16  N   UNL     1      -4.296  -0.509   1.924  1.00  0.00    -0.266 N 
ATOM     17  H   UNL     1      -3.474  -0.032   2.179  1.00  0.00     0.357 HD
BRANCH  16  18
ATOM     18  C   UNL     1      -5.467  -0.190   2.605  1.00  0.00     0.362 C 
ATOM     19  O   UNL     1      -5.738   0.962   2.934  1.00  0.00    -0.224 OA
BRANCH  18  20
ATOM     20  C   UNL     1      -6.383  -1.261   2.881  1.00  0.00     0.163 A 
ATOM     21  C   UNL     1      -6.213  -2.511   3.441  1.00  0.00     0.068 A 
ATOM     22  N   UNL     1      -7.723  -1.160   2.645  1.00  0.00    -0.269 N 
ATOM     23  C   UNL     1      -7.481  -3.139   3.357  1.00  0.00     0.093 A 
ATOM     24  N   UNL     1      -8.394  -2.309   2.833  1.00  0.00    -0.175 NA
ATOM     25  H   UNL     1      -8.157  -0.323   2.363  1.00  0.00     0.190 HD
BRANCH  23  26
ATOM     26  C   UNL     1      -7.812  -4.506   3.723  1.00  0.00     0.005 A 
ATOM     27  C   UNL     1      -7.570  -4.975   5.013  1.00  0.00     0.030 A 
ATOM     28  C   UNL     1      -8.363  -5.365   2.773  1.00  0.00     0.030 A 
ATOM     29  C   UNL     1      -7.897  -6.290   5.297  1.00  0.00     0.111 A 
ATOM     30  C   UNL     1      -8.643  -6.665   3.153  1.00  0.00     0.111 A 
ATOM     31  N   UNL     1      -8.424  -7.147   4.395  1.00  0.00    -0.265 NA
ENDBRANCH  23  26
ENDBRANCH  18  20
ENDBRANCH  16  18
ENDBRANCH   3   5
ENDBRANCH   2   3
ENDBRANCH   1   2
BRANCH   1  32
ATOM     32  C   UNL     1       0.665  -5.802  -2.041  1.00  0.00     0.275 C 
BRANCH  32  33
ATOM     33  O   UNL     1       2.014  -5.607  -1.579  1.00  0.00    -0.458 OA
BRANCH  33  34
ATOM     34  C   UNL     1       2.599  -4.453  -1.979  1.00  0.00     0.338 C 
ATOM     35  O   UNL     1       2.144  -3.604  -2.724  1.00  0.00    -0.246 OA
BRANCH  34  36
ATOM     36  C   UNL     1       3.901  -4.316  -1.314  1.00  0.00     0.060 A 
ATOM     37  C   UNL     1       3.965  -3.600  -0.121  1.00  0.00     0.016 A 
ATOM     38  C   UNL     1       5.065  -4.782  -1.919  1.00  0.00     0.016 A 
ATOM     39  C   UNL     1       5.191  -3.309   0.466  1.00  0.00     0.010 A 
ATOM     40  C   UNL     1       6.299  -4.522  -1.312  1.00  0.00     0.010 A 
ATOM     41  C   UNL     1       6.373  -3.764  -0.128  1.00  0.00    -0.014 A 
BRANCH  41  42
ATOM     42  C   UNL     1       7.684  -3.395   0.460  1.00  0.00     0.031 A 
ATOM     43  C   UNL     1       8.599  -2.465  -0.289  1.00  0.00     0.074 A 
ATOM     44  C   UNL     1       8.043  -3.876   1.666  1.00  0.00     0.049 A 
ATOM     45  N   UNL     1       9.831  -2.123  -0.016  1.00  0.00    -0.248 NA
ATOM     46  C   UNL     1       8.060  -1.841  -1.510  1.00  0.00     0.031 C 
ATOM     47  C   UNL     1       7.217  -4.736   2.518  1.00  0.00     0.029 A 
ATOM     48  N   UNL     1       9.200  -3.712   2.386  1.00  0.00    -0.354 N 
ATOM     49  C   UNL     1      10.231  -1.286  -1.051  1.00  0.00     0.074 A 
ATOM     50  C   UNL     1       9.110  -1.167  -1.958  1.00  0.00     0.031 C 
ATOM     51  C   UNL     1       7.892  -5.019   3.644  1.00  0.00     0.029 A 
ATOM     52  C   UNL     1       9.218  -4.417   3.567  1.00  0.00     0.049 A 
ATOM     53  H   UNL     1       9.947  -3.145   2.085  1.00  0.00     0.167 HD
ATOM     54  C   UNL     1      11.427  -0.678  -1.228  1.00  0.00     0.031 A 
ATOM     55  C   UNL     1      10.206  -4.592   4.466  1.00  0.00     0.031 A 
ATOM     56  C   UNL     1      12.525  -0.777  -0.304  1.00  0.00     0.049 A 
ATOM     57  C   UNL     1      11.542  -3.944   4.216  1.00  0.00     0.074 A 
ATOM     58  C   UNL     1      13.770  -0.176  -0.382  1.00  0.00     0.029 A 
ATOM     59  N   UNL     1      12.510  -1.517   0.868  1.00  0.00    -0.354 N 
ATOM     60  N   UNL     1      11.906  -3.163   3.227  1.00  0.00    -0.248 NA
ATOM     61  C   UNL     1      12.601  -4.206   5.201  1.00  0.00     0.031 C 
ATOM     62  C   UNL     1      14.525  -0.593   0.720  1.00  0.00     0.029 A 
ATOM     63  C   UNL     1      13.731  -1.408   1.511  1.00  0.00     0.049 A 
ATOM     64  H   UNL     1      11.744  -2.042   1.195  1.00  0.00     0.167 HD
ATOM     65  C   UNL     1      13.229  -2.822   3.485  1.00  0.00     0.074 A 
ATOM     66  C   UNL     1      13.594  -3.466   4.729  1.00  0.00     0.031 C 
ATOM     67  C   UNL     1      14.069  -2.047   2.756  1.00  0.00     0.031 A 
BRANCH  54  68
ATOM     68  C   UNL     1      11.637   0.117  -2.489  1.00  0.00    -0.014 A 
ATOM     69  C   UNL     1      11.058   1.386  -2.662  1.00  0.00     0.010 A 
ATOM     70  C   UNL     1      12.498  -0.386  -3.482  1.00  0.00     0.010 A 
ATOM     71  C   UNL     1      11.324   2.130  -3.816  1.00  0.00     0.020 A 
ATOM     72  C   UNL     1      12.784   0.364  -4.626  1.00  0.00     0.020 A 
ATOM     73  C   UNL     1      12.188   1.616  -4.789  1.00  0.00     0.054 A 
BRANCH  73  74
ATOM     74  S   UNL     1      12.562   2.628  -6.247  1.00  0.00     0.124 S 
ATOM     75  O   UNL     1      11.316   2.537  -7.005  1.00  0.00    -0.237 OA
ATOM     76  O   UNL     1      12.848   3.937  -5.665  1.00  0.00    -0.237 OA
ATOM     77  O   UNL     1      13.709   1.955  -6.853  1.00  0.00    -0.744 OA
ENDBRANCH  73  74
ENDBRANCH  54  68
BRANCH  55  78
ATOM     78  C   UNL     1       9.997  -5.463   5.656  1.00  0.00    -0.014 A 
ATOM     79  C   UNL     1       9.987  -4.919   6.952  1.00  0.00     0.010 A 
ATOM     80  C   UNL     1       9.837  -6.852   5.497  1.00  0.00     0.010 A 
ATOM     81  C   UNL     1       9.857  -5.752   8.068  1.00  0.00     0.020 A 
ATOM     82  C   UNL     1       9.675  -7.684   6.608  1.00  0.00     0.020 A 
ATOM     83  C   UNL     1       9.706  -7.130   7.889  1.00  0.00     0.054 A 
BRANCH  83  84
ATOM     84  S   UNL     1       9.524  -8.193   9.347  1.00  0.00     0.124 S 
ATOM     85  O   UNL     1      10.896  -8.268   9.839  1.00  0.00    -0.237 OA
ATOM     86  O   UNL     1       8.593  -7.435  10.180  1.00  0.00    -0.237 OA
ATOM     87  O   UNL     1       8.986  -9.435   8.797  1.00  0.00    -0.744 OA
ENDBRANCH  83  84
ENDBRANCH  55  78
BRANCH  67  88
ATOM     88  C   UNL     1      15.447  -1.813   3.310  1.00  0.00    -0.014 A 
ATOM     89  C   UNL     1      16.424  -2.824   3.285  1.00  0.00     0.010 A 
ATOM     90  C   UNL     1      15.782  -0.544   3.816  1.00  0.00     0.010 A 
ATOM     91  C   UNL     1      17.704  -2.578   3.788  1.00  0.00     0.020 A 
ATOM     92  C   UNL     1      17.068  -0.287   4.295  1.00  0.00     0.020 A 
ATOM     93  C   UNL     1      18.017  -1.311   4.292  1.00  0.00     0.054 A 
BRANCH  93  94
ATOM     94  S   UNL     1      19.697  -1.002   4.901  1.00  0.00     0.124 S 
ATOM     95  O   UNL     1      19.682  -1.684   6.191  1.00  0.00    -0.237 OA
ATOM     96  O   UNL     1      20.531  -1.620   3.873  1.00  0.00    -0.237 OA
ATOM     97  O   UNL     1      19.779   0.455   4.966  1.00  0.00    -0.744 OA
ENDBRANCH  93  94
ENDBRANCH  67  88
ENDBRANCH  41  42
ENDBRANCH  34  36
ENDBRANCH  33  34
ENDBRANCH  32  33
ENDBRANCH   1  32
TORSDOF 17
