REMARK SMILES O=C(OCCOC(=O)c1cccnc1C(=O)Nc1ccc([N+](=O)[O-])cc1)c1ccc(-c2c3nc(c(-c4ccc(S(=O)(=O)[O-])cc4)c4ccc([nH]4)c(-c4ccc(S(=O)(=O)[O-])cc4)c4nc(c(-c5ccc(S(=O)(=O)[O-])cc5)c5ccc2[nH]5)C=C4)C=C3)cc1
REMARK SMILES IDX 4 1 3 2 2 3 1 4 27 5 28 6 86 7 29 8 85 9 30 10 31 11 32 12
REMARK SMILES IDX 79 13 33 14 84 15 78 16 80 17 34 18 83 19 77 20 76 21 35 23
REMARK SMILES IDX 65 24 46 25 64 26 47 27 50 28 63 29 81 30 48 31 49 32 62 34
REMARK SMILES IDX 82 35 51 36 36 37 37 38 45 39 38 40 44 41 39 42 40 43 41 44
REMARK SMILES IDX 42 45 43 46 66 47 67 48 75 49 68 50 74 51 69 52 70 53 71 54
REMARK SMILES IDX 72 55 73 56 52 57 53 58 61 59 54 60 60 61 55 62 56 63 57 64
REMARK SMILES IDX 58 65 59 66 5 67 6 68 7 69 8 70 9 71 10 72 14 73 11 74 13 75
REMARK SMILES IDX 12 76 15 77 16 78 17 79 18 81 19 82 26 83 20 84 25 85 21 86
REMARK SMILES IDX 22 87 23 88 24 89
REMARK H PARENT 80 22 50 33 17 80
REMARK Flexibility Score: inf
ROOT
ATOM      1  C   UNL     1       5.247  -0.510   0.340  1.00  0.00     0.275 C 
ENDROOT
BRANCH   1   2
ATOM      2  O   UNL     1       4.013  -0.160   1.010  1.00  0.00    -0.458 OA
BRANCH   2   3
ATOM      3  C   UNL     1       3.777   1.066   1.558  1.00  0.00     0.338 C 
ATOM      4  O   UNL     1       3.162   1.222   2.602  1.00  0.00    -0.246 OA
BRANCH   3   5
ATOM      5  C   UNL     1       4.110   2.202   0.678  1.00  0.00     0.060 A 
ATOM      6  C   UNL     1       5.439   2.497   0.381  1.00  0.00     0.016 A 
ATOM      7  C   UNL     1       3.066   2.889   0.047  1.00  0.00     0.016 A 
ATOM      8  C   UNL     1       5.723   3.344  -0.680  1.00  0.00     0.010 A 
ATOM      9  C   UNL     1       3.348   3.774  -0.992  1.00  0.00     0.010 A 
ATOM     10  C   UNL     1       4.679   3.985  -1.366  1.00  0.00    -0.014 A 
BRANCH  10  11
ATOM     11  C   UNL     1       5.045   5.123  -2.223  1.00  0.00     0.031 A 
ATOM     12  C   UNL     1       5.457   6.361  -1.497  1.00  0.00     0.074 A 
ATOM     13  C   UNL     1       5.126   5.034  -3.560  1.00  0.00     0.049 A 
ATOM     14  N   UNL     1       6.116   7.386  -1.953  1.00  0.00    -0.248 NA
ATOM     15  C   UNL     1       5.190   6.393  -0.047  1.00  0.00     0.031 C 
ATOM     16  C   UNL     1       4.861   3.837  -4.347  1.00  0.00     0.029 A 
ATOM     17  N   UNL     1       5.458   5.977  -4.494  1.00  0.00    -0.354 N 
ATOM     18  C   UNL     1       6.460   8.113  -0.825  1.00  0.00     0.074 A 
ATOM     19  C   UNL     1       5.884   7.454   0.323  1.00  0.00     0.031 C 
ATOM     20  C   UNL     1       4.941   4.138  -5.656  1.00  0.00     0.029 A 
ATOM     21  C   UNL     1       5.317   5.542  -5.790  1.00  0.00     0.049 A 
ATOM     22  H   UNL     1       5.769   6.881  -4.260  1.00  0.00     0.167 HD
ATOM     23  C   UNL     1       7.217   9.228  -0.759  1.00  0.00     0.031 A 
ATOM     24  C   UNL     1       5.481   6.219  -6.943  1.00  0.00     0.031 A 
ATOM     25  C   UNL     1       7.598   9.968  -1.921  1.00  0.00     0.049 A 
ATOM     26  C   UNL     1       6.043   7.614  -6.858  1.00  0.00     0.074 A 
ATOM     27  C   UNL     1       8.220  11.196  -2.003  1.00  0.00     0.029 A 
ATOM     28  N   UNL     1       7.313   9.564  -3.221  1.00  0.00    -0.354 N 
ATOM     29  N   UNL     1       6.431   8.272  -5.789  1.00  0.00    -0.248 NA
ATOM     30  C   UNL     1       6.233   8.341  -8.118  1.00  0.00     0.031 C 
ATOM     31  C   UNL     1       8.250  11.566  -3.353  1.00  0.00     0.029 A 
ATOM     32  C   UNL     1       7.701  10.540  -4.114  1.00  0.00     0.049 A 
ATOM     33  H   UNL     1       6.896   8.707  -3.466  1.00  0.00     0.167 HD
ATOM     34  C   UNL     1       6.965   9.468  -6.249  1.00  0.00     0.074 A 
ATOM     35  C   UNL     1       6.823   9.454  -7.694  1.00  0.00     0.031 C 
ATOM     36  C   UNL     1       7.545  10.473  -5.547  1.00  0.00     0.031 A 
BRANCH  23  37
ATOM     37  C   UNL     1       7.553   9.692   0.624  1.00  0.00    -0.014 A 
ATOM     38  C   UNL     1       8.525   9.005   1.379  1.00  0.00     0.010 A 
ATOM     39  C   UNL     1       6.777  10.688   1.235  1.00  0.00     0.010 A 
ATOM     40  C   UNL     1       8.665   9.262   2.744  1.00  0.00     0.020 A 
ATOM     41  C   UNL     1       6.923  10.955   2.598  1.00  0.00     0.020 A 
ATOM     42  C   UNL     1       7.844  10.218   3.349  1.00  0.00     0.054 A 
BRANCH  42  43
ATOM     43  S   UNL     1       7.965  10.463   5.142  1.00  0.00     0.124 S 
ATOM     44  O   UNL     1       7.256   9.292   5.652  1.00  0.00    -0.237 OA
ATOM     45  O   UNL     1       9.408  10.472   5.370  1.00  0.00    -0.237 OA
ATOM     46  O   UNL     1       7.295  11.743   5.360  1.00  0.00    -0.744 OA
ENDBRANCH  42  43
ENDBRANCH  23  37
BRANCH  24  47
ATOM     47  C   UNL     1       5.098   5.598  -8.240  1.00  0.00    -0.014 A 
ATOM     48  C   UNL     1       6.058   5.190  -9.181  1.00  0.00     0.010 A 
ATOM     49  C   UNL     1       3.733   5.408  -8.535  1.00  0.00     0.010 A 
ATOM     50  C   UNL     1       5.660   4.615 -10.396  1.00  0.00     0.020 A 
ATOM     51  C   UNL     1       3.333   4.821  -9.740  1.00  0.00     0.020 A 
ATOM     52  C   UNL     1       4.300   4.435 -10.668  1.00  0.00     0.054 A 
BRANCH  52  53
ATOM     53  S   UNL     1       3.809   3.653 -12.232  1.00  0.00     0.124 S 
ATOM     54  O   UNL     1       4.121   4.695 -13.205  1.00  0.00    -0.237 OA
ATOM     55  O   UNL     1       4.663   2.470 -12.273  1.00  0.00    -0.237 OA
ATOM     56  O   UNL     1       2.386   3.379 -12.043  1.00  0.00    -0.744 OA
ENDBRANCH  52  53
ENDBRANCH  24  47
BRANCH  36  57
ATOM     57  C   UNL     1       8.121  11.617  -6.327  1.00  0.00    -0.014 A 
ATOM     58  C   UNL     1       7.300  12.638  -6.829  1.00  0.00     0.010 A 
ATOM     59  C   UNL     1       9.520  11.733  -6.423  1.00  0.00     0.010 A 
ATOM     60  C   UNL     1       7.874  13.770  -7.410  1.00  0.00     0.020 A 
ATOM     61  C   UNL     1      10.095  12.872  -6.984  1.00  0.00     0.020 A 
ATOM     62  C   UNL     1       9.267  13.884  -7.474  1.00  0.00     0.054 A 
BRANCH  62  63
ATOM     63  S   UNL     1       9.992  15.416  -8.118  1.00  0.00     0.124 S 
ATOM     64  O   UNL     1       9.856  15.231  -9.560  1.00  0.00    -0.237 OA
ATOM     65  O   UNL     1       9.141  16.448  -7.532  1.00  0.00    -0.237 OA
ATOM     66  O   UNL     1      11.363  15.387  -7.611  1.00  0.00    -0.744 OA
ENDBRANCH  62  63
ENDBRANCH  36  57
ENDBRANCH  10  11
ENDBRANCH   3   5
ENDBRANCH   2   3
ENDBRANCH   1   2
BRANCH   1  67
ATOM     67  C   UNL     1       5.343  -0.160  -1.161  1.00  0.00     0.275 C 
BRANCH  67  68
ATOM     68  O   UNL     1       4.128   0.451  -1.637  1.00  0.00    -0.458 OA
BRANCH  68  69
ATOM     69  C   UNL     1       3.700   0.091  -2.871  1.00  0.00     0.340 C 
ATOM     70  O   UNL     1       4.290  -0.604  -3.662  1.00  0.00    -0.246 OA
BRANCH  69  71
ATOM     71  C   UNL     1       2.416   0.749  -3.151  1.00  0.00     0.091 A 
ATOM     72  C   UNL     1       2.397   1.472  -4.357  1.00  0.00     0.020 A 
ATOM     73  C   UNL     1       1.311   0.831  -2.311  1.00  0.00     0.142 A 
ATOM     74  C   UNL     1       1.379   2.377  -4.619  1.00  0.00     0.021 A 
ATOM     75  N   UNL     1       0.288   1.709  -2.586  1.00  0.00    -0.250 NA
ATOM     76  C   UNL     1       0.366   2.482  -3.692  1.00  0.00     0.112 A 
BRANCH  73  77
ATOM     77  C   UNL     1       1.050   0.123  -0.995  1.00  0.00     0.275 C 
ATOM     78  O   UNL     1       0.788   0.814  -0.006  1.00  0.00    -0.267 OA
ATOM     79  N   UNL     1       0.657  -1.208  -0.943  1.00  0.00    -0.321 N 
ATOM     80  H   UNL     1      -0.266  -1.353  -0.631  1.00  0.00     0.170 HD
BRANCH  79  81
ATOM     81  C   UNL     1       1.357  -2.380  -1.261  1.00  0.00     0.042 A 
ATOM     82  C   UNL     1       0.726  -3.621  -1.233  1.00  0.00     0.033 A 
ATOM     83  C   UNL     1       2.723  -2.366  -1.455  1.00  0.00     0.033 A 
ATOM     84  C   UNL     1       1.452  -4.792  -1.523  1.00  0.00     0.088 A 
ATOM     85  C   UNL     1       3.462  -3.487  -1.811  1.00  0.00     0.088 A 
ATOM     86  C   UNL     1       2.814  -4.710  -1.851  1.00  0.00     0.269 A 
BRANCH  86  87
ATOM     87  N   UNL     1       3.588  -5.910  -2.173  1.00  0.00     0.062 N 
ATOM     88  O   UNL     1       3.075  -7.008  -1.917  1.00  0.00    -0.258 OA
ATOM     89  O   UNL     1       4.714  -5.756  -2.667  1.00  0.00    -0.258 OA
ENDBRANCH  86  87
ENDBRANCH  79  81
ENDBRANCH  73  77
ENDBRANCH  69  71
ENDBRANCH  68  69
ENDBRANCH  67  68
ENDBRANCH   1  67
TORSDOF 17
