REMARK SMILES Cn1ncc(C(=O)OCCOC(=O)c2ccc(-c3c4nc(c(-c5ccc(S(=O)(=O)[O-])cc5)c5ccc([nH]5)c(-c5ccc(S(=O)(=O)[O-])cc5)c5nc(c(-c6ccc(S(=O)(=O)[O-])cc6)c6ccc3[nH]6)C=C5)C=C4)cc2)c1C(=O)Nc1ccccn1
REMARK SMILES IDX 10 1 9 2 8 3 6 4 7 5 5 6 1 7 2 8 3 9 74 10 4 11 75 12 76 13
REMARK SMILES IDX 77 14 78 16 79 17 83 18 80 19 82 20 81 21 11 22 12 23 13 24
REMARK SMILES IDX 14 25 15 26 73 27 16 28 72 29 17 30 18 31 19 32 66 33 20 34
REMARK SMILES IDX 71 35 65 36 67 37 21 38 70 39 64 40 63 41 22 43 52 44 33 45
REMARK SMILES IDX 51 46 34 47 37 48 50 49 68 50 35 51 36 52 49 54 69 55 38 56
REMARK SMILES IDX 23 57 24 58 32 59 25 60 31 61 26 62 27 63 28 64 29 65 30 66
REMARK SMILES IDX 53 67 54 68 62 69 55 70 61 71 56 72 57 73 58 74 59 75 60 76
REMARK SMILES IDX 39 77 40 78 48 79 41 80 47 81 42 82 43 83 44 84 45 85 46 86
REMARK H PARENT 77 15 67 42 37 53
REMARK Flexibility Score: inf
ROOT
ATOM      1  C   UNL     1       4.572  -3.225  -1.376  1.00  0.00     0.275 C 
ENDROOT
BRANCH   1   2
ATOM      2  C   UNL     1       3.638  -3.500  -0.198  1.00  0.00     0.275 C 
BRANCH   2   3
ATOM      3  O   UNL     1       2.429  -2.721  -0.308  1.00  0.00    -0.458 OA
BRANCH   3   4
ATOM      4  C   UNL     1       2.321  -1.675   0.556  1.00  0.00     0.342 C 
ATOM      5  O   UNL     1       3.183  -1.367   1.376  1.00  0.00    -0.246 OA
BRANCH   4   6
ATOM      6  C   UNL     1       1.139  -0.852   0.372  1.00  0.00     0.111 A 
ATOM      7  C   UNL     1      -2.029   0.309   1.311  1.00  0.00     0.174 C 
ATOM      8  N   UNL     1      -0.858  -0.006   0.523  1.00  0.00    -0.262 N 
ATOM      9  N   UNL     1      -0.091   1.055   0.230  1.00  0.00    -0.180 NA
ATOM     10  C   UNL     1      -0.215  -1.219   0.327  1.00  0.00     0.140 A 
ATOM     11  C   UNL     1       1.133   0.558   0.338  1.00  0.00     0.151 A 
BRANCH  10  12
ATOM     12  C   UNL     1      -0.741  -2.572   0.360  1.00  0.00     0.275 C 
ATOM     13  O   UNL     1      -0.021  -3.530   0.659  1.00  0.00    -0.267 OA
ATOM     14  N   UNL     1      -2.063  -2.882   0.174  1.00  0.00    -0.305 N 
ATOM     15  H   UNL     1      -2.271  -3.832   0.332  1.00  0.00     0.171 HD
BRANCH  14  16
ATOM     16  C   UNL     1      -3.163  -2.128  -0.192  1.00  0.00     0.132 A 
ATOM     17  C   UNL     1      -3.160  -1.224  -1.243  1.00  0.00     0.047 A 
ATOM     18  N   UNL     1      -4.215  -2.293   0.637  1.00  0.00    -0.239 NA
ATOM     19  C   UNL     1      -4.264  -0.383  -1.386  1.00  0.00     0.005 A 
ATOM     20  C   UNL     1      -5.245  -1.432   0.510  1.00  0.00     0.113 A 
ATOM     21  C   UNL     1      -5.309  -0.459  -0.469  1.00  0.00     0.020 A 
ENDBRANCH  14  16
ENDBRANCH  10  12
ENDBRANCH   4   6
ENDBRANCH   3   4
ENDBRANCH   2   3
ENDBRANCH   1   2
BRANCH   1  22
ATOM     22  O   UNL     1       5.053  -1.868  -1.334  1.00  0.00    -0.458 OA
BRANCH  22  23
ATOM     23  C   UNL     1       4.446  -1.022  -2.200  1.00  0.00     0.338 C 
ATOM     24  O   UNL     1       3.590  -1.291  -3.021  1.00  0.00    -0.246 OA
BRANCH  23  25
ATOM     25  C   UNL     1       4.894   0.357  -1.952  1.00  0.00     0.060 A 
ATOM     26  C   UNL     1       4.342   1.033  -0.873  1.00  0.00     0.016 A 
ATOM     27  C   UNL     1       5.682   1.040  -2.872  1.00  0.00     0.016 A 
ATOM     28  C   UNL     1       4.436   2.418  -0.788  1.00  0.00     0.010 A 
ATOM     29  C   UNL     1       5.901   2.415  -2.698  1.00  0.00     0.010 A 
ATOM     30  C   UNL     1       5.240   3.134  -1.683  1.00  0.00    -0.014 A 
BRANCH  30  31
ATOM     31  C   UNL     1       5.368   4.619  -1.562  1.00  0.00     0.031 A 
ATOM     32  C   UNL     1       5.076   5.511  -2.746  1.00  0.00     0.074 A 
ATOM     33  C   UNL     1       5.736   5.181  -0.390  1.00  0.00     0.049 A 
ATOM     34  N   UNL     1       5.308   6.792  -2.894  1.00  0.00    -0.248 NA
ATOM     35  C   UNL     1       4.459   4.879  -3.924  1.00  0.00     0.031 C 
ATOM     36  C   UNL     1       5.997   4.459   0.859  1.00  0.00     0.029 A 
ATOM     37  N   UNL     1       5.950   6.497  -0.052  1.00  0.00    -0.354 N 
ATOM     38  C   UNL     1       4.924   7.104  -4.195  1.00  0.00     0.074 A 
ATOM     39  C   UNL     1       4.454   5.876  -4.799  1.00  0.00     0.031 C 
ATOM     40  C   UNL     1       6.286   5.337   1.829  1.00  0.00     0.029 A 
ATOM     41  C   UNL     1       6.346   6.674   1.254  1.00  0.00     0.049 A 
ATOM     42  H   UNL     1       5.831   7.242  -0.685  1.00  0.00     0.167 HD
ATOM     43  C   UNL     1       4.962   8.302  -4.829  1.00  0.00     0.031 A 
ATOM     44  C   UNL     1       6.768   7.771   1.913  1.00  0.00     0.031 A 
ATOM     45  C   UNL     1       5.392   9.530  -4.209  1.00  0.00     0.049 A 
ATOM     46  C   UNL     1       6.861   9.074   1.173  1.00  0.00     0.074 A 
ATOM     47  C   UNL     1       5.451  10.797  -4.763  1.00  0.00     0.029 A 
ATOM     48  N   UNL     1       5.825   9.648  -2.897  1.00  0.00    -0.354 N 
ATOM     49  N   UNL     1       6.537   9.340  -0.070  1.00  0.00    -0.248 NA
ATOM     50  C   UNL     1       7.391  10.223   1.919  1.00  0.00     0.031 C 
ATOM     51  C   UNL     1       5.974  11.671  -3.804  1.00  0.00     0.029 A 
ATOM     52  C   UNL     1       6.178  10.961  -2.631  1.00  0.00     0.049 A 
ATOM     53  H   UNL     1       5.875   8.908  -2.250  1.00  0.00     0.167 HD
ATOM     54  C   UNL     1       6.807  10.691  -0.249  1.00  0.00     0.074 A 
ATOM     55  C   UNL     1       7.298  11.192   1.019  1.00  0.00     0.031 C 
ATOM     56  C   UNL     1       6.665  11.447  -1.365  1.00  0.00     0.031 A 
BRANCH  43  57
ATOM     57  C   UNL     1       4.568   8.343  -6.285  1.00  0.00    -0.014 A 
ATOM     58  C   UNL     1       3.233   8.177  -6.697  1.00  0.00     0.010 A 
ATOM     59  C   UNL     1       5.552   8.605  -7.258  1.00  0.00     0.010 A 
ATOM     60  C   UNL     1       2.899   8.232  -8.054  1.00  0.00     0.020 A 
ATOM     61  C   UNL     1       5.217   8.693  -8.612  1.00  0.00     0.020 A 
ATOM     62  C   UNL     1       3.893   8.488  -9.004  1.00  0.00     0.054 A 
BRANCH  62  63
ATOM     63  S   UNL     1       3.426   8.579 -10.755  1.00  0.00     0.124 S 
ATOM     64  O   UNL     1       3.140   7.179 -11.063  1.00  0.00    -0.237 OA
ATOM     65  O   UNL     1       2.265   9.465 -10.731  1.00  0.00    -0.237 OA
ATOM     66  O   UNL     1       4.613   9.129 -11.405  1.00  0.00    -0.744 OA
ENDBRANCH  62  63
ENDBRANCH  43  57
BRANCH  44  67
ATOM     67  C   UNL     1       7.198   7.666   3.337  1.00  0.00    -0.014 A 
ATOM     68  C   UNL     1       6.467   8.298   4.357  1.00  0.00     0.010 A 
ATOM     69  C   UNL     1       8.342   6.920   3.680  1.00  0.00     0.010 A 
ATOM     70  C   UNL     1       6.880   8.199   5.690  1.00  0.00     0.020 A 
ATOM     71  C   UNL     1       8.737   6.788   5.013  1.00  0.00     0.020 A 
ATOM     72  C   UNL     1       8.011   7.441   6.010  1.00  0.00     0.054 A 
BRANCH  72  73
ATOM     73  S   UNL     1       8.500   7.287   7.750  1.00  0.00     0.124 S 
ATOM     74  O   UNL     1       9.043   8.612   8.031  1.00  0.00    -0.237 OA
ATOM     75  O   UNL     1       7.234   6.968   8.406  1.00  0.00    -0.237 OA
ATOM     76  O   UNL     1       9.476   6.200   7.736  1.00  0.00    -0.744 OA
ENDBRANCH  72  73
ENDBRANCH  44  67
BRANCH  56  77
ATOM     77  C   UNL     1       7.011  12.909  -1.256  1.00  0.00    -0.014 A 
ATOM     78  C   UNL     1       8.345  13.337  -1.141  1.00  0.00     0.010 A 
ATOM     79  C   UNL     1       5.984  13.869  -1.316  1.00  0.00     0.010 A 
ATOM     80  C   UNL     1       8.643  14.700  -1.055  1.00  0.00     0.020 A 
ATOM     81  C   UNL     1       6.281  15.233  -1.262  1.00  0.00     0.020 A 
ATOM     82  C   UNL     1       7.609  15.639  -1.117  1.00  0.00     0.054 A 
BRANCH  82  83
ATOM     83  S   UNL     1       8.027  17.402  -1.049  1.00  0.00     0.124 S 
ATOM     84  O   UNL     1       8.403  17.572   0.351  1.00  0.00    -0.237 OA
ATOM     85  O   UNL     1       9.122  17.509  -2.011  1.00  0.00    -0.237 OA
ATOM     86  O   UNL     1       6.789  18.069  -1.447  1.00  0.00    -0.744 OA
ENDBRANCH  82  83
ENDBRANCH  56  77
ENDBRANCH  30  31
ENDBRANCH  23  25
ENDBRANCH  22  23
ENDBRANCH   1  22
TORSDOF 16
