REMARK SMILES CC[C@@H](C)c1ccccc1NC(=O)[C@@H]1[C@@H](C(=O)OCCOC(=O)c2ccc(-c3c4nc(c(-c5ccc(S(=O)(=O)[O-])cc5)c5ccc([nH]5)c(-c5ccc(S(=O)(=O)[O-])cc5)c5nc(c(-c6ccc(S(=O)(=O)[O-])cc6)c6ccc3[nH]6)C=C5)C=C4)cc2)[C@@H]2C=C[C@H]1C2
REMARK SMILES IDX 19 1 18 2 16 3 17 4 15 5 14 6 87 7 84 8 86 9 88 10 85 11
REMARK SMILES IDX 12 12 11 13 13 15 10 16 5 17 6 18 7 19 9 20 8 21 3 22 4 23
REMARK SMILES IDX 2 24 1 25 20 26 21 27 22 28 23 29 24 30 25 31 83 32 26 33
REMARK SMILES IDX 82 34 27 35 28 36 29 37 76 38 30 39 81 40 75 41 77 42 31 43
REMARK SMILES IDX 80 44 74 45 73 46 32 48 62 49 43 50 61 51 44 52 47 53 60 54
REMARK SMILES IDX 78 55 45 56 46 57 59 59 79 60 48 61 33 62 34 63 42 64 35 65
REMARK SMILES IDX 41 66 36 67 37 68 38 69 39 70 40 71 63 72 64 73 72 74 65 75
REMARK SMILES IDX 71 76 66 77 67 78 68 79 69 80 70 81 49 82 50 83 58 84 51 85
REMARK SMILES IDX 57 86 52 87 53 88 54 89 55 90 56 91
REMARK H PARENT 11 14 77 47 47 58
REMARK Flexibility Score: inf
ROOT
ATOM      1  C   UNL     1       0.066  -6.622   7.521  1.00  0.00     0.274 C 
ENDROOT
BRANCH   1   2
ATOM      2  O   UNL     1       0.049  -5.267   7.027  1.00  0.00    -0.462 OA
BRANCH   2   3
ATOM      3  C   UNL     1      -0.397  -5.119   5.751  1.00  0.00     0.310 C 
ATOM      4  O   UNL     1      -0.648  -6.048   4.993  1.00  0.00    -0.252 OA
BRANCH   3   5
ATOM      5  C   UNL     1      -0.686  -3.680   5.394  1.00  0.00     0.119 C 
ATOM      6  C   UNL     1       0.485  -2.652   5.643  1.00  0.00     0.100 C 
ATOM      7  C   UNL     1      -0.272  -1.558   6.441  1.00  0.00     0.025 C 
ATOM      8  C   UNL     1      -1.850  -3.107   6.244  1.00  0.00     0.027 C 
ATOM      9  C   UNL     1      -1.395  -0.953   5.630  1.00  0.00    -0.027 C 
ATOM     10  C   UNL     1      -1.121  -2.413   7.385  1.00  0.00     0.017 C 
ATOM     11  C   UNL     1      -2.354  -1.883   5.522  1.00  0.00    -0.027 C 
BRANCH   6  12
ATOM     12  C   UNL     1       1.208  -2.409   4.304  1.00  0.00     0.228 C 
ATOM     13  N   UNL     1       1.592  -1.210   3.782  1.00  0.00    -0.326 N 
ATOM     14  H   UNL     1       2.000  -1.266   2.888  1.00  0.00     0.169 HD
ATOM     15  O   UNL     1       1.490  -3.401   3.614  1.00  0.00    -0.274 OA
BRANCH  13  16
ATOM     16  C   UNL     1       1.507   0.086   4.299  1.00  0.00     0.044 A 
ATOM     17  C   UNL     1       1.065   1.167   3.502  1.00  0.00    -0.022 A 
ATOM     18  C   UNL     1       0.689   2.339   4.194  1.00  0.00     0.006 A 
ATOM     19  C   UNL     1       0.914   2.495   5.563  1.00  0.00     0.000 A 
ATOM     20  C   UNL     1       1.870   0.302   5.632  1.00  0.00     0.026 A 
ATOM     21  C   UNL     1       1.569   1.501   6.270  1.00  0.00     0.002 A 
BRANCH  17  22
ATOM     22  C   UNL     1       1.111   1.160   1.962  1.00  0.00     0.018 C 
ATOM     23  C   UNL     1       0.911   2.561   1.338  1.00  0.00     0.013 C 
BRANCH  22  24
ATOM     24  C   UNL     1       0.188   0.152   1.237  1.00  0.00     0.005 C 
ATOM     25  C   UNL     1       0.551   0.007  -0.244  1.00  0.00     0.004 C 
ENDBRANCH  22  24
ENDBRANCH  17  22
ENDBRANCH  13  16
ENDBRANCH   6  12
ENDBRANCH   3   5
ENDBRANCH   2   3
ENDBRANCH   1   2
BRANCH   1  26
ATOM     26  C   UNL     1      -1.223  -6.910   8.289  1.00  0.00     0.275 C 
BRANCH  26  27
ATOM     27  O   UNL     1      -2.348  -6.804   7.399  1.00  0.00    -0.458 OA
BRANCH  27  28
ATOM     28  C   UNL     1      -3.454  -6.229   7.925  1.00  0.00     0.338 C 
ATOM     29  O   UNL     1      -3.600  -5.845   9.072  1.00  0.00    -0.246 OA
BRANCH  28  30
ATOM     30  C   UNL     1      -4.513  -6.119   6.899  1.00  0.00     0.060 A 
ATOM     31  C   UNL     1      -4.240  -5.611   5.626  1.00  0.00     0.016 A 
ATOM     32  C   UNL     1      -5.827  -6.418   7.261  1.00  0.00     0.016 A 
ATOM     33  C   UNL     1      -5.287  -5.297   4.761  1.00  0.00     0.010 A 
ATOM     34  C   UNL     1      -6.862  -6.212   6.346  1.00  0.00     0.010 A 
ATOM     35  C   UNL     1      -6.610  -5.613   5.100  1.00  0.00    -0.014 A 
BRANCH  35  36
ATOM     36  C   UNL     1      -7.730  -5.321   4.164  1.00  0.00     0.031 A 
ATOM     37  C   UNL     1      -8.869  -4.429   4.592  1.00  0.00     0.074 A 
ATOM     38  C   UNL     1      -7.741  -5.873   2.934  1.00  0.00     0.049 A 
ATOM     39  N   UNL     1     -10.009  -4.199   3.991  1.00  0.00    -0.248 NA
ATOM     40  C   UNL     1      -8.711  -3.713   5.869  1.00  0.00     0.031 C 
ATOM     41  C   UNL     1      -6.691  -6.731   2.377  1.00  0.00     0.029 A 
ATOM     42  N   UNL     1      -8.672  -5.798   1.928  1.00  0.00    -0.354 N 
ATOM     43  C   UNL     1     -10.725  -3.359   4.837  1.00  0.00     0.074 A 
ATOM     44  C   UNL     1      -9.891  -3.122   5.997  1.00  0.00     0.031 C 
ATOM     45  C   UNL     1      -7.020  -7.073   1.123  1.00  0.00     0.029 A 
ATOM     46  C   UNL     1      -8.337  -6.531   0.814  1.00  0.00     0.049 A 
ATOM     47  H   UNL     1      -9.499  -5.269   1.997  1.00  0.00     0.167 HD
ATOM     48  C   UNL     1     -11.964  -2.837   4.667  1.00  0.00     0.031 A 
ATOM     49  C   UNL     1      -9.024  -6.775  -0.318  1.00  0.00     0.031 A 
ATOM     50  C   UNL     1     -12.777  -3.050   3.498  1.00  0.00     0.049 A 
ATOM     51  C   UNL     1     -10.399  -6.196  -0.479  1.00  0.00     0.074 A 
ATOM     52  C   UNL     1     -14.045  -2.562   3.229  1.00  0.00     0.029 A 
ATOM     53  N   UNL     1     -12.397  -3.800   2.396  1.00  0.00    -0.354 N 
ATOM     54  N   UNL     1     -11.078  -5.444   0.353  1.00  0.00    -0.248 NA
ATOM     55  C   UNL     1     -11.104  -6.504  -1.731  1.00  0.00     0.031 C 
ATOM     56  C   UNL     1     -14.442  -3.041   1.975  1.00  0.00     0.029 A 
ATOM     57  C   UNL     1     -13.404  -3.790   1.446  1.00  0.00     0.049 A 
ATOM     58  H   UNL     1     -11.537  -4.270   2.302  1.00  0.00     0.167 HD
ATOM     59  C   UNL     1     -12.284  -5.173  -0.282  1.00  0.00     0.074 A 
ATOM     60  C   UNL     1     -12.234  -5.829  -1.573  1.00  0.00     0.031 C 
ATOM     61  C   UNL     1     -13.337  -4.447   0.165  1.00  0.00     0.031 A 
BRANCH  48  62
ATOM     62  C   UNL     1     -12.532  -2.011   5.791  1.00  0.00    -0.014 A 
ATOM     63  C   UNL     1     -12.070  -0.709   6.052  1.00  0.00     0.010 A 
ATOM     64  C   UNL     1     -13.570  -2.540   6.582  1.00  0.00     0.010 A 
ATOM     65  C   UNL     1     -12.608   0.034   7.107  1.00  0.00     0.020 A 
ATOM     66  C   UNL     1     -14.127  -1.791   7.623  1.00  0.00     0.020 A 
ATOM     67  C   UNL     1     -13.628  -0.515   7.891  1.00  0.00     0.054 A 
BRANCH  67  68
ATOM     68  S   UNL     1     -14.319   0.472   9.248  1.00  0.00     0.124 S 
ATOM     69  O   UNL     1     -13.278   0.353  10.266  1.00  0.00    -0.237 OA
ATOM     70  O   UNL     1     -14.459   1.796   8.647  1.00  0.00    -0.237 OA
ATOM     71  O   UNL     1     -15.576  -0.202   9.561  1.00  0.00    -0.744 OA
ENDBRANCH  67  68
ENDBRANCH  48  62
BRANCH  49  72
ATOM     72  C   UNL     1      -8.425  -7.636  -1.372  1.00  0.00    -0.014 A 
ATOM     73  C   UNL     1      -7.976  -7.077  -2.580  1.00  0.00     0.010 A 
ATOM     74  C   UNL     1      -8.271  -9.018  -1.157  1.00  0.00     0.010 A 
ATOM     75  C   UNL     1      -7.393  -7.885  -3.560  1.00  0.00     0.020 A 
ATOM     76  C   UNL     1      -7.664  -9.825  -2.123  1.00  0.00     0.020 A 
ATOM     77  C   UNL     1      -7.239  -9.255  -3.324  1.00  0.00     0.054 A 
BRANCH  77  78
ATOM     78  S   UNL     1      -6.423 -10.278  -4.581  1.00  0.00     0.124 S 
ATOM     79  O   UNL     1      -7.492 -10.471  -5.555  1.00  0.00    -0.237 OA
ATOM     80  O   UNL     1      -5.316  -9.429  -5.016  1.00  0.00    -0.237 OA
ATOM     81  O   UNL     1      -6.025 -11.473  -3.840  1.00  0.00    -0.744 OA
ENDBRANCH  77  78
ENDBRANCH  49  72
BRANCH  61  82
ATOM     82  C   UNL     1     -14.502  -4.288  -0.771  1.00  0.00    -0.014 A 
ATOM     83  C   UNL     1     -15.402  -5.344  -1.001  1.00  0.00     0.010 A 
ATOM     84  C   UNL     1     -14.712  -3.052  -1.409  1.00  0.00     0.010 A 
ATOM     85  C   UNL     1     -16.472  -5.177  -1.884  1.00  0.00     0.020 A 
ATOM     86  C   UNL     1     -15.793  -2.876  -2.276  1.00  0.00     0.020 A 
ATOM     87  C   UNL     1     -16.657  -3.946  -2.521  1.00  0.00     0.054 A 
BRANCH  87  88
ATOM     88  S   UNL     1     -18.066  -3.741  -3.644  1.00  0.00     0.124 S 
ATOM     89  O   UNL     1     -17.590  -4.411  -4.851  1.00  0.00    -0.237 OA
ATOM     90  O   UNL     1     -19.148  -4.418  -2.934  1.00  0.00    -0.237 OA
ATOM     91  O   UNL     1     -18.212  -2.291  -3.752  1.00  0.00    -0.744 OA
ENDBRANCH  87  88
ENDBRANCH  61  82
ENDBRANCH  35  36
ENDBRANCH  28  30
ENDBRANCH  27  28
ENDBRANCH  26  27
ENDBRANCH   1  26
TORSDOF 18
