REMARK SMILES N#Cc1ccc(/C=C/C(=O)N[C@H]2C=C[C@H](C(=O)OCCOC(=O)c3ccc(-c4c5nc(c(-c6ccc(S(=O)(=O)[O-])cc6)c6ccc([nH]6)c(-c6ccc(S(=O)(=O)[O-])cc6)c6nc(c(-c7ccc(S(=O)(=O)[O-])cc7)c7ccc4[nH]7)C=C6)C=C5)cc3)C2)cc1
REMARK SMILES IDX 19 1 18 2 16 3 17 4 15 5 12 6 13 7 84 8 14 9 11 10 9 11
REMARK SMILES IDX 10 12 8 14 7 15 6 16 3 17 4 18 86 19 5 20 85 21 2 22 1 23
REMARK SMILES IDX 20 24 21 25 22 26 23 27 24 28 25 29 83 30 26 31 82 32 27 33
REMARK SMILES IDX 28 34 29 35 76 36 30 37 81 38 75 39 77 40 31 41 80 42 74 43
REMARK SMILES IDX 73 44 32 46 62 47 43 48 61 49 44 50 47 51 60 52 78 53 45 54
REMARK SMILES IDX 46 55 59 57 79 58 48 59 33 60 34 61 42 62 35 63 41 64 36 65
REMARK SMILES IDX 37 66 38 67 39 68 40 69 63 70 64 71 72 72 65 73 71 74 66 75
REMARK SMILES IDX 67 76 68 77 69 78 70 79 49 80 50 81 58 82 51 83 57 84 52 85
REMARK SMILES IDX 53 86 54 87 55 88 56 89
REMARK H PARENT 11 13 77 45 47 56
REMARK Flexibility Score: inf
ROOT
ATOM      1  C   UNL     1       2.022  -4.675   2.240  1.00  0.00     0.274 C 
ENDROOT
BRANCH   1   2
ATOM      2  O   UNL     1       3.440  -4.614   2.533  1.00  0.00    -0.462 OA
BRANCH   2   3
ATOM      3  C   UNL     1       4.169  -3.964   1.589  1.00  0.00     0.312 C 
ATOM      4  O   UNL     1       3.645  -3.444   0.610  1.00  0.00    -0.252 OA
BRANCH   3   5
ATOM      5  C   UNL     1       5.700  -3.979   1.853  1.00  0.00     0.124 C 
ATOM      6  C   UNL     1       6.204  -2.124   0.478  1.00  0.00     0.106 C 
ATOM      7  C   UNL     1       6.748  -3.356  -0.169  1.00  0.00    -0.006 C 
ATOM      8  C   UNL     1       6.300  -2.560   1.940  1.00  0.00     0.048 C 
ATOM      9  C   UNL     1       6.430  -4.418   0.595  1.00  0.00    -0.014 C 
BRANCH   6  10
ATOM     10  N   UNL     1       6.822  -0.929   0.029  1.00  0.00    -0.346 N 
ATOM     11  C   UNL     1       6.176   0.101  -0.609  1.00  0.00     0.244 C 
ATOM     12  O   UNL     1       6.837   1.044  -1.037  1.00  0.00    -0.270 OA
ATOM     13  H   UNL     1       7.789  -0.831   0.187  1.00  0.00     0.164 HD
BRANCH  11  14
ATOM     14  C   UNL     1       4.675   0.217  -0.541  1.00  0.00     0.072 C 
ATOM     15  C   UNL     1       3.633  -0.557  -0.908  1.00  0.00     0.014 C 
BRANCH  15  16
ATOM     16  C   UNL     1       2.155  -0.419  -0.624  1.00  0.00    -0.025 A 
ATOM     17  C   UNL     1      -0.693  -0.382  -0.186  1.00  0.00     0.052 A 
ATOM     18  C   UNL     1       0.057   0.764  -0.015  1.00  0.00     0.020 A 
ATOM     19  C   UNL     1      -0.030  -1.556  -0.545  1.00  0.00     0.020 A 
ATOM     20  C   UNL     1       1.448   0.717  -0.199  1.00  0.00     0.009 A 
ATOM     21  C   UNL     1       1.362  -1.563  -0.777  1.00  0.00     0.009 A 
BRANCH  17  22
ATOM     22  C   UNL     1      -2.105  -0.351   0.034  1.00  0.00     0.099 C 
ATOM     23  N   UNL     1      -3.254  -0.319   0.228  1.00  0.00    -0.192 NA
ENDBRANCH  17  22
ENDBRANCH  15  16
ENDBRANCH  11  14
ENDBRANCH   6  10
ENDBRANCH   3   5
ENDBRANCH   2   3
ENDBRANCH   1   2
BRANCH   1  24
ATOM     24  C   UNL     1       1.186  -3.750   3.137  1.00  0.00     0.275 C 
BRANCH  24  25
ATOM     25  O   UNL     1       1.338  -2.341   2.836  1.00  0.00    -0.458 OA
BRANCH  25  26
ATOM     26  C   UNL     1       2.283  -1.698   3.565  1.00  0.00     0.338 C 
ATOM     27  O   UNL     1       3.024  -2.223   4.384  1.00  0.00    -0.246 OA
BRANCH  26  28
ATOM     28  C   UNL     1       2.486  -0.292   3.131  1.00  0.00     0.060 A 
ATOM     29  C   UNL     1       3.755  -0.004   2.649  1.00  0.00     0.016 A 
ATOM     30  C   UNL     1       1.594   0.766   3.281  1.00  0.00     0.016 A 
ATOM     31  C   UNL     1       4.160   1.283   2.305  1.00  0.00     0.010 A 
ATOM     32  C   UNL     1       1.970   2.069   2.846  1.00  0.00     0.010 A 
ATOM     33  C   UNL     1       3.243   2.328   2.290  1.00  0.00    -0.014 A 
BRANCH  33  34
ATOM     34  C   UNL     1       3.727   3.676   1.842  1.00  0.00     0.031 A 
ATOM     35  C   UNL     1       4.255   4.574   2.922  1.00  0.00     0.074 A 
ATOM     36  C   UNL     1       3.853   4.080   0.549  1.00  0.00     0.049 A 
ATOM     37  N   UNL     1       4.684   5.802   2.831  1.00  0.00    -0.248 NA
ATOM     38  C   UNL     1       4.316   4.006   4.281  1.00  0.00     0.031 C 
ATOM     39  C   UNL     1       3.569   3.301  -0.643  1.00  0.00     0.029 A 
ATOM     40  N   UNL     1       4.299   5.264  -0.009  1.00  0.00    -0.354 N 
ATOM     41  C   UNL     1       5.027   6.171   4.122  1.00  0.00     0.074 A 
ATOM     42  C   UNL     1       4.762   5.038   4.980  1.00  0.00     0.031 C 
ATOM     43  C   UNL     1       3.863   3.959  -1.761  1.00  0.00     0.029 A 
ATOM     44  C   UNL     1       4.271   5.284  -1.395  1.00  0.00     0.049 A 
ATOM     45  H   UNL     1       4.609   6.026   0.531  1.00  0.00     0.167 HD
ATOM     46  C   UNL     1       5.500   7.363   4.548  1.00  0.00     0.031 A 
ATOM     47  C   UNL     1       4.498   6.235  -2.318  1.00  0.00     0.031 A 
ATOM     48  C   UNL     1       5.733   8.485   3.679  1.00  0.00     0.049 A 
ATOM     49  C   UNL     1       4.889   7.574  -1.811  1.00  0.00     0.074 A 
ATOM     50  C   UNL     1       6.158   9.756   4.019  1.00  0.00     0.029 A 
ATOM     51  N   UNL     1       5.557   8.477   2.301  1.00  0.00    -0.354 N 
ATOM     52  N   UNL     1       5.119   7.929  -0.572  1.00  0.00    -0.248 NA
ATOM     53  C   UNL     1       5.041   8.640  -2.802  1.00  0.00     0.031 C 
ATOM     54  C   UNL     1       6.164  10.537   2.861  1.00  0.00     0.029 A 
ATOM     55  C   UNL     1       5.830   9.733   1.783  1.00  0.00     0.049 A 
ATOM     56  H   UNL     1       5.280   7.696   1.771  1.00  0.00     0.167 HD
ATOM     57  C   UNL     1       5.464   9.264  -0.631  1.00  0.00     0.074 A 
ATOM     58  C   UNL     1       5.436   9.643  -2.032  1.00  0.00     0.031 C 
ATOM     59  C   UNL     1       5.774  10.096   0.389  1.00  0.00     0.031 A 
BRANCH  46  60
ATOM     60  C   UNL     1       5.680   7.530   6.031  1.00  0.00    -0.014 A 
ATOM     61  C   UNL     1       6.680   6.846   6.744  1.00  0.00     0.010 A 
ATOM     62  C   UNL     1       4.807   8.388   6.725  1.00  0.00     0.010 A 
ATOM     63  C   UNL     1       6.778   6.987   8.130  1.00  0.00     0.020 A 
ATOM     64  C   UNL     1       4.925   8.560   8.105  1.00  0.00     0.020 A 
ATOM     65  C   UNL     1       5.900   7.845   8.801  1.00  0.00     0.054 A 
BRANCH  65  66
ATOM     66  S   UNL     1       6.064   8.027  10.597  1.00  0.00     0.124 S 
ATOM     67  O   UNL     1       5.613   6.722  11.075  1.00  0.00    -0.237 OA
ATOM     68  O   UNL     1       7.490   8.297  10.759  1.00  0.00    -0.237 OA
ATOM     69  O   UNL     1       5.179   9.145  10.915  1.00  0.00    -0.744 OA
ENDBRANCH  65  66
ENDBRANCH  46  60
BRANCH  47  70
ATOM     70  C   UNL     1       4.290   5.963  -3.777  1.00  0.00    -0.014 A 
ATOM     71  C   UNL     1       5.359   6.004  -4.688  1.00  0.00     0.010 A 
ATOM     72  C   UNL     1       3.008   5.626  -4.263  1.00  0.00     0.010 A 
ATOM     73  C   UNL     1       5.151   5.731  -6.048  1.00  0.00     0.020 A 
ATOM     74  C   UNL     1       2.803   5.313  -5.611  1.00  0.00     0.020 A 
ATOM     75  C   UNL     1       3.874   5.383  -6.500  1.00  0.00     0.054 A 
BRANCH  75  76
ATOM     76  S   UNL     1       3.635   4.997  -8.258  1.00  0.00     0.124 S 
ATOM     77  O   UNL     1       3.795   6.306  -8.882  1.00  0.00    -0.237 OA
ATOM     78  O   UNL     1       4.704   4.036  -8.520  1.00  0.00    -0.237 OA
ATOM     79  O   UNL     1       2.284   4.442  -8.308  1.00  0.00    -0.744 OA
ENDBRANCH  75  76
ENDBRANCH  47  70
BRANCH  59  80
ATOM     80  C   UNL     1       6.142  11.497   0.008  1.00  0.00    -0.014 A 
ATOM     81  C   UNL     1       5.183  12.392  -0.496  1.00  0.00     0.010 A 
ATOM     82  C   UNL     1       7.471  11.921   0.176  1.00  0.00     0.010 A 
ATOM     83  C   UNL     1       5.559  13.683  -0.861  1.00  0.00     0.020 A 
ATOM     84  C   UNL     1       7.841  13.224  -0.149  1.00  0.00     0.020 A 
ATOM     85  C   UNL     1       6.884  14.092  -0.678  1.00  0.00     0.054 A 
BRANCH  85  86
ATOM     86  S   UNL     1       7.332  15.792  -1.108  1.00  0.00     0.124 S 
ATOM     87  O   UNL     1       7.255  15.768  -2.566  1.00  0.00    -0.237 OA
ATOM     88  O   UNL     1       6.295  16.571  -0.436  1.00  0.00    -0.237 OA
ATOM     89  O   UNL     1       8.676  15.947  -0.557  1.00  0.00    -0.744 OA
ENDBRANCH  85  86
ENDBRANCH  59  80
ENDBRANCH  33  34
ENDBRANCH  26  28
ENDBRANCH  25  26
ENDBRANCH  24  25
ENDBRANCH   1  24
TORSDOF 18
