REMARK SMILES CCCc1cc(S(F)(F)(F)(F)F)cc2c1O[C@@H](C(F)(F)F)C(C(=O)OCCOC(=O)c1ccc(-c3c4nc(c(-c5ccc(S(=O)(=O)[O-])cc5)c5ccc([nH]5)c(-c5ccc(S(=O)(=O)[O-])cc5)c5nc(c(-c6ccc(S(=O)(=O)[O-])cc6)c6ccc3[nH]6)C=C5)C=C4)cc1)=C2
REMARK SMILES IDX 27 1 26 2 25 3 23 4 24 5 22 6 4 7 5 8 15 9 6 10 14 11 16 12
REMARK SMILES IDX 13 13 91 14 17 15 3 16 2 17 1 18 7 19 8 20 9 21 10 22 11 23
REMARK SMILES IDX 12 24 18 25 19 26 20 27 21 28 28 29 29 30 30 31 31 32 32 33
REMARK SMILES IDX 90 34 33 35 89 36 34 37 35 38 36 39 83 40 37 41 88 42 82 43
REMARK SMILES IDX 84 44 38 45 87 46 81 47 80 48 39 50 69 51 50 52 68 53 51 54
REMARK SMILES IDX 54 55 67 56 85 57 52 58 53 59 66 61 86 62 55 63 40 64 41 65
REMARK SMILES IDX 49 66 42 67 48 68 43 69 44 70 45 71 46 72 47 73 70 74 71 75
REMARK SMILES IDX 79 76 72 77 78 78 73 79 74 80 75 81 76 82 77 83 56 84 57 85
REMARK SMILES IDX 65 86 58 87 64 88 59 89 60 90 61 91 62 92 63 93
REMARK H PARENT 84 49 54 60
REMARK Flexibility Score: inf
ROOT
ATOM      1  C   UNL     1      -3.553  -3.024   9.853  1.00  0.00     0.275 C 
ENDROOT
BRANCH   1   2
ATOM      2  C   UNL     1      -2.113  -2.558   9.995  1.00  0.00     0.275 C 
BRANCH   2   3
ATOM      3  O   UNL     1      -1.668  -2.012   8.761  1.00  0.00    -0.459 OA
BRANCH   3   4
ATOM      4  C   UNL     1      -1.655  -2.818   7.592  1.00  0.00     0.338 C 
ATOM      5  O   UNL     1      -2.041  -4.027   7.649  1.00  0.00    -0.246 OA
BRANCH   4   6
ATOM      6  C   UNL     1      -1.179  -2.234   6.272  1.00  0.00     0.087 C 
ATOM      7  C   UNL     1       0.577  -0.858   2.740  1.00  0.00    -0.004 A 
ATOM      8  C   UNL     1       0.826   0.492   2.574  1.00  0.00     0.032 A 
ATOM      9  C   UNL     1       0.048  -1.289   3.933  1.00  0.00     0.131 A 
ATOM     10  C   UNL     1       0.558   1.387   3.576  1.00  0.00     0.108 A 
ATOM     11  C   UNL     1      -0.253  -0.413   4.960  1.00  0.00     0.019 A 
ATOM     12  O   UNL     1      -0.088  -2.642   4.125  1.00  0.00    -0.475 OA
ATOM     13  C   UNL     1       0.014   0.937   4.761  1.00  0.00     0.036 A 
ATOM     14  C   UNL     1      -0.772  -0.972   6.196  1.00  0.00     0.027 C 
ATOM     15  C   UNL     1      -1.157  -3.083   5.008  1.00  0.00     0.316 C 
BRANCH   7  16
ATOM     16  C   UNL     1       1.084  -1.808   1.668  1.00  0.00     0.039 C 
BRANCH  16  17
ATOM     17  C   UNL     1       0.577  -1.354   0.308  1.00  0.00     0.001 C 
ATOM     18  C   UNL     1       1.084   0.050   0.022  1.00  0.00     0.004 C 
ENDBRANCH  16  17
ENDBRANCH   7  16
BRANCH  10  19
ATOM     19  S   UNL     1       0.913   3.147   3.347  1.00  0.00     0.310 S 
ATOM     20  F   UNL     1       1.966   3.184   4.533  1.00  0.00    -0.094 F 
ATOM     21  F   UNL     1      -0.201   3.450   4.419  1.00  0.00    -0.094 F 
ATOM     22  F   UNL     1       1.175   4.667   3.149  1.00  0.00    -0.094 F 
ATOM     23  F   UNL     1       2.121   2.821   2.382  1.00  0.00    -0.094 F 
ATOM     24  F   UNL     1       0.735   1.601   3.622  1.00  0.00    -0.094 F 
ENDBRANCH  10  19
BRANCH  15  25
ATOM     25  C   UNL     1      -0.919  -4.535   5.390  1.00  0.00     0.430 C 
ATOM     26  F   UNL     1      -1.895  -4.947   6.194  1.00  0.00    -0.167 F 
ATOM     27  F   UNL     1      -0.903  -5.285   4.292  1.00  0.00    -0.167 F 
ATOM     28  F   UNL     1       0.248  -4.642   6.018  1.00  0.00    -0.167 F 
ENDBRANCH  15  25
ENDBRANCH   4   6
ENDBRANCH   3   4
ENDBRANCH   2   3
ENDBRANCH   1   2
BRANCH   1  29
ATOM     29  O   UNL     1      -3.632  -4.016   8.840  1.00  0.00    -0.458 OA
BRANCH  29  30
ATOM     30  C   UNL     1      -3.239  -3.707   7.511  1.00  0.00     0.338 C 
ATOM     31  O   UNL     1      -2.816  -2.542   7.228  1.00  0.00    -0.246 OA
BRANCH  30  32
ATOM     32  C   UNL     1      -3.324  -4.769   6.427  1.00  0.00     0.060 A 
ATOM     33  C   UNL     1      -2.277  -4.991   5.547  1.00  0.00     0.016 A 
ATOM     34  C   UNL     1      -4.432  -5.499   6.378  1.00  0.00     0.016 A 
ATOM     35  C   UNL     1      -2.614  -5.825   4.455  1.00  0.00     0.010 A 
ATOM     36  C   UNL     1      -4.635  -6.394   5.355  1.00  0.00     0.010 A 
ATOM     37  C   UNL     1      -3.667  -6.620   4.416  1.00  0.00    -0.014 A 
BRANCH  37  38
ATOM     38  C   UNL     1      -3.796  -7.729   3.384  1.00  0.00     0.031 A 
ATOM     39  C   UNL     1      -4.891  -7.671   2.520  1.00  0.00     0.074 A 
ATOM     40  C   UNL     1      -2.885  -8.771   3.412  1.00  0.00     0.049 A 
ATOM     41  N   UNL     1      -5.231  -8.552   1.578  1.00  0.00    -0.248 NA
ATOM     42  C   UNL     1      -5.878  -6.582   2.513  1.00  0.00     0.031 C 
ATOM     43  C   UNL     1      -1.774  -8.833   4.274  1.00  0.00     0.029 A 
ATOM     44  N   UNL     1      -2.881  -9.910   2.637  1.00  0.00    -0.354 N 
ATOM     45  C   UNL     1      -6.331  -8.145   0.942  1.00  0.00     0.074 A 
ATOM     46  C   UNL     1      -6.767  -6.875   1.538  1.00  0.00     0.031 C 
ATOM     47  C   UNL     1      -1.115  -9.997   4.031  1.00  0.00     0.029 A 
ATOM     48  C   UNL     1      -1.804 -10.682   3.012  1.00  0.00     0.049 A 
ATOM     49  H   UNL     1      -3.535 -10.134   1.936  1.00  0.00     0.167 HD
ATOM     50  C   UNL     1      -6.987  -8.781  -0.113  1.00  0.00     0.031 A 
ATOM     51  C   UNL     1      -1.428 -11.917   2.508  1.00  0.00     0.031 A 
ATOM     52  C   UNL     1      -6.585  -9.996  -0.646  1.00  0.00     0.049 A 
ATOM     53  C   UNL     1      -2.118 -12.582   1.492  1.00  0.00     0.074 A 
ATOM     54  C   UNL     1      -7.231 -10.648  -1.715  1.00  0.00     0.029 A 
ATOM     55  N   UNL     1      -5.523 -10.779  -0.254  1.00  0.00    -0.354 N 
ATOM     56  N   UNL     1      -3.194 -12.156   0.830  1.00  0.00    -0.248 NA
ATOM     57  C   UNL     1      -1.747 -13.905   0.973  1.00  0.00     0.031 C 
ATOM     58  C   UNL     1      -6.572 -11.812  -1.958  1.00  0.00     0.029 A 
ATOM     59  C   UNL     1      -5.505 -11.907  -1.044  1.00  0.00     0.049 A 
ATOM     60  H   UNL     1      -4.886 -10.569   0.466  1.00  0.00     0.167 HD
ATOM     61  C   UNL     1      -3.558 -13.057  -0.085  1.00  0.00     0.074 A 
ATOM     62  C   UNL     1      -2.637 -14.199  -0.001  1.00  0.00     0.031 C 
ATOM     63  C   UNL     1      -4.619 -12.972  -0.988  1.00  0.00     0.031 A 
BRANCH  50  64
ATOM     64  C   UNL     1      -8.210  -8.105  -0.711  1.00  0.00    -0.014 A 
ATOM     65  C   UNL     1      -8.049  -6.855  -1.286  1.00  0.00     0.010 A 
ATOM     66  C   UNL     1      -9.391  -8.711  -0.699  1.00  0.00     0.010 A 
ATOM     67  C   UNL     1      -9.268  -6.194  -1.571  1.00  0.00     0.020 A 
ATOM     68  C   UNL     1     -10.520  -8.051  -1.120  1.00  0.00     0.020 A 
ATOM     69  C   UNL     1     -10.443  -6.791  -1.645  1.00  0.00     0.054 A 
BRANCH  69  70
ATOM     70  S   UNL     1     -11.877  -5.984  -2.400  1.00  0.00     0.124 S 
ATOM     71  O   UNL     1     -12.193  -4.692  -1.643  1.00  0.00    -0.237 OA
ATOM     72  O   UNL     1     -11.565  -5.654  -3.862  1.00  0.00    -0.237 OA
ATOM     73  O   UNL     1     -13.226  -7.032  -2.327  1.00  0.00    -0.744 OA
ENDBRANCH  69  70
ENDBRANCH  50  64
BRANCH  51  74
ATOM     74  C   UNL     1      -0.195 -12.586   3.095  1.00  0.00    -0.014 A 
ATOM     75  C   UNL     1       0.854 -12.895   2.245  1.00  0.00     0.010 A 
ATOM     76  C   UNL     1      -0.146 -12.886   4.387  1.00  0.00     0.010 A 
ATOM     77  C   UNL     1       1.799 -13.787   2.802  1.00  0.00     0.020 A 
ATOM     78  C   UNL     1       0.880 -13.649   4.889  1.00  0.00     0.020 A 
ATOM     79  C   UNL     1       1.921 -14.040   4.093  1.00  0.00     0.054 A 
BRANCH  79  80
ATOM     80  S   UNL     1       3.385 -14.861   4.770  1.00  0.00     0.124 S 
ATOM     81  O   UNL     1       3.536 -16.244   4.133  1.00  0.00    -0.237 OA
ATOM     82  O   UNL     1       4.627 -14.021   4.466  1.00  0.00    -0.237 OA
ATOM     83  O   UNL     1       3.211 -15.030   6.463  1.00  0.00    -0.744 OA
ENDBRANCH  79  80
ENDBRANCH  51  74
BRANCH  63  84
ATOM     84  C   UNL     1      -4.814 -14.116  -1.969  1.00  0.00    -0.014 A 
ATOM     85  C   UNL     1      -5.137 -15.402  -1.567  1.00  0.00     0.010 A 
ATOM     86  C   UNL     1      -4.745 -13.794  -3.256  1.00  0.00     0.010 A 
ATOM     87  C   UNL     1      -5.087 -16.358  -2.608  1.00  0.00     0.020 A 
ATOM     88  C   UNL     1      -4.840 -14.763  -4.225  1.00  0.00     0.020 A 
ATOM     89  C   UNL     1      -5.099 -16.064  -3.896  1.00  0.00     0.054 A 
BRANCH  89  90
ATOM     90  S   UNL     1      -5.440 -17.317  -5.157  1.00  0.00     0.124 S 
ATOM     91  O   UNL     1      -4.393 -18.430  -5.067  1.00  0.00    -0.237 OA
ATOM     92  O   UNL     1      -6.833 -17.908  -4.925  1.00  0.00    -0.237 OA
ATOM     93  O   UNL     1      -5.377 -16.598  -6.707  1.00  0.00    -0.744 OA
ENDBRANCH  89  90
ENDBRANCH  63  84
ENDBRANCH  37  38
ENDBRANCH  30  32
ENDBRANCH  29  30
ENDBRANCH   1  29
TORSDOF 18
