REMARK SMILES COC(=O)c1ccc([C@H]([NH3+])CC(=O)OCCOC(=O)c2ccc(-c3c4nc(c(-c5ccc(S(=O)(=O)[O-])cc5)c5ccc([nH]5)c(-c5ccc(S(=O)(=O)[O-])cc5)c5nc(c(-c6ccc(S(=O)(=O)[O-])cc6)c6ccc3[nH]6)C=C5)C=C4)cc2)cc1
REMARK SMILES IDX 15 1 14 2 12 3 13 4 11 5 9 6 8 7 5 8 6 9 81 10 7 11 80 12
REMARK SMILES IDX 3 13 4 14 2 15 1 16 10 17 16 21 17 22 18 23 19 24 20 25
REMARK SMILES IDX 21 26 79 27 22 28 78 29 23 30 24 31 25 32 72 33 26 34 77 35
REMARK SMILES IDX 71 36 73 37 27 38 76 39 70 40 69 41 28 43 58 44 39 45 57 46
REMARK SMILES IDX 40 47 43 48 56 49 74 50 41 51 42 52 55 54 75 55 44 56 29 57
REMARK SMILES IDX 30 58 38 59 31 60 37 61 32 62 33 63 34 64 35 65 36 66 59 67
REMARK SMILES IDX 60 68 68 69 61 70 67 71 62 72 63 73 64 74 65 75 66 76 45 77
REMARK SMILES IDX 46 78 54 79 47 80 53 81 48 82 49 83 50 84 51 85 52 86
REMARK H PARENT 10 18 10 19 10 20 73 42 43 53
REMARK Flexibility Score: inf
ROOT
ATOM      1  C   UNL     1      -0.084  -6.489   1.688  1.00  0.00     0.274 C 
ENDROOT
BRANCH   1   2
ATOM      2  O   UNL     1       0.048  -6.512   0.256  1.00  0.00    -0.462 OA
BRANCH   2   3
ATOM      3  C   UNL     1       0.302  -7.712  -0.322  1.00  0.00     0.312 C 
ATOM      4  O   UNL     1       0.459  -8.760   0.294  1.00  0.00    -0.252 OA
BRANCH   3   5
ATOM      5  C   UNL     1       0.457  -7.623  -1.824  1.00  0.00     0.192 C 
BRANCH   5   6
ATOM      6  C   UNL     1      -0.754  -7.005  -2.545  1.00  0.00     0.223 C 
BRANCH   6   7
ATOM      7  C   UNL     1      -0.829  -7.404  -4.027  1.00  0.00     0.010 A 
ATOM      8  C   UNL     1      -0.888  -8.201  -6.750  1.00  0.00     0.060 A 
ATOM      9  C   UNL     1      -0.856  -9.160  -5.735  1.00  0.00     0.016 A 
ATOM     10  C   UNL     1      -0.962  -6.849  -6.407  1.00  0.00     0.016 A 
ATOM     11  C   UNL     1      -0.836  -8.765  -4.391  1.00  0.00     0.011 A 
ATOM     12  C   UNL     1      -0.939  -6.460  -5.064  1.00  0.00     0.011 A 
BRANCH   8  13
ATOM     13  C   UNL     1      -0.823  -8.646  -8.165  1.00  0.00     0.337 C 
ATOM     14  O   UNL     1      -1.061  -9.784  -8.537  1.00  0.00    -0.246 OA
BRANCH  13  15
ATOM     15  O   UNL     1      -0.385  -7.625  -8.946  1.00  0.00    -0.465 OA
ATOM     16  C   UNL     1      -0.165  -7.979 -10.311  1.00  0.00     0.282 C 
ENDBRANCH  13  15
ENDBRANCH   8  13
ENDBRANCH   6   7
BRANCH   6  17
ATOM     17  N   UNL     1      -0.707  -5.546  -2.365  1.00  0.00    -0.351 N 
ATOM     18  H   UNL     1       0.150  -5.180  -2.780  1.00  0.00     0.345 HD
ATOM     19  H   UNL     1      -0.724  -5.327  -1.369  1.00  0.00     0.345 HD
ATOM     20  H   UNL     1      -1.514  -5.121  -2.820  1.00  0.00     0.345 HD
ENDBRANCH   6  17
ENDBRANCH   5   6
ENDBRANCH   3   5
ENDBRANCH   2   3
ENDBRANCH   1   2
BRANCH   1  21
ATOM     21  C   UNL     1      -1.547  -6.580   2.129  1.00  0.00     0.275 C 
BRANCH  21  22
ATOM     22  O   UNL     1      -2.074  -7.904   1.932  1.00  0.00    -0.458 OA
BRANCH  22  23
ATOM     23  C   UNL     1      -2.791  -8.077   0.799  1.00  0.00     0.338 C 
ATOM     24  O   UNL     1      -3.083  -7.235  -0.032  1.00  0.00    -0.246 OA
BRANCH  23  25
ATOM     25  C   UNL     1      -3.120  -9.500   0.639  1.00  0.00     0.060 A 
ATOM     26  C   UNL     1      -2.526 -10.212  -0.407  1.00  0.00     0.016 A 
ATOM     27  C   UNL     1      -4.079 -10.100   1.456  1.00  0.00     0.016 A 
ATOM     28  C   UNL     1      -2.903 -11.530  -0.652  1.00  0.00     0.010 A 
ATOM     29  C   UNL     1      -4.449 -11.426   1.214  1.00  0.00     0.010 A 
ATOM     30  C   UNL     1      -3.877 -12.143   0.148  1.00  0.00    -0.014 A 
BRANCH  30  31
ATOM     31  C   UNL     1      -4.337 -13.520  -0.155  1.00  0.00     0.031 A 
ATOM     32  C   UNL     1      -5.695 -13.738  -0.762  1.00  0.00     0.074 A 
ATOM     33  C   UNL     1      -3.541 -14.571   0.116  1.00  0.00     0.049 A 
ATOM     34  N   UNL     1      -6.315 -14.861  -1.019  1.00  0.00    -0.248 NA
ATOM     35  C   UNL     1      -6.458 -12.532  -1.125  1.00  0.00     0.031 C 
ATOM     36  C   UNL     1      -2.188 -14.487   0.668  1.00  0.00     0.029 A 
ATOM     37  N   UNL     1      -3.760 -15.918  -0.031  1.00  0.00    -0.354 N 
ATOM     38  C   UNL     1      -7.545 -14.500  -1.556  1.00  0.00     0.074 A 
ATOM     39  C   UNL     1      -7.592 -13.054  -1.570  1.00  0.00     0.031 C 
ATOM     40  C   UNL     1      -1.697 -15.729   0.812  1.00  0.00     0.029 A 
ATOM     41  C   UNL     1      -2.714 -16.695   0.407  1.00  0.00     0.049 A 
ATOM     42  H   UNL     1      -4.586 -16.291  -0.414  1.00  0.00     0.167 HD
ATOM     43  C   UNL     1      -8.544 -15.302  -1.998  1.00  0.00     0.031 A 
ATOM     44  C   UNL     1      -2.599 -18.035   0.497  1.00  0.00     0.031 A 
ATOM     45  C   UNL     1      -8.495 -16.741  -1.979  1.00  0.00     0.049 A 
ATOM     46  C   UNL     1      -3.746 -18.903   0.057  1.00  0.00     0.074 A 
ATOM     47  C   UNL     1      -9.454 -17.641  -2.409  1.00  0.00     0.029 A 
ATOM     48  N   UNL     1      -7.429 -17.490  -1.504  1.00  0.00    -0.354 N 
ATOM     49  N   UNL     1      -4.905 -18.547  -0.445  1.00  0.00    -0.248 NA
ATOM     50  C   UNL     1      -3.570 -20.356   0.196  1.00  0.00     0.031 C 
ATOM     51  C   UNL     1      -8.986 -18.935  -2.153  1.00  0.00     0.029 A 
ATOM     52  C   UNL     1      -7.714 -18.841  -1.613  1.00  0.00     0.049 A 
ATOM     53  H   UNL     1      -6.593 -17.116  -1.142  1.00  0.00     0.167 HD
ATOM     54  C   UNL     1      -5.585 -19.731  -0.705  1.00  0.00     0.074 A 
ATOM     55  C   UNL     1      -4.705 -20.814  -0.315  1.00  0.00     0.031 C 
ATOM     56  C   UNL     1      -6.827 -19.906  -1.221  1.00  0.00     0.031 A 
BRANCH  43  57
ATOM     57  C   UNL     1      -9.793 -14.637  -2.512  1.00  0.00    -0.014 A 
ATOM     58  C   UNL     1      -9.810 -13.978  -3.754  1.00  0.00     0.010 A 
ATOM     59  C   UNL     1     -10.977 -14.703  -1.755  1.00  0.00     0.010 A 
ATOM     60  C   UNL     1     -10.979 -13.364  -4.213  1.00  0.00     0.020 A 
ATOM     61  C   UNL     1     -12.155 -14.111  -2.222  1.00  0.00     0.020 A 
ATOM     62  C   UNL     1     -12.143 -13.429  -3.441  1.00  0.00     0.054 A 
BRANCH  62  63
ATOM     63  S   UNL     1     -13.651 -12.637  -4.065  1.00  0.00     0.124 S 
ATOM     64  O   UNL     1     -13.360 -11.222  -3.845  1.00  0.00    -0.237 OA
ATOM     65  O   UNL     1     -13.683 -13.060  -5.462  1.00  0.00    -0.237 OA
ATOM     66  O   UNL     1     -14.708 -13.193  -3.224  1.00  0.00    -0.744 OA
ENDBRANCH  62  63
ENDBRANCH  43  57
BRANCH  44  67
ATOM     67  C   UNL     1      -1.355 -18.637   1.048  1.00  0.00    -0.014 A 
ATOM     68  C   UNL     1      -0.466 -19.334   0.213  1.00  0.00     0.010 A 
ATOM     69  C   UNL     1      -1.052 -18.508   2.416  1.00  0.00     0.010 A 
ATOM     70  C   UNL     1       0.697 -19.906   0.738  1.00  0.00     0.020 A 
ATOM     71  C   UNL     1       0.122 -19.056   2.940  1.00  0.00     0.020 A 
ATOM     72  C   UNL     1       0.984 -19.762   2.099  1.00  0.00     0.054 A 
BRANCH  72  73
ATOM     73  S   UNL     1       2.523 -20.468   2.750  1.00  0.00     0.124 S 
ATOM     74  O   UNL     1       2.201 -21.890   2.816  1.00  0.00    -0.237 OA
ATOM     75  O   UNL     1       3.502 -20.087   1.736  1.00  0.00    -0.237 OA
ATOM     76  O   UNL     1       2.684 -19.801   4.041  1.00  0.00    -0.744 OA
ENDBRANCH  72  73
ENDBRANCH  44  67
BRANCH  56  77
ATOM     77  C   UNL     1      -7.295 -21.321  -1.430  1.00  0.00    -0.014 A 
ATOM     78  C   UNL     1      -7.686 -22.127  -0.347  1.00  0.00     0.010 A 
ATOM     79  C   UNL     1      -7.395 -21.832  -2.737  1.00  0.00     0.010 A 
ATOM     80  C   UNL     1      -8.142 -23.430  -0.566  1.00  0.00     0.020 A 
ATOM     81  C   UNL     1      -7.873 -23.125  -2.962  1.00  0.00     0.020 A 
ATOM     82  C   UNL     1      -8.231 -23.922  -1.872  1.00  0.00     0.054 A 
BRANCH  82  83
ATOM     83  S   UNL     1      -8.868 -25.600  -2.135  1.00  0.00     0.124 S 
ATOM     84  O   UNL     1      -7.728 -26.423  -1.740  1.00  0.00    -0.237 OA
ATOM     85  O   UNL     1     -10.021 -25.652  -1.239  1.00  0.00    -0.237 OA
ATOM     86  O   UNL     1      -9.193 -25.627  -3.559  1.00  0.00    -0.744 OA
ENDBRANCH  82  83
ENDBRANCH  56  77
ENDBRANCH  30  31
ENDBRANCH  23  25
ENDBRANCH  22  23
ENDBRANCH  21  22
ENDBRANCH   1  21
TORSDOF 19
