REMARK SMILES COc1ccc(N[C@H](C)[C@H](C)C(=O)OCCOC(=O)c2ccc(-c3c4nc(c(-c5ccc(S(=O)(=O)[O-])cc5)c5ccc([nH]5)c(-c5ccc(S(=O)(=O)[O-])cc5)c5nc(c(-c6ccc(S(=O)(=O)[O-])cc6)c6ccc3[nH]6)C=C5)C=C4)cc2)c(OC)c1
REMARK SMILES IDX 15 1 14 2 12 3 13 4 10 5 11 6 8 7 9 8 7 9 6 11 3 12 4 13
REMARK SMILES IDX 83 14 5 15 80 16 2 17 1 18 81 19 82 20 16 21 17 22 18 23
REMARK SMILES IDX 19 24 20 25 21 26 79 27 22 28 78 29 23 30 24 31 25 32 72 33
REMARK SMILES IDX 26 34 77 35 71 36 73 37 27 38 76 39 70 40 69 41 28 43 58 44
REMARK SMILES IDX 39 45 57 46 40 47 43 48 56 49 74 50 41 51 42 52 55 54 75 55
REMARK SMILES IDX 44 56 29 57 30 58 38 59 31 60 37 61 32 62 33 63 34 64 35 65
REMARK SMILES IDX 36 66 59 67 60 68 68 69 61 70 67 71 62 72 63 73 64 74 65 75
REMARK SMILES IDX 66 76 45 77 46 78 54 79 47 80 53 81 48 82 49 83 50 84 51 85
REMARK SMILES IDX 52 86
REMARK H PARENT 7 10 73 42 43 53
REMARK Flexibility Score: inf
ROOT
ATOM      1  C   UNL     1      -2.031  -0.770 -10.357  1.00  0.00     0.274 C 
ENDROOT
BRANCH   1   2
ATOM      2  O   UNL     1      -1.147  -0.888  -9.221  1.00  0.00    -0.462 OA
BRANCH   2   3
ATOM      3  C   UNL     1       0.155  -1.095  -9.558  1.00  0.00     0.310 C 
ATOM      4  O   UNL     1       0.535  -1.169 -10.721  1.00  0.00    -0.252 OA
BRANCH   3   5
ATOM      5  C   UNL     1       1.107  -1.123  -8.369  1.00  0.00     0.118 C 
ATOM      6  C   UNL     1       0.680  -0.147  -7.267  1.00  0.00     0.022 C 
BRANCH   5   7
ATOM      7  C   UNL     1       1.523  -2.524  -7.854  1.00  0.00     0.090 C 
ATOM      8  C   UNL     1       0.636  -3.047  -6.717  1.00  0.00     0.031 C 
BRANCH   7   9
ATOM      9  N   UNL     1       1.578  -3.566  -8.874  1.00  0.00    -0.379 N 
ATOM     10  H   UNL     1       1.123  -4.413  -8.666  1.00  0.00     0.160 HD
BRANCH   9  11
ATOM     11  C   UNL     1       2.210  -3.481 -10.109  1.00  0.00     0.077 A 
ATOM     12  C   UNL     1       3.104  -3.061 -12.750  1.00  0.00     0.122 A 
ATOM     13  C   UNL     1       3.720  -2.412 -11.680  1.00  0.00     0.049 A 
ATOM     14  C   UNL     1       2.109  -4.004 -12.498  1.00  0.00     0.095 A 
ATOM     15  C   UNL     1       3.277  -2.620 -10.370  1.00  0.00     0.033 A 
ATOM     16  C   UNL     1       1.681  -4.232 -11.185  1.00  0.00     0.145 A 
BRANCH  12  17
ATOM     17  O   UNL     1       3.563  -2.708 -13.990  1.00  0.00    -0.497 OA
ATOM     18  C   UNL     1       2.674  -2.945 -15.076  1.00  0.00     0.278 C 
ENDBRANCH  12  17
BRANCH  16  19
ATOM     19  O   UNL     1       0.674  -5.119 -10.852  1.00  0.00    -0.494 OA
ATOM     20  C   UNL     1       0.544  -6.236 -11.723  1.00  0.00     0.278 C 
ENDBRANCH  16  19
ENDBRANCH   9  11
ENDBRANCH   7   9
ENDBRANCH   5   7
ENDBRANCH   3   5
ENDBRANCH   2   3
ENDBRANCH   1   2
BRANCH   1  21
ATOM     21  C   UNL     1      -2.115   0.655 -10.933  1.00  0.00     0.275 C 
BRANCH  21  22
ATOM     22  O   UNL     1      -0.908   1.081 -11.600  1.00  0.00    -0.458 OA
BRANCH  22  23
ATOM     23  C   UNL     1      -0.058   1.817 -10.841  1.00  0.00     0.338 C 
ATOM     24  O   UNL     1      -0.256   2.201  -9.700  1.00  0.00    -0.246 OA
BRANCH  23  25
ATOM     25  C   UNL     1       1.240   2.006 -11.521  1.00  0.00     0.060 A 
ATOM     26  C   UNL     1       2.393   1.597 -10.843  1.00  0.00     0.016 A 
ATOM     27  C   UNL     1       1.348   2.663 -12.748  1.00  0.00     0.016 A 
ATOM     28  C   UNL     1       3.656   1.828 -11.383  1.00  0.00     0.010 A 
ATOM     29  C   UNL     1       2.620   2.920 -13.280  1.00  0.00     0.010 A 
ATOM     30  C   UNL     1       3.780   2.514 -12.595  1.00  0.00    -0.014 A 
BRANCH  30  31
ATOM     31  C   UNL     1       5.129   2.883 -13.086  1.00  0.00     0.031 A 
ATOM     32  C   UNL     1       5.667   4.258 -12.807  1.00  0.00     0.074 A 
ATOM     33  C   UNL     1       5.888   1.980 -13.734  1.00  0.00     0.049 A 
ATOM     34  N   UNL     1       6.801   4.795 -13.178  1.00  0.00    -0.248 NA
ATOM     35  C   UNL     1       4.816   5.144 -11.998  1.00  0.00     0.031 C 
ATOM     36  C   UNL     1       5.510   0.592 -13.992  1.00  0.00     0.029 A 
ATOM     37  N   UNL     1       7.141   2.096 -14.282  1.00  0.00    -0.354 N 
ATOM     38  C   UNL     1       6.792   6.088 -12.669  1.00  0.00     0.074 A 
ATOM     39  C   UNL     1       5.538   6.255 -11.964  1.00  0.00     0.031 C 
ATOM     40  C   UNL     1       6.517  -0.021 -14.638  1.00  0.00     0.029 A 
ATOM     41  C   UNL     1       7.586   0.944 -14.885  1.00  0.00     0.049 A 
ATOM     42  H   UNL     1       7.670   2.925 -14.247  1.00  0.00     0.167 HD
ATOM     43  C   UNL     1       7.737   7.052 -12.788  1.00  0.00     0.031 A 
ATOM     44  C   UNL     1       8.716   0.705 -15.580  1.00  0.00     0.031 A 
ATOM     45  C   UNL     1       8.975   6.887 -13.504  1.00  0.00     0.049 A 
ATOM     46  C   UNL     1       9.707   1.821 -15.781  1.00  0.00     0.074 A 
ATOM     47  C   UNL     1       9.994   7.806 -13.686  1.00  0.00     0.029 A 
ATOM     48  N   UNL     1       9.357   5.729 -14.166  1.00  0.00    -0.354 N 
ATOM     49  N   UNL     1       9.680   3.045 -15.307  1.00  0.00    -0.248 NA
ATOM     50  C   UNL     1      10.876   1.528 -16.623  1.00  0.00     0.031 C 
ATOM     51  C   UNL     1      10.968   7.220 -14.504  1.00  0.00     0.029 A 
ATOM     52  C   UNL     1      10.581   5.919 -14.784  1.00  0.00     0.049 A 
ATOM     53  H   UNL     1       8.834   4.896 -14.192  1.00  0.00     0.167 HD
ATOM     54  C   UNL     1      10.837   3.659 -15.774  1.00  0.00     0.074 A 
ATOM     55  C   UNL     1      11.547   2.671 -16.560  1.00  0.00     0.031 C 
ATOM     56  C   UNL     1      11.274   4.926 -15.567  1.00  0.00     0.031 A 
BRANCH  43  57
ATOM     57  C   UNL     1       7.428   8.396 -12.184  1.00  0.00    -0.014 A 
ATOM     58  C   UNL     1       7.443   8.599 -10.793  1.00  0.00     0.010 A 
ATOM     59  C   UNL     1       7.114   9.475 -13.031  1.00  0.00     0.010 A 
ATOM     60  C   UNL     1       7.100   9.845 -10.258  1.00  0.00     0.020 A 
ATOM     61  C   UNL     1       6.794  10.727 -12.501  1.00  0.00     0.020 A 
ATOM     62  C   UNL     1       6.766  10.898 -11.116  1.00  0.00     0.054 A 
BRANCH  62  63
ATOM     63  S   UNL     1       6.305  12.499 -10.399  1.00  0.00     0.124 S 
ATOM     64  O   UNL     1       4.952  12.234  -9.917  1.00  0.00    -0.237 OA
ATOM     65  O   UNL     1       7.315  12.691  -9.361  1.00  0.00    -0.237 OA
ATOM     66  O   UNL     1       6.394  13.423 -11.528  1.00  0.00    -0.744 OA
ENDBRANCH  62  63
ENDBRANCH  43  57
BRANCH  44  67
ATOM     67  C   UNL     1       8.958  -0.642 -16.166  1.00  0.00    -0.014 A 
ATOM     68  C   UNL     1       9.973  -1.471 -15.657  1.00  0.00     0.010 A 
ATOM     69  C   UNL     1       8.171  -1.104 -17.237  1.00  0.00     0.010 A 
ATOM     70  C   UNL     1      10.200  -2.735 -16.212  1.00  0.00     0.020 A 
ATOM     71  C   UNL     1       8.379  -2.376 -17.778  1.00  0.00     0.020 A 
ATOM     72  C   UNL     1       9.400  -3.180 -17.268  1.00  0.00     0.054 A 
BRANCH  72  73
ATOM     73  S   UNL     1       9.673  -4.845 -17.937  1.00  0.00     0.124 S 
ATOM     74  O   UNL     1      10.887  -4.660 -18.725  1.00  0.00    -0.237 OA
ATOM     75  O   UNL     1       9.820  -5.654 -16.730  1.00  0.00    -0.237 OA
ATOM     76  O   UNL     1       8.459  -5.107 -18.708  1.00  0.00    -0.744 OA
ENDBRANCH  72  73
ENDBRANCH  44  67
BRANCH  56  77
ATOM     77  C   UNL     1      12.598   5.312 -16.172  1.00  0.00    -0.014 A 
ATOM     78  C   UNL     1      12.726   5.557 -17.550  1.00  0.00     0.010 A 
ATOM     79  C   UNL     1      13.716   5.492 -15.336  1.00  0.00     0.010 A 
ATOM     80  C   UNL     1      13.955   5.953 -18.086  1.00  0.00     0.020 A 
ATOM     81  C   UNL     1      14.940   5.911 -15.865  1.00  0.00     0.020 A 
ATOM     82  C   UNL     1      15.055   6.127 -17.239  1.00  0.00     0.054 A 
BRANCH  82  83
ATOM     83  S   UNL     1      16.626   6.693 -17.948  1.00  0.00     0.124 S 
ATOM     84  O   UNL     1      17.123   5.480 -18.592  1.00  0.00    -0.237 OA
ATOM     85  O   UNL     1      16.206   7.759 -18.855  1.00  0.00    -0.237 OA
ATOM     86  O   UNL     1      17.390   7.139 -16.785  1.00  0.00    -0.744 OA
ENDBRANCH  82  83
ENDBRANCH  56  77
ENDBRANCH  30  31
ENDBRANCH  23  25
ENDBRANCH  22  23
ENDBRANCH  21  22
ENDBRANCH   1  21
TORSDOF 19
