REMARK SMILES C[C@H]1[C@H](C(=O)OCCOC(=O)c2ccc(-c3c4nc(c(-c5ccc(S(=O)(=O)[O-])cc5)c5ccc([nH]5)c(-c5ccc(S(=O)(=O)[O-])cc5)c5nc(c(-c6ccc(S(=O)(=O)[O-])cc6)c6ccc3[nH]6)C=C5)C=C4)cc2)CCN1C(=O)Nc1ccc(F)c(Cl)c1
REMARK SMILES IDX 8 1 7 2 6 3 4 4 5 5 3 6 1 7 2 8 74 9 72 10 73 11 75 12 76 13
REMARK SMILES IDX 77 14 78 16 79 17 85 18 80 19 83 20 81 21 84 22 82 23 9 24
REMARK SMILES IDX 10 25 11 26 12 27 13 28 71 29 14 30 70 31 15 32 16 33 17 34
REMARK SMILES IDX 64 35 18 36 69 37 63 38 65 39 19 40 68 41 62 42 61 43 20 45
REMARK SMILES IDX 50 46 31 47 49 48 32 49 35 50 48 51 66 52 33 53 34 54 47 56
REMARK SMILES IDX 67 57 36 58 21 59 22 60 30 61 23 62 29 63 24 64 25 65 26 66
REMARK SMILES IDX 27 67 28 68 51 69 52 70 60 71 53 72 59 73 54 74 55 75 56 76
REMARK SMILES IDX 57 77 58 78 37 79 38 80 46 81 39 82 45 83 40 84 41 85 42 86
REMARK SMILES IDX 43 87 44 88
REMARK H PARENT 77 15 65 44 35 55
REMARK Flexibility Score: inf
ROOT
ATOM      1  C   UNL     1       0.686   3.670   3.475  1.00  0.00     0.275 C 
ENDROOT
BRANCH   1   2
ATOM      2  C   UNL     1      -0.659   2.980   3.234  1.00  0.00     0.274 C 
BRANCH   2   3
ATOM      3  O   UNL     1      -0.552   1.885   2.303  1.00  0.00    -0.462 OA
BRANCH   3   4
ATOM      4  C   UNL     1      -0.877   2.167   1.015  1.00  0.00     0.311 C 
ATOM      5  O   UNL     1      -1.299   3.250   0.625  1.00  0.00    -0.252 OA
BRANCH   4   6
ATOM      6  C   UNL     1      -0.753   0.979   0.087  1.00  0.00     0.123 C 
ATOM      7  C   UNL     1       1.448   0.099  -0.783  1.00  0.00     0.032 C 
ATOM      8  C   UNL     1       0.434   0.029   0.365  1.00  0.00     0.098 C 
ATOM      9  N   UNL     1      -0.168  -1.309   0.479  1.00  0.00    -0.321 N 
ATOM     10  C   UNL     1      -2.011   0.122   0.184  1.00  0.00     0.039 C 
ATOM     11  C   UNL     1      -1.517  -1.284  -0.055  1.00  0.00     0.122 C 
BRANCH   9  12
ATOM     12  C   UNL     1       0.388  -2.525   0.765  1.00  0.00     0.322 C 
ATOM     13  O   UNL     1      -0.254  -3.570   0.606  1.00  0.00    -0.248 OA
ATOM     14  N   UNL     1       1.702  -2.670   1.057  1.00  0.00    -0.308 N 
ATOM     15  H   UNL     1       2.065  -3.531   0.747  1.00  0.00     0.171 HD
BRANCH  14  16
ATOM     16  C   UNL     1       2.662  -1.881   1.698  1.00  0.00     0.044 A 
ATOM     17  C   UNL     1       3.990  -2.037   1.274  1.00  0.00     0.029 A 
ATOM     18  C   UNL     1       2.373  -1.032   2.766  1.00  0.00     0.049 A 
ATOM     19  C   UNL     1       5.008  -1.273   1.842  1.00  0.00     0.043 A 
ATOM     20  C   UNL     1       3.403  -0.296   3.361  1.00  0.00     0.078 A 
ATOM     21  C   UNL     1       4.708  -0.400   2.881  1.00  0.00     0.141 A 
ATOM     22  Cl  UNL     1       3.059   0.700   4.724  1.00  0.00    -0.081 Cl
ATOM     23  F   UNL     1       5.703   0.315   3.427  1.00  0.00    -0.205 F 
ENDBRANCH  14  16
ENDBRANCH   9  12
ENDBRANCH   4   6
ENDBRANCH   3   4
ENDBRANCH   2   3
ENDBRANCH   1   2
BRANCH   1  24
ATOM     24  O   UNL     1       1.184   4.327   2.298  1.00  0.00    -0.458 OA
BRANCH  24  25
ATOM     25  C   UNL     1       1.973   3.564   1.507  1.00  0.00     0.338 C 
ATOM     26  O   UNL     1       2.297   2.402   1.674  1.00  0.00    -0.246 OA
BRANCH  25  27
ATOM     27  C   UNL     1       2.314   4.311   0.293  1.00  0.00     0.060 A 
ATOM     28  C   UNL     1       1.696   3.950  -0.907  1.00  0.00     0.016 A 
ATOM     29  C   UNL     1       3.302   5.293   0.326  1.00  0.00     0.016 A 
ATOM     30  C   UNL     1       2.080   4.558  -2.095  1.00  0.00     0.010 A 
ATOM     31  C   UNL     1       3.667   5.922  -0.864  1.00  0.00     0.010 A 
ATOM     32  C   UNL     1       3.064   5.552  -2.080  1.00  0.00    -0.014 A 
BRANCH  32  33
ATOM     33  C   UNL     1       3.474   6.216  -3.335  1.00  0.00     0.031 A 
ATOM     34  C   UNL     1       4.827   5.937  -3.917  1.00  0.00     0.074 A 
ATOM     35  C   UNL     1       2.639   7.094  -3.921  1.00  0.00     0.049 A 
ATOM     36  N   UNL     1       5.447   6.550  -4.890  1.00  0.00    -0.248 NA
ATOM     37  C   UNL     1       5.585   4.824  -3.321  1.00  0.00     0.031 C 
ATOM     38  C   UNL     1       1.278   7.395  -3.471  1.00  0.00     0.029 A 
ATOM     39  N   UNL     1       2.821   7.908  -5.008  1.00  0.00    -0.354 N 
ATOM     40  C   UNL     1       6.681   5.924  -5.004  1.00  0.00     0.074 A 
ATOM     41  C   UNL     1       6.723   4.880  -4.001  1.00  0.00     0.031 C 
ATOM     42  C   UNL     1       0.753   8.338  -4.269  1.00  0.00     0.029 A 
ATOM     43  C   UNL     1       1.760   8.749  -5.242  1.00  0.00     0.049 A 
ATOM     44  H   UNL     1       3.631   7.891  -5.567  1.00  0.00     0.167 HD
ATOM     45  C   UNL     1       7.689   6.206  -5.862  1.00  0.00     0.031 A 
ATOM     46  C   UNL     1       1.632   9.771  -6.110  1.00  0.00     0.031 A 
ATOM     47  C   UNL     1       7.631   7.251  -6.849  1.00  0.00     0.049 A 
ATOM     48  C   UNL     1       2.788  10.109  -7.008  1.00  0.00     0.074 A 
ATOM     49  C   UNL     1       8.598   7.628  -7.763  1.00  0.00     0.029 A 
ATOM     50  N   UNL     1       6.541   8.085  -7.049  1.00  0.00    -0.354 N 
ATOM     51  N   UNL     1       3.962   9.527  -7.089  1.00  0.00    -0.248 NA
ATOM     52  C   UNL     1       2.610  11.242  -7.925  1.00  0.00     0.031 C 
ATOM     53  C   UNL     1       8.106   8.715  -8.493  1.00  0.00     0.029 A 
ATOM     54  C   UNL     1       6.815   8.985  -8.064  1.00  0.00     0.049 A 
ATOM     55  H   UNL     1       5.697   8.044  -6.545  1.00  0.00     0.167 HD
ATOM     56  C   UNL     1       4.653  10.209  -8.082  1.00  0.00     0.074 A 
ATOM     57  C   UNL     1       3.767  11.245  -8.575  1.00  0.00     0.031 C 
ATOM     58  C   UNL     1       5.909   9.996  -8.546  1.00  0.00     0.031 A 
BRANCH  45  59
ATOM     59  C   UNL     1       8.955   5.405  -5.734  1.00  0.00    -0.014 A 
ATOM     60  C   UNL     1       9.024   4.073  -6.177  1.00  0.00     0.010 A 
ATOM     61  C   UNL     1      10.103   6.006  -5.186  1.00  0.00     0.010 A 
ATOM     62  C   UNL     1      10.209   3.344  -6.038  1.00  0.00     0.020 A 
ATOM     63  C   UNL     1      11.296   5.287  -5.065  1.00  0.00     0.020 A 
ATOM     64  C   UNL     1      11.335   3.953  -5.476  1.00  0.00     0.054 A 
BRANCH  64  65
ATOM     65  S   UNL     1      12.862   2.988  -5.312  1.00  0.00     0.124 S 
ATOM     66  O   UNL     1      12.554   2.132  -4.168  1.00  0.00    -0.237 OA
ATOM     67  O   UNL     1      12.953   2.305  -6.600  1.00  0.00    -0.237 OA
ATOM     68  O   UNL     1      13.888   4.000  -5.074  1.00  0.00    -0.744 OA
ENDBRANCH  64  65
ENDBRANCH  45  59
BRANCH  46  69
ATOM     69  C   UNL     1       0.377  10.566  -6.131  1.00  0.00    -0.014 A 
ATOM     70  C   UNL     1      -0.528  10.446  -7.199  1.00  0.00     0.010 A 
ATOM     71  C   UNL     1       0.061  11.421  -5.058  1.00  0.00     0.010 A 
ATOM     72  C   UNL     1      -1.723  11.171  -7.198  1.00  0.00     0.020 A 
ATOM     73  C   UNL     1      -1.144  12.129  -5.042  1.00  0.00     0.020 A 
ATOM     74  C   UNL     1      -2.025  12.006  -6.118  1.00  0.00     0.054 A 
BRANCH  74  75
ATOM     75  S   UNL     1      -3.611  12.887  -6.104  1.00  0.00     0.124 S 
ATOM     76  O   UNL     1      -3.357  13.982  -7.034  1.00  0.00    -0.237 OA
ATOM     77  O   UNL     1      -4.547  11.865  -6.567  1.00  0.00    -0.237 OA
ATOM     78  O   UNL     1      -3.772  13.277  -4.704  1.00  0.00    -0.744 OA
ENDBRANCH  74  75
ENDBRANCH  46  69
BRANCH  58  79
ATOM     79  C   UNL     1       6.388  10.864  -9.675  1.00  0.00    -0.014 A 
ATOM     80  C   UNL     1       6.835  12.175  -9.442  1.00  0.00     0.010 A 
ATOM     81  C   UNL     1       6.481  10.319 -10.968  1.00  0.00     0.010 A 
ATOM     82  C   UNL     1       7.367  12.931 -10.490  1.00  0.00     0.020 A 
ATOM     83  C   UNL     1       7.030  11.065 -12.013  1.00  0.00     0.020 A 
ATOM     84  C   UNL     1       7.466  12.369 -11.768  1.00  0.00     0.054 A 
BRANCH  84  85
ATOM     85  S   UNL     1       8.241  13.336 -13.092  1.00  0.00     0.124 S 
ATOM     86  O   UNL     1       7.178  14.274 -13.444  1.00  0.00    -0.237 OA
ATOM     87  O   UNL     1       9.402  13.922 -12.427  1.00  0.00    -0.237 OA
ATOM     88  O   UNL     1       8.553  12.337 -14.111  1.00  0.00    -0.744 OA
ENDBRANCH  84  85
ENDBRANCH  58  79
ENDBRANCH  32  33
ENDBRANCH  25  27
ENDBRANCH  24  25
ENDBRANCH   1  24
TORSDOF 16
