REMARK SMILES CC1=C(C)C[C@@H](C(=O)OCCOC(=O)c2ccc(-c3c4nc(c(-c5ccc(S(=O)(=O)[O-])cc5)c5ccc([nH]5)c(-c5ccc(S(=O)(=O)[O-])cc5)c5nc(c(-c6ccc(S(=O)(=O)[O-])cc6)c6ccc3[nH]6)C=C5)C=C4)cc2)[C@@H](C(=O)N2CCN(c3cccc(C(F)(F)F)c3)CC2)C1
REMARK SMILES IDX 10 1 9 2 7 3 8 4 6 5 1 6 2 7 3 8 94 9 4 10 5 11 75 12 76 13
REMARK SMILES IDX 77 14 78 15 79 16 93 17 80 18 92 19 81 20 82 21 83 22 91 23
REMARK SMILES IDX 84 24 86 25 85 26 87 27 88 28 89 29 90 30 11 31 12 32 13 33
REMARK SMILES IDX 14 34 15 35 16 36 74 37 17 38 73 39 18 40 19 41 20 42 67 43
REMARK SMILES IDX 21 44 72 45 66 46 68 47 22 48 71 49 65 50 64 51 23 53 53 54
REMARK SMILES IDX 34 55 52 56 35 57 38 58 51 59 69 60 36 61 37 62 50 64 70 65
REMARK SMILES IDX 39 66 24 67 25 68 33 69 26 70 32 71 27 72 28 73 29 74 30 75
REMARK SMILES IDX 31 76 54 77 55 78 63 79 56 80 62 81 57 82 58 83 59 84 60 85
REMARK SMILES IDX 61 86 40 87 41 88 49 89 42 90 48 91 43 92 44 93 45 94 46 95
REMARK SMILES IDX 47 96
REMARK H PARENT 68 52 38 63
REMARK Flexibility Score: inf
ROOT
ATOM      1  C   UNL     1       3.209  -1.609   5.684  1.00  0.00     0.274 C 
ENDROOT
BRANCH   1   2
ATOM      2  O   UNL     1       2.192  -1.141   4.764  1.00  0.00    -0.462 OA
BRANCH   2   3
ATOM      3  C   UNL     1       1.205  -2.019   4.503  1.00  0.00     0.310 C 
ATOM      4  O   UNL     1       1.183  -3.158   4.966  1.00  0.00    -0.252 OA
BRANCH   3   5
ATOM      5  C   UNL     1       0.121  -1.554   3.541  1.00  0.00     0.116 C 
ATOM      6  C   UNL     1       1.173   0.006  -0.481  1.00  0.00     0.039 C 
ATOM      7  C   UNL     1       0.692  -0.624   0.799  1.00  0.00    -0.074 C 
ATOM      8  C   UNL     1       0.805  -1.933   1.088  1.00  0.00    -0.073 C 
ATOM      9  C   UNL     1      -0.059   0.307   1.708  1.00  0.00     0.045 C 
ATOM     10  C   UNL     1       1.471  -2.955   0.209  1.00  0.00     0.039 C 
ATOM     11  C   UNL     1       0.160  -2.497   2.326  1.00  0.00     0.046 C 
ATOM     12  C   UNL     1      -0.188  -0.082   3.193  1.00  0.00     0.097 C 
BRANCH  12  13
ATOM     13  C   UNL     1       0.255   1.018   4.171  1.00  0.00     0.227 C 
ATOM     14  O   UNL     1      -0.341   1.185   5.231  1.00  0.00    -0.275 OA
ATOM     15  N   UNL     1       1.193   1.916   3.709  1.00  0.00    -0.339 N 
ATOM     16  C   UNL     1       2.573   1.888   4.179  1.00  0.00     0.141 C 
ATOM     17  C   UNL     1       0.767   3.267   3.332  1.00  0.00     0.141 C 
ATOM     18  C   UNL     1       3.523   2.335   3.058  1.00  0.00     0.138 C 
ATOM     19  C   UNL     1       1.678   3.825   2.219  1.00  0.00     0.138 C 
ATOM     20  N   UNL     1       3.102   3.648   2.554  1.00  0.00    -0.368 N 
BRANCH  20  21
ATOM     21  C   UNL     1       3.996   4.690   2.489  1.00  0.00     0.037 A 
ATOM     22  C   UNL     1       5.231   4.551   1.845  1.00  0.00     0.026 A 
ATOM     23  C   UNL     1       3.701   5.919   3.086  1.00  0.00     0.039 A 
ATOM     24  C   UNL     1       6.132   5.615   1.773  1.00  0.00     0.003 A 
ATOM     25  C   UNL     1       4.603   6.993   3.049  1.00  0.00     0.058 A 
ATOM     26  C   UNL     1       5.819   6.833   2.372  1.00  0.00     0.013 A 
BRANCH  25  27
ATOM     27  C   UNL     1       4.265   8.298   3.720  1.00  0.00     0.416 C 
ATOM     28  F   UNL     1       5.262   8.738   4.538  1.00  0.00    -0.166 F 
ATOM     29  F   UNL     1       4.052   9.300   2.822  1.00  0.00    -0.166 F 
ATOM     30  F   UNL     1       3.145   8.245   4.493  1.00  0.00    -0.166 F 
ENDBRANCH  25  27
ENDBRANCH  20  21
ENDBRANCH  12  13
ENDBRANCH   3   5
ENDBRANCH   2   3
ENDBRANCH   1   2
BRANCH   1  31
ATOM     31  C   UNL     1       2.897  -1.230   7.132  1.00  0.00     0.275 C 
BRANCH  31  32
ATOM     32  O   UNL     1       1.633  -1.785   7.528  1.00  0.00    -0.458 OA
BRANCH  32  33
ATOM     33  C   UNL     1       0.662  -0.874   7.777  1.00  0.00     0.338 C 
ATOM     34  O   UNL     1       0.788   0.337   7.801  1.00  0.00    -0.246 OA
BRANCH  33  35
ATOM     35  C   UNL     1      -0.594  -1.564   8.110  1.00  0.00     0.060 A 
ATOM     36  C   UNL     1      -1.325  -2.241   7.132  1.00  0.00     0.016 A 
ATOM     37  C   UNL     1      -1.095  -1.445   9.405  1.00  0.00     0.016 A 
ATOM     38  C   UNL     1      -2.583  -2.760   7.432  1.00  0.00     0.010 A 
ATOM     39  C   UNL     1      -2.328  -2.016   9.721  1.00  0.00     0.010 A 
ATOM     40  C   UNL     1      -3.092  -2.660   8.733  1.00  0.00    -0.014 A 
BRANCH  40  41
ATOM     41  C   UNL     1      -4.421  -3.224   9.069  1.00  0.00     0.031 A 
ATOM     42  C   UNL     1      -5.553  -2.312   9.450  1.00  0.00     0.074 A 
ATOM     43  C   UNL     1      -4.600  -4.559   9.053  1.00  0.00     0.049 A 
ATOM     44  N   UNL     1      -6.731  -2.618   9.931  1.00  0.00    -0.248 NA
ATOM     45  C   UNL     1      -5.330  -0.869   9.273  1.00  0.00     0.031 C 
ATOM     46  C   UNL     1      -3.591  -5.543   8.655  1.00  0.00     0.029 A 
ATOM     47  N   UNL     1      -5.693  -5.318   9.385  1.00  0.00    -0.354 N 
ATOM     48  C   UNL     1      -7.377  -1.406  10.150  1.00  0.00     0.074 A 
ATOM     49  C   UNL     1      -6.459  -0.360   9.749  1.00  0.00     0.031 C 
ATOM     50  C   UNL     1      -4.116  -6.774   8.755  1.00  0.00     0.029 A 
ATOM     51  C   UNL     1      -5.470  -6.670   9.286  1.00  0.00     0.049 A 
ATOM     52  H   UNL     1      -6.553  -4.931   9.667  1.00  0.00     0.167 HD
ATOM     53  C   UNL     1      -8.618  -1.188  10.649  1.00  0.00     0.031 A 
ATOM     54  C   UNL     1      -6.253  -7.713   9.621  1.00  0.00     0.031 A 
ATOM     55  C   UNL     1      -9.525  -2.237  11.038  1.00  0.00     0.049 A 
ATOM     56  C   UNL     1      -7.608  -7.448  10.210  1.00  0.00     0.074 A 
ATOM     57  C   UNL     1     -10.801  -2.123  11.563  1.00  0.00     0.029 A 
ATOM     58  N   UNL     1      -9.254  -3.594  10.937  1.00  0.00    -0.354 N 
ATOM     59  N   UNL     1      -8.187  -6.296  10.454  1.00  0.00    -0.248 NA
ATOM     60  C   UNL     1      -8.411  -8.621  10.579  1.00  0.00     0.031 C 
ATOM     61  C   UNL     1     -11.288  -3.413  11.810  1.00  0.00     0.029 A 
ATOM     62  C   UNL     1     -10.333  -4.328  11.399  1.00  0.00     0.049 A 
ATOM     63  H   UNL     1      -8.417  -3.978  10.588  1.00  0.00     0.167 HD
ATOM     64  C   UNL     1      -9.428  -6.605  10.995  1.00  0.00     0.074 A 
ATOM     65  C   UNL     1      -9.522  -8.051  11.028  1.00  0.00     0.031 C 
ATOM     66  C   UNL     1     -10.402  -5.767  11.428  1.00  0.00     0.031 A 
BRANCH  53  67
ATOM     67  C   UNL     1      -9.046   0.241  10.844  1.00  0.00    -0.014 A 
ATOM     68  C   UNL     1      -9.408   1.053   9.755  1.00  0.00     0.010 A 
ATOM     69  C   UNL     1      -9.113   0.772  12.145  1.00  0.00     0.010 A 
ATOM     70  C   UNL     1      -9.792   2.382   9.960  1.00  0.00     0.020 A 
ATOM     71  C   UNL     1      -9.516   2.094  12.357  1.00  0.00     0.020 A 
ATOM     72  C   UNL     1      -9.835   2.897  11.260  1.00  0.00     0.054 A 
BRANCH  72  73
ATOM     73  S   UNL     1     -10.347   4.621  11.505  1.00  0.00     0.124 S 
ATOM     74  O   UNL     1      -9.143   5.350  11.117  1.00  0.00    -0.237 OA
ATOM     75  O   UNL     1     -11.482   4.755  10.594  1.00  0.00    -0.237 OA
ATOM     76  O   UNL     1     -10.684   4.683  12.925  1.00  0.00    -0.744 OA
ENDBRANCH  72  73
ENDBRANCH  53  67
BRANCH  54  77
ATOM     77  C   UNL     1      -5.749  -9.100   9.436  1.00  0.00    -0.014 A 
ATOM     78  C   UNL     1      -6.257  -9.912   8.408  1.00  0.00     0.010 A 
ATOM     79  C   UNL     1      -4.723  -9.598  10.261  1.00  0.00     0.010 A 
ATOM     80  C   UNL     1      -5.748 -11.198   8.208  1.00  0.00     0.020 A 
ATOM     81  C   UNL     1      -4.196 -10.873  10.049  1.00  0.00     0.020 A 
ATOM     82  C   UNL     1      -4.717 -11.670   9.027  1.00  0.00     0.054 A 
BRANCH  82  83
ATOM     83  S   UNL     1      -4.012 -13.310   8.701  1.00  0.00     0.124 S 
ATOM     84  O   UNL     1      -5.001 -14.192   9.311  1.00  0.00    -0.237 OA
ATOM     85  O   UNL     1      -3.946 -13.346   7.242  1.00  0.00    -0.237 OA
ATOM     86  O   UNL     1      -2.715 -13.261   9.372  1.00  0.00    -0.744 OA
ENDBRANCH  82  83
ENDBRANCH  54  77
BRANCH  66  87
ATOM     87  C   UNL     1     -11.661  -6.400  11.949  1.00  0.00    -0.014 A 
ATOM     88  C   UNL     1     -11.703  -6.984  13.227  1.00  0.00     0.010 A 
ATOM     89  C   UNL     1     -12.824  -6.383  11.160  1.00  0.00     0.010 A 
ATOM     90  C   UNL     1     -12.882  -7.570  13.695  1.00  0.00     0.020 A 
ATOM     91  C   UNL     1     -14.010  -6.950  11.632  1.00  0.00     0.020 A 
ATOM     92  C   UNL     1     -14.026  -7.554  12.892  1.00  0.00     0.054 A 
BRANCH  92  93
ATOM     93  S   UNL     1     -15.556  -8.292  13.528  1.00  0.00     0.124 S 
ATOM     94  O   UNL     1     -15.315  -9.717  13.318  1.00  0.00    -0.237 OA
ATOM     95  O   UNL     1     -15.572  -7.857  14.923  1.00  0.00    -0.237 OA
ATOM     96  O   UNL     1     -16.597  -7.705  12.688  1.00  0.00    -0.744 OA
ENDBRANCH  92  93
ENDBRANCH  66  87
ENDBRANCH  40  41
ENDBRANCH  33  35
ENDBRANCH  32  33
ENDBRANCH  31  32
ENDBRANCH   1  31
TORSDOF 17
