REMARK SMILES Cc1cc(=O)c(Oc2ccc(C(=O)OCCOC(=O)c3ccc(-c4c5nc(c(-c6ccc(S(=O)(=O)[O-])cc6)c6ccc([nH]6)c(-c6ccc(S(=O)(=O)[O-])cc6)c6nc(c(-c7ccc(S(=O)(=O)[O-])cc7)c7ccc4[nH]7)C=C6)C=C5)cc3)cc2)c(-c2ccc(S(C)(=O)=O)cc2)o1
REMARK SMILES IDX 15 1 14 2 12 3 13 4 11 5 8 6 9 7 81 8 10 9 80 10 7 11 6 12
REMARK SMILES IDX 1 13 2 14 3 15 93 16 4 17 82 18 5 19 83 20 84 21 92 22 85 23
REMARK SMILES IDX 91 24 86 25 87 26 88 27 89 28 90 29 16 30 17 31 18 32 19 33
REMARK SMILES IDX 20 34 21 35 79 36 22 37 78 38 23 39 24 40 25 41 72 42 26 43
REMARK SMILES IDX 77 44 71 45 73 46 27 47 76 48 70 49 69 50 28 52 58 53 39 54
REMARK SMILES IDX 57 55 40 56 43 57 56 58 74 59 41 60 42 61 55 63 75 64 44 65
REMARK SMILES IDX 29 66 30 67 38 68 31 69 37 70 32 71 33 72 34 73 35 74 36 75
REMARK SMILES IDX 59 76 60 77 68 78 61 79 67 80 62 81 63 82 64 83 65 84 66 85
REMARK SMILES IDX 45 86 46 87 54 88 47 89 53 90 48 91 49 92 50 93 51 94 52 95
REMARK H PARENT 73 51 43 62
REMARK Flexibility Score: inf
ROOT
ATOM      1  C   UNL     1       0.980  11.733  -2.033  1.00  0.00     0.275 C 
ENDROOT
BRANCH   1   2
ATOM      2  O   UNL     1       0.345  10.532  -2.515  1.00  0.00    -0.458 OA
BRANCH   2   3
ATOM      3  C   UNL     1       1.044   9.793  -3.415  1.00  0.00     0.338 C 
ATOM      4  O   UNL     1       2.071  10.133  -3.983  1.00  0.00    -0.246 OA
BRANCH   3   5
ATOM      5  C   UNL     1       0.481   8.416  -3.501  1.00  0.00     0.060 A 
ATOM      6  C   UNL     1      -0.356   5.756  -3.286  1.00  0.00     0.127 A 
ATOM      7  C   UNL     1       0.933   6.031  -3.732  1.00  0.00     0.048 A 
ATOM      8  C   UNL     1      -1.259   6.801  -3.063  1.00  0.00     0.048 A 
ATOM      9  C   UNL     1       1.341   7.365  -3.860  1.00  0.00     0.019 A 
ATOM     10  C   UNL     1      -0.838   8.129  -3.140  1.00  0.00     0.019 A 
BRANCH   6  11
ATOM     11  O   UNL     1      -0.853   4.492  -3.122  1.00  0.00    -0.449 OA
BRANCH  11  12
ATOM     12  C   UNL     1      -0.170   3.508  -2.425  1.00  0.00     0.217 A 
ATOM     13  C   UNL     1       1.195   0.141  -0.095  1.00  0.00     0.088 C 
ATOM     14  C   UNL     1       0.735   1.217  -1.027  1.00  0.00     0.105 A 
ATOM     15  C   UNL     1       0.053   0.981  -2.150  1.00  0.00     0.098 A 
ATOM     16  O   UNL     1       1.060   2.490  -0.617  1.00  0.00    -0.457 OA
ATOM     17  C   UNL     1      -0.393   2.126  -2.961  1.00  0.00     0.228 A 
ATOM     18  C   UNL     1       0.523   3.602  -1.263  1.00  0.00     0.180 A 
ATOM     19  O   UNL     1      -0.976   1.919  -4.022  1.00  0.00    -0.285 OA
BRANCH  18  20
ATOM     20  C   UNL     1       0.765   4.807  -0.437  1.00  0.00     0.021 A 
ATOM     21  C   UNL     1       2.055   5.040   0.074  1.00  0.00     0.013 A 
ATOM     22  C   UNL     1      -0.283   5.621   0.007  1.00  0.00     0.013 A 
ATOM     23  C   UNL     1       2.291   6.043   1.021  1.00  0.00     0.021 A 
ATOM     24  C   UNL     1      -0.051   6.641   0.938  1.00  0.00     0.021 A 
ATOM     25  C   UNL     1       1.232   6.837   1.459  1.00  0.00     0.067 A 
BRANCH  25  26
ATOM     26  S   UNL     1       1.465   8.050   2.742  1.00  0.00     0.175 S 
ATOM     27  C   UNL     1       2.588   7.314   3.896  1.00  0.00     0.163 C 
ATOM     28  O   UNL     1       2.129   9.209   2.178  1.00  0.00    -0.224 OA
ATOM     29  O   UNL     1       0.193   8.196   3.430  1.00  0.00    -0.224 OA
ENDBRANCH  25  26
ENDBRANCH  18  20
ENDBRANCH  11  12
ENDBRANCH   6  11
ENDBRANCH   3   5
ENDBRANCH   2   3
ENDBRANCH   1   2
BRANCH   1  30
ATOM     30  C   UNL     1       1.605  11.540  -0.641  1.00  0.00     0.275 C 
BRANCH  30  31
ATOM     31  O   UNL     1       2.849  10.810  -0.664  1.00  0.00    -0.458 OA
BRANCH  31  32
ATOM     32  C   UNL     1       2.694   9.467  -0.644  1.00  0.00     0.338 C 
ATOM     33  O   UNL     1       1.639   8.859  -0.731  1.00  0.00    -0.246 OA
BRANCH  32  34
ATOM     34  C   UNL     1       3.977   8.749  -0.553  1.00  0.00     0.060 A 
ATOM     35  C   UNL     1       4.911   9.000   0.456  1.00  0.00     0.016 A 
ATOM     36  C   UNL     1       4.160   7.672  -1.423  1.00  0.00     0.016 A 
ATOM     37  C   UNL     1       6.040   8.178   0.572  1.00  0.00     0.010 A 
ATOM     38  C   UNL     1       5.270   6.847  -1.301  1.00  0.00     0.010 A 
ATOM     39  C   UNL     1       6.231   7.107  -0.317  1.00  0.00    -0.014 A 
BRANCH  39  40
ATOM     40  C   UNL     1       7.488   6.322  -0.345  1.00  0.00     0.031 A 
ATOM     41  C   UNL     1       8.461   6.588  -1.462  1.00  0.00     0.074 A 
ATOM     42  C   UNL     1       7.724   5.348   0.554  1.00  0.00     0.049 A 
ATOM     43  N   UNL     1       9.581   5.978  -1.741  1.00  0.00    -0.248 NA
ATOM     44  C   UNL     1       8.109   7.665  -2.405  1.00  0.00     0.031 C 
ATOM     45  C   UNL     1       6.832   4.971   1.650  1.00  0.00     0.029 A 
ATOM     46  N   UNL     1       8.787   4.486   0.679  1.00  0.00    -0.354 N 
ATOM     47  C   UNL     1      10.067   6.598  -2.886  1.00  0.00     0.074 A 
ATOM     48  C   UNL     1       9.092   7.584  -3.289  1.00  0.00     0.031 C 
ATOM     49  C   UNL     1       7.391   3.963   2.344  1.00  0.00     0.029 A 
ATOM     50  C   UNL     1       8.672   3.610   1.734  1.00  0.00     0.049 A 
ATOM     51  H   UNL     1       9.560   4.495   0.069  1.00  0.00     0.167 HD
ATOM     52  C   UNL     1      11.241   6.391  -3.523  1.00  0.00     0.031 A 
ATOM     53  C   UNL     1       9.510   2.643   2.162  1.00  0.00     0.031 A 
ATOM     54  C   UNL     1      12.218   5.428  -3.101  1.00  0.00     0.049 A 
ATOM     55  C   UNL     1      10.823   2.442   1.447  1.00  0.00     0.074 A 
ATOM     56  C   UNL     1      13.454   5.161  -3.662  1.00  0.00     0.029 A 
ATOM     57  N   UNL     1      12.082   4.594  -2.003  1.00  0.00    -0.354 N 
ATOM     58  N   UNL     1      11.289   3.074   0.396  1.00  0.00    -0.248 NA
ATOM     59  C   UNL     1      11.733   1.417   1.982  1.00  0.00     0.031 C 
ATOM     60  C   UNL     1      14.051   4.139  -2.922  1.00  0.00     0.029 A 
ATOM     61  C   UNL     1      13.212   3.811  -1.868  1.00  0.00     0.049 A 
ATOM     62  H   UNL     1      11.297   4.564  -1.409  1.00  0.00     0.167 HD
ATOM     63  C   UNL     1      12.553   2.542   0.160  1.00  0.00     0.074 A 
ATOM     64  C   UNL     1      12.787   1.547   1.186  1.00  0.00     0.031 C 
ATOM     65  C   UNL     1      13.436   2.845  -0.822  1.00  0.00     0.031 A 
BRANCH  52  66
ATOM     66  C   UNL     1      11.567   7.258  -4.708  1.00  0.00    -0.014 A 
ATOM     67  C   UNL     1      11.662   6.699  -5.994  1.00  0.00     0.010 A 
ATOM     68  C   UNL     1      11.889   8.615  -4.523  1.00  0.00     0.010 A 
ATOM     69  C   UNL     1      12.109   7.472  -7.069  1.00  0.00     0.020 A 
ATOM     70  C   UNL     1      12.309   9.398  -5.600  1.00  0.00     0.020 A 
ATOM     71  C   UNL     1      12.441   8.814  -6.862  1.00  0.00     0.054 A 
BRANCH  71  72
ATOM     72  S   UNL     1      13.063   9.791  -8.257  1.00  0.00     0.124 S 
ATOM     73  O   UNL     1      14.425   9.288  -8.401  1.00  0.00    -0.237 OA
ATOM     74  O   UNL     1      12.140   9.435  -9.332  1.00  0.00    -0.237 OA
ATOM     75  O   UNL     1      12.952  11.170  -7.785  1.00  0.00    -0.744 OA
ENDBRANCH  71  72
ENDBRANCH  52  66
BRANCH  53  76
ATOM     76  C   UNL     1       9.152   1.829   3.359  1.00  0.00    -0.014 A 
ATOM     77  C   UNL     1       8.098   0.899   3.304  1.00  0.00     0.010 A 
ATOM     78  C   UNL     1       9.838   2.009   4.574  1.00  0.00     0.010 A 
ATOM     79  C   UNL     1       7.714   0.190   4.447  1.00  0.00     0.020 A 
ATOM     80  C   UNL     1       9.475   1.282   5.713  1.00  0.00     0.020 A 
ATOM     81  C   UNL     1       8.398   0.395   5.648  1.00  0.00     0.054 A 
BRANCH  81  82
ATOM     82  S   UNL     1       7.866  -0.514   7.126  1.00  0.00     0.124 S 
ATOM     83  O   UNL     1       6.682   0.241   7.528  1.00  0.00    -0.237 OA
ATOM     84  O   UNL     1       7.609  -1.854   6.603  1.00  0.00    -0.237 OA
ATOM     85  O   UNL     1       9.012  -0.407   8.024  1.00  0.00    -0.744 OA
ENDBRANCH  81  82
ENDBRANCH  53  76
BRANCH  65  86
ATOM     86  C   UNL     1      14.756   2.123  -0.855  1.00  0.00    -0.014 A 
ATOM     87  C   UNL     1      15.942   2.838  -0.600  1.00  0.00     0.010 A 
ATOM     88  C   UNL     1      14.835   0.800  -1.321  1.00  0.00     0.010 A 
ATOM     89  C   UNL     1      17.186   2.259  -0.860  1.00  0.00     0.020 A 
ATOM     90  C   UNL     1      16.079   0.209  -1.558  1.00  0.00     0.020 A 
ATOM     91  C   UNL     1      17.245   0.954  -1.355  1.00  0.00     0.054 A 
BRANCH  91  92
ATOM     92  S   UNL     1      18.864   0.242  -1.757  1.00  0.00     0.124 S 
ATOM     93  O   UNL     1      19.173   0.881  -3.032  1.00  0.00    -0.237 OA
ATOM     94  O   UNL     1      19.689   0.660  -0.626  1.00  0.00    -0.237 OA
ATOM     95  O   UNL     1      18.598  -1.194  -1.825  1.00  0.00    -0.744 OA
ENDBRANCH  91  92
ENDBRANCH  65  86
ENDBRANCH  39  40
ENDBRANCH  32  34
ENDBRANCH  31  32
ENDBRANCH  30  31
ENDBRANCH   1  30
TORSDOF 18
