REMARK SMILES Cc1cccc(OC2(C(=O)OCCOC(=O)c3ccc(-c4c5nc(c(-c6ccc(S(=O)(=O)[O-])cc6)c6ccc([nH]6)c(-c6ccc(S(=O)(=O)[O-])cc6)c6nc(c(-c7ccc(S(=O)(=O)[O-])cc7)c7ccc4[nH]7)C=C6)C=C5)cc3)CCN(C(=O)c3cnc[nH]c3=O)CC2)c1
REMARK SMILES IDX 13 1 12 2 11 3 9 4 10 5 8 6 77 7 90 8 78 9 89 10 79 11 80 12
REMARK SMILES IDX 81 13 7 14 6 15 1 16 2 17 3 18 91 19 4 20 5 21 82 22 83 23
REMARK SMILES IDX 87 24 84 25 86 26 88 27 85 28 14 30 15 31 16 32 17 33 18 34
REMARK SMILES IDX 76 35 19 36 75 37 20 38 21 39 22 40 69 41 23 42 74 43 68 44
REMARK SMILES IDX 70 45 24 46 73 47 67 48 66 49 25 51 55 52 36 53 54 54 37 55
REMARK SMILES IDX 40 56 53 57 71 58 38 59 39 60 52 62 72 63 41 64 26 65 27 66
REMARK SMILES IDX 35 67 28 68 34 69 29 70 30 71 31 72 32 73 33 74 56 75 57 76
REMARK SMILES IDX 65 77 58 78 64 79 59 80 60 81 61 82 62 83 63 84 42 85 43 86
REMARK SMILES IDX 51 87 44 88 50 89 45 90 46 91 47 92 48 93 49 94
REMARK H PARENT 86 29 70 50 40 61
REMARK Flexibility Score: inf
ROOT
ATOM      1  C   UNL     1       1.588   4.325  -3.751  1.00  0.00     0.275 C 
ENDROOT
BRANCH   1   2
ATOM      2  C   UNL     1       0.814   5.247  -2.780  1.00  0.00     0.274 C 
BRANCH   2   3
ATOM      3  O   UNL     1       0.446   4.454  -1.657  1.00  0.00    -0.459 OA
BRANCH   3   4
ATOM      4  C   UNL     1      -0.231   4.961  -0.590  1.00  0.00     0.350 C 
ATOM      5  O   UNL     1      -0.794   6.044  -0.564  1.00  0.00    -0.247 OA
BRANCH   4   6
ATOM      6  C   UNL     1       0.136   4.071   0.617  1.00  0.00     0.209 C 
ATOM      7  C   UNL     1       1.686   4.267   0.555  1.00  0.00     0.082 C 
ATOM      8  C   UNL     1      -0.519   4.591   1.907  1.00  0.00     0.082 C 
ATOM      9  C   UNL     1       2.431   4.180   1.857  1.00  0.00     0.124 C 
ATOM     10  C   UNL     1       0.335   4.168   3.091  1.00  0.00     0.124 C 
ATOM     11  N   UNL     1       1.645   4.784   2.902  1.00  0.00    -0.338 N 
ATOM     12  C   UNL     1       1.908   6.086   3.306  1.00  0.00     0.261 C 
ATOM     13  O   UNL     1       2.575   6.894   2.668  1.00  0.00    -0.269 OA
BRANCH   6  14
ATOM     14  O   UNL     1      -0.500   2.810   0.395  1.00  0.00    -0.475 OA
BRANCH  14  15
ATOM     15  C   UNL     1      -0.062   1.556   0.667  1.00  0.00     0.121 A 
ATOM     16  C   UNL     1       2.936  -0.667   0.081  1.00  0.00     0.044 C 
ATOM     17  C   UNL     1       1.552  -0.249   0.473  1.00  0.00    -0.047 A 
ATOM     18  C   UNL     1       0.537  -1.194   0.623  1.00  0.00     0.003 A 
ATOM     19  C   UNL     1       1.244   1.118   0.536  1.00  0.00     0.050 A 
ATOM     20  C   UNL     1      -0.772  -0.771   0.829  1.00  0.00     0.004 A 
ATOM     21  C   UNL     1      -1.068   0.597   0.844  1.00  0.00     0.046 A 
ENDBRANCH  14  15
ENDBRANCH   6  14
BRANCH  12  22
ATOM     22  C   UNL     1       1.339   6.420   4.620  1.00  0.00     0.123 A 
ATOM     23  C   UNL     1       0.457   7.417   4.768  1.00  0.00     0.132 A 
ATOM     24  C   UNL     1       1.621   5.573   5.793  1.00  0.00     0.263 A 
ATOM     25  N   UNL     1      -0.222   7.689   5.935  1.00  0.00    -0.246 NA
ATOM     26  N   UNL     1       0.859   5.841   6.891  1.00  0.00    -0.312 N 
ATOM     27  O   UNL     1       2.463   4.683   5.807  1.00  0.00    -0.269 OA
ATOM     28  C   UNL     1      -0.012   6.888   6.924  1.00  0.00     0.199 A 
ATOM     29  H   UNL     1       0.941   5.261   7.683  1.00  0.00     0.171 HD
ENDBRANCH  12  22
ENDBRANCH   4   6
ENDBRANCH   3   4
ENDBRANCH   2   3
ENDBRANCH   1   2
BRANCH   1  30
ATOM     30  O   UNL     1       0.994   3.074  -4.194  1.00  0.00    -0.458 OA
BRANCH  30  31
ATOM     31  C   UNL     1       0.245   2.344  -3.301  1.00  0.00     0.338 C 
ATOM     32  O   UNL     1       0.747   1.641  -2.455  1.00  0.00    -0.246 OA
BRANCH  31  33
ATOM     33  C   UNL     1      -1.168   2.842  -3.383  1.00  0.00     0.060 A 
ATOM     34  C   UNL     1      -1.999   2.823  -2.249  1.00  0.00     0.016 A 
ATOM     35  C   UNL     1      -1.410   3.738  -4.417  1.00  0.00     0.016 A 
ATOM     36  C   UNL     1      -2.933   3.842  -2.053  1.00  0.00     0.010 A 
ATOM     37  C   UNL     1      -2.153   4.847  -4.134  1.00  0.00     0.010 A 
ATOM     38  C   UNL     1      -2.945   4.887  -2.975  1.00  0.00    -0.014 A 
BRANCH  38  39
ATOM     39  C   UNL     1      -3.995   5.889  -3.085  1.00  0.00     0.031 A 
ATOM     40  C   UNL     1      -4.016   7.060  -2.185  1.00  0.00     0.074 A 
ATOM     41  C   UNL     1      -4.761   5.615  -4.170  1.00  0.00     0.049 A 
ATOM     42  N   UNL     1      -5.042   7.479  -1.522  1.00  0.00    -0.248 NA
ATOM     43  C   UNL     1      -2.804   7.836  -1.879  1.00  0.00     0.031 C 
ATOM     44  C   UNL     1      -5.746   6.375  -4.903  1.00  0.00     0.029 A 
ATOM     45  N   UNL     1      -4.798   4.360  -4.818  1.00  0.00    -0.354 N 
ATOM     46  C   UNL     1      -4.710   8.764  -1.110  1.00  0.00     0.074 A 
ATOM     47  C   UNL     1      -3.273   8.818  -1.095  1.00  0.00     0.031 C 
ATOM     48  C   UNL     1      -6.520   5.504  -5.590  1.00  0.00     0.029 A 
ATOM     49  C   UNL     1      -6.090   4.147  -5.249  1.00  0.00     0.049 A 
ATOM     50  H   UNL     1      -4.037   3.748  -4.940  1.00  0.00     0.167 HD
ATOM     51  C   UNL     1      -5.598   9.790  -1.276  1.00  0.00     0.031 A 
ATOM     52  C   UNL     1      -6.816   3.160  -4.645  1.00  0.00     0.031 A 
ATOM     53  C   UNL     1      -6.724   9.310  -2.065  1.00  0.00     0.049 A 
ATOM     54  C   UNL     1      -7.886   3.831  -3.832  1.00  0.00     0.074 A 
ATOM     55  C   UNL     1      -6.951   9.389  -3.429  1.00  0.00     0.029 A 
ATOM     56  N   UNL     1      -7.554   8.319  -1.571  1.00  0.00    -0.354 N 
ATOM     57  N   UNL     1      -7.722   4.950  -3.177  1.00  0.00    -0.248 NA
ATOM     58  C   UNL     1      -9.261   3.357  -3.848  1.00  0.00     0.031 C 
ATOM     59  C   UNL     1      -7.914   8.409  -3.761  1.00  0.00     0.029 A 
ATOM     60  C   UNL     1      -8.222   7.704  -2.610  1.00  0.00     0.049 A 
ATOM     61  H   UNL     1      -7.653   8.087  -0.619  1.00  0.00     0.167 HD
ATOM     62  C   UNL     1      -8.962   5.424  -2.831  1.00  0.00     0.074 A 
ATOM     63  C   UNL     1      -9.883   4.372  -3.230  1.00  0.00     0.031 C 
ATOM     64  C   UNL     1      -9.200   6.673  -2.337  1.00  0.00     0.031 A 
BRANCH  51  65
ATOM     65  C   UNL     1      -5.287  11.270  -1.154  1.00  0.00    -0.014 A 
ATOM     66  C   UNL     1      -5.997  12.184  -1.966  1.00  0.00     0.010 A 
ATOM     67  C   UNL     1      -4.367  11.832  -0.246  1.00  0.00     0.010 A 
ATOM     68  C   UNL     1      -5.773  13.563  -1.932  1.00  0.00     0.020 A 
ATOM     69  C   UNL     1      -4.130  13.225  -0.201  1.00  0.00     0.020 A 
ATOM     70  C   UNL     1      -4.834  14.081  -1.051  1.00  0.00     0.054 A 
BRANCH  70  71
ATOM     71  S   UNL     1      -4.589  15.879  -1.032  1.00  0.00     0.124 S 
ATOM     72  O   UNL     1      -4.163  16.153  -2.403  1.00  0.00    -0.237 OA
ATOM     73  O   UNL     1      -5.917  16.375  -0.679  1.00  0.00    -0.237 OA
ATOM     74  O   UNL     1      -3.561  16.080  -0.014  1.00  0.00    -0.744 OA
ENDBRANCH  70  71
ENDBRANCH  51  65
BRANCH  52  75
ATOM     75  C   UNL     1      -6.045   1.927  -4.245  1.00  0.00    -0.014 A 
ATOM     76  C   UNL     1      -5.383   1.217  -5.276  1.00  0.00     0.010 A 
ATOM     77  C   UNL     1      -5.698   1.619  -2.916  1.00  0.00     0.010 A 
ATOM     78  C   UNL     1      -4.340   0.323  -5.006  1.00  0.00     0.020 A 
ATOM     79  C   UNL     1      -4.662   0.700  -2.638  1.00  0.00     0.020 A 
ATOM     80  C   UNL     1      -3.968   0.085  -3.687  1.00  0.00     0.054 A 
BRANCH  80  81
ATOM     81  S   UNL     1      -2.435  -0.854  -3.389  1.00  0.00     0.124 S 
ATOM     82  O   UNL     1      -2.868  -2.233  -3.587  1.00  0.00    -0.237 OA
ATOM     83  O   UNL     1      -1.539  -0.320  -4.413  1.00  0.00    -0.237 OA
ATOM     84  O   UNL     1      -2.105  -0.497  -2.016  1.00  0.00    -0.744 OA
ENDBRANCH  80  81
ENDBRANCH  52  75
BRANCH  64  85
ATOM     85  C   UNL     1     -10.467   7.102  -1.655  1.00  0.00    -0.014 A 
ATOM     86  C   UNL     1     -11.383   6.196  -1.111  1.00  0.00     0.010 A 
ATOM     87  C   UNL     1     -10.688   8.480  -1.405  1.00  0.00     0.010 A 
ATOM     88  C   UNL     1     -12.519   6.642  -0.438  1.00  0.00     0.020 A 
ATOM     89  C   UNL     1     -11.779   8.933  -0.670  1.00  0.00     0.020 A 
ATOM     90  C   UNL     1     -12.711   8.007  -0.227  1.00  0.00     0.054 A 
BRANCH  90  91
ATOM     91  S   UNL     1     -14.177   8.552   0.668  1.00  0.00     0.124 S 
ATOM     92  O   UNL     1     -15.195   8.502  -0.379  1.00  0.00    -0.237 OA
ATOM     93  O   UNL     1     -14.306   7.543   1.717  1.00  0.00    -0.237 OA
ATOM     94  O   UNL     1     -13.821   9.888   1.137  1.00  0.00    -0.744 OA
ENDBRANCH  90  91
ENDBRANCH  64  85
ENDBRANCH  38  39
ENDBRANCH  31  33
ENDBRANCH  30  31
ENDBRANCH   1  30
TORSDOF 17
