REMARK SMILES N#Cc1ccccc1S(=O)(=O)N1CCC(C(=O)OCCOC(=O)c2ccc(-c3c4nc(c(-c5ccc(S(=O)(=O)[O-])cc5)c5ccc([nH]5)c(-c5ccc(S(=O)(=O)[O-])cc5)c5nc(c(-c6ccc(S(=O)(=O)[O-])cc6)c6ccc3[nH]6)C=C5)C=C4)cc2)CC1
REMARK SMILES IDX 19 1 18 2 16 3 17 4 15 5 12 6 13 7 85 8 14 9 84 10 9 11
REMARK SMILES IDX 10 12 11 13 8 14 3 15 4 16 5 17 7 18 6 19 2 20 1 21 20 22
REMARK SMILES IDX 21 23 22 24 23 25 24 26 25 27 83 28 26 29 82 30 27 31 28 32
REMARK SMILES IDX 29 33 76 34 30 35 81 36 75 37 77 38 31 39 80 40 74 41 73 42
REMARK SMILES IDX 32 44 62 45 43 46 61 47 44 48 47 49 60 50 78 51 45 52 46 53
REMARK SMILES IDX 59 55 79 56 48 57 33 58 34 59 42 60 35 61 41 62 36 63 37 64
REMARK SMILES IDX 38 65 39 66 40 67 63 68 64 69 72 70 65 71 71 72 66 73 67 74
REMARK SMILES IDX 68 75 69 76 70 77 49 78 50 79 58 80 51 81 57 82 52 83 53 84
REMARK SMILES IDX 54 85 55 86 56 87
REMARK H PARENT 77 43 47 54
REMARK Flexibility Score: inf
ROOT
ATOM      1  C   UNL     1      -8.507  -1.711  -0.510  1.00  0.00     0.274 C 
ENDROOT
BRANCH   1   2
ATOM      2  O   UNL     1      -7.098  -1.950  -0.343  1.00  0.00    -0.462 OA
BRANCH   2   3
ATOM      3  C   UNL     1      -6.276  -1.188  -1.105  1.00  0.00     0.309 C 
ATOM      4  O   UNL     1      -6.651  -0.419  -1.984  1.00  0.00    -0.252 OA
BRANCH   3   5
ATOM      5  C   UNL     1      -4.812  -1.364  -0.767  1.00  0.00     0.102 C 
ATOM      6  N   UNL     1      -2.143  -2.312  -0.323  1.00  0.00    -0.198 NA
ATOM      7  C   UNL     1      -3.017  -2.082   0.854  1.00  0.00     0.103 C 
ATOM      8  C   UNL     1      -2.571  -1.915  -1.681  1.00  0.00     0.103 C 
ATOM      9  C   UNL     1      -4.507  -2.088   0.534  1.00  0.00     0.032 C 
ATOM     10  C   UNL     1      -4.070  -2.061  -1.892  1.00  0.00     0.032 C 
BRANCH   6  11
ATOM     11  S   UNL     1      -0.493  -2.543  -0.043  1.00  0.00     0.244 S 
ATOM     12  O   UNL     1       0.017  -3.258  -1.198  1.00  0.00    -0.207 OA
ATOM     13  O   UNL     1      -0.344  -3.103   1.285  1.00  0.00    -0.207 OA
BRANCH  11  14
ATOM     14  C   UNL     1       0.425  -1.011  -0.012  1.00  0.00     0.100 A 
ATOM     15  C   UNL     1      -0.068   0.293   0.042  1.00  0.00     0.072 A 
ATOM     16  C   UNL     1       0.840   1.374   0.056  1.00  0.00     0.021 A 
ATOM     17  C   UNL     1       2.217   1.169   0.030  1.00  0.00     0.001 A 
ATOM     18  C   UNL     1       1.826  -1.202  -0.036  1.00  0.00     0.023 A 
ATOM     19  C   UNL     1       2.712  -0.125  -0.013  1.00  0.00     0.001 A 
BRANCH  15  20
ATOM     20  C   UNL     1      -1.440   0.675   0.093  1.00  0.00     0.101 C 
ATOM     21  N   UNL     1      -2.525   1.075   0.124  1.00  0.00    -0.192 NA
ENDBRANCH  15  20
ENDBRANCH  11  14
ENDBRANCH   6  11
ENDBRANCH   3   5
ENDBRANCH   2   3
ENDBRANCH   1   2
BRANCH   1  22
ATOM     22  C   UNL     1      -9.055  -0.856   0.634  1.00  0.00     0.275 C 
BRANCH  22  23
ATOM     23  O   UNL     1      -8.508   0.476   0.617  1.00  0.00    -0.458 OA
BRANCH  23  24
ATOM     24  C   UNL     1      -7.466   0.681   1.457  1.00  0.00     0.338 C 
ATOM     25  O   UNL     1      -6.958  -0.130   2.213  1.00  0.00    -0.246 OA
BRANCH  24  26
ATOM     26  C   UNL     1      -6.944   2.045   1.289  1.00  0.00     0.060 A 
ATOM     27  C   UNL     1      -5.750   2.217   0.593  1.00  0.00     0.016 A 
ATOM     28  C   UNL     1      -7.553   3.127   1.923  1.00  0.00     0.016 A 
ATOM     29  C   UNL     1      -5.133   3.465   0.552  1.00  0.00     0.010 A 
ATOM     30  C   UNL     1      -6.950   4.390   1.852  1.00  0.00     0.010 A 
ATOM     31  C   UNL     1      -5.725   4.566   1.183  1.00  0.00    -0.014 A 
BRANCH  31  32
ATOM     32  C   UNL     1      -5.045   5.887   1.168  1.00  0.00     0.031 A 
ATOM     33  C   UNL     1      -4.502   6.472   2.444  1.00  0.00     0.074 A 
ATOM     34  C   UNL     1      -4.909   6.560   0.009  1.00  0.00     0.049 A 
ATOM     35  N   UNL     1      -3.974   7.652   2.652  1.00  0.00    -0.248 NA
ATOM     36  C   UNL     1      -4.565   5.621   3.643  1.00  0.00     0.031 C 
ATOM     37  C   UNL     1      -5.344   6.080  -1.304  1.00  0.00     0.029 A 
ATOM     38  N   UNL     1      -4.368   7.795  -0.251  1.00  0.00    -0.354 N 
ATOM     39  C   UNL     1      -3.672   7.699   4.009  1.00  0.00     0.074 A 
ATOM     40  C   UNL     1      -4.091   6.434   4.577  1.00  0.00     0.031 C 
ATOM     41  C   UNL     1      -5.047   7.005  -2.230  1.00  0.00     0.029 A 
ATOM     42  C   UNL     1      -4.459   8.167  -1.571  1.00  0.00     0.049 A 
ATOM     43  H   UNL     1      -3.955   8.359   0.442  1.00  0.00     0.167 HD
ATOM     44  C   UNL     1      -3.100   8.704   4.716  1.00  0.00     0.031 A 
ATOM     45  C   UNL     1      -4.139   9.326  -2.180  1.00  0.00     0.031 A 
ATOM     46  C   UNL     1      -2.682   9.958   4.144  1.00  0.00     0.049 A 
ATOM     47  C   UNL     1      -3.570  10.452  -1.363  1.00  0.00     0.074 A 
ATOM     48  C   UNL     1      -2.076  11.032   4.774  1.00  0.00     0.029 A 
ATOM     49  N   UNL     1      -2.827  10.309   2.810  1.00  0.00    -0.354 N 
ATOM     50  N   UNL     1      -3.293  10.482  -0.081  1.00  0.00    -0.248 NA
ATOM     51  C   UNL     1      -3.270  11.702  -2.075  1.00  0.00     0.031 C 
ATOM     52  C   UNL     1      -1.907  12.053   3.833  1.00  0.00     0.029 A 
ATOM     53  C   UNL     1      -2.348  11.593   2.603  1.00  0.00     0.049 A 
ATOM     54  H   UNL     1      -3.213   9.732   2.113  1.00  0.00     0.167 HD
ATOM     55  C   UNL     1      -2.768  11.745   0.164  1.00  0.00     0.074 A 
ATOM     56  C   UNL     1      -2.748  12.443  -1.106  1.00  0.00     0.031 C 
ATOM     57  C   UNL     1      -2.339  12.279   1.335  1.00  0.00     0.031 A 
BRANCH  44  58
ATOM     58  C   UNL     1      -2.931   8.505   6.201  1.00  0.00    -0.014 A 
ATOM     59  C   UNL     1      -1.985   7.602   6.719  1.00  0.00     0.010 A 
ATOM     60  C   UNL     1      -3.711   9.262   7.094  1.00  0.00     0.010 A 
ATOM     61  C   UNL     1      -1.854   7.429   8.100  1.00  0.00     0.020 A 
ATOM     62  C   UNL     1      -3.563   9.114   8.476  1.00  0.00     0.020 A 
ATOM     63  C   UNL     1      -2.648   8.183   8.970  1.00  0.00     0.054 A 
BRANCH  63  64
ATOM     64  S   UNL     1      -2.448   7.947  10.758  1.00  0.00     0.124 S 
ATOM     65  O   UNL     1      -3.068   6.639  10.959  1.00  0.00    -0.237 OA
ATOM     66  O   UNL     1      -0.998   7.986  10.927  1.00  0.00    -0.237 OA
ATOM     67  O   UNL     1      -3.171   9.075  11.341  1.00  0.00    -0.744 OA
ENDBRANCH  63  64
ENDBRANCH  44  58
BRANCH  45  68
ATOM     68  C   UNL     1      -4.383   9.486  -3.640  1.00  0.00    -0.014 A 
ATOM     69  C   UNL     1      -3.308   9.571  -4.542  1.00  0.00     0.010 A 
ATOM     70  C   UNL     1      -5.699   9.534  -4.139  1.00  0.00     0.010 A 
ATOM     71  C   UNL     1      -3.544   9.712  -5.913  1.00  0.00     0.020 A 
ATOM     72  C   UNL     1      -5.939   9.645  -5.511  1.00  0.00     0.020 A 
ATOM     73  C   UNL     1      -4.858   9.743  -6.389  1.00  0.00     0.054 A 
BRANCH  73  74
ATOM     74  S   UNL     1      -5.138   9.866  -8.177  1.00  0.00     0.124 S 
ATOM     75  O   UNL     1      -4.788  11.257  -8.445  1.00  0.00    -0.237 OA
ATOM     76  O   UNL     1      -4.215   8.867  -8.710  1.00  0.00    -0.237 OA
ATOM     77  O   UNL     1      -6.554   9.536  -8.325  1.00  0.00    -0.744 OA
ENDBRANCH  73  74
ENDBRANCH  45  68
BRANCH  57  78
ATOM     78  C   UNL     1      -1.779  13.676   1.294  1.00  0.00    -0.014 A 
ATOM     79  C   UNL     1      -2.614  14.793   1.109  1.00  0.00     0.010 A 
ATOM     80  C   UNL     1      -0.401  13.877   1.494  1.00  0.00     0.010 A 
ATOM     81  C   UNL     1      -2.075  16.082   1.092  1.00  0.00     0.020 A 
ATOM     82  C   UNL     1       0.137  15.166   1.507  1.00  0.00     0.020 A 
ATOM     83  C   UNL     1      -0.702  16.261   1.291  1.00  0.00     0.054 A 
BRANCH  83  84
ATOM     84  S   UNL     1      -0.034  17.947   1.308  1.00  0.00     0.124 S 
ATOM     85  O   UNL     1      -0.082  18.308  -0.106  1.00  0.00    -0.237 OA
ATOM     86  O   UNL     1      -0.975  18.657   2.171  1.00  0.00    -0.237 OA
ATOM     87  O   UNL     1       1.308  17.782   1.864  1.00  0.00    -0.744 OA
ENDBRANCH  83  84
ENDBRANCH  57  78
ENDBRANCH  31  32
ENDBRANCH  24  26
ENDBRANCH  23  24
ENDBRANCH  22  23
ENDBRANCH   1  22
TORSDOF 17
