REMARK SMILES CC(C)(C)OC(=O)[C@@H]1[NH2+][C@H](C(=O)OCCOC(=O)c2ccc(-c3c4nc(c(-c5ccc(S(=O)(=O)[O-])cc5)c5ccc([nH]5)c(-c5ccc(S(=O)(=O)[O-])cc5)c5nc(c(-c6ccc(S(=O)(=O)[O-])cc6)c6ccc3[nH]6)C=C5)C=C4)cc2)C(C)(C)S1
REMARK SMILES IDX 14 1 13 2 11 3 12 4 10 5 8 6 9 7 82 8 79 11 80 12 81 13 6 14
REMARK SMILES IDX 7 15 5 16 2 17 1 18 3 19 4 20 15 21 16 22 17 23 18 24 19 25
REMARK SMILES IDX 20 26 78 27 21 28 77 29 22 30 23 31 24 32 71 33 25 34 76 35
REMARK SMILES IDX 70 36 72 37 26 38 75 39 69 40 68 41 27 43 57 44 38 45 56 46
REMARK SMILES IDX 39 47 42 48 55 49 73 50 40 51 41 52 54 54 74 55 43 56 28 57
REMARK SMILES IDX 29 58 37 59 30 60 36 61 31 62 32 63 33 64 34 65 35 66 58 67
REMARK SMILES IDX 59 68 67 69 60 70 66 71 61 72 62 73 63 74 64 75 65 76 44 77
REMARK SMILES IDX 45 78 53 79 46 80 52 81 47 82 48 83 49 84 50 85 51 86
REMARK H PARENT 9 9 9 10 72 42 42 53
REMARK Flexibility Score: inf
ROOT
ATOM      1  C   UNL     1       1.352  -3.059  -7.974  1.00  0.00     0.274 C 
ENDROOT
BRANCH   1   2
ATOM      2  O   UNL     1       1.474  -3.170  -6.543  1.00  0.00    -0.458 OA
BRANCH   2   3
ATOM      3  C   UNL     1       2.340  -4.113  -6.097  1.00  0.00     0.366 C 
ATOM      4  O   UNL     1       2.963  -4.864  -6.844  1.00  0.00    -0.245 OA
BRANCH   3   5
ATOM      5  C   UNL     1       2.580  -4.097  -4.576  1.00  0.00     0.310 C 
ATOM      6  C   UNL     1       0.569  -3.535  -3.390  1.00  0.00     0.354 C 
ATOM      7  N   UNL     1       1.877  -3.022  -3.819  1.00  0.00    -0.313 N 
ATOM      8  S   UNL     1       0.679  -5.337  -3.220  1.00  0.00    -0.074 SA
ATOM      9  H   UNL     1       2.429  -2.759  -3.002  1.00  0.00     0.348 HD
ATOM     10  H   UNL     1       1.754  -2.200  -4.410  1.00  0.00     0.348 HD
ATOM     11  C   UNL     1       2.386  -5.451  -3.864  1.00  0.00     0.079 C 
ATOM     12  C   UNL     1       3.369  -5.571  -2.683  1.00  0.00     0.030 C 
ATOM     13  C   UNL     1       2.525  -6.702  -4.735  1.00  0.00     0.030 C 
BRANCH   6  14
ATOM     14  C   UNL     1      -0.530  -3.069  -4.365  1.00  0.00     0.376 C 
ATOM     15  O   UNL     1      -1.064  -3.748  -5.232  1.00  0.00    -0.244 OA
BRANCH  14  16
ATOM     16  O   UNL     1      -0.793  -1.746  -4.121  1.00  0.00    -0.455 OA
BRANCH  16  17
ATOM     17  C   UNL     1      -1.629  -0.945  -4.995  1.00  0.00     0.104 C 
ATOM     18  C   UNL     1      -1.933   0.327  -4.190  1.00  0.00     0.056 C 
ATOM     19  C   UNL     1      -2.952  -1.626  -5.358  1.00  0.00     0.056 C 
ATOM     20  C   UNL     1      -0.844  -0.550  -6.246  1.00  0.00     0.056 C 
ENDBRANCH  16  17
ENDBRANCH  14  16
ENDBRANCH   6  14
ENDBRANCH   3   5
ENDBRANCH   2   3
ENDBRANCH   1   2
BRANCH   1  21
ATOM     21  C   UNL     1       2.183  -1.885  -8.499  1.00  0.00     0.275 C 
BRANCH  21  22
ATOM     22  O   UNL     1       3.590  -2.195  -8.500  1.00  0.00    -0.458 OA
BRANCH  22  23
ATOM     23  C   UNL     1       4.248  -1.907  -7.352  1.00  0.00     0.338 C 
ATOM     24  O   UNL     1       3.807  -1.346  -6.365  1.00  0.00    -0.246 OA
BRANCH  23  25
ATOM     25  C   UNL     1       5.582  -2.528  -7.387  1.00  0.00     0.060 A 
ATOM     26  C   UNL     1       5.899  -3.454  -6.391  1.00  0.00     0.016 A 
ATOM     27  C   UNL     1       6.528  -2.172  -8.344  1.00  0.00     0.016 A 
ATOM     28  C   UNL     1       7.157  -4.028  -6.328  1.00  0.00     0.010 A 
ATOM     29  C   UNL     1       7.796  -2.757  -8.292  1.00  0.00     0.010 A 
ATOM     30  C   UNL     1       8.116  -3.681  -7.279  1.00  0.00    -0.014 A 
BRANCH  30  31
ATOM     31  C   UNL     1       9.472  -4.253  -7.171  1.00  0.00     0.031 A 
ATOM     32  C   UNL     1      10.602  -3.374  -6.728  1.00  0.00     0.074 A 
ATOM     33  C   UNL     1       9.668  -5.556  -7.442  1.00  0.00     0.049 A 
ATOM     34  N   UNL     1      11.879  -3.640  -6.675  1.00  0.00    -0.248 NA
ATOM     35  C   UNL     1      10.248  -2.014  -6.288  1.00  0.00     0.031 C 
ATOM     36  C   UNL     1       8.619  -6.514  -7.801  1.00  0.00     0.029 A 
ATOM     37  N   UNL     1      10.819  -6.299  -7.460  1.00  0.00    -0.354 N 
ATOM     38  C   UNL     1      12.488  -2.472  -6.234  1.00  0.00     0.074 A 
ATOM     39  C   UNL     1      11.441  -1.493  -6.038  1.00  0.00     0.031 C 
ATOM     40  C   UNL     1       9.178  -7.718  -8.006  1.00  0.00     0.029 A 
ATOM     41  C   UNL     1      10.624  -7.600  -7.858  1.00  0.00     0.049 A 
ATOM     42  H   UNL     1      11.700  -5.936  -7.213  1.00  0.00     0.167 HD
ATOM     43  C   UNL     1      13.804  -2.243  -6.021  1.00  0.00     0.031 A 
ATOM     44  C   UNL     1      11.518  -8.573  -8.116  1.00  0.00     0.031 A 
ATOM     45  C   UNL     1      14.827  -3.234  -6.222  1.00  0.00     0.049 A 
ATOM     46  C   UNL     1      12.982  -8.265  -7.954  1.00  0.00     0.074 A 
ATOM     47  C   UNL     1      16.191  -3.114  -6.028  1.00  0.00     0.029 A 
ATOM     48  N   UNL     1      14.597  -4.528  -6.668  1.00  0.00    -0.354 N 
ATOM     49  N   UNL     1      13.550  -7.154  -7.543  1.00  0.00    -0.248 NA
ATOM     50  C   UNL     1      13.927  -9.336  -8.294  1.00  0.00     0.031 C 
ATOM     51  C   UNL     1      16.792  -4.316  -6.416  1.00  0.00     0.029 A 
ATOM     52  C   UNL     1      15.797  -5.207  -6.786  1.00  0.00     0.049 A 
ATOM     53  H   UNL     1      13.711  -4.907  -6.870  1.00  0.00     0.167 HD
ATOM     54  C   UNL     1      14.917  -7.402  -7.552  1.00  0.00     0.074 A 
ATOM     55  C   UNL     1      15.089  -8.772  -7.994  1.00  0.00     0.031 C 
ATOM     56  C   UNL     1      15.939  -6.574  -7.224  1.00  0.00     0.031 A 
BRANCH  43  57
ATOM     57  C   UNL     1      14.214  -0.855  -5.607  1.00  0.00    -0.014 A 
ATOM     58  C   UNL     1      13.929  -0.354  -4.325  1.00  0.00     0.010 A 
ATOM     59  C   UNL     1      14.929  -0.050  -6.513  1.00  0.00     0.010 A 
ATOM     60  C   UNL     1      14.322   0.940  -3.969  1.00  0.00     0.020 A 
ATOM     61  C   UNL     1      15.348   1.233  -6.152  1.00  0.00     0.020 A 
ATOM     62  C   UNL     1      15.027   1.726  -4.886  1.00  0.00     0.054 A 
BRANCH  62  63
ATOM     63  S   UNL     1      15.547   3.391  -4.388  1.00  0.00     0.124 S 
ATOM     64  O   UNL     1      14.276   4.111  -4.375  1.00  0.00    -0.237 OA
ATOM     65  O   UNL     1      16.151   3.159  -3.079  1.00  0.00    -0.237 OA
ATOM     66  O   UNL     1      16.479   3.793  -5.439  1.00  0.00    -0.744 OA
ENDBRANCH  62  63
ENDBRANCH  43  57
BRANCH  44  67
ATOM     67  C   UNL     1      11.058  -9.905  -8.596  1.00  0.00    -0.014 A 
ATOM     68  C   UNL     1      11.213 -11.049  -7.796  1.00  0.00     0.010 A 
ATOM     69  C   UNL     1      10.458 -10.034  -9.863  1.00  0.00     0.010 A 
ATOM     70  C   UNL     1      10.796 -12.300  -8.261  1.00  0.00     0.020 A 
ATOM     71  C   UNL     1      10.011 -11.278 -10.319  1.00  0.00     0.020 A 
ATOM     72  C   UNL     1      10.197 -12.406  -9.520  1.00  0.00     0.054 A 
BRANCH  72  73
ATOM     73  S   UNL     1       9.632 -14.035 -10.086  1.00  0.00     0.124 S 
ATOM     74  O   UNL     1      10.893 -14.707 -10.380  1.00  0.00    -0.237 OA
ATOM     75  O   UNL     1       8.902 -14.536  -8.924  1.00  0.00    -0.237 OA
ATOM     76  O   UNL     1       8.802 -13.724 -11.247  1.00  0.00    -0.744 OA
ENDBRANCH  72  73
ENDBRANCH  44  67
BRANCH  56  77
ATOM     77  C   UNL     1      17.333  -7.137  -7.291  1.00  0.00    -0.014 A 
ATOM     78  C   UNL     1      17.961  -7.385  -8.524  1.00  0.00     0.010 A 
ATOM     79  C   UNL     1      18.046  -7.356  -6.098  1.00  0.00     0.010 A 
ATOM     80  C   UNL     1      19.273  -7.865  -8.561  1.00  0.00     0.020 A 
ATOM     81  C   UNL     1      19.367  -7.807  -6.132  1.00  0.00     0.020 A 
ATOM     82  C   UNL     1      19.968  -8.069  -7.364  1.00  0.00     0.054 A 
BRANCH  82  83
ATOM     83  S   UNL     1      21.689  -8.636  -7.442  1.00  0.00     0.124 S 
ATOM     84  O   UNL     1      21.532 -10.031  -7.843  1.00  0.00    -0.237 OA
ATOM     85  O   UNL     1      22.271  -7.753  -8.451  1.00  0.00    -0.237 OA
ATOM     86  O   UNL     1      22.184  -8.430  -6.083  1.00  0.00    -0.744 OA
ENDBRANCH  82  83
ENDBRANCH  56  77
ENDBRANCH  30  31
ENDBRANCH  23  25
ENDBRANCH  22  23
ENDBRANCH  21  22
ENDBRANCH   1  21
TORSDOF 17
