REMARK SMILES COc1ccccc1[C@@H]1C[N@@H+](Cc2cc3c(cc2C)OCO3)C[C@H]1C(=O)OCCOC(=O)c1ccc(-c2c3nc(c(-c4ccc(S(=O)(=O)[O-])cc4)c4ccc([nH]4)c(-c4ccc(S(=O)(=O)[O-])cc4)c4nc(c(-c5ccc(S(=O)(=O)[O-])cc5)c5ccc2[nH]5)C=C4)C=C3)cc1
REMARK SMILES IDX 29 1 28 2 27 3 25 4 26 5 24 6 9 7 10 8 11 9 23 10 8 12 3 13
REMARK SMILES IDX 4 14 5 15 7 16 6 17 2 18 1 19 12 20 13 21 14 22 18 23 15 24
REMARK SMILES IDX 17 25 19 26 16 27 22 28 20 29 21 30 30 31 31 32 32 33 33 34
REMARK SMILES IDX 34 35 92 36 35 37 91 38 36 39 37 40 38 41 85 42 39 43 90 44
REMARK SMILES IDX 84 45 86 46 40 47 89 48 83 49 82 50 41 52 71 53 52 54 70 55
REMARK SMILES IDX 53 56 56 57 69 58 87 59 54 60 55 61 68 63 88 64 57 65 42 66
REMARK SMILES IDX 43 67 51 68 44 69 50 70 45 71 46 72 47 73 48 74 49 75 72 76
REMARK SMILES IDX 73 77 81 78 74 79 80 80 75 81 76 82 77 83 78 84 79 85 58 86
REMARK SMILES IDX 59 87 67 88 60 89 66 90 61 91 62 92 63 93 64 94 65 95
REMARK H PARENT 11 11 86 51 56 62
REMARK Flexibility Score: inf
ROOT
ATOM      1  C   UNL     1       3.041  -3.080   4.973  1.00  0.00     0.275 C 
ENDROOT
BRANCH   1   2
ATOM      2  C   UNL     1       3.260  -3.354   3.485  1.00  0.00     0.274 C 
BRANCH   2   3
ATOM      3  O   UNL     1       3.178  -2.119   2.734  1.00  0.00    -0.462 OA
BRANCH   3   4
ATOM      4  C   UNL     1       2.763  -2.246   1.452  1.00  0.00     0.315 C 
ATOM      5  O   UNL     1       2.512  -3.328   0.926  1.00  0.00    -0.252 OA
BRANCH   4   6
ATOM      6  C   UNL     1       2.539  -0.942   0.704  1.00  0.00     0.167 C 
ATOM      7  C   UNL     1       2.906   0.406   1.327  1.00  0.00     0.098 C 
ATOM      8  C   UNL     1       3.602   1.191   0.206  1.00  0.00     0.272 C 
ATOM      9  N   UNL     1       4.174   0.195  -0.700  1.00  0.00    -0.330 N 
ATOM     10  C   UNL     1       3.307  -0.983  -0.623  1.00  0.00     0.278 C 
ATOM     11  H   UNL     1       4.175   0.551  -1.656  1.00  0.00     0.348 HD
BRANCH   7  12
ATOM     12  C   UNL     1       1.859   1.279   2.022  1.00  0.00     0.004 A 
ATOM     13  C   UNL     1       0.536   1.604   1.669  1.00  0.00     0.122 A 
ATOM     14  C   UNL     1      -0.228   2.413   2.550  1.00  0.00     0.047 A 
ATOM     15  C   UNL     1       0.276   2.934   3.736  1.00  0.00     0.004 A 
ATOM     16  C   UNL     1       2.358   1.873   3.221  1.00  0.00     0.008 A 
ATOM     17  C   UNL     1       1.587   2.674   4.066  1.00  0.00     0.001 A 
BRANCH  13  18
ATOM     18  O   UNL     1      -0.273   1.290   0.623  1.00  0.00    -0.496 OA
ATOM     19  C   UNL     1       0.075   0.648  -0.576  1.00  0.00     0.278 C 
ENDBRANCH  13  18
ENDBRANCH   7  12
BRANCH   9  20
ATOM     20  C   UNL     1       5.617  -0.044  -0.554  1.00  0.00     0.299 C 
BRANCH  20  21
ATOM     21  C   UNL     1       6.123  -0.527   0.796  1.00  0.00     0.013 A 
ATOM     22  C   UNL     1       6.561   0.451   1.721  1.00  0.00     0.060 A 
ATOM     23  C   UNL     1       6.170  -1.898   1.174  1.00  0.00    -0.038 A 
ATOM     24  C   UNL     1       6.927   0.055   2.989  1.00  0.00     0.166 A 
ATOM     25  C   UNL     1       6.479  -2.244   2.504  1.00  0.00     0.054 A 
ATOM     26  C   UNL     1       5.926  -3.045   0.231  1.00  0.00     0.045 C 
ATOM     27  C   UNL     1       6.843  -1.254   3.382  1.00  0.00     0.166 A 
ATOM     28  O   UNL     1       7.405   0.858   3.978  1.00  0.00    -0.454 OA
ATOM     29  O   UNL     1       7.205  -1.438   4.679  1.00  0.00    -0.454 OA
ATOM     30  C   UNL     1       7.727  -0.128   4.981  1.00  0.00     0.468 C 
ENDBRANCH  20  21
ENDBRANCH   9  20
ENDBRANCH   4   6
ENDBRANCH   3   4
ENDBRANCH   2   3
ENDBRANCH   1   2
BRANCH   1  31
ATOM     31  O   UNL     1       1.648  -2.785   5.163  1.00  0.00    -0.458 OA
BRANCH  31  32
ATOM     32  C   UNL     1       1.337  -1.484   4.974  1.00  0.00     0.338 C 
ATOM     33  O   UNL     1       2.102  -0.533   4.996  1.00  0.00    -0.246 OA
BRANCH  32  34
ATOM     34  C   UNL     1      -0.057  -1.432   4.529  1.00  0.00     0.060 A 
ATOM     35  C   UNL     1      -0.319  -1.328   3.162  1.00  0.00     0.016 A 
ATOM     36  C   UNL     1      -1.096  -1.480   5.449  1.00  0.00     0.016 A 
ATOM     37  C   UNL     1      -1.622  -1.205   2.701  1.00  0.00     0.010 A 
ATOM     38  C   UNL     1      -2.409  -1.404   4.984  1.00  0.00     0.010 A 
ATOM     39  C   UNL     1      -2.679  -1.240   3.611  1.00  0.00    -0.014 A 
BRANCH  39  40
ATOM     40  C   UNL     1      -4.072  -1.038   3.153  1.00  0.00     0.031 A 
ATOM     41  C   UNL     1      -4.815   0.183   3.610  1.00  0.00     0.074 A 
ATOM     42  C   UNL     1      -4.665  -1.951   2.361  1.00  0.00     0.049 A 
ATOM     43  N   UNL     1      -6.088   0.458   3.519  1.00  0.00    -0.248 NA
ATOM     44  C   UNL     1      -4.018   1.227   4.279  1.00  0.00     0.031 C 
ATOM     45  C   UNL     1      -4.015  -3.136   1.796  1.00  0.00     0.029 A 
ATOM     46  N   UNL     1      -5.956  -2.032   1.908  1.00  0.00    -0.354 N 
ATOM     47  C   UNL     1      -6.256   1.677   4.164  1.00  0.00     0.074 A 
ATOM     48  C   UNL     1      -4.956   2.084   4.652  1.00  0.00     0.031 C 
ATOM     49  C   UNL     1      -4.911  -3.824   1.071  1.00  0.00     0.029 A 
ATOM     50  C   UNL     1      -6.211  -3.173   1.184  1.00  0.00     0.049 A 
ATOM     51  H   UNL     1      -6.635  -1.340   2.083  1.00  0.00     0.167 HD
ATOM     52  C   UNL     1      -7.398   2.384   4.337  1.00  0.00     0.031 A 
ATOM     53  C   UNL     1      -7.373  -3.663   0.710  1.00  0.00     0.031 A 
ATOM     54  C   UNL     1      -8.677   1.963   3.830  1.00  0.00     0.049 A 
ATOM     55  C   UNL     1      -8.638  -2.893   0.972  1.00  0.00     0.074 A 
ATOM     56  C   UNL     1      -9.898   2.604   3.932  1.00  0.00     0.029 A 
ATOM     57  N   UNL     1      -8.898   0.790   3.120  1.00  0.00    -0.354 N 
ATOM     58  N   UNL     1      -8.793  -1.753   1.605  1.00  0.00    -0.248 NA
ATOM     59  C   UNL     1      -9.885  -3.475   0.460  1.00  0.00     0.031 C 
ATOM     60  C   UNL     1     -10.867   1.790   3.336  1.00  0.00     0.029 A 
ATOM     61  C   UNL     1     -10.240   0.677   2.799  1.00  0.00     0.049 A 
ATOM     62  H   UNL     1      -8.203   0.136   2.879  1.00  0.00     0.167 HD
ATOM     63  C   UNL     1     -10.152  -1.467   1.542  1.00  0.00     0.074 A 
ATOM     64  C   UNL     1     -10.770  -2.546   0.797  1.00  0.00     0.031 C 
ATOM     65  C   UNL     1     -10.829  -0.408   2.053  1.00  0.00     0.031 A 
BRANCH  52  66
ATOM     66  C   UNL     1      -7.321   3.651   5.149  1.00  0.00    -0.014 A 
ATOM     67  C   UNL     1      -6.659   4.796   4.671  1.00  0.00     0.010 A 
ATOM     68  C   UNL     1      -7.952   3.704   6.406  1.00  0.00     0.010 A 
ATOM     69  C   UNL     1      -6.594   5.954   5.453  1.00  0.00     0.020 A 
ATOM     70  C   UNL     1      -7.916   4.869   7.177  1.00  0.00     0.020 A 
ATOM     71  C   UNL     1      -7.222   5.982   6.702  1.00  0.00     0.054 A 
BRANCH  71  72
ATOM     72  S   UNL     1      -7.141   7.506   7.683  1.00  0.00     0.124 S 
ATOM     73  O   UNL     1      -5.741   7.524   8.098  1.00  0.00    -0.237 OA
ATOM     74  O   UNL     1      -7.522   8.530   6.714  1.00  0.00    -0.237 OA
ATOM     75  O   UNL     1      -8.105   7.280   8.757  1.00  0.00    -0.744 OA
ENDBRANCH  71  72
ENDBRANCH  52  66
BRANCH  53  76
ATOM     76  C   UNL     1      -7.394  -4.959  -0.024  1.00  0.00    -0.014 A 
ATOM     77  C   UNL     1      -7.704  -4.999  -1.394  1.00  0.00     0.010 A 
ATOM     78  C   UNL     1      -7.089  -6.162   0.641  1.00  0.00     0.010 A 
ATOM     79  C   UNL     1      -7.724  -6.217  -2.081  1.00  0.00     0.020 A 
ATOM     80  C   UNL     1      -7.076  -7.377  -0.049  1.00  0.00     0.020 A 
ATOM     81  C   UNL     1      -7.406  -7.398  -1.405  1.00  0.00     0.054 A 
BRANCH  81  82
ATOM     82  S   UNL     1      -7.393  -8.959  -2.330  1.00  0.00     0.124 S 
ATOM     83  O   UNL     1      -8.815  -9.186  -2.564  1.00  0.00    -0.237 OA
ATOM     84  O   UNL     1      -6.603  -8.618  -3.510  1.00  0.00    -0.237 OA
ATOM     85  O   UNL     1      -6.752  -9.897  -1.411  1.00  0.00    -0.744 OA
ENDBRANCH  81  82
ENDBRANCH  53  76
BRANCH  65  86
ATOM     86  C   UNL     1     -12.308  -0.341   1.780  1.00  0.00    -0.014 A 
ATOM     87  C   UNL     1     -13.210  -1.216   2.409  1.00  0.00     0.010 A 
ATOM     88  C   UNL     1     -12.804   0.656   0.919  1.00  0.00     0.010 A 
ATOM     89  C   UNL     1     -14.580  -1.117   2.155  1.00  0.00     0.020 A 
ATOM     90  C   UNL     1     -14.175   0.779   0.689  1.00  0.00     0.020 A 
ATOM     91  C   UNL     1     -15.054  -0.118   1.298  1.00  0.00     0.054 A 
BRANCH  91  92
ATOM     92  S   UNL     1     -16.840   0.018   1.021  1.00  0.00     0.124 S 
ATOM     93  O   UNL     1     -17.109  -1.150   0.187  1.00  0.00    -0.237 OA
ATOM     94  O   UNL     1     -17.379  -0.041   2.378  1.00  0.00    -0.237 OA
ATOM     95  O   UNL     1     -16.991   1.308   0.352  1.00  0.00    -0.744 OA
ENDBRANCH  91  92
ENDBRANCH  65  86
ENDBRANCH  39  40
ENDBRANCH  32  34
ENDBRANCH  31  32
ENDBRANCH   1  31
TORSDOF 18
