REMARK SMILES C[C@@H](NC(=O)[C@H]1CC=CC[C@@H]1C(=O)OCCOC(=O)c1ccc(-c2c3nc(c(-c4ccc(S(=O)(=O)[O-])cc4)c4ccc([nH]4)c(-c4ccc(S(=O)(=O)[O-])cc4)c4nc(c(-c5ccc(S(=O)(=O)[O-])cc5)c5ccc2[nH]5)C=C4)C=C3)cc1)c1ccc(-n2ccnc2)cc1
REMARK SMILES IDX 15 1 14 2 12 3 13 4 11 5 6 6 7 7 8 8 10 9 9 10 4 11 3 12
REMARK SMILES IDX 5 14 2 15 1 16 80 17 81 18 90 19 82 20 89 21 83 22 84 23
REMARK SMILES IDX 85 24 88 25 86 26 87 27 16 28 17 29 18 30 19 31 20 32 21 33
REMARK SMILES IDX 79 34 22 35 78 36 23 37 24 38 25 39 72 40 26 41 77 42 71 43
REMARK SMILES IDX 73 44 27 45 76 46 70 47 69 48 28 50 58 51 39 52 57 53 40 54
REMARK SMILES IDX 43 55 56 56 74 57 41 58 42 59 55 61 75 62 44 63 29 64 30 65
REMARK SMILES IDX 38 66 31 67 37 68 32 69 33 70 34 71 35 72 36 73 59 74 60 75
REMARK SMILES IDX 68 76 61 77 67 78 62 79 63 80 64 81 65 82 66 83 45 84 46 85
REMARK SMILES IDX 54 86 47 87 53 88 48 89 49 90 50 91 51 92 52 93
REMARK H PARENT 3 13 73 49 43 60
REMARK Flexibility Score: inf
ROOT
ATOM      1  C   UNL     1      -4.355  -0.920   3.707  1.00  0.00     0.274 C 
ENDROOT
BRANCH   1   2
ATOM      2  O   UNL     1      -3.190  -0.081   3.621  1.00  0.00    -0.462 OA
BRANCH   2   3
ATOM      3  C   UNL     1      -3.082   0.617   2.456  1.00  0.00     0.310 C 
ATOM      4  O   UNL     1      -3.996   0.726   1.645  1.00  0.00    -0.252 OA
BRANCH   3   5
ATOM      5  C   UNL     1      -1.663   0.955   2.098  1.00  0.00     0.115 C 
ATOM      6  C   UNL     1      -0.647   1.100   3.188  1.00  0.00     0.097 C 
ATOM      7  C   UNL     1      -0.465   2.585   3.602  1.00  0.00     0.041 C 
ATOM      8  C   UNL     1      -0.592   3.594   2.496  1.00  0.00    -0.030 C 
ATOM      9  C   UNL     1      -1.416   1.892   0.909  1.00  0.00     0.043 C 
ATOM     10  C   UNL     1      -1.008   3.275   1.267  1.00  0.00    -0.030 C 
BRANCH   6  11
ATOM     11  C   UNL     1       0.640   0.326   2.824  1.00  0.00     0.224 C 
ATOM     12  N   UNL     1       0.699  -0.839   2.091  1.00  0.00    -0.349 N 
ATOM     13  H   UNL     1       1.160  -1.528   2.622  1.00  0.00     0.164 HD
ATOM     14  O   UNL     1       1.689   0.601   3.425  1.00  0.00    -0.275 OA
BRANCH  12  15
ATOM     15  C   UNL     1       0.299  -1.438   0.743  1.00  0.00     0.109 C 
ATOM     16  C   UNL     1       1.212  -0.876  -0.352  1.00  0.00     0.036 C 
BRANCH  15  17
ATOM     17  C   UNL     1      -1.170  -1.603   0.298  1.00  0.00    -0.026 A 
ATOM     18  C   UNL     1      -1.766  -0.797  -0.697  1.00  0.00     0.008 A 
ATOM     19  C   UNL     1      -2.011  -2.538   0.922  1.00  0.00     0.008 A 
ATOM     20  C   UNL     1      -3.163  -0.753  -0.883  1.00  0.00     0.027 A 
ATOM     21  C   UNL     1      -3.403  -2.552   0.686  1.00  0.00     0.027 A 
ATOM     22  C   UNL     1      -4.002  -1.575  -0.126  1.00  0.00     0.046 A 
BRANCH  22  23
ATOM     23  N   UNL     1      -5.407  -1.288  -0.007  1.00  0.00    -0.306 N 
ATOM     24  C   UNL     1      -6.355  -2.006   0.701  1.00  0.00     0.113 A 
ATOM     25  C   UNL     1      -6.069  -0.141  -0.413  1.00  0.00     0.204 A 
ATOM     26  C   UNL     1      -7.487  -1.225   0.742  1.00  0.00     0.131 A 
ATOM     27  N   UNL     1      -7.315  -0.089   0.011  1.00  0.00    -0.245 NA
ENDBRANCH  22  23
ENDBRANCH  15  17
ENDBRANCH  12  15
ENDBRANCH   6  11
ENDBRANCH   3   5
ENDBRANCH   2   3
ENDBRANCH   1   2
BRANCH   1  28
ATOM     28  C   UNL     1      -5.587  -0.263   4.323  1.00  0.00     0.275 C 
BRANCH  28  29
ATOM     29  O   UNL     1      -5.825   1.045   3.785  1.00  0.00    -0.458 OA
BRANCH  29  30
ATOM     30  C   UNL     1      -5.287   2.030   4.538  1.00  0.00     0.338 C 
ATOM     31  O   UNL     1      -4.745   1.893   5.626  1.00  0.00    -0.246 OA
BRANCH  30  32
ATOM     32  C   UNL     1      -5.306   3.342   3.870  1.00  0.00     0.060 A 
ATOM     33  C   UNL     1      -4.627   3.510   2.672  1.00  0.00     0.016 A 
ATOM     34  C   UNL     1      -5.641   4.458   4.629  1.00  0.00     0.016 A 
ATOM     35  C   UNL     1      -4.032   4.726   2.384  1.00  0.00     0.010 A 
ATOM     36  C   UNL     1      -5.186   5.718   4.236  1.00  0.00     0.010 A 
ATOM     37  C   UNL     1      -4.275   5.847   3.173  1.00  0.00    -0.014 A 
BRANCH  37  38
ATOM     38  C   UNL     1      -3.482   7.095   2.992  1.00  0.00     0.031 A 
ATOM     39  C   UNL     1      -2.829   7.723   4.200  1.00  0.00     0.074 A 
ATOM     40  C   UNL     1      -3.269   7.646   1.780  1.00  0.00     0.049 A 
ATOM     41  N   UNL     1      -2.417   8.951   4.373  1.00  0.00    -0.248 NA
ATOM     42  C   UNL     1      -2.645   6.860   5.380  1.00  0.00     0.031 C 
ATOM     43  C   UNL     1      -3.679   7.088   0.489  1.00  0.00     0.029 A 
ATOM     44  N   UNL     1      -2.629   8.813   1.438  1.00  0.00    -0.354 N 
ATOM     45  C   UNL     1      -2.044   9.039   5.711  1.00  0.00     0.074 A 
ATOM     46  C   UNL     1      -2.249   7.732   6.295  1.00  0.00     0.031 C 
ATOM     47  C   UNL     1      -3.220   7.868  -0.498  1.00  0.00     0.029 A 
ATOM     48  C   UNL     1      -2.650   9.071   0.088  1.00  0.00     0.049 A 
ATOM     49  H   UNL     1      -2.198   9.406   2.096  1.00  0.00     0.167 HD
ATOM     50  C   UNL     1      -1.602  10.127   6.386  1.00  0.00     0.031 A 
ATOM     51  C   UNL     1      -2.345  10.186  -0.602  1.00  0.00     0.031 A 
ATOM     52  C   UNL     1      -1.337  11.394   5.754  1.00  0.00     0.049 A 
ATOM     53  C   UNL     1      -1.947  11.413   0.163  1.00  0.00     0.074 A 
ATOM     54  C   UNL     1      -0.898  12.573   6.328  1.00  0.00     0.029 A 
ATOM     55  N   UNL     1      -1.464  11.635   4.393  1.00  0.00    -0.354 N 
ATOM     56  N   UNL     1      -1.757  11.552   1.453  1.00  0.00    -0.248 NA
ATOM     57  C   UNL     1      -1.766  12.643  -0.616  1.00  0.00     0.031 C 
ATOM     58  C   UNL     1      -0.814  13.542   5.322  1.00  0.00     0.029 A 
ATOM     59  C   UNL     1      -1.135  12.949   4.111  1.00  0.00     0.049 A 
ATOM     60  H   UNL     1      -1.748  10.969   3.726  1.00  0.00     0.167 HD
ATOM     61  C   UNL     1      -1.420  12.887   1.642  1.00  0.00     0.074 A 
ATOM     62  C   UNL     1      -1.416  13.504   0.329  1.00  0.00     0.031 C 
ATOM     63  C   UNL     1      -1.143  13.542   2.796  1.00  0.00     0.031 A 
BRANCH  50  64
ATOM     64  C   UNL     1      -1.483  10.023   7.887  1.00  0.00    -0.014 A 
ATOM     65  C   UNL     1      -0.505   9.236   8.520  1.00  0.00     0.010 A 
ATOM     66  C   UNL     1      -2.393  10.745   8.684  1.00  0.00     0.010 A 
ATOM     67  C   UNL     1      -0.478   9.128   9.916  1.00  0.00     0.020 A 
ATOM     68  C   UNL     1      -2.348  10.668  10.079  1.00  0.00     0.020 A 
ATOM     69  C   UNL     1      -1.405   9.839  10.686  1.00  0.00     0.054 A 
BRANCH  69  70
ATOM     70  S   UNL     1      -1.359   9.674  12.492  1.00  0.00     0.124 S 
ATOM     71  O   UNL     1      -1.887   8.325  12.686  1.00  0.00    -0.237 OA
ATOM     72  O   UNL     1       0.061   9.840  12.794  1.00  0.00    -0.237 OA
ATOM     73  O   UNL     1      -2.223  10.753  12.963  1.00  0.00    -0.744 OA
ENDBRANCH  69  70
ENDBRANCH  50  64
BRANCH  51  74
ATOM     74  C   UNL     1      -2.518  10.207  -2.081  1.00  0.00    -0.014 A 
ATOM     75  C   UNL     1      -1.402  10.306  -2.928  1.00  0.00     0.010 A 
ATOM     76  C   UNL     1      -3.799  10.064  -2.653  1.00  0.00     0.010 A 
ATOM     77  C   UNL     1      -1.561  10.244  -4.316  1.00  0.00     0.020 A 
ATOM     78  C   UNL     1      -3.957   9.962  -4.036  1.00  0.00     0.020 A 
ATOM     79  C   UNL     1      -2.836  10.057  -4.860  1.00  0.00     0.054 A 
BRANCH  79  80
ATOM     80  S   UNL     1      -3.002   9.874  -6.657  1.00  0.00     0.124 S 
ATOM     81  O   UNL     1      -2.762  11.235  -7.125  1.00  0.00    -0.237 OA
ATOM     82  O   UNL     1      -1.958   8.901  -6.972  1.00  0.00    -0.237 OA
ATOM     83  O   UNL     1      -4.369   9.384  -6.827  1.00  0.00    -0.744 OA
ENDBRANCH  79  80
ENDBRANCH  51  74
BRANCH  63  84
ATOM     84  C   UNL     1      -0.763  14.993   2.681  1.00  0.00    -0.014 A 
ATOM     85  C   UNL     1      -1.717  15.978   2.374  1.00  0.00     0.010 A 
ATOM     86  C   UNL     1       0.570  15.375   2.921  1.00  0.00     0.010 A 
ATOM     87  C   UNL     1      -1.337  17.318   2.276  1.00  0.00     0.020 A 
ATOM     88  C   UNL     1       0.947  16.717   2.854  1.00  0.00     0.020 A 
ATOM     89  C   UNL     1      -0.007  17.679   2.517  1.00  0.00     0.054 A 
BRANCH  89  90
ATOM     90  S   UNL     1       0.452  19.430   2.422  1.00  0.00     0.124 S 
ATOM     91  O   UNL     1       0.414  19.676   0.983  1.00  0.00    -0.237 OA
ATOM     92  O   UNL     1      -0.600  20.080   3.199  1.00  0.00    -0.237 OA
ATOM     93  O   UNL     1       1.782  19.473   3.026  1.00  0.00    -0.744 OA
ENDBRANCH  89  90
ENDBRANCH  63  84
ENDBRANCH  37  38
ENDBRANCH  30  32
ENDBRANCH  29  30
ENDBRANCH  28  29
ENDBRANCH   1  28
TORSDOF 18
