REMARK SMILES CC(C)n1c([C@H](O)CC(=O)OCCOC(=O)c2ccc(-c3c4nc(c(-c5ccc(S(=O)(=O)[O-])cc5)c5ccc([nH]5)c(-c5ccc(S(=O)(=O)[O-])cc5)c5nc(c(-c6ccc(S(=O)(=O)[O-])cc6)c6ccc3[nH]6)C=C5)C=C4)cc2)nc2cc(Cl)ccc21
REMARK SMILES IDX 12 1 11 2 9 3 10 4 8 5 6 6 5 7 4 8 84 9 77 10 78 11 83 12
REMARK SMILES IDX 79 13 82 14 80 15 81 16 2 17 1 18 3 19 7 20 13 22 14 23
REMARK SMILES IDX 15 24 16 25 17 26 18 27 76 28 19 29 75 30 20 31 21 32 22 33
REMARK SMILES IDX 69 34 23 35 74 36 68 37 70 38 24 39 73 40 67 41 66 42 25 44
REMARK SMILES IDX 55 45 36 46 54 47 37 48 40 49 53 50 71 51 38 52 39 53 52 55
REMARK SMILES IDX 72 56 41 57 26 58 27 59 35 60 28 61 34 62 29 63 30 64 31 65
REMARK SMILES IDX 32 66 33 67 56 68 57 69 65 70 58 71 64 72 59 73 60 74 61 75
REMARK SMILES IDX 62 76 63 77 42 78 43 79 51 80 44 81 50 82 45 83 46 84 47 85
REMARK SMILES IDX 48 86 49 87
REMARK H PARENT 7 21 70 43 40 54
REMARK Flexibility Score: inf
ROOT
ATOM      1  C   UNL     1      -0.618   2.816  -3.951  1.00  0.00     0.274 C 
ENDROOT
BRANCH   1   2
ATOM      2  O   UNL     1      -1.081   1.786  -3.051  1.00  0.00    -0.462 OA
BRANCH   2   3
ATOM      3  C   UNL     1      -1.950   0.888  -3.586  1.00  0.00     0.309 C 
ATOM      4  O   UNL     1      -2.379   0.928  -4.730  1.00  0.00    -0.252 OA
BRANCH   3   5
ATOM      5  C   UNL     1      -2.464  -0.091  -2.574  1.00  0.00     0.162 C 
BRANCH   5   6
ATOM      6  C   UNL     1      -1.511  -0.466  -1.453  1.00  0.00     0.191 C 
BRANCH   6   7
ATOM      7  C   UNL     1      -1.941  -1.710  -0.706  1.00  0.00     0.139 A 
ATOM      8  N   UNL     1      -3.155  -1.939  -0.074  1.00  0.00    -0.323 N 
ATOM      9  C   UNL     1      -3.136  -3.243   0.409  1.00  0.00     0.069 A 
ATOM     10  N   UNL     1      -1.166  -2.783  -0.610  1.00  0.00    -0.230 NA
ATOM     11  C   UNL     1      -1.879  -3.728   0.080  1.00  0.00     0.090 A 
ATOM     12  C   UNL     1      -4.091  -4.023   1.082  1.00  0.00     0.030 A 
ATOM     13  C   UNL     1      -1.520  -5.034   0.453  1.00  0.00     0.051 A 
ATOM     14  C   UNL     1      -3.724  -5.321   1.445  1.00  0.00     0.023 A 
ATOM     15  C   UNL     1      -2.456  -5.812   1.143  1.00  0.00     0.043 A 
ATOM     16  Cl  UNL     1      -2.037  -7.411   1.633  1.00  0.00    -0.084 Cl
BRANCH   8  17
ATOM     17  C   UNL     1      -4.333  -1.087   0.077  1.00  0.00     0.083 C 
ATOM     18  C   UNL     1      -4.087   0.375   0.450  1.00  0.00     0.031 C 
ATOM     19  C   UNL     1      -5.317  -1.276  -1.080  1.00  0.00     0.031 C 
ENDBRANCH   8  17
ENDBRANCH   6   7
BRANCH   6  20
ATOM     20  O   UNL     1      -1.361   0.585  -0.503  1.00  0.00    -0.385 OA
ATOM     21  H   UNL     1      -2.211   0.748  -0.065  1.00  0.00     0.211 HD
ENDBRANCH   6  20
ENDBRANCH   5   6
ENDBRANCH   3   5
ENDBRANCH   2   3
ENDBRANCH   1   2
BRANCH   1  22
ATOM     22  C   UNL     1       0.856   2.587  -4.291  1.00  0.00     0.275 C 
BRANCH  22  23
ATOM     23  O   UNL     1       0.978   1.419  -5.119  1.00  0.00    -0.458 OA
BRANCH  23  24
ATOM     24  C   UNL     1       1.306   0.264  -4.490  1.00  0.00     0.338 C 
ATOM     25  O   UNL     1       1.910   0.164  -3.429  1.00  0.00    -0.246 OA
BRANCH  24  26
ATOM     26  C   UNL     1       0.483  -0.816  -5.086  1.00  0.00     0.060 A 
ATOM     27  C   UNL     1      -0.078  -0.674  -6.359  1.00  0.00     0.016 A 
ATOM     28  C   UNL     1       0.027  -1.820  -4.222  1.00  0.00     0.016 A 
ATOM     29  C   UNL     1      -1.220  -1.398  -6.679  1.00  0.00     0.010 A 
ATOM     30  C   UNL     1      -1.136  -2.518  -4.532  1.00  0.00     0.010 A 
ATOM     31  C   UNL     1      -1.802  -2.252  -5.729  1.00  0.00    -0.014 A 
BRANCH  31  32
ATOM     32  C   UNL     1      -2.942  -3.067  -6.147  1.00  0.00     0.031 A 
ATOM     33  C   UNL     1      -2.491  -4.218  -6.953  1.00  0.00     0.074 A 
ATOM     34  C   UNL     1      -4.256  -2.914  -5.879  1.00  0.00     0.049 A 
ATOM     35  N   UNL     1      -2.548  -4.310  -8.237  1.00  0.00    -0.248 NA
ATOM     36  C   UNL     1      -1.722  -5.281  -6.293  1.00  0.00     0.031 C 
ATOM     37  C   UNL     1      -4.905  -1.993  -4.948  1.00  0.00     0.029 A 
ATOM     38  N   UNL     1      -5.312  -3.635  -6.373  1.00  0.00    -0.354 N 
ATOM     39  C   UNL     1      -1.988  -5.538  -8.543  1.00  0.00     0.074 A 
ATOM     40  C   UNL     1      -1.329  -5.997  -7.346  1.00  0.00     0.031 C 
ATOM     41  C   UNL     1      -6.199  -2.361  -4.770  1.00  0.00     0.029 A 
ATOM     42  C   UNL     1      -6.516  -3.422  -5.712  1.00  0.00     0.049 A 
ATOM     43  H   UNL     1      -5.225  -4.253  -7.134  1.00  0.00     0.167 HD
ATOM     44  C   UNL     1      -2.324  -6.196  -9.683  1.00  0.00     0.031 A 
ATOM     45  C   UNL     1      -7.701  -4.041  -5.948  1.00  0.00     0.031 A 
ATOM     46  C   UNL     1      -3.062  -5.354 -10.586  1.00  0.00     0.049 A 
ATOM     47  C   UNL     1      -7.701  -4.477  -7.361  1.00  0.00     0.074 A 
ATOM     48  C   UNL     1      -2.764  -4.316 -11.440  1.00  0.00     0.029 A 
ATOM     49  N   UNL     1      -4.414  -5.324 -10.353  1.00  0.00    -0.354 N 
ATOM     50  N   UNL     1      -7.698  -3.643  -8.363  1.00  0.00    -0.248 NA
ATOM     51  C   UNL     1      -7.397  -5.862  -7.697  1.00  0.00     0.031 C 
ATOM     52  C   UNL     1      -3.951  -3.534 -11.536  1.00  0.00     0.029 A 
ATOM     53  C   UNL     1      -4.950  -4.131 -10.767  1.00  0.00     0.049 A 
ATOM     54  H   UNL     1      -4.928  -6.057  -9.944  1.00  0.00     0.167 HD
ATOM     55  C   UNL     1      -6.978  -4.295  -9.344  1.00  0.00     0.074 A 
ATOM     56  C   UNL     1      -6.977  -5.698  -8.954  1.00  0.00     0.031 C 
ATOM     57  C   UNL     1      -6.185  -3.605 -10.210  1.00  0.00     0.031 A 
BRANCH  44  58
ATOM     58  C   UNL     1      -2.355  -7.695  -9.793  1.00  0.00    -0.014 A 
ATOM     59  C   UNL     1      -2.380  -8.544  -8.667  1.00  0.00     0.010 A 
ATOM     60  C   UNL     1      -2.615  -8.284 -11.045  1.00  0.00     0.010 A 
ATOM     61  C   UNL     1      -2.597  -9.915  -8.778  1.00  0.00     0.020 A 
ATOM     62  C   UNL     1      -2.878  -9.655 -11.164  1.00  0.00     0.020 A 
ATOM     63  C   UNL     1      -2.851 -10.463 -10.029  1.00  0.00     0.054 A 
BRANCH  63  64
ATOM     64  S   UNL     1      -3.203 -12.234 -10.117  1.00  0.00     0.124 S 
ATOM     65  O   UNL     1      -1.909 -12.813  -9.765  1.00  0.00    -0.237 OA
ATOM     66  O   UNL     1      -4.257 -12.394  -9.120  1.00  0.00    -0.237 OA
ATOM     67  O   UNL     1      -3.620 -12.433 -11.503  1.00  0.00    -0.744 OA
ENDBRANCH  63  64
ENDBRANCH  44  58
BRANCH  45  68
ATOM     68  C   UNL     1      -8.687  -4.574  -4.973  1.00  0.00    -0.014 A 
ATOM     69  C   UNL     1      -8.240  -5.013  -3.712  1.00  0.00     0.010 A 
ATOM     70  C   UNL     1      -9.977  -4.969  -5.387  1.00  0.00     0.010 A 
ATOM     71  C   UNL     1      -9.009  -5.887  -2.933  1.00  0.00     0.020 A 
ATOM     72  C   UNL     1     -10.755  -5.845  -4.609  1.00  0.00     0.020 A 
ATOM     73  C   UNL     1     -10.247  -6.328  -3.403  1.00  0.00     0.054 A 
BRANCH  73  74
ATOM     74  S   UNL     1     -11.127  -7.600  -2.448  1.00  0.00     0.124 S 
ATOM     75  O   UNL     1     -10.264  -8.764  -2.622  1.00  0.00    -0.237 OA
ATOM     76  O   UNL     1     -11.143  -7.028  -1.103  1.00  0.00    -0.237 OA
ATOM     77  O   UNL     1     -12.432  -7.685  -3.099  1.00  0.00    -0.744 OA
ENDBRANCH  73  74
ENDBRANCH  45  68
BRANCH  57  78
ATOM     78  C   UNL     1      -6.478  -2.145 -10.452  1.00  0.00    -0.014 A 
ATOM     79  C   UNL     1      -6.722  -1.758 -11.782  1.00  0.00     0.010 A 
ATOM     80  C   UNL     1      -6.365  -1.144  -9.469  1.00  0.00     0.010 A 
ATOM     81  C   UNL     1      -6.785  -0.412 -12.139  1.00  0.00     0.020 A 
ATOM     82  C   UNL     1      -6.455   0.213  -9.818  1.00  0.00     0.020 A 
ATOM     83  C   UNL     1      -6.630   0.568 -11.158  1.00  0.00     0.054 A 
BRANCH  83  84
ATOM     84  S   UNL     1      -6.621   2.303 -11.684  1.00  0.00     0.124 S 
ATOM     85  O   UNL     1      -5.340   2.407 -12.380  1.00  0.00    -0.237 OA
ATOM     86  O   UNL     1      -7.802   2.388 -12.541  1.00  0.00    -0.237 OA
ATOM     87  O   UNL     1      -6.710   3.055 -10.435  1.00  0.00    -0.744 OA
ENDBRANCH  83  84
ENDBRANCH  57  78
ENDBRANCH  31  32
ENDBRANCH  24  26
ENDBRANCH  23  24
ENDBRANCH  22  23
ENDBRANCH   1  22
TORSDOF 18
