REMARK SMILES CC[NH2+][C@]1(C(=O)OCCOC(=O)c2ccc(-c3c4nc(c(-c5ccc(S(=O)(=O)[O-])cc5)c5ccc([nH]5)c(-c5ccc(S(=O)(=O)[O-])cc5)c5nc(c(-c6ccc(S(=O)(=O)[O-])cc6)c6ccc3[nH]6)C=C5)C=C4)cc2)CCC[C@@H]1CCSc1ccc(C)cc1
REMARK SMILES IDX 8 1 7 2 5 3 6 4 4 5 73 6 76 7 74 8 75 9 3 10 2 13 1 14 77 15
REMARK SMILES IDX 78 16 79 17 80 18 81 19 86 20 82 21 85 22 83 23 84 24 9 25
REMARK SMILES IDX 10 26 11 27 12 28 13 29 14 30 72 31 15 32 71 33 16 34 17 35
REMARK SMILES IDX 18 36 65 37 19 38 70 39 64 40 66 41 20 42 69 43 63 44 62 45
REMARK SMILES IDX 21 47 51 48 32 49 50 50 33 51 36 52 49 53 67 54 34 55 35 56
REMARK SMILES IDX 48 58 68 59 37 60 22 61 23 62 31 63 24 64 30 65 25 66 26 67
REMARK SMILES IDX 27 68 28 69 29 70 52 71 53 72 61 73 54 74 60 75 55 76 56 77
REMARK SMILES IDX 57 78 58 79 59 80 38 81 39 82 47 83 40 84 46 85 41 86 42 87
REMARK SMILES IDX 43 88 44 89 45 90
REMARK H PARENT 3 11 3 12 66 46 36 57
REMARK Flexibility Score: inf
ROOT
ATOM      1  C   UNL     1       3.268   2.097  -0.680  1.00  0.00     0.274 C 
ENDROOT
BRANCH   1   2
ATOM      2  O   UNL     1       2.721   3.071   0.235  1.00  0.00    -0.457 OA
BRANCH   2   3
ATOM      3  C   UNL     1       1.409   2.868   0.537  1.00  0.00     0.368 C 
ATOM      4  O   UNL     1       0.791   1.869   0.188  1.00  0.00    -0.245 OA
BRANCH   3   5
ATOM      5  C   UNL     1       0.748   3.999   1.353  1.00  0.00     0.197 C 
ATOM      6  C   UNL     1       1.239   5.398   0.909  1.00  0.00     0.081 C 
ATOM      7  C   UNL     1      -0.740   4.144   0.907  1.00  0.00     0.063 C 
ATOM      8  C   UNL     1       0.120   6.366   1.325  1.00  0.00     0.008 C 
ATOM      9  C   UNL     1      -1.151   5.515   1.454  1.00  0.00     0.011 C 
BRANCH   5  10
ATOM     10  N   UNL     1       1.032   3.939   2.806  1.00  0.00    -0.332 N 
ATOM     11  H   UNL     1       2.010   4.197   2.940  1.00  0.00     0.347 HD
ATOM     12  H   UNL     1       0.360   4.575   3.235  1.00  0.00     0.347 HD
BRANCH  10  13
ATOM     13  C   UNL     1       0.821   2.665   3.461  1.00  0.00     0.257 C 
ATOM     14  C   UNL     1       1.307   2.739   4.901  1.00  0.00     0.071 C 
ENDBRANCH  10  13
ENDBRANCH   5  10
BRANCH   7  15
ATOM     15  C   UNL     1      -1.750   3.013   1.165  1.00  0.00     0.022 C 
BRANCH  15  16
ATOM     16  C   UNL     1      -2.719   2.783  -0.023  1.00  0.00     0.075 C 
BRANCH  16  17
ATOM     17  S   UNL     1      -2.262   1.515  -1.293  1.00  0.00    -0.126 SA
BRANCH  17  18
ATOM     18  C   UNL     1      -0.975   2.235  -2.305  1.00  0.00     0.007 A 
ATOM     19  C   UNL     1      -0.054   1.366  -2.909  1.00  0.00     0.015 A 
ATOM     20  C   UNL     1      -0.815   3.602  -2.517  1.00  0.00     0.015 A 
ATOM     21  C   UNL     1       1.075   1.860  -3.576  1.00  0.00     0.004 A 
ATOM     22  C   UNL     1       0.342   4.102  -3.128  1.00  0.00     0.004 A 
ATOM     23  C   UNL     1       1.321   3.234  -3.617  1.00  0.00    -0.051 A 
ATOM     24  C   UNL     1       2.616   3.777  -4.142  1.00  0.00     0.044 C 
ENDBRANCH  17  18
ENDBRANCH  16  17
ENDBRANCH  15  16
ENDBRANCH   7  15
ENDBRANCH   3   5
ENDBRANCH   2   3
ENDBRANCH   1   2
BRANCH   1  25
ATOM     25  C   UNL     1       3.966   0.936   0.025  1.00  0.00     0.275 C 
BRANCH  25  26
ATOM     26  O   UNL     1       2.999   0.156   0.744  1.00  0.00    -0.458 OA
BRANCH  26  27
ATOM     27  C   UNL     1       3.368  -0.261   1.977  1.00  0.00     0.338 C 
ATOM     28  O   UNL     1       4.481  -0.161   2.465  1.00  0.00    -0.246 OA
BRANCH  27  29
ATOM     29  C   UNL     1       2.201  -0.809   2.717  1.00  0.00     0.060 A 
ATOM     30  C   UNL     1       0.890  -0.485   2.364  1.00  0.00     0.016 A 
ATOM     31  C   UNL     1       2.426  -1.543   3.882  1.00  0.00     0.016 A 
ATOM     32  C   UNL     1      -0.161  -0.739   3.243  1.00  0.00     0.010 A 
ATOM     33  C   UNL     1       1.348  -1.930   4.685  1.00  0.00     0.010 A 
ATOM     34  C   UNL     1       0.041  -1.499   4.399  1.00  0.00    -0.014 A 
BRANCH  34  35
ATOM     35  C   UNL     1      -1.086  -1.865   5.306  1.00  0.00     0.031 A 
ATOM     36  C   UNL     1      -0.957  -1.646   6.793  1.00  0.00     0.074 A 
ATOM     37  C   UNL     1      -2.202  -2.444   4.816  1.00  0.00     0.049 A 
ATOM     38  N   UNL     1      -1.616  -2.207   7.774  1.00  0.00    -0.248 NA
ATOM     39  C   UNL     1       0.062  -0.680   7.237  1.00  0.00     0.031 C 
ATOM     40  C   UNL     1      -2.515  -2.648   3.398  1.00  0.00     0.029 A 
ATOM     41  N   UNL     1      -3.278  -2.999   5.468  1.00  0.00    -0.354 N 
ATOM     42  C   UNL     1      -1.043  -1.720   8.946  1.00  0.00     0.074 A 
ATOM     43  C   UNL     1       0.001  -0.799   8.557  1.00  0.00     0.031 C 
ATOM     44  C   UNL     1      -3.700  -3.262   3.287  1.00  0.00     0.029 A 
ATOM     45  C   UNL     1      -4.160  -3.626   4.617  1.00  0.00     0.049 A 
ATOM     46  H   UNL     1      -3.405  -2.953   6.443  1.00  0.00     0.167 HD
ATOM     47  C   UNL     1      -1.349  -2.041  10.226  1.00  0.00     0.031 A 
ATOM     48  C   UNL     1      -5.163  -4.491   4.858  1.00  0.00     0.031 A 
ATOM     49  C   UNL     1      -2.409  -2.945  10.588  1.00  0.00     0.049 A 
ATOM     50  C   UNL     1      -5.422  -4.917   6.271  1.00  0.00     0.074 A 
ATOM     51  C   UNL     1      -2.815  -3.340  11.851  1.00  0.00     0.029 A 
ATOM     52  N   UNL     1      -3.235  -3.591   9.681  1.00  0.00    -0.354 N 
ATOM     53  N   UNL     1      -4.821  -4.525   7.369  1.00  0.00    -0.248 NA
ATOM     54  C   UNL     1      -6.467  -5.927   6.474  1.00  0.00     0.031 C 
ATOM     55  C   UNL     1      -3.855  -4.265  11.703  1.00  0.00     0.029 A 
ATOM     56  C   UNL     1      -4.130  -4.406  10.352  1.00  0.00     0.049 A 
ATOM     57  H   UNL     1      -3.192  -3.486   8.703  1.00  0.00     0.167 HD
ATOM     58  C   UNL     1      -5.409  -5.249   8.397  1.00  0.00     0.074 A 
ATOM     59  C   UNL     1      -6.432  -6.080   7.791  1.00  0.00     0.031 C 
ATOM     60  C   UNL     1      -5.123  -5.236   9.721  1.00  0.00     0.031 A 
BRANCH  47  61
ATOM     61  C   UNL     1      -0.490  -1.470  11.326  1.00  0.00    -0.014 A 
ATOM     62  C   UNL     1      -0.584  -0.124  11.719  1.00  0.00     0.010 A 
ATOM     63  C   UNL     1       0.393  -2.322  12.018  1.00  0.00     0.010 A 
ATOM     64  C   UNL     1       0.208   0.365  12.765  1.00  0.00     0.020 A 
ATOM     65  C   UNL     1       1.170  -1.843  13.078  1.00  0.00     0.020 A 
ATOM     66  C   UNL     1       1.082  -0.497  13.436  1.00  0.00     0.054 A 
BRANCH  66  67
ATOM     67  S   UNL     1       2.072   0.154  14.811  1.00  0.00     0.124 S 
ATOM     68  O   UNL     1       3.074   0.952  14.109  1.00  0.00    -0.237 OA
ATOM     69  O   UNL     1       1.092   0.916  15.581  1.00  0.00    -0.237 OA
ATOM     70  O   UNL     1       2.582  -1.045  15.471  1.00  0.00    -0.744 OA
ENDBRANCH  66  67
ENDBRANCH  47  61
BRANCH  48  71
ATOM     71  C   UNL     1      -5.891  -5.102   3.712  1.00  0.00    -0.014 A 
ATOM     72  C   UNL     1      -7.219  -4.743   3.431  1.00  0.00     0.010 A 
ATOM     73  C   UNL     1      -5.226  -5.995   2.849  1.00  0.00     0.010 A 
ATOM     74  C   UNL     1      -7.863  -5.254   2.300  1.00  0.00     0.020 A 
ATOM     75  C   UNL     1      -5.855  -6.483   1.701  1.00  0.00     0.020 A 
ATOM     76  C   UNL     1      -7.174  -6.112   1.437  1.00  0.00     0.054 A 
BRANCH  76  77
ATOM     77  S   UNL     1      -7.993  -6.682  -0.080  1.00  0.00     0.124 S 
ATOM     78  O   UNL     1      -8.874  -7.729   0.427  1.00  0.00    -0.237 OA
ATOM     79  O   UNL     1      -8.658  -5.472  -0.557  1.00  0.00    -0.237 OA
ATOM     80  O   UNL     1      -6.885  -7.143  -0.913  1.00  0.00    -0.744 OA
ENDBRANCH  76  77
ENDBRANCH  48  71
BRANCH  60  81
ATOM     81  C   UNL     1      -5.937  -6.143  10.597  1.00  0.00    -0.014 A 
ATOM     82  C   UNL     1      -5.688  -7.525  10.628  1.00  0.00     0.010 A 
ATOM     83  C   UNL     1      -6.938  -5.599  11.421  1.00  0.00     0.010 A 
ATOM     84  C   UNL     1      -6.448  -8.357  11.453  1.00  0.00     0.020 A 
ATOM     85  C   UNL     1      -7.684  -6.425  12.264  1.00  0.00     0.020 A 
ATOM     86  C   UNL     1      -7.443  -7.801  12.263  1.00  0.00     0.054 A 
BRANCH  86  87
ATOM     87  S   UNL     1      -8.393  -8.896  13.353  1.00  0.00     0.124 S 
ATOM     88  O   UNL     1      -9.296  -9.551  12.411  1.00  0.00    -0.237 OA
ATOM     89  O   UNL     1      -7.360  -9.750  13.931  1.00  0.00    -0.237 OA
ATOM     90  O   UNL     1      -9.032  -7.977  14.293  1.00  0.00    -0.744 OA
ENDBRANCH  86  87
ENDBRANCH  60  81
ENDBRANCH  34  35
ENDBRANCH  27  29
ENDBRANCH  26  27
ENDBRANCH  25  26
ENDBRANCH   1  25
TORSDOF 20
