REMARK SMILES CCc1c(C)nc(Nc2ccc(Cl)cc2Cl)nc1OCC(=O)OCCOC(=O)c1ccc(-c2c3nc(c(-c4ccc(S(=O)(=O)[O-])cc4)c4ccc([nH]4)c(-c4ccc(S(=O)(=O)[O-])cc4)c4nc(c(-c5ccc(S(=O)(=O)[O-])cc5)c5ccc2[nH]5)C=C4)C=C3)cc1
REMARK SMILES IDX 24 1 23 2 21 3 22 4 20 5 19 6 18 7 3 8 4 9 5 10 6 11 17 12
REMARK SMILES IDX 7 13 2 14 1 15 8 16 9 18 10 19 15 20 11 21 14 22 16 23 12 24
REMARK SMILES IDX 13 25 25 26 26 27 27 28 28 29 29 30 30 31 88 32 31 33 87 34
REMARK SMILES IDX 32 35 33 36 34 37 81 38 35 39 86 40 80 41 82 42 36 43 85 44
REMARK SMILES IDX 79 45 78 46 37 48 67 49 48 50 66 51 49 52 52 53 65 54 83 55
REMARK SMILES IDX 50 56 51 57 64 59 84 60 53 61 38 62 39 63 47 64 40 65 46 66
REMARK SMILES IDX 41 67 42 68 43 69 44 70 45 71 68 72 69 73 77 74 70 75 76 76
REMARK SMILES IDX 71 77 72 78 73 79 74 80 75 81 54 82 55 83 63 84 56 85 62 86
REMARK SMILES IDX 57 87 58 88 59 89 60 90 61 91
REMARK H PARENT 8 17 82 47 52 58
REMARK Flexibility Score: inf
ROOT
ATOM      1  C   UNL     1       0.919  -0.744   2.383  1.00  0.00     0.274 C 
ENDROOT
BRANCH   1   2
ATOM      2  O   UNL     1       0.308  -1.798   1.591  1.00  0.00    -0.460 OA
BRANCH   2   3
ATOM      3  C   UNL     1      -1.048  -1.878   1.658  1.00  0.00     0.344 C 
ATOM      4  O   UNL     1      -1.738  -1.216   2.431  1.00  0.00    -0.248 OA
BRANCH   3   5
ATOM      5  C   UNL     1      -1.674  -2.803   0.590  1.00  0.00     0.353 C 
BRANCH   5   6
ATOM      6  O   UNL     1      -1.023  -3.789  -0.158  1.00  0.00    -0.465 OA
BRANCH   6   7
ATOM      7  C   UNL     1       0.042  -3.596  -0.964  1.00  0.00     0.222 A 
ATOM      8  C   UNL     1       0.430  -2.471  -1.686  1.00  0.00     0.035 A 
ATOM      9  C   UNL     1       1.677  -2.612  -2.311  1.00  0.00     0.050 A 
ATOM     10  C   UNL     1       2.424  -1.563  -3.076  1.00  0.00     0.067 C 
ATOM     11  N   UNL     1       2.354  -3.775  -2.326  1.00  0.00    -0.218 NA
ATOM     12  N   UNL     1       0.670  -4.787  -1.087  1.00  0.00    -0.177 NA
ATOM     13  C   UNL     1       1.780  -4.853  -1.810  1.00  0.00     0.230 A 
BRANCH   8  14
ATOM     14  C   UNL     1      -0.469  -1.300  -2.009  1.00  0.00     0.040 C 
ATOM     15  C   UNL     1      -0.738  -0.269  -0.935  1.00  0.00     0.009 C 
ENDBRANCH   8  14
BRANCH  13  16
ATOM     16  N   UNL     1       2.281  -6.112  -2.139  1.00  0.00    -0.323 N 
ATOM     17  H   UNL     1       1.768  -6.894  -1.829  1.00  0.00     0.170 HD
BRANCH  16  18
ATOM     18  C   UNL     1       3.451  -6.365  -2.873  1.00  0.00     0.060 A 
ATOM     19  C   UNL     1       4.670  -5.834  -2.422  1.00  0.00     0.029 A 
ATOM     20  C   UNL     1       3.433  -7.020  -4.118  1.00  0.00     0.066 A 
ATOM     21  C   UNL     1       5.840  -5.978  -3.166  1.00  0.00     0.023 A 
ATOM     22  C   UNL     1       4.599  -7.151  -4.878  1.00  0.00     0.043 A 
ATOM     23  Cl  UNL     1       1.958  -7.651  -4.764  1.00  0.00    -0.082 Cl
ATOM     24  C   UNL     1       5.798  -6.635  -4.392  1.00  0.00     0.042 A 
ATOM     25  Cl  UNL     1       7.244  -6.804  -5.309  1.00  0.00    -0.084 Cl
ENDBRANCH  16  18
ENDBRANCH  13  16
ENDBRANCH   6   7
ENDBRANCH   5   6
ENDBRANCH   3   5
ENDBRANCH   2   3
ENDBRANCH   1   2
BRANCH   1  26
ATOM     26  C   UNL     1       2.257  -0.321   1.746  1.00  0.00     0.275 C 
BRANCH  26  27
ATOM     27  O   UNL     1       2.033   0.620   0.669  1.00  0.00    -0.458 OA
BRANCH  27  28
ATOM     28  C   UNL     1       3.090   0.860  -0.157  1.00  0.00     0.338 C 
ATOM     29  O   UNL     1       4.230   0.443   0.018  1.00  0.00    -0.246 OA
BRANCH  28  30
ATOM     30  C   UNL     1       2.652   1.572  -1.400  1.00  0.00     0.060 A 
ATOM     31  C   UNL     1       1.341   1.998  -1.542  1.00  0.00     0.016 A 
ATOM     32  C   UNL     1       3.496   1.681  -2.513  1.00  0.00     0.016 A 
ATOM     33  C   UNL     1       0.824   2.290  -2.809  1.00  0.00     0.010 A 
ATOM     34  C   UNL     1       3.006   2.159  -3.751  1.00  0.00     0.010 A 
ATOM     35  C   UNL     1       1.643   2.449  -3.934  1.00  0.00    -0.014 A 
BRANCH  35  36
ATOM     36  C   UNL     1       1.093   2.980  -5.235  1.00  0.00     0.031 A 
ATOM     37  C   UNL     1       1.489   2.381  -6.574  1.00  0.00     0.074 A 
ATOM     38  C   UNL     1       0.241   4.036  -5.247  1.00  0.00     0.049 A 
ATOM     39  N   UNL     1       1.436   2.916  -7.771  1.00  0.00    -0.248 NA
ATOM     40  C   UNL     1       2.001   1.000  -6.570  1.00  0.00     0.031 C 
ATOM     41  C   UNL     1      -0.355   4.685  -4.072  1.00  0.00     0.029 A 
ATOM     42  N   UNL     1      -0.265   4.775  -6.297  1.00  0.00    -0.354 N 
ATOM     43  C   UNL     1       1.959   1.968  -8.651  1.00  0.00     0.074 A 
ATOM     44  C   UNL     1       2.307   0.812  -7.850  1.00  0.00     0.031 C 
ATOM     45  C   UNL     1      -1.163   5.676  -4.459  1.00  0.00     0.029 A 
ATOM     46  C   UNL     1      -1.000   5.868  -5.886  1.00  0.00     0.049 A 
ATOM     47  H   UNL     1      -0.117   4.545  -7.242  1.00  0.00     0.167 HD
ATOM     48  C   UNL     1       2.145   2.064  -9.993  1.00  0.00     0.031 A 
ATOM     49  C   UNL     1      -1.399   6.982  -6.530  1.00  0.00     0.031 A 
ATOM     50  C   UNL     1       1.774   3.220 -10.778  1.00  0.00     0.049 A 
ATOM     51  C   UNL     1      -1.024   7.157  -7.968  1.00  0.00     0.074 A 
ATOM     52  C   UNL     1       1.966   3.446 -12.132  1.00  0.00     0.029 A 
ATOM     53  N   UNL     1       1.117   4.336 -10.282  1.00  0.00    -0.354 N 
ATOM     54  N   UNL     1      -0.401   6.320  -8.760  1.00  0.00    -0.248 NA
ATOM     55  C   UNL     1      -1.380   8.438  -8.590  1.00  0.00     0.031 C 
ATOM     56  C   UNL     1       1.476   4.720 -12.440  1.00  0.00     0.029 A 
ATOM     57  C   UNL     1       0.917   5.260 -11.294  1.00  0.00     0.049 A 
ATOM     58  H   UNL     1       0.834   4.454  -9.346  1.00  0.00     0.167 HD
ATOM     59  C   UNL     1      -0.312   6.966  -9.986  1.00  0.00     0.074 A 
ATOM     60  C   UNL     1      -0.962   8.252  -9.834  1.00  0.00     0.031 C 
ATOM     61  C   UNL     1       0.263   6.533 -11.133  1.00  0.00     0.031 A 
BRANCH  48  62
ATOM     62  C   UNL     1       2.833   0.926 -10.716  1.00  0.00    -0.014 A 
ATOM     63  C   UNL     1       2.181  -0.292 -10.975  1.00  0.00     0.010 A 
ATOM     64  C   UNL     1       4.131   1.119 -11.233  1.00  0.00     0.010 A 
ATOM     65  C   UNL     1       2.820  -1.300 -11.710  1.00  0.00     0.020 A 
ATOM     66  C   UNL     1       4.764   0.126 -11.989  1.00  0.00     0.020 A 
ATOM     67  C   UNL     1       4.108  -1.085 -12.213  1.00  0.00     0.054 A 
BRANCH  67  68
ATOM     68  S   UNL     1       4.899  -2.397 -13.190  1.00  0.00     0.124 S 
ATOM     69  O   UNL     1       5.164  -3.412 -12.173  1.00  0.00    -0.237 OA
ATOM     70  O   UNL     1       3.865  -2.739 -14.163  1.00  0.00    -0.237 OA
ATOM     71  O   UNL     1       6.085  -1.751 -13.746  1.00  0.00    -0.744 OA
ENDBRANCH  67  68
ENDBRANCH  48  62
BRANCH  49  72
ATOM     72  C   UNL     1      -2.075   8.080  -5.777  1.00  0.00    -0.014 A 
ATOM     73  C   UNL     1      -3.401   8.440  -6.066  1.00  0.00     0.010 A 
ATOM     74  C   UNL     1      -1.386   8.775  -4.761  1.00  0.00     0.010 A 
ATOM     75  C   UNL     1      -4.017   9.485  -5.371  1.00  0.00     0.020 A 
ATOM     76  C   UNL     1      -2.012   9.789  -4.034  1.00  0.00     0.020 A 
ATOM     77  C   UNL     1      -3.319  10.151  -4.359  1.00  0.00     0.054 A 
BRANCH  77  78
ATOM     78  S   UNL     1      -4.149  11.485  -3.451  1.00  0.00     0.124 S 
ATOM     79  O   UNL     1      -4.147  12.563  -4.434  1.00  0.00    -0.237 OA
ATOM     80  O   UNL     1      -5.453  10.899  -3.153  1.00  0.00    -0.237 OA
ATOM     81  O   UNL     1      -3.288  11.693  -2.289  1.00  0.00    -0.744 OA
ENDBRANCH  77  78
ENDBRANCH  49  72
BRANCH  61  82
ATOM     82  C   UNL     1       0.158   7.439 -12.327  1.00  0.00    -0.014 A 
ATOM     83  C   UNL     1       0.907   8.626 -12.409  1.00  0.00     0.010 A 
ATOM     84  C   UNL     1      -0.693   7.086 -13.390  1.00  0.00     0.010 A 
ATOM     85  C   UNL     1       0.781   9.462 -13.521  1.00  0.00     0.020 A 
ATOM     86  C   UNL     1      -0.799   7.904 -14.516  1.00  0.00     0.020 A 
ATOM     87  C   UNL     1      -0.070   9.094 -14.568  1.00  0.00     0.054 A 
BRANCH  87  88
ATOM     88  S   UNL     1      -0.181  10.175 -16.020  1.00  0.00     0.124 S 
ATOM     89  O   UNL     1      -0.942  11.307 -15.499  1.00  0.00    -0.237 OA
ATOM     90  O   UNL     1       1.222  10.445 -16.323  1.00  0.00    -0.237 OA
ATOM     91  O   UNL     1      -0.880   9.357 -17.008  1.00  0.00    -0.744 OA
ENDBRANCH  87  88
ENDBRANCH  61  82
ENDBRANCH  35  36
ENDBRANCH  28  30
ENDBRANCH  27  28
ENDBRANCH  26  27
ENDBRANCH   1  26
TORSDOF 19
