REMARK SMILES O=C(OCCOC(=O)c1cccc2c1N[C@H](c1ccccc1Br)[C@H]1CC=C[C@H]21)c1ccc(-c2c3nc(c(-c4ccc(S(=O)(=O)[O-])cc4)c4ccc([nH]4)c(-c4ccc(S(=O)(=O)[O-])cc4)c4nc(c(-c5ccc(S(=O)(=O)[O-])cc5)c5ccc2[nH]5)C=C4)C=C3)cc1
REMARK SMILES IDX 4 1 3 2 2 3 1 4 29 5 30 6 88 7 31 8 87 9 32 10 33 11 34 12
REMARK SMILES IDX 81 13 35 14 86 15 80 16 82 17 36 18 85 19 79 20 78 21 37 23
REMARK SMILES IDX 67 24 48 25 66 26 49 27 52 28 65 29 83 30 50 31 51 32 64 34
REMARK SMILES IDX 84 35 53 36 38 37 39 38 47 39 40 40 46 41 41 42 42 43 43 44
REMARK SMILES IDX 44 45 45 46 68 47 69 48 77 49 70 50 76 51 71 52 72 53 73 54
REMARK SMILES IDX 74 55 75 56 54 57 55 58 63 59 56 60 62 61 57 62 58 63 59 64
REMARK SMILES IDX 60 65 61 66 5 67 6 68 7 69 8 70 9 71 10 72 14 73 11 74 13 75
REMARK SMILES IDX 15 76 12 77 28 78 16 79 24 81 27 82 25 83 26 84 17 85 18 86
REMARK SMILES IDX 22 87 19 88 21 89 23 90 20 91
REMARK H PARENT 82 22 52 33 15 80
REMARK Flexibility Score: inf
ROOT
ATOM      1  C   UNL     1       4.481   1.024  -0.935  1.00  0.00     0.275 C 
ENDROOT
BRANCH   1   2
ATOM      2  O   UNL     1       3.374   0.106  -1.005  1.00  0.00    -0.458 OA
BRANCH   2   3
ATOM      3  C   UNL     1       3.204  -1.106  -0.417  1.00  0.00     0.338 C 
ATOM      4  O   UNL     1       2.343  -1.853  -0.881  1.00  0.00    -0.246 OA
BRANCH   3   5
ATOM      5  C   UNL     1       3.871  -1.526   0.867  1.00  0.00     0.060 A 
ATOM      6  C   UNL     1       3.131  -2.382   1.700  1.00  0.00     0.016 A 
ATOM      7  C   UNL     1       5.145  -1.171   1.307  1.00  0.00     0.016 A 
ATOM      8  C   UNL     1       3.595  -2.767   2.973  1.00  0.00     0.010 A 
ATOM      9  C   UNL     1       5.638  -1.613   2.557  1.00  0.00     0.010 A 
ATOM     10  C   UNL     1       4.865  -2.388   3.435  1.00  0.00    -0.014 A 
BRANCH  10  11
ATOM     11  C   UNL     1       5.433  -3.026   4.673  1.00  0.00     0.031 A 
ATOM     12  C   UNL     1       5.926  -2.328   5.925  1.00  0.00     0.074 A 
ATOM     13  C   UNL     1       5.702  -4.337   4.612  1.00  0.00     0.049 A 
ATOM     14  N   UNL     1       6.115  -2.733   7.161  1.00  0.00    -0.248 NA
ATOM     15  C   UNL     1       6.312  -0.949   5.740  1.00  0.00     0.031 C 
ATOM     16  C   UNL     1       5.509  -5.198   3.448  1.00  0.00     0.029 A 
ATOM     17  N   UNL     1       6.258  -5.145   5.559  1.00  0.00    -0.354 N 
ATOM     18  C   UNL     1       6.463  -1.586   7.903  1.00  0.00     0.074 A 
ATOM     19  C   UNL     1       6.648  -0.538   6.956  1.00  0.00     0.031 C 
ATOM     20  C   UNL     1       5.964  -6.421   3.746  1.00  0.00     0.029 A 
ATOM     21  C   UNL     1       6.489  -6.411   5.111  1.00  0.00     0.049 A 
ATOM     22  H   UNL     1       6.470  -4.845   6.473  1.00  0.00     0.167 HD
ATOM     23  C   UNL     1       6.547  -1.420   9.250  1.00  0.00     0.031 A 
ATOM     24  C   UNL     1       7.074  -7.444   5.737  1.00  0.00     0.031 A 
ATOM     25  C   UNL     1       6.763  -2.547  10.095  1.00  0.00     0.049 A 
ATOM     26  C   UNL     1       7.452  -7.299   7.181  1.00  0.00     0.074 A 
ATOM     27  C   UNL     1       7.026  -2.571  11.448  1.00  0.00     0.029 A 
ATOM     28  N   UNL     1       6.922  -3.826   9.605  1.00  0.00    -0.354 N 
ATOM     29  N   UNL     1       7.305  -6.266   7.978  1.00  0.00    -0.248 NA
ATOM     30  C   UNL     1       8.045  -8.476   7.819  1.00  0.00     0.031 C 
ATOM     31  C   UNL     1       7.503  -3.848  11.742  1.00  0.00     0.029 A 
ATOM     32  C   UNL     1       7.437  -4.626  10.591  1.00  0.00     0.049 A 
ATOM     33  H   UNL     1       6.700  -4.119   8.691  1.00  0.00     0.167 HD
ATOM     34  C   UNL     1       7.771  -6.676   9.223  1.00  0.00     0.074 A 
ATOM     35  C   UNL     1       8.188  -8.056   9.070  1.00  0.00     0.031 C 
ATOM     36  C   UNL     1       7.850  -5.986  10.388  1.00  0.00     0.031 A 
BRANCH  23  37
ATOM     37  C   UNL     1       6.425  -0.064   9.939  1.00  0.00    -0.014 A 
ATOM     38  C   UNL     1       7.431   0.909   9.995  1.00  0.00     0.010 A 
ATOM     39  C   UNL     1       5.237   0.191  10.670  1.00  0.00     0.010 A 
ATOM     40  C   UNL     1       7.219   2.125  10.682  1.00  0.00     0.020 A 
ATOM     41  C   UNL     1       4.998   1.410  11.312  1.00  0.00     0.020 A 
ATOM     42  C   UNL     1       5.995   2.377  11.315  1.00  0.00     0.054 A 
BRANCH  42  43
ATOM     43  S   UNL     1       5.654   3.973  12.118  1.00  0.00     0.124 S 
ATOM     44  O   UNL     1       5.826   3.656  13.532  1.00  0.00    -0.237 OA
ATOM     45  O   UNL     1       6.662   4.862  11.545  1.00  0.00    -0.237 OA
ATOM     46  O   UNL     1       4.282   4.257  11.701  1.00  0.00    -0.744 OA
ENDBRANCH  42  43
ENDBRANCH  23  37
BRANCH  24  47
ATOM     47  C   UNL     1       7.230  -8.693   4.958  1.00  0.00    -0.014 A 
ATOM     48  C   UNL     1       8.099  -8.720   3.847  1.00  0.00     0.010 A 
ATOM     49  C   UNL     1       6.340  -9.756   5.170  1.00  0.00     0.010 A 
ATOM     50  C   UNL     1       8.008  -9.749   2.911  1.00  0.00     0.020 A 
ATOM     51  C   UNL     1       6.270 -10.803   4.250  1.00  0.00     0.020 A 
ATOM     52  C   UNL     1       7.075 -10.771   3.107  1.00  0.00     0.054 A 
BRANCH  52  53
ATOM     53  S   UNL     1       6.879 -12.025   1.814  1.00  0.00     0.124 S 
ATOM     54  O   UNL     1       6.177 -11.276   0.775  1.00  0.00    -0.237 OA
ATOM     55  O   UNL     1       8.261 -12.383   1.508  1.00  0.00    -0.237 OA
ATOM     56  O   UNL     1       6.096 -13.070   2.469  1.00  0.00    -0.744 OA
ENDBRANCH  52  53
ENDBRANCH  24  47
BRANCH  36  57
ATOM     57  C   UNL     1       8.452  -6.660  11.581  1.00  0.00    -0.014 A 
ATOM     58  C   UNL     1       7.667  -6.843  12.734  1.00  0.00     0.010 A 
ATOM     59  C   UNL     1       9.831  -6.918  11.625  1.00  0.00     0.010 A 
ATOM     60  C   UNL     1       8.261  -7.234  13.929  1.00  0.00     0.020 A 
ATOM     61  C   UNL     1      10.421  -7.354  12.809  1.00  0.00     0.020 A 
ATOM     62  C   UNL     1       9.636  -7.483  13.959  1.00  0.00     0.054 A 
BRANCH  62  63
ATOM     63  S   UNL     1      10.393  -7.979  15.525  1.00  0.00     0.124 S 
ATOM     64  O   UNL     1      10.487  -6.708  16.236  1.00  0.00    -0.237 OA
ATOM     65  O   UNL     1       9.423  -8.931  16.061  1.00  0.00    -0.237 OA
ATOM     66  O   UNL     1      11.667  -8.565  15.115  1.00  0.00    -0.744 OA
ENDBRANCH  62  63
ENDBRANCH  36  57
ENDBRANCH  10  11
ENDBRANCH   3   5
ENDBRANCH   2   3
ENDBRANCH   1   2
BRANCH   1  67
ATOM     67  C   UNL     1       4.358   2.094   0.149  1.00  0.00     0.275 C 
BRANCH  67  68
ATOM     68  O   UNL     1       3.765   1.574   1.334  1.00  0.00    -0.458 OA
BRANCH  68  69
ATOM     69  C   UNL     1       2.407   1.647   1.375  1.00  0.00     0.340 C 
ATOM     70  O   UNL     1       1.679   2.213   0.574  1.00  0.00    -0.246 OA
BRANCH  69  71
ATOM     71  C   UNL     1       1.930   0.796   2.476  1.00  0.00     0.083 A 
ATOM     72  C   UNL     1       0.880  -0.092   2.193  1.00  0.00     0.018 A 
ATOM     73  C   UNL     1       2.514   0.874   3.749  1.00  0.00     0.053 A 
ATOM     74  C   UNL     1       0.415  -0.955   3.178  1.00  0.00     0.001 A 
ATOM     75  C   UNL     1       1.936   0.087   4.756  1.00  0.00    -0.017 A 
ATOM     76  N   UNL     1       3.553   1.758   4.014  1.00  0.00    -0.377 N 
ATOM     77  C   UNL     1       0.932  -0.854   4.463  1.00  0.00     0.006 A 
ATOM     78  C   UNL     1       2.305   0.429   6.156  1.00  0.00     0.049 C 
ATOM     79  C   UNL     1       4.107   2.083   5.338  1.00  0.00     0.115 C 
ATOM     80  H   UNL     1       3.958   2.212   3.240  1.00  0.00     0.161 HD
ATOM     81  C   UNL     1       3.773   0.899   6.261  1.00  0.00     0.031 C 
ATOM     82  C   UNL     1       2.293  -0.640   7.204  1.00  0.00    -0.023 C 
ATOM     83  C   UNL     1       3.893   0.984   7.777  1.00  0.00     0.034 C 
ATOM     84  C   UNL     1       3.178  -0.303   8.148  1.00  0.00    -0.030 C 
BRANCH  79  85
ATOM     85  C   UNL     1       5.510   2.721   5.067  1.00  0.00    -0.011 A 
ATOM     86  C   UNL     1       5.506   3.950   4.375  1.00  0.00     0.007 A 
ATOM     87  C   UNL     1       6.795   2.310   5.476  1.00  0.00     0.023 A 
ATOM     88  C   UNL     1       6.635   4.782   4.334  1.00  0.00     0.000 A 
ATOM     89  C   UNL     1       7.786   3.270   5.792  1.00  0.00     0.016 A 
ATOM     90  Br  UNL     1       7.804   1.303   3.966  1.00  0.00    -0.050 Br
ATOM     91  C   UNL     1       7.750   4.481   5.110  1.00  0.00     0.001 A 
ENDBRANCH  79  85
ENDBRANCH  69  71
ENDBRANCH  68  69
ENDBRANCH  67  68
ENDBRANCH   1  67
TORSDOF 15
