REMARK SMILES C[C@@H](C(=O)OCCOC(=O)c1ccc(-c2c3nc(c(-c4ccc(S(=O)(=O)[O-])cc4)c4ccc([nH]4)c(-c4ccc(S(=O)(=O)[O-])cc4)c4nc(c(-c5ccc(S(=O)(=O)[O-])cc5)c5ccc2[nH]5)C=C4)C=C3)cc1)N1C(=O)/C(=C/c2ccc(F)cc2)SC1=S
REMARK SMILES IDX 7 1 6 2 5 3 3 4 4 5 2 6 1 7 71 8 72 9 84 10 73 11 74 12
REMARK SMILES IDX 83 13 85 14 75 15 76 16 77 17 82 18 78 19 81 20 79 21 80 22
REMARK SMILES IDX 8 23 9 24 10 25 11 26 12 27 70 28 13 29 69 30 14 31 15 32
REMARK SMILES IDX 16 33 63 34 17 35 68 36 62 37 64 38 18 39 67 40 61 41 60 42
REMARK SMILES IDX 19 44 49 45 30 46 48 47 31 48 34 49 47 50 65 51 32 52 33 53
REMARK SMILES IDX 46 55 66 56 35 57 20 58 21 59 29 60 22 61 28 62 23 63 24 64
REMARK SMILES IDX 25 65 26 66 27 67 50 68 51 69 59 70 52 71 58 72 53 73 54 74
REMARK SMILES IDX 55 75 56 76 57 77 36 78 37 79 45 80 38 81 44 82 39 83 40 84
REMARK SMILES IDX 41 85 42 86 43 87
REMARK H PARENT 64 43 34 54
REMARK Flexibility Score: inf
ROOT
ATOM      1  C   UNL     1       2.208  -0.857  -4.177  1.00  0.00     0.275 C 
ENDROOT
BRANCH   1   2
ATOM      2  C   UNL     1       2.663   0.413  -3.465  1.00  0.00     0.274 C 
BRANCH   2   3
ATOM      3  O   UNL     1       2.221   0.420  -2.091  1.00  0.00    -0.461 OA
BRANCH   3   4
ATOM      4  C   UNL     1       1.097   1.139  -1.814  1.00  0.00     0.329 C 
ATOM      5  O   UNL     1       0.478   1.793  -2.647  1.00  0.00    -0.250 OA
BRANCH   4   6
ATOM      6  C   UNL     1       0.764   1.156  -0.313  1.00  0.00     0.199 C 
ATOM      7  C   UNL     1       1.375  -0.012   0.463  1.00  0.00     0.044 C 
BRANCH   6   8
ATOM      8  N   UNL     1      -0.703   1.315  -0.123  1.00  0.00    -0.279 N 
ATOM      9  C   UNL     1      -1.544   0.214  -0.133  1.00  0.00     0.266 C 
ATOM     10  C   UNL     1      -1.333   2.545  -0.047  1.00  0.00     0.149 C 
ATOM     11  O   UNL     1      -1.197  -0.951  -0.268  1.00  0.00    -0.268 OA
ATOM     12  C   UNL     1      -2.974   0.625  -0.001  1.00  0.00     0.081 C 
ATOM     13  S   UNL     1      -3.072   2.330   0.104  1.00  0.00    -0.054 SA
ATOM     14  S   UNL     1      -0.641   4.066  -0.053  1.00  0.00    -0.052 S 
ATOM     15  C   UNL     1      -3.966  -0.280  -0.005  1.00  0.00     0.029 C 
BRANCH  15  16
ATOM     16  C   UNL     1      -5.429  -0.083   0.017  1.00  0.00    -0.024 A 
ATOM     17  C   UNL     1      -6.221  -1.010   0.718  1.00  0.00     0.011 A 
ATOM     18  C   UNL     1      -6.075   0.902  -0.744  1.00  0.00     0.011 A 
ATOM     19  C   UNL     1      -7.617  -0.934   0.679  1.00  0.00     0.040 A 
ATOM     20  C   UNL     1      -7.472   0.981  -0.777  1.00  0.00     0.040 A 
ATOM     21  C   UNL     1      -8.230   0.063  -0.066  1.00  0.00     0.123 A 
ATOM     22  F   UNL     1      -9.566   0.139  -0.100  1.00  0.00    -0.207 F 
ENDBRANCH  15  16
ENDBRANCH   6   8
ENDBRANCH   4   6
ENDBRANCH   3   4
ENDBRANCH   2   3
ENDBRANCH   1   2
BRANCH   1  23
ATOM     23  O   UNL     1       0.777  -0.846  -4.294  1.00  0.00    -0.458 OA
BRANCH  23  24
ATOM     24  C   UNL     1       0.125  -1.877  -3.709  1.00  0.00     0.338 C 
ATOM     25  O   UNL     1       0.620  -2.845  -3.160  1.00  0.00    -0.246 OA
BRANCH  24  26
ATOM     26  C   UNL     1      -1.328  -1.673  -3.859  1.00  0.00     0.060 A 
ATOM     27  C   UNL     1      -1.913  -0.477  -3.448  1.00  0.00     0.016 A 
ATOM     28  C   UNL     1      -2.127  -2.714  -4.330  1.00  0.00     0.016 A 
ATOM     29  C   UNL     1      -3.300  -0.360  -3.412  1.00  0.00     0.010 A 
ATOM     30  C   UNL     1      -3.518  -2.557  -4.377  1.00  0.00     0.010 A 
ATOM     31  C   UNL     1      -4.127  -1.397  -3.869  1.00  0.00    -0.014 A 
BRANCH  31  32
ATOM     32  C   UNL     1      -5.610  -1.286  -3.733  1.00  0.00     0.031 A 
ATOM     33  C   UNL     1      -6.381  -2.309  -2.930  1.00  0.00     0.074 A 
ATOM     34  C   UNL     1      -6.268  -0.224  -4.244  1.00  0.00     0.049 A 
ATOM     35  N   UNL     1      -7.676  -2.430  -2.773  1.00  0.00    -0.248 NA
ATOM     36  C   UNL     1      -5.598  -3.333  -2.217  1.00  0.00     0.031 C 
ATOM     37  C   UNL     1      -5.652   0.887  -4.973  1.00  0.00     0.029 A 
ATOM     38  N   UNL     1      -7.596   0.126  -4.177  1.00  0.00    -0.354 N 
ATOM     39  C   UNL     1      -7.863  -3.565  -1.992  1.00  0.00     0.074 A 
ATOM     40  C   UNL     1      -6.551  -4.105  -1.713  1.00  0.00     0.031 C 
ATOM     41  C   UNL     1      -6.575   1.836  -5.192  1.00  0.00     0.029 A 
ATOM     42  C   UNL     1      -7.870   1.362  -4.717  1.00  0.00     0.049 A 
ATOM     43  H   UNL     1      -8.286  -0.453  -3.781  1.00  0.00     0.167 HD
ATOM     44  C   UNL     1      -9.019  -4.111  -1.545  1.00  0.00     0.031 A 
ATOM     45  C   UNL     1      -9.030   2.037  -4.835  1.00  0.00     0.031 A 
ATOM     46  C   UNL     1     -10.324  -3.550  -1.772  1.00  0.00     0.049 A 
ATOM     47  C   UNL     1     -10.304   1.396  -4.364  1.00  0.00     0.074 A 
ATOM     48  C   UNL     1     -11.559  -4.065  -1.414  1.00  0.00     0.029 A 
ATOM     49  N   UNL     1     -10.564  -2.330  -2.385  1.00  0.00    -0.354 N 
ATOM     50  N   UNL     1     -10.467   0.258  -3.734  1.00  0.00    -0.248 NA
ATOM     51  C   UNL     1     -11.553   2.116  -4.649  1.00  0.00     0.031 C 
ATOM     52  C   UNL     1     -12.548  -3.175  -1.848  1.00  0.00     0.029 A 
ATOM     53  C   UNL     1     -11.926  -2.087  -2.437  1.00  0.00     0.049 A 
ATOM     54  H   UNL     1      -9.868  -1.727  -2.733  1.00  0.00     0.167 HD
ATOM     55  C   UNL     1     -11.839   0.120  -3.556  1.00  0.00     0.074 A 
ATOM     56  C   UNL     1     -12.457   1.308  -4.110  1.00  0.00     0.031 C 
ATOM     57  C   UNL     1     -12.527  -0.908  -3.002  1.00  0.00     0.031 A 
BRANCH  44  58
ATOM     58  C   UNL     1      -8.930  -5.420  -0.809  1.00  0.00    -0.014 A 
ATOM     59  C   UNL     1      -8.498  -5.487   0.527  1.00  0.00     0.010 A 
ATOM     60  C   UNL     1      -9.319  -6.604  -1.465  1.00  0.00     0.010 A 
ATOM     61  C   UNL     1      -8.425  -6.720   1.183  1.00  0.00     0.020 A 
ATOM     62  C   UNL     1      -9.269  -7.834  -0.806  1.00  0.00     0.020 A 
ATOM     63  C   UNL     1      -8.805  -7.886   0.510  1.00  0.00     0.054 A 
BRANCH  63  64
ATOM     64  S   UNL     1      -8.715  -9.472   1.387  1.00  0.00     0.124 S 
ATOM     65  O   UNL     1      -7.278  -9.737   1.381  1.00  0.00    -0.237 OA
ATOM     66  O   UNL     1      -9.288  -9.152   2.692  1.00  0.00    -0.237 OA
ATOM     67  O   UNL     1      -9.518 -10.371   0.561  1.00  0.00    -0.744 OA
ENDBRANCH  63  64
ENDBRANCH  44  58
BRANCH  45  68
ATOM     68  C   UNL     1      -9.044   3.388  -5.461  1.00  0.00    -0.014 A 
ATOM     69  C   UNL     1      -9.335   4.528  -4.691  1.00  0.00     0.010 A 
ATOM     70  C   UNL     1      -8.745   3.545  -6.827  1.00  0.00     0.010 A 
ATOM     71  C   UNL     1      -9.325   5.799  -5.274  1.00  0.00     0.020 A 
ATOM     72  C   UNL     1      -8.703   4.815  -7.406  1.00  0.00     0.020 A 
ATOM     73  C   UNL     1      -9.003   5.935  -6.628  1.00  0.00     0.054 A 
BRANCH  73  74
ATOM     74  S   UNL     1      -8.911   7.594  -7.356  1.00  0.00     0.124 S 
ATOM     75  O   UNL     1     -10.313   7.872  -7.652  1.00  0.00    -0.237 OA
ATOM     76  O   UNL     1      -8.322   8.387  -6.280  1.00  0.00    -0.237 OA
ATOM     77  O   UNL     1      -8.048   7.403  -8.520  1.00  0.00    -0.744 OA
ENDBRANCH  73  74
ENDBRANCH  45  68
BRANCH  57  78
ATOM     78  C   UNL     1     -14.027  -0.801  -2.982  1.00  0.00    -0.014 A 
ATOM     79  C   UNL     1     -14.776  -0.991  -4.157  1.00  0.00     0.010 A 
ATOM     80  C   UNL     1     -14.699  -0.560  -1.771  1.00  0.00     0.010 A 
ATOM     81  C   UNL     1     -16.170  -0.912  -4.128  1.00  0.00     0.020 A 
ATOM     82  C   UNL     1     -16.095  -0.501  -1.733  1.00  0.00     0.020 A 
ATOM     83  C   UNL     1     -16.822  -0.664  -2.916  1.00  0.00     0.054 A 
BRANCH  83  84
ATOM     84  S   UNL     1     -18.635  -0.606  -2.894  1.00  0.00     0.124 S 
ATOM     85  O   UNL     1     -18.904   0.710  -3.467  1.00  0.00    -0.237 OA
ATOM     86  O   UNL     1     -19.005  -1.744  -3.733  1.00  0.00    -0.237 OA
ATOM     87  O   UNL     1     -18.969  -0.750  -1.479  1.00  0.00    -0.744 OA
ENDBRANCH  83  84
ENDBRANCH  57  78
ENDBRANCH  31  32
ENDBRANCH  24  26
ENDBRANCH  23  24
ENDBRANCH   1  23
TORSDOF 16
