REMARK SMILES Cc1nc2sc3c(c2c2nc(CCC(=O)OCCOC(=O)c4ccc(-c5c6nc(c(-c7ccc(S(=O)(=O)[O-])cc7)c7ccc([nH]7)c(-c7ccc(S(=O)(=O)[O-])cc7)c7nc(c(-c8ccc(S(=O)(=O)[O-])cc8)c8ccc5[nH]8)C=C7)C=C6)cc4)nn12)[C@@H](C)CCC3
REMARK SMILES IDX 18 1 17 2 16 3 14 4 15 5 13 6 12 7 11 8 1 9 2 10 3 11 83 12
REMARK SMILES IDX 4 13 9 14 82 15 5 16 8 17 10 18 6 19 7 20 88 21 84 22 87 23
REMARK SMILES IDX 85 24 86 25 19 26 20 27 21 28 22 29 23 30 81 31 24 32 80 33
REMARK SMILES IDX 25 34 26 35 27 36 74 37 28 38 79 39 73 40 75 41 29 42 78 43
REMARK SMILES IDX 72 44 71 45 30 47 60 48 41 49 59 50 42 51 45 52 58 53 76 54
REMARK SMILES IDX 43 55 44 56 57 58 77 59 46 60 31 61 32 62 40 63 33 64 39 65
REMARK SMILES IDX 34 66 35 67 36 68 37 69 38 70 61 71 62 72 70 73 63 74 69 75
REMARK SMILES IDX 64 76 65 77 66 78 67 79 68 80 47 81 48 82 56 83 49 84 55 85
REMARK SMILES IDX 50 86 51 87 52 88 53 89 54 90
REMARK H PARENT 75 46 45 57
REMARK Flexibility Score: inf
ROOT
ATOM      1  C   UNL     1      -5.652  -5.672  -0.464  1.00  0.00     0.275 C 
ENDROOT
BRANCH   1   2
ATOM      2  C   UNL     1      -5.620  -4.758  -1.684  1.00  0.00     0.274 C 
BRANCH   2   3
ATOM      3  O   UNL     1      -4.898  -3.535  -1.449  1.00  0.00    -0.462 OA
BRANCH   3   4
ATOM      4  C   UNL     1      -5.631  -2.468  -1.038  1.00  0.00     0.306 C 
ATOM      5  O   UNL     1      -6.844  -2.473  -0.864  1.00  0.00    -0.252 OA
BRANCH   4   6
ATOM      6  C   UNL     1      -4.786  -1.227  -0.913  1.00  0.00     0.131 C 
BRANCH   6   7
ATOM      7  C   UNL     1      -4.024  -1.125   0.399  1.00  0.00     0.091 C 
BRANCH   7   8
ATOM      8  C   UNL     1      -2.644  -1.685   0.326  1.00  0.00     0.152 A 
ATOM      9  C   UNL     1       1.122  -0.060  -0.085  1.00  0.00     0.090 C 
ATOM     10  C   UNL     1       0.796  -1.510   0.080  1.00  0.00     0.131 A 
ATOM     11  N   UNL     1       1.713  -2.444   0.087  1.00  0.00    -0.222 NA
ATOM     12  N   UNL     1      -0.570  -1.788   0.200  1.00  0.00    -0.199 N 
ATOM     13  C   UNL     1       1.247  -3.733   0.196  1.00  0.00     0.129 A 
ATOM     14  C   UNL     1      -1.056  -3.061   0.306  1.00  0.00     0.168 A 
ATOM     15  N   UNL     1      -1.572  -0.886   0.172  1.00  0.00    -0.150 NA
ATOM     16  S   UNL     1       2.315  -5.067   0.218  1.00  0.00    -0.120 S 
ATOM     17  C   UNL     1      -0.071  -4.166   0.281  1.00  0.00     0.060 A 
ATOM     18  N   UNL     1      -2.362  -3.032   0.390  1.00  0.00    -0.211 NA
ATOM     19  C   UNL     1       1.027  -6.181   0.290  1.00  0.00     0.011 A 
ATOM     20  C   UNL     1      -0.221  -5.581   0.273  1.00  0.00    -0.018 A 
ATOM     21  C   UNL     1       1.264  -7.657   0.328  1.00  0.00     0.047 C 
ATOM     22  C   UNL     1      -1.497  -6.389   0.243  1.00  0.00     0.018 C 
ATOM     23  C   UNL     1       0.044  -8.354   0.941  1.00  0.00     0.006 C 
ATOM     24  C   UNL     1      -2.317  -6.060  -1.006  1.00  0.00     0.013 C 
ATOM     25  C   UNL     1      -1.241  -7.922   0.232  1.00  0.00     0.008 C 
ENDBRANCH   7   8
ENDBRANCH   6   7
ENDBRANCH   4   6
ENDBRANCH   3   4
ENDBRANCH   2   3
ENDBRANCH   1   2
BRANCH   1  26
ATOM     26  O   UNL     1      -6.621  -5.281   0.503  1.00  0.00    -0.458 OA
BRANCH  26  27
ATOM     27  C   UNL     1      -6.120  -4.466   1.459  1.00  0.00     0.338 C 
ATOM     28  O   UNL     1      -5.077  -3.841   1.447  1.00  0.00    -0.246 OA
BRANCH  27  29
ATOM     29  C   UNL     1      -6.946  -4.574   2.648  1.00  0.00     0.060 A 
ATOM     30  C   UNL     1      -7.292  -3.418   3.346  1.00  0.00     0.016 A 
ATOM     31  C   UNL     1      -7.228  -5.858   3.126  1.00  0.00     0.016 A 
ATOM     32  C   UNL     1      -7.949  -3.555   4.556  1.00  0.00     0.010 A 
ATOM     33  C   UNL     1      -7.873  -5.991   4.335  1.00  0.00     0.010 A 
ATOM     34  C   UNL     1      -8.222  -4.840   5.046  1.00  0.00    -0.014 A 
BRANCH  34  35
ATOM     35  C   UNL     1      -9.013  -4.959   6.260  1.00  0.00     0.031 A 
ATOM     36  C   UNL     1     -10.458  -4.655   6.105  1.00  0.00     0.074 A 
ATOM     37  C   UNL     1      -8.545  -5.529   7.385  1.00  0.00     0.049 A 
ATOM     38  N   UNL     1     -11.170  -3.788   6.745  1.00  0.00    -0.248 NA
ATOM     39  C   UNL     1     -11.188  -5.375   5.046  1.00  0.00     0.031 C 
ATOM     40  C   UNL     1      -7.270  -6.231   7.545  1.00  0.00     0.029 A 
ATOM     41  N   UNL     1      -9.175  -5.728   8.578  1.00  0.00    -0.354 N 
ATOM     42  C   UNL     1     -12.475  -3.972   6.298  1.00  0.00     0.074 A 
ATOM     43  C   UNL     1     -12.409  -4.857   5.163  1.00  0.00     0.031 C 
ATOM     44  C   UNL     1      -7.319  -6.972   8.672  1.00  0.00     0.029 A 
ATOM     45  C   UNL     1      -8.561  -6.683   9.372  1.00  0.00     0.049 A 
ATOM     46  H   UNL     1      -9.987  -5.241   8.849  1.00  0.00     0.167 HD
ATOM     47  C   UNL     1     -13.554  -3.577   7.024  1.00  0.00     0.031 A 
ATOM     48  C   UNL     1      -9.063  -7.256  10.490  1.00  0.00     0.031 A 
ATOM     49  C   UNL     1     -13.205  -2.707   8.110  1.00  0.00     0.049 A 
ATOM     50  C   UNL     1     -10.112  -6.368  11.047  1.00  0.00     0.074 A 
ATOM     51  C   UNL     1     -12.878  -1.379   8.263  1.00  0.00     0.029 A 
ATOM     52  N   UNL     1     -12.879  -3.348   9.277  1.00  0.00    -0.354 N 
ATOM     53  N   UNL     1      -9.879  -5.158  11.477  1.00  0.00    -0.248 NA
ATOM     54  C   UNL     1     -11.523  -6.710  10.899  1.00  0.00     0.031 C 
ATOM     55  C   UNL     1     -12.141  -1.290   9.481  1.00  0.00     0.029 A 
ATOM     56  C   UNL     1     -12.033  -2.568  10.026  1.00  0.00     0.049 A 
ATOM     57  H   UNL     1     -13.204  -4.239   9.539  1.00  0.00     0.167 HD
ATOM     58  C   UNL     1     -11.063  -4.477  11.268  1.00  0.00     0.074 A 
ATOM     59  C   UNL     1     -12.073  -5.507  11.088  1.00  0.00     0.031 C 
ATOM     60  C   UNL     1     -11.070  -3.155  10.940  1.00  0.00     0.031 A 
BRANCH  47  61
ATOM     61  C   UNL     1     -14.872  -4.309   7.013  1.00  0.00    -0.014 A 
ATOM     62  C   UNL     1     -15.989  -3.720   7.636  1.00  0.00     0.010 A 
ATOM     63  C   UNL     1     -14.969  -5.675   6.670  1.00  0.00     0.010 A 
ATOM     64  C   UNL     1     -17.130  -4.474   7.941  1.00  0.00     0.020 A 
ATOM     65  C   UNL     1     -16.117  -6.424   6.932  1.00  0.00     0.020 A 
ATOM     66  C   UNL     1     -17.178  -5.826   7.600  1.00  0.00     0.054 A 
BRANCH  66  67
ATOM     67  S   UNL     1     -18.603  -6.821   8.107  1.00  0.00     0.124 S 
ATOM     68  O   UNL     1     -18.423  -6.888   9.553  1.00  0.00    -0.237 OA
ATOM     69  O   UNL     1     -19.729  -6.015   7.644  1.00  0.00    -0.237 OA
ATOM     70  O   UNL     1     -18.411  -8.081   7.391  1.00  0.00    -0.744 OA
ENDBRANCH  66  67
ENDBRANCH  47  61
BRANCH  48  71
ATOM     71  C   UNL     1      -8.839  -8.644  10.958  1.00  0.00    -0.014 A 
ATOM     72  C   UNL     1      -9.195  -9.032  12.261  1.00  0.00     0.010 A 
ATOM     73  C   UNL     1      -8.499  -9.660  10.039  1.00  0.00     0.010 A 
ATOM     74  C   UNL     1      -9.270 -10.389  12.612  1.00  0.00     0.020 A 
ATOM     75  C   UNL     1      -8.551 -11.012  10.386  1.00  0.00     0.020 A 
ATOM     76  C   UNL     1      -8.966 -11.371  11.665  1.00  0.00     0.054 A 
BRANCH  76  77
ATOM     77  S   UNL     1      -9.235 -13.117  12.076  1.00  0.00     0.124 S 
ATOM     78  O   UNL     1      -8.216 -13.357  13.094  1.00  0.00    -0.237 OA
ATOM     79  O   UNL     1     -10.616 -13.118  12.550  1.00  0.00    -0.237 OA
ATOM     80  O   UNL     1      -9.018 -13.809  10.806  1.00  0.00    -0.744 OA
ENDBRANCH  76  77
ENDBRANCH  48  71
BRANCH  60  81
ATOM     81  C   UNL     1      -9.880  -2.320  11.328  1.00  0.00    -0.014 A 
ATOM     82  C   UNL     1      -8.599  -2.497  10.774  1.00  0.00     0.010 A 
ATOM     83  C   UNL     1     -10.092  -1.244  12.208  1.00  0.00     0.010 A 
ATOM     84  C   UNL     1      -7.553  -1.622  11.100  1.00  0.00     0.020 A 
ATOM     85  C   UNL     1      -9.058  -0.358  12.524  1.00  0.00     0.020 A 
ATOM     86  C   UNL     1      -7.792  -0.554  11.970  1.00  0.00     0.054 A 
BRANCH  86  87
ATOM     87  S   UNL     1      -6.452   0.619  12.323  1.00  0.00     0.124 S 
ATOM     88  O   UNL     1      -5.554  -0.168  13.162  1.00  0.00    -0.237 OA
ATOM     89  O   UNL     1      -5.946   0.945  10.991  1.00  0.00    -0.237 OA
ATOM     90  O   UNL     1      -7.128   1.723  13.005  1.00  0.00    -0.744 OA
ENDBRANCH  86  87
ENDBRANCH  60  81
ENDBRANCH  34  35
ENDBRANCH  27  29
ENDBRANCH  26  27
ENDBRANCH   1  26
TORSDOF 16
