REMARK SMILES CC1=C2C(=O)N(C[C@H]3CCCO3)C(=O)N=C2S[C@@H]1C(=O)OCCOC(=O)c1ccc(-c2c3nc(c(-c4ccc(S(=O)(=O)[O-])cc4)c4ccc([nH]4)c(-c4ccc(S(=O)(=O)[O-])cc4)c4nc(c(-c5ccc(S(=O)(=O)[O-])cc5)c5ccc2[nH]5)C=C4)C=C3)cc1
REMARK SMILES IDX 23 1 22 2 21 3 19 4 20 5 18 6 1 7 2 8 3 9 4 10 16 11 17 12
REMARK SMILES IDX 5 13 6 14 15 15 13 16 14 17 7 18 8 19 9 20 12 21 10 22 11 23
REMARK SMILES IDX 24 24 25 25 26 26 27 27 28 28 86 29 29 30 85 31 30 32 31 33
REMARK SMILES IDX 32 34 79 35 33 36 84 37 78 38 80 39 34 40 83 41 77 42 76 43
REMARK SMILES IDX 35 45 65 46 46 47 64 48 47 49 50 50 63 51 81 52 48 53 49 54
REMARK SMILES IDX 62 56 82 57 51 58 36 59 37 60 45 61 38 62 44 63 39 64 40 65
REMARK SMILES IDX 41 66 42 67 43 68 66 69 67 70 75 71 68 72 74 73 69 74 70 75
REMARK SMILES IDX 71 76 72 77 73 78 52 79 53 80 61 81 54 82 60 83 55 84 56 85
REMARK SMILES IDX 57 86 58 87 59 88
REMARK H PARENT 80 44 50 55
REMARK Flexibility Score: inf
ROOT
ATOM      1  C   UNL     1      -6.533  -2.379   8.182  1.00  0.00     0.275 C 
ENDROOT
BRANCH   1   2
ATOM      2  C   UNL     1      -5.636  -1.771   7.096  1.00  0.00     0.274 C 
BRANCH   2   3
ATOM      3  O   UNL     1      -5.191  -2.767   6.160  1.00  0.00    -0.461 OA
BRANCH   3   4
ATOM      4  C   UNL     1      -3.989  -3.331   6.430  1.00  0.00     0.323 C 
ATOM      5  O   UNL     1      -3.244  -2.951   7.331  1.00  0.00    -0.251 OA
BRANCH   4   6
ATOM      6  C   UNL     1      -3.607  -4.489   5.518  1.00  0.00     0.189 C 
ATOM      7  C   UNL     1      -1.210  -3.534   5.185  1.00  0.00     0.042 C 
ATOM      8  C   UNL     1      -2.458  -4.135   4.611  1.00  0.00    -0.033 C 
ATOM      9  C   UNL     1      -2.617  -4.508   3.336  1.00  0.00     0.073 C 
ATOM     10  C   UNL     1      -1.706  -4.391   2.214  1.00  0.00     0.264 C 
ATOM     11  C   UNL     1      -3.814  -5.279   3.091  1.00  0.00     0.116 C 
ATOM     12  S   UNL     1      -4.930  -5.098   4.403  1.00  0.00    -0.086 SA
ATOM     13  O   UNL     1      -1.069  -3.368   2.012  1.00  0.00    -0.268 OA
ATOM     14  N   UNL     1      -1.732  -5.524   1.437  1.00  0.00    -0.256 N 
ATOM     15  N   UNL     1      -4.000  -6.027   2.067  1.00  0.00    -0.186 NA
ATOM     16  C   UNL     1      -2.930  -6.220   1.214  1.00  0.00     0.351 C 
ATOM     17  O   UNL     1      -3.030  -7.013   0.280  1.00  0.00    -0.246 OA
BRANCH  14  18
ATOM     18  C   UNL     1      -0.486  -6.067   0.891  1.00  0.00     0.163 C 
BRANCH  18  19
ATOM     19  C   UNL     1       0.591  -5.099   0.365  1.00  0.00     0.138 C 
ATOM     20  C   UNL     1       1.456  -4.414   1.421  1.00  0.00     0.036 C 
ATOM     21  O   UNL     1       1.518  -5.887  -0.426  1.00  0.00    -0.376 OA
ATOM     22  C   UNL     1       2.637  -5.328   1.583  1.00  0.00     0.031 C 
ATOM     23  C   UNL     1       2.814  -5.865   0.187  1.00  0.00     0.160 C 
ENDBRANCH  18  19
ENDBRANCH  14  18
ENDBRANCH   4   6
ENDBRANCH   3   4
ENDBRANCH   2   3
ENDBRANCH   1   2
BRANCH   1  24
ATOM     24  O   UNL     1      -5.802  -3.190   9.126  1.00  0.00    -0.458 OA
BRANCH  24  25
ATOM     25  C   UNL     1      -5.685  -4.497   8.793  1.00  0.00     0.338 C 
ATOM     26  O   UNL     1      -6.108  -5.036   7.783  1.00  0.00    -0.246 OA
BRANCH  25  27
ATOM     27  C   UNL     1      -4.829  -5.209   9.756  1.00  0.00     0.060 A 
ATOM     28  C   UNL     1      -3.671  -5.820   9.268  1.00  0.00     0.016 A 
ATOM     29  C   UNL     1      -5.211  -5.382  11.086  1.00  0.00     0.016 A 
ATOM     30  C   UNL     1      -2.899  -6.626  10.097  1.00  0.00     0.010 A 
ATOM     31  C   UNL     1      -4.425  -6.181  11.925  1.00  0.00     0.010 A 
ATOM     32  C   UNL     1      -3.272  -6.819  11.432  1.00  0.00    -0.014 A 
BRANCH  32  33
ATOM     33  C   UNL     1      -2.465  -7.722  12.289  1.00  0.00     0.031 A 
ATOM     34  C   UNL     1      -3.008  -9.064  12.691  1.00  0.00     0.074 A 
ATOM     35  C   UNL     1      -1.229  -7.348  12.670  1.00  0.00     0.049 A 
ATOM     36  N   UNL     1      -2.482  -9.961  13.485  1.00  0.00    -0.248 NA
ATOM     37  C   UNL     1      -4.311  -9.448  12.127  1.00  0.00     0.031 C 
ATOM     38  C   UNL     1      -0.571  -6.095  12.296  1.00  0.00     0.029 A 
ATOM     39  N   UNL     1      -0.303  -7.990  13.453  1.00  0.00    -0.354 N 
ATOM     40  C   UNL     1      -3.399 -11.004  13.539  1.00  0.00     0.074 A 
ATOM     41  C   UNL     1      -4.519 -10.624  12.705  1.00  0.00     0.031 C 
ATOM     42  C   UNL     1       0.656  -6.064  12.839  1.00  0.00     0.029 A 
ATOM     43  C   UNL     1       0.850  -7.267  13.644  1.00  0.00     0.049 A 
ATOM     44  H   UNL     1      -0.451  -8.883  13.840  1.00  0.00     0.167 HD
ATOM     45  C   UNL     1      -3.315 -12.169  14.225  1.00  0.00     0.031 A 
ATOM     46  C   UNL     1       1.930  -7.528  14.405  1.00  0.00     0.031 A 
ATOM     47  C   UNL     1      -2.197 -12.543  15.050  1.00  0.00     0.049 A 
ATOM     48  C   UNL     1       1.973  -8.801  15.203  1.00  0.00     0.074 A 
ATOM     49  C   UNL     1      -2.017 -13.703  15.784  1.00  0.00     0.029 A 
ATOM     50  N   UNL     1      -1.067 -11.764  15.252  1.00  0.00    -0.354 N 
ATOM     51  N   UNL     1       1.088  -9.767  15.259  1.00  0.00    -0.248 NA
ATOM     52  C   UNL     1       3.159  -9.016  16.044  1.00  0.00     0.031 C 
ATOM     53  C   UNL     1      -0.797 -13.606  16.464  1.00  0.00     0.029 A 
ATOM     54  C   UNL     1      -0.195 -12.408  16.113  1.00  0.00     0.049 A 
ATOM     55  H   UNL     1      -0.907 -10.883  14.842  1.00  0.00     0.167 HD
ATOM     56  C   UNL     1       1.616 -10.712  16.130  1.00  0.00     0.074 A 
ATOM     57  C   UNL     1       2.905 -10.210  16.562  1.00  0.00     0.031 C 
ATOM     58  C   UNL     1       1.081 -11.890  16.538  1.00  0.00     0.031 A 
BRANCH  45  59
ATOM     59  C   UNL     1      -4.490 -13.107  14.145  1.00  0.00    -0.014 A 
ATOM     60  C   UNL     1      -4.752 -13.857  12.986  1.00  0.00     0.010 A 
ATOM     61  C   UNL     1      -5.329 -13.261  15.265  1.00  0.00     0.010 A 
ATOM     62  C   UNL     1      -5.856 -14.714  12.933  1.00  0.00     0.020 A 
ATOM     63  C   UNL     1      -6.419 -14.134  15.225  1.00  0.00     0.020 A 
ATOM     64  C   UNL     1      -6.686 -14.843  14.051  1.00  0.00     0.054 A 
BRANCH  64  65
ATOM     65  S   UNL     1      -8.104 -15.970  13.963  1.00  0.00     0.124 S 
ATOM     66  O   UNL     1      -9.039 -15.212  13.134  1.00  0.00    -0.237 OA
ATOM     67  O   UNL     1      -7.532 -17.159  13.337  1.00  0.00    -0.237 OA
ATOM     68  O   UNL     1      -8.503 -16.136  15.358  1.00  0.00    -0.744 OA
ENDBRANCH  64  65
ENDBRANCH  45  59
BRANCH  46  69
ATOM     69  C   UNL     1       3.041  -6.541  14.473  1.00  0.00    -0.014 A 
ATOM     70  C   UNL     1       4.284  -6.818  13.880  1.00  0.00     0.010 A 
ATOM     71  C   UNL     1       2.850  -5.306  15.120  1.00  0.00     0.010 A 
ATOM     72  C   UNL     1       5.319  -5.880  13.937  1.00  0.00     0.020 A 
ATOM     73  C   UNL     1       3.873  -4.355  15.156  1.00  0.00     0.020 A 
ATOM     74  C   UNL     1       5.106  -4.653  14.572  1.00  0.00     0.054 A 
BRANCH  74  75
ATOM     75  S   UNL     1       6.439  -3.422  14.577  1.00  0.00     0.124 S 
ATOM     76  O   UNL     1       7.333  -3.948  15.602  1.00  0.00    -0.237 OA
ATOM     77  O   UNL     1       6.937  -3.489  13.205  1.00  0.00    -0.237 OA
ATOM     78  O   UNL     1       5.752  -2.178  14.920  1.00  0.00    -0.744 OA
ENDBRANCH  74  75
ENDBRANCH  46  69
BRANCH  58  79
ATOM     79  C   UNL     1       1.902 -12.726  17.481  1.00  0.00    -0.014 A 
ATOM     80  C   UNL     1       2.042 -12.369  18.834  1.00  0.00     0.010 A 
ATOM     81  C   UNL     1       2.509 -13.906  17.015  1.00  0.00     0.010 A 
ATOM     82  C   UNL     1       2.804 -13.161  19.697  1.00  0.00     0.020 A 
ATOM     83  C   UNL     1       3.251 -14.713  17.880  1.00  0.00     0.020 A 
ATOM     84  C   UNL     1       3.407 -14.326  19.213  1.00  0.00     0.054 A 
BRANCH  84  85
ATOM     85  S   UNL     1       4.364 -15.357  20.358  1.00  0.00     0.124 S 
ATOM     86  O   UNL     1       5.606 -14.599  20.484  1.00  0.00    -0.237 OA
ATOM     87  O   UNL     1       3.520 -15.384  21.551  1.00  0.00    -0.237 OA
ATOM     88  O   UNL     1       4.481 -16.634  19.658  1.00  0.00    -0.744 OA
ENDBRANCH  84  85
ENDBRANCH  58  79
ENDBRANCH  32  33
ENDBRANCH  25  27
ENDBRANCH  24  25
ENDBRANCH   1  24
TORSDOF 16
