REMARK SMILES CCC1(CC)CC[NH+]([C@@H]2CC[C@@]([NH3+])(C(=O)OCCOC(=O)c3ccc(-c4c5nc(c(-c6ccc(S(=O)(=O)[O-])cc6)c6ccc([nH]6)c(-c6ccc(S(=O)(=O)[O-])cc6)c6nc(c(-c7ccc(S(=O)(=O)[O-])cc7)c7ccc4[nH]7)C=C6)C=C5)cc3)C2)CC1
REMARK SMILES IDX 18 1 17 2 16 3 14 4 15 5 12 6 9 7 10 8 82 9 11 10 8 11 3 12
REMARK SMILES IDX 6 13 84 14 7 15 83 16 2 18 1 19 4 20 5 21 13 22 19 26 20 27
REMARK SMILES IDX 21 28 22 29 23 30 81 31 24 32 80 33 25 34 26 35 27 36 74 37
REMARK SMILES IDX 28 38 79 39 73 40 75 41 29 42 78 43 72 44 71 45 30 47 60 48
REMARK SMILES IDX 41 49 59 50 42 51 45 52 58 53 76 54 43 55 44 56 57 58 77 59
REMARK SMILES IDX 46 60 31 61 32 62 40 63 33 64 39 65 34 66 35 67 36 68 37 69
REMARK SMILES IDX 38 70 61 71 62 72 70 73 63 74 69 75 64 76 65 77 66 78 67 79
REMARK SMILES IDX 68 80 47 81 48 82 56 83 49 84 55 85 50 86 51 87 52 88 53 89
REMARK SMILES IDX 54 90
REMARK H PARENT 8 17 13 23 13 24 13 25 75 46 45 57
REMARK Flexibility Score: inf
ROOT
ATOM      1  C   UNL     1       1.072 -10.676  -3.716  1.00  0.00     0.275 C 
ENDROOT
BRANCH   1   2
ATOM      2  C   UNL     1       0.717 -11.236  -2.344  1.00  0.00     0.274 C 
BRANCH   2   3
ATOM      3  O   UNL     1       0.094 -10.222  -1.531  1.00  0.00    -0.457 OA
BRANCH   3   4
ATOM      4  C   UNL     1       0.863  -9.684  -0.547  1.00  0.00     0.368 C 
ATOM      5  O   UNL     1       2.045  -9.964  -0.361  1.00  0.00    -0.245 OA
BRANCH   4   6
ATOM      6  C   UNL     1       0.075  -8.732   0.402  1.00  0.00     0.198 C 
ATOM      7  C   UNL     1       0.292  -6.597  -0.675  1.00  0.00     0.191 C 
ATOM      8  C   UNL     1      -1.208  -6.902  -0.658  1.00  0.00     0.072 C 
ATOM      9  C   UNL     1       0.823  -7.392   0.524  1.00  0.00     0.145 C 
ATOM     10  C   UNL     1      -1.332  -8.320  -0.077  1.00  0.00     0.087 C 
BRANCH   7  11
ATOM     11  N   UNL     1       0.720  -5.193  -0.730  1.00  0.00    -0.332 N 
ATOM     12  C   UNL     1       0.396  -2.216  -1.025  1.00  0.00    -0.020 C 
ATOM     13  C   UNL     1       0.914  -3.152  -2.149  1.00  0.00     0.068 C 
ATOM     14  C   UNL     1       0.778  -2.911   0.299  1.00  0.00     0.068 C 
ATOM     15  C   UNL     1       0.409  -4.593  -2.036  1.00  0.00     0.263 C 
ATOM     16  C   UNL     1       0.272  -4.357   0.390  1.00  0.00     0.263 C 
ATOM     17  H   UNL     1       1.734  -5.221  -0.621  1.00  0.00     0.348 HD
BRANCH  12  18
ATOM     18  C   UNL     1       1.109  -0.837  -1.192  1.00  0.00     0.004 C 
ATOM     19  C   UNL     1       1.311  -0.005   0.070  1.00  0.00     0.004 C 
ENDBRANCH  12  18
BRANCH  12  20
ATOM     20  C   UNL     1      -1.147  -2.054  -1.204  1.00  0.00     0.004 C 
ATOM     21  C   UNL     1      -1.874  -1.200  -0.177  1.00  0.00     0.004 C 
ENDBRANCH  12  20
ENDBRANCH   7  11
BRANCH   6  22
ATOM     22  N   UNL     1      -0.001  -9.415   1.717  1.00  0.00    -0.343 N 
ATOM     23  H   UNL     1      -0.499 -10.299   1.612  1.00  0.00     0.345 HD
ATOM     24  H   UNL     1      -0.497  -8.821   2.381  1.00  0.00     0.345 HD
ATOM     25  H   UNL     1       0.942  -9.596   2.061  1.00  0.00     0.345 HD
ENDBRANCH   6  22
ENDBRANCH   4   6
ENDBRANCH   3   4
ENDBRANCH   2   3
ENDBRANCH   1   2
BRANCH   1  26
ATOM     26  O   UNL     1       2.065  -9.650  -3.561  1.00  0.00    -0.458 OA
BRANCH  26  27
ATOM     27  C   UNL     1       1.819  -8.490  -4.204  1.00  0.00     0.338 C 
ATOM     28  O   UNL     1       0.880  -8.247  -4.956  1.00  0.00    -0.246 OA
BRANCH  27  29
ATOM     29  C   UNL     1       2.862  -7.502  -3.880  1.00  0.00     0.060 A 
ATOM     30  C   UNL     1       3.215  -7.259  -2.554  1.00  0.00     0.016 A 
ATOM     31  C   UNL     1       3.398  -6.717  -4.901  1.00  0.00     0.016 A 
ATOM     32  C   UNL     1       4.003  -6.153  -2.238  1.00  0.00     0.010 A 
ATOM     33  C   UNL     1       4.287  -5.683  -4.588  1.00  0.00     0.010 A 
ATOM     34  C   UNL     1       4.561  -5.355  -3.250  1.00  0.00    -0.014 A 
BRANCH  34  35
ATOM     35  C   UNL     1       5.405  -4.175  -2.902  1.00  0.00     0.031 A 
ATOM     36  C   UNL     1       5.011  -2.783  -3.339  1.00  0.00     0.074 A 
ATOM     37  C   UNL     1       6.517  -4.341  -2.156  1.00  0.00     0.049 A 
ATOM     38  N   UNL     1       5.628  -1.647  -3.124  1.00  0.00    -0.248 NA
ATOM     39  C   UNL     1       3.756  -2.641  -4.096  1.00  0.00     0.031 C 
ATOM     40  C   UNL     1       7.006  -5.619  -1.630  1.00  0.00     0.029 A 
ATOM     41  N   UNL     1       7.437  -3.427  -1.704  1.00  0.00    -0.354 N 
ATOM     42  C   UNL     1       4.821  -0.661  -3.683  1.00  0.00     0.074 A 
ATOM     43  C   UNL     1       3.690  -1.331  -4.285  1.00  0.00     0.031 C 
ATOM     44  C   UNL     1       8.114  -5.403  -0.905  1.00  0.00     0.029 A 
ATOM     45  C   UNL     1       8.461  -3.988  -0.978  1.00  0.00     0.049 A 
ATOM     46  H   UNL     1       7.369  -2.461  -1.882  1.00  0.00     0.167 HD
ATOM     47  C   UNL     1       4.989   0.683  -3.683  1.00  0.00     0.031 A 
ATOM     48  C   UNL     1       9.581  -3.444  -0.464  1.00  0.00     0.031 A 
ATOM     49  C   UNL     1       6.132   1.361  -3.140  1.00  0.00     0.049 A 
ATOM     50  C   UNL     1       9.846  -1.980  -0.664  1.00  0.00     0.074 A 
ATOM     51  C   UNL     1       6.403   2.719  -3.129  1.00  0.00     0.029 A 
ATOM     52  N   UNL     1       7.205   0.732  -2.533  1.00  0.00    -0.354 N 
ATOM     53  N   UNL     1       9.069  -1.069  -1.197  1.00  0.00    -0.248 NA
ATOM     54  C   UNL     1      11.152  -1.476  -0.216  1.00  0.00     0.031 C 
ATOM     55  C   UNL     1       7.670   2.905  -2.562  1.00  0.00     0.029 A 
ATOM     56  C   UNL     1       8.165   1.667  -2.185  1.00  0.00     0.049 A 
ATOM     57  H   UNL     1       7.276  -0.236  -2.373  1.00  0.00     0.167 HD
ATOM     58  C   UNL     1       9.789   0.119  -1.141  1.00  0.00     0.074 A 
ATOM     59  C   UNL     1      11.057  -0.187  -0.511  1.00  0.00     0.031 C 
ATOM     60  C   UNL     1       9.429   1.351  -1.575  1.00  0.00     0.031 A 
BRANCH  47  61
ATOM     61  C   UNL     1       3.906   1.511  -4.314  1.00  0.00    -0.014 A 
ATOM     62  C   UNL     1       2.745   1.831  -3.589  1.00  0.00     0.010 A 
ATOM     63  C   UNL     1       4.061   2.005  -5.620  1.00  0.00     0.010 A 
ATOM     64  C   UNL     1       1.740   2.608  -4.171  1.00  0.00     0.020 A 
ATOM     65  C   UNL     1       3.063   2.793  -6.202  1.00  0.00     0.020 A 
ATOM     66  C   UNL     1       1.902   3.077  -5.478  1.00  0.00     0.054 A 
BRANCH  66  67
ATOM     67  S   UNL     1       0.590   4.096  -6.208  1.00  0.00     0.124 S 
ATOM     68  O   UNL     1      -0.426   3.095  -6.525  1.00  0.00    -0.237 OA
ATOM     69  O   UNL     1       0.250   5.013  -5.123  1.00  0.00    -0.237 OA
ATOM     70  O   UNL     1       1.236   4.716  -7.363  1.00  0.00    -0.744 OA
ENDBRANCH  66  67
ENDBRANCH  47  61
BRANCH  48  71
ATOM     71  C   UNL     1      10.580  -4.312   0.216  1.00  0.00    -0.014 A 
ATOM     72  C   UNL     1      10.799  -4.213   1.599  1.00  0.00     0.010 A 
ATOM     73  C   UNL     1      11.314  -5.253  -0.531  1.00  0.00     0.010 A 
ATOM     74  C   UNL     1      11.741  -5.037   2.224  1.00  0.00     0.020 A 
ATOM     75  C   UNL     1      12.236  -6.095   0.094  1.00  0.00     0.020 A 
ATOM     76  C   UNL     1      12.453  -5.973   1.467  1.00  0.00     0.054 A 
BRANCH  76  77
ATOM     77  S   UNL     1      13.629  -7.078   2.296  1.00  0.00     0.124 S 
ATOM     78  O   UNL     1      14.815  -6.235   2.398  1.00  0.00    -0.237 OA
ATOM     79  O   UNL     1      12.956  -7.379   3.557  1.00  0.00    -0.237 OA
ATOM     80  O   UNL     1      13.738  -8.207   1.374  1.00  0.00    -0.744 OA
ENDBRANCH  76  77
ENDBRANCH  48  71
BRANCH  60  81
ATOM     81  C   UNL     1      10.419   2.463  -1.379  1.00  0.00    -0.014 A 
ATOM     82  C   UNL     1      11.542   2.582  -2.215  1.00  0.00     0.010 A 
ATOM     83  C   UNL     1      10.204   3.420  -0.371  1.00  0.00     0.010 A 
ATOM     84  C   UNL     1      12.450   3.627  -2.031  1.00  0.00     0.020 A 
ATOM     85  C   UNL     1      11.100   4.478  -0.197  1.00  0.00     0.020 A 
ATOM     86  C   UNL     1      12.225   4.567  -1.020  1.00  0.00     0.054 A 
BRANCH  86  87
ATOM     87  S   UNL     1      13.393   5.941  -0.821  1.00  0.00     0.124 S 
ATOM     88  O   UNL     1      14.481   5.308  -0.081  1.00  0.00    -0.237 OA
ATOM     89  O   UNL     1      13.702   6.308  -2.201  1.00  0.00    -0.237 OA
ATOM     90  O   UNL     1      12.627   6.937  -0.076  1.00  0.00    -0.744 OA
ENDBRANCH  86  87
ENDBRANCH  60  81
ENDBRANCH  34  35
ENDBRANCH  27  29
ENDBRANCH  26  27
ENDBRANCH   1  26
TORSDOF 18
