REMARK SMILES COC(=O)C[C@H](c1ccc(C(=O)OCCOC(=O)c2ccc(-c3c4nc(c(-c5ccc(S(=O)(=O)[O-])cc5)c5ccc([nH]5)c(-c5ccc(S(=O)(=O)[O-])cc5)c5nc(c(-c6ccc(S(=O)(=O)[O-])cc6)c6ccc3[nH]6)C=C5)C=C4)cc2)cc1)c1c(O)n[nH]c1C
REMARK SMILES IDX 14 1 13 2 11 3 12 4 10 5 7 6 8 7 80 8 9 9 79 10 6 11 5 12
REMARK SMILES IDX 3 13 4 14 2 15 1 16 81 17 82 18 86 19 84 20 85 21 87 22
REMARK SMILES IDX 83 24 15 26 16 27 17 28 18 29 19 30 20 31 78 32 21 33 77 34
REMARK SMILES IDX 22 35 23 36 24 37 71 38 25 39 76 40 70 41 72 42 26 43 75 44
REMARK SMILES IDX 69 45 68 46 27 48 57 49 38 50 56 51 39 52 42 53 55 54 73 55
REMARK SMILES IDX 40 56 41 57 54 59 74 60 43 61 28 62 29 63 37 64 30 65 36 66
REMARK SMILES IDX 31 67 32 68 33 69 34 70 35 71 58 72 59 73 67 74 60 75 66 76
REMARK SMILES IDX 61 77 62 78 63 79 64 80 65 81 44 82 45 83 53 84 46 85 52 86
REMARK SMILES IDX 47 87 48 88 49 89 50 90 51 91
REMARK H PARENT 85 23 83 25 72 47 42 58
REMARK Flexibility Score: inf
ROOT
ATOM      1  C   UNL     1      -0.349  -0.663  -6.606  1.00  0.00     0.275 C 
ENDROOT
BRANCH   1   2
ATOM      2  O   UNL     1       0.123  -1.371  -5.444  1.00  0.00    -0.458 OA
BRANCH   2   3
ATOM      3  C   UNL     1      -0.554  -1.100  -4.302  1.00  0.00     0.338 C 
ATOM      4  O   UNL     1      -1.446  -0.274  -4.174  1.00  0.00    -0.246 OA
BRANCH   3   5
ATOM      5  C   UNL     1      -0.151  -2.001  -3.197  1.00  0.00     0.060 A 
ATOM      6  C   UNL     1       0.478  -3.608  -0.965  1.00  0.00    -0.040 A 
ATOM      7  C   UNL     1      -0.784  -3.018  -1.088  1.00  0.00     0.005 A 
ATOM      8  C   UNL     1       1.404  -3.424  -2.012  1.00  0.00     0.005 A 
ATOM      9  C   UNL     1      -1.075  -2.188  -2.164  1.00  0.00     0.016 A 
ATOM     10  C   UNL     1       1.090  -2.635  -3.128  1.00  0.00     0.016 A 
BRANCH   6  11
ATOM     11  C   UNL     1       0.910  -4.294   0.326  1.00  0.00     0.068 C 
BRANCH  11  12
ATOM     12  C   UNL     1       0.483  -3.640   1.654  1.00  0.00     0.136 C 
BRANCH  12  13
ATOM     13  C   UNL     1       0.239  -2.154   1.579  1.00  0.00     0.306 C 
ATOM     14  O   UNL     1      -0.811  -1.632   1.934  1.00  0.00    -0.252 OA
BRANCH  13  15
ATOM     15  O   UNL     1       1.297  -1.485   1.047  1.00  0.00    -0.469 OA
ATOM     16  C   UNL     1       0.984  -0.137   0.685  1.00  0.00     0.282 C 
ENDBRANCH  13  15
ENDBRANCH  12  13
ENDBRANCH  11  12
BRANCH  11  17
ATOM     17  C   UNL     1       0.479  -5.734   0.213  1.00  0.00     0.044 A 
ATOM     18  C   UNL     1       1.339  -6.843   0.147  1.00  0.00     0.234 A 
ATOM     19  C   UNL     1      -0.778  -6.337   0.207  1.00  0.00     0.040 A 
ATOM     20  N   UNL     1       0.747  -8.023   0.088  1.00  0.00    -0.137 NA
ATOM     21  N   UNL     1      -0.555  -7.690   0.097  1.00  0.00    -0.279 N 
ATOM     22  C   UNL     1      -2.168  -5.820   0.278  1.00  0.00     0.066 C 
ATOM     23  H   UNL     1      -1.281  -8.352   0.031  1.00  0.00     0.190 HD
BRANCH  18  24
ATOM     24  O   UNL     1       2.667  -6.895   0.160  1.00  0.00    -0.492 OA
ATOM     25  H   UNL     1       3.166  -6.103   0.201  1.00  0.00     0.295 HD
ENDBRANCH  18  24
ENDBRANCH  11  17
ENDBRANCH   6  11
ENDBRANCH   3   5
ENDBRANCH   2   3
ENDBRANCH   1   2
BRANCH   1  26
ATOM     26  C   UNL     1      -1.262  -1.546  -7.458  1.00  0.00     0.275 C 
BRANCH  26  27
ATOM     27  O   UNL     1      -2.456  -1.913  -6.742  1.00  0.00    -0.458 OA
BRANCH  27  28
ATOM     28  C   UNL     1      -2.509  -3.201  -6.329  1.00  0.00     0.338 C 
ATOM     29  O   UNL     1      -1.665  -4.066  -6.490  1.00  0.00    -0.246 OA
BRANCH  28  30
ATOM     30  C   UNL     1      -3.775  -3.449  -5.623  1.00  0.00     0.060 A 
ATOM     31  C   UNL     1      -3.896  -3.070  -4.288  1.00  0.00     0.016 A 
ATOM     32  C   UNL     1      -4.788  -4.180  -6.237  1.00  0.00     0.016 A 
ATOM     33  C   UNL     1      -4.997  -3.479  -3.535  1.00  0.00     0.010 A 
ATOM     34  C   UNL     1      -5.930  -4.521  -5.503  1.00  0.00     0.010 A 
ATOM     35  C   UNL     1      -6.037  -4.202  -4.136  1.00  0.00    -0.014 A 
BRANCH  35  36
ATOM     36  C   UNL     1      -7.221  -4.661  -3.354  1.00  0.00     0.031 A 
ATOM     37  C   UNL     1      -7.551  -6.131  -3.290  1.00  0.00     0.074 A 
ATOM     38  C   UNL     1      -8.028  -3.777  -2.733  1.00  0.00     0.049 A 
ATOM     39  N   UNL     1      -8.657  -6.716  -2.906  1.00  0.00    -0.248 NA
ATOM     40  C   UNL     1      -6.499  -7.064  -3.728  1.00  0.00     0.031 C 
ATOM     41  C   UNL     1      -7.805  -2.332  -2.647  1.00  0.00     0.029 A 
ATOM     42  N   UNL     1      -9.216  -3.967  -2.066  1.00  0.00    -0.354 N 
ATOM     43  C   UNL     1      -8.461  -8.077  -3.121  1.00  0.00     0.074 A 
ATOM     44  C   UNL     1      -7.126  -8.231  -3.657  1.00  0.00     0.031 C 
ATOM     45  C   UNL     1      -8.811  -1.771  -1.959  1.00  0.00     0.029 A 
ATOM     46  C   UNL     1      -9.797  -2.797  -1.635  1.00  0.00     0.049 A 
ATOM     47  H   UNL     1      -9.611  -4.855  -1.911  1.00  0.00     0.167 HD
ATOM     48  C   UNL     1      -9.322  -9.101  -2.904  1.00  0.00     0.031 A 
ATOM     49  C   UNL     1     -11.010  -2.558  -1.097  1.00  0.00     0.031 A 
ATOM     50  C   UNL     1     -10.636  -8.944  -2.337  1.00  0.00     0.049 A 
ATOM     51  C   UNL     1     -11.968  -3.700  -0.904  1.00  0.00     0.074 A 
ATOM     52  C   UNL     1     -11.584  -9.919  -2.078  1.00  0.00     0.029 A 
ATOM     53  N   UNL     1     -11.181  -7.737  -1.926  1.00  0.00    -0.354 N 
ATOM     54  N   UNL     1     -11.797  -4.971  -1.177  1.00  0.00    -0.248 NA
ATOM     55  C   UNL     1     -13.289  -3.374  -0.346  1.00  0.00     0.031 C 
ATOM     56  C   UNL     1     -12.716  -9.297  -1.542  1.00  0.00     0.029 A 
ATOM     57  C   UNL     1     -12.453  -7.942  -1.420  1.00  0.00     0.049 A 
ATOM     58  H   UNL     1     -10.730  -6.864  -1.984  1.00  0.00     0.167 HD
ATOM     59  C   UNL     1     -12.979  -5.600  -0.801  1.00  0.00     0.074 A 
ATOM     60  C   UNL     1     -13.855  -4.572  -0.278  1.00  0.00     0.031 C 
ATOM     61  C   UNL     1     -13.305  -6.912  -0.883  1.00  0.00     0.031 A 
BRANCH  48  62
ATOM     62  C   UNL     1      -8.893 -10.480  -3.328  1.00  0.00    -0.014 A 
ATOM     63  C   UNL     1      -7.928 -11.206  -2.608  1.00  0.00     0.010 A 
ATOM     64  C   UNL     1      -9.502 -11.077  -4.449  1.00  0.00     0.010 A 
ATOM     65  C   UNL     1      -7.551 -12.486  -3.025  1.00  0.00     0.020 A 
ATOM     66  C   UNL     1      -9.146 -12.366  -4.854  1.00  0.00     0.020 A 
ATOM     67  C   UNL     1      -8.158 -13.055  -4.150  1.00  0.00     0.054 A 
BRANCH  67  68
ATOM     68  S   UNL     1      -7.660 -14.723  -4.663  1.00  0.00     0.124 S 
ATOM     69  O   UNL     1      -6.361 -14.470  -5.282  1.00  0.00    -0.237 OA
ATOM     70  O   UNL     1      -7.620 -15.451  -3.397  1.00  0.00    -0.237 OA
ATOM     71  O   UNL     1      -8.719 -15.134  -5.582  1.00  0.00    -0.744 OA
ENDBRANCH  67  68
ENDBRANCH  48  62
BRANCH  49  72
ATOM     72  C   UNL     1     -11.403  -1.163  -0.756  1.00  0.00    -0.014 A 
ATOM     73  C   UNL     1     -11.518  -0.759   0.585  1.00  0.00     0.010 A 
ATOM     74  C   UNL     1     -11.636  -0.221  -1.777  1.00  0.00     0.010 A 
ATOM     75  C   UNL     1     -11.861   0.560   0.899  1.00  0.00     0.020 A 
ATOM     76  C   UNL     1     -11.951   1.104  -1.466  1.00  0.00     0.020 A 
ATOM     77  C   UNL     1     -12.070   1.484  -0.129  1.00  0.00     0.054 A 
BRANCH  77  78
ATOM     78  S   UNL     1     -12.444   3.208   0.300  1.00  0.00     0.124 S 
ATOM     79  O   UNL     1     -13.849   3.125   0.686  1.00  0.00    -0.237 OA
ATOM     80  O   UNL     1     -11.504   3.477   1.386  1.00  0.00    -0.237 OA
ATOM     81  O   UNL     1     -12.175   3.933  -0.939  1.00  0.00    -0.744 OA
ENDBRANCH  77  78
ENDBRANCH  49  72
BRANCH  61  82
ATOM     82  C   UNL     1     -14.643  -7.335  -0.342  1.00  0.00    -0.014 A 
ATOM     83  C   UNL     1     -15.826  -7.114  -1.067  1.00  0.00     0.010 A 
ATOM     84  C   UNL     1     -14.699  -8.046   0.870  1.00  0.00     0.010 A 
ATOM     85  C   UNL     1     -17.047  -7.592  -0.582  1.00  0.00     0.020 A 
ATOM     86  C   UNL     1     -15.914  -8.542   1.348  1.00  0.00     0.020 A 
ATOM     87  C   UNL     1     -17.082  -8.307   0.621  1.00  0.00     0.054 A 
BRANCH  87  88
ATOM     88  S   UNL     1     -18.665  -8.988   1.190  1.00  0.00     0.124 S 
ATOM     89  O   UNL     1     -19.342  -7.798   1.700  1.00  0.00    -0.237 OA
ATOM     90  O   UNL     1     -19.229  -9.556  -0.032  1.00  0.00    -0.237 OA
ATOM     91  O   UNL     1     -18.276  -9.967   2.202  1.00  0.00    -0.744 OA
ENDBRANCH  87  88
ENDBRANCH  61  82
ENDBRANCH  35  36
ENDBRANCH  28  30
ENDBRANCH  27  28
ENDBRANCH  26  27
ENDBRANCH   1  26
TORSDOF 20
