REMARK SMILES CC(C)(CC(=O)Nc1sc2c(c1C#N)CCCCCC2)CC(=O)OCCOC(=O)c1ccc(-c2c3nc(c(-c4ccc(S(=O)(=O)[O-])cc4)c4ccc([nH]4)c(-c4ccc(S(=O)(=O)[O-])cc4)c4nc(c(-c5ccc(S(=O)(=O)[O-])cc5)c5ccc2[nH]5)C=C4)C=C3)cc1
REMARK SMILES IDX 22 1 23 2 21 3 2 4 1 5 3 6 4 7 5 8 6 9 7 10 8 12 9 13 12 14
REMARK SMILES IDX 10 15 11 16 13 17 14 18 20 19 19 20 15 22 16 23 17 24 18 25
REMARK SMILES IDX 24 27 25 28 26 29 27 30 28 31 29 32 30 33 31 34 89 35 32 36
REMARK SMILES IDX 88 37 33 38 34 39 35 40 82 41 36 42 87 43 81 44 83 45 37 46
REMARK SMILES IDX 86 47 80 48 79 49 38 51 68 52 49 53 67 54 50 55 53 56 66 57
REMARK SMILES IDX 84 58 51 59 52 60 65 62 85 63 54 64 39 65 40 66 48 67 41 68
REMARK SMILES IDX 47 69 42 70 43 71 44 72 45 73 46 74 69 75 70 76 78 77 71 78
REMARK SMILES IDX 77 79 72 80 73 81 74 82 75 83 76 84 55 85 56 86 64 87 57 88
REMARK SMILES IDX 63 89 58 90 59 91 60 92 61 93 62 94
REMARK H PARENT 7 11 83 50 53 61
REMARK Flexibility Score: 90.00
ROOT
ATOM      1  C   UNL     1       0.242   1.434   3.468  1.00  0.00     0.306 C 
ATOM      2  O   UNL     1       0.673   1.700   4.587  1.00  0.00    -0.252 OA
ENDROOT
BRANCH   1   3
ATOM      3  C   UNL     1       0.587   2.268   2.255  1.00  0.00     0.129 C 
BRANCH   3   4
ATOM      4  C   UNL     1       0.330   1.874   0.766  1.00  0.00    -0.016 C 
ATOM      5  C   UNL     1       1.502   1.071   0.228  1.00  0.00     0.012 C 
ATOM      6  C   UNL     1       0.475   3.227  -0.015  1.00  0.00     0.012 C 
BRANCH   4   7
ATOM      7  C   UNL     1      -1.048   1.254   0.330  1.00  0.00     0.107 C 
BRANCH   7   8
ATOM      8  C   UNL     1      -1.741  -0.073   0.763  1.00  0.00     0.225 C 
ATOM      9  O   UNL     1      -2.674  -0.002   1.583  1.00  0.00    -0.275 OA
ATOM     10  N   UNL     1      -1.611  -1.302   0.164  1.00  0.00    -0.317 N 
ATOM     11  H   UNL     1      -2.291  -1.963   0.429  1.00  0.00     0.170 HD
BRANCH  10  12
ATOM     12  C   UNL     1      -0.690  -1.761  -0.745  1.00  0.00     0.114 A 
ATOM     13  S   UNL     1       0.895  -1.875  -0.188  1.00  0.00    -0.121 S 
ATOM     14  C   UNL     1      -0.729  -2.661  -1.801  1.00  0.00     0.090 A 
ATOM     15  C   UNL     1       1.480  -1.929  -1.794  1.00  0.00     0.011 A 
ATOM     16  C   UNL     1       0.543  -2.653  -2.524  1.00  0.00    -0.014 A 
BRANCH  14  17
ATOM     17  C   UNL     1      -1.899  -3.401  -2.137  1.00  0.00     0.103 C 
ATOM     18  N   UNL     1      -2.872  -4.024  -2.315  1.00  0.00    -0.192 NA
ENDBRANCH  14  17
BRANCH  15  19
ATOM     19  C   UNL     1       2.812  -1.294  -2.085  1.00  0.00     0.047 C 
BRANCH  19  20
ATOM     20  C   UNL     1       3.551  -1.742  -3.331  1.00  0.00     0.006 CG0
ATOM     21  G   UNL     1       3.054  -1.122  -4.642  1.00  0.00     0.000 G0
ENDBRANCH  19  20
ENDBRANCH  15  19
BRANCH  16  22
ATOM     22  C   UNL     1       0.813  -3.272  -3.865  1.00  0.00     0.038 C 
BRANCH  22  23
ATOM     23  C   UNL     1       0.752  -2.269  -5.015  1.00  0.00     0.005 C 
BRANCH  23  24
ATOM     24  C   UNL     1       1.545  -0.970  -4.845  1.00  0.00     0.000 C 
BRANCH  24  25
ATOM     25  C   UNL     1       3.054  -1.122  -4.642  1.00  0.00     0.000 CG0
ATOM     26  G   UNL     1       3.551  -1.742  -3.331  1.00  0.00     0.000 G0
ENDBRANCH  24  25
ENDBRANCH  23  24
ENDBRANCH  22  23
ENDBRANCH  16  22
ENDBRANCH  10  12
ENDBRANCH   7   8
ENDBRANCH   4   7
ENDBRANCH   3   4
ENDBRANCH   1   3
BRANCH   1  27
ATOM     27  O   UNL     1      -0.625   0.447   3.195  1.00  0.00    -0.462 OA
BRANCH  27  28
ATOM     28  C   UNL     1      -0.959  -0.462   4.256  1.00  0.00     0.274 C 
BRANCH  28  29
ATOM     29  C   UNL     1      -0.480  -1.852   3.866  1.00  0.00     0.275 C 
BRANCH  29  30
ATOM     30  O   UNL     1       0.893  -2.107   4.221  1.00  0.00    -0.458 OA
BRANCH  30  31
ATOM     31  C   UNL     1       1.834  -1.610   3.386  1.00  0.00     0.338 C 
ATOM     32  O   UNL     1       1.989  -0.445   3.073  1.00  0.00    -0.246 OA
BRANCH  31  33
ATOM     33  C   UNL     1       2.595  -2.694   2.747  1.00  0.00     0.060 A 
ATOM     34  C   UNL     1       3.474  -2.351   1.710  1.00  0.00     0.016 A 
ATOM     35  C   UNL     1       2.308  -4.030   3.038  1.00  0.00     0.016 A 
ATOM     36  C   UNL     1       3.948  -3.346   0.874  1.00  0.00     0.010 A 
ATOM     37  C   UNL     1       2.807  -5.024   2.222  1.00  0.00     0.010 A 
ATOM     38  C   UNL     1       3.576  -4.676   1.112  1.00  0.00    -0.014 A 
BRANCH  38  39
ATOM     39  C   UNL     1       4.294  -5.730   0.404  1.00  0.00     0.031 A 
ATOM     40  C   UNL     1       5.752  -5.637   0.710  1.00  0.00     0.074 A 
ATOM     41  C   UNL     1       3.691  -6.749  -0.244  1.00  0.00     0.049 A 
ATOM     42  N   UNL     1       6.703  -5.288  -0.092  1.00  0.00    -0.248 NA
ATOM     43  C   UNL     1       6.157  -5.649   2.134  1.00  0.00     0.031 C 
ATOM     44  C   UNL     1       2.253  -7.011  -0.378  1.00  0.00     0.029 A 
ATOM     45  N   UNL     1       4.238  -7.850  -0.829  1.00  0.00    -0.354 N 
ATOM     46  C   UNL     1       7.860  -5.310   0.683  1.00  0.00     0.074 A 
ATOM     47  C   UNL     1       7.431  -5.266   2.053  1.00  0.00     0.031 C 
ATOM     48  C   UNL     1       2.059  -8.298  -0.757  1.00  0.00     0.029 A 
ATOM     49  C   UNL     1       3.349  -8.911  -1.026  1.00  0.00     0.049 A 
ATOM     50  H   UNL     1       5.185  -7.895  -1.093  1.00  0.00     0.167 HD
ATOM     51  C   UNL     1       9.045  -5.725   0.157  1.00  0.00     0.031 A 
ATOM     52  C   UNL     1       3.669 -10.196  -1.351  1.00  0.00     0.031 A 
ATOM     53  C   UNL     1       8.980  -5.761  -1.280  1.00  0.00     0.049 A 
ATOM     54  C   UNL     1       5.044 -10.157  -1.899  1.00  0.00     0.074 A 
ATOM     55  C   UNL     1       8.864  -4.832  -2.290  1.00  0.00     0.029 A 
ATOM     56  N   UNL     1       8.601  -6.975  -1.797  1.00  0.00    -0.354 N 
ATOM     57  N   UNL     1       5.344  -9.558  -3.016  1.00  0.00    -0.248 NA
ATOM     58  C   UNL     1       6.159 -10.386  -0.993  1.00  0.00     0.031 C 
ATOM     59  C   UNL     1       8.087  -5.471  -3.300  1.00  0.00     0.029 A 
ATOM     60  C   UNL     1       7.828  -6.787  -2.908  1.00  0.00     0.049 A 
ATOM     61  H   UNL     1       8.848  -7.851  -1.423  1.00  0.00     0.167 HD
ATOM     62  C   UNL     1       6.558  -8.941  -2.766  1.00  0.00     0.074 A 
ATOM     63  C   UNL     1       7.075  -9.597  -1.564  1.00  0.00     0.031 C 
ATOM     64  C   UNL     1       6.870  -7.763  -3.383  1.00  0.00     0.031 A 
BRANCH  51  65
ATOM     65  C   UNL     1      10.023  -6.599   0.919  1.00  0.00    -0.014 A 
ATOM     66  C   UNL     1      11.194  -7.023   0.259  1.00  0.00     0.010 A 
ATOM     67  C   UNL     1       9.704  -7.256   2.127  1.00  0.00     0.010 A 
ATOM     68  C   UNL     1      11.962  -8.089   0.748  1.00  0.00     0.020 A 
ATOM     69  C   UNL     1      10.482  -8.294   2.642  1.00  0.00     0.020 A 
ATOM     70  C   UNL     1      11.593  -8.723   1.933  1.00  0.00     0.054 A 
BRANCH  70  71
ATOM     71  S   UNL     1      12.546 -10.145   2.517  1.00  0.00     0.124 S 
ATOM     72  O   UNL     1      12.305 -11.123   1.461  1.00  0.00    -0.237 OA
ATOM     73  O   UNL     1      13.898  -9.599   2.582  1.00  0.00    -0.237 OA
ATOM     74  O   UNL     1      11.940 -10.455   3.810  1.00  0.00    -0.744 OA
ENDBRANCH  70  71
ENDBRANCH  51  65
BRANCH  52  75
ATOM     75  C   UNL     1       3.022 -11.492  -0.994  1.00  0.00    -0.014 A 
ATOM     76  C   UNL     1       3.302 -12.679  -1.707  1.00  0.00     0.010 A 
ATOM     77  C   UNL     1       2.374 -11.627   0.249  1.00  0.00     0.010 A 
ATOM     78  C   UNL     1       2.995 -13.949  -1.174  1.00  0.00     0.020 A 
ATOM     79  C   UNL     1       2.068 -12.888   0.789  1.00  0.00     0.020 A 
ATOM     80  C   UNL     1       2.397 -14.046   0.084  1.00  0.00     0.054 A 
BRANCH  80  81
ATOM     81  S   UNL     1       2.155 -15.685   0.846  1.00  0.00     0.124 S 
ATOM     82  O   UNL     1       1.107 -16.267   0.012  1.00  0.00    -0.237 OA
ATOM     83  O   UNL     1       3.475 -16.297   0.719  1.00  0.00    -0.237 OA
ATOM     84  O   UNL     1       1.752 -15.372   2.216  1.00  0.00    -0.744 OA
ENDBRANCH  80  81
ENDBRANCH  52  75
BRANCH  64  85
ATOM     85  C   UNL     1       6.044  -7.360  -4.582  1.00  0.00    -0.014 A 
ATOM     86  C   UNL     1       4.688  -6.979  -4.529  1.00  0.00     0.010 A 
ATOM     87  C   UNL     1       6.732  -7.235  -5.799  1.00  0.00     0.010 A 
ATOM     88  C   UNL     1       4.039  -6.495  -5.676  1.00  0.00     0.020 A 
ATOM     89  C   UNL     1       6.099  -6.737  -6.937  1.00  0.00     0.020 A 
ATOM     90  C   UNL     1       4.754  -6.375  -6.873  1.00  0.00     0.054 A 
BRANCH  90  91
ATOM     91  S   UNL     1       3.936  -5.691  -8.341  1.00  0.00     0.124 S 
ATOM     92  O   UNL     1       2.998  -6.749  -8.704  1.00  0.00    -0.237 OA
ATOM     93  O   UNL     1       3.330  -4.462  -7.830  1.00  0.00    -0.237 OA
ATOM     94  O   UNL     1       5.033  -5.484  -9.286  1.00  0.00    -0.744 OA
ENDBRANCH  90  91
ENDBRANCH  64  85
ENDBRANCH  38  39
ENDBRANCH  31  33
ENDBRANCH  30  31
ENDBRANCH  29  30
ENDBRANCH  28  29
ENDBRANCH  27  28
ENDBRANCH   1  27
TORSDOF 19
