REMARK SMILES O=C(OCCOC(=O)c1ccc(-c2c3nc(c(-c4ccc(S(=O)(=O)[O-])cc4)c4ccc([nH]4)c(-c4ccc(S(=O)(=O)[O-])cc4)c4nc(c(-c5ccc(S(=O)(=O)[O-])cc5)c5ccc2[nH]5)C=C4)C=C3)cc1)C1=Cc2cc(C(F)(F)F)ccc2O[C@@H]1C(F)(F)F
REMARK SMILES IDX 5 1 4 2 3 3 2 4 1 5 69 6 70 7 82 8 71 9 81 10 72 11 80 12
REMARK SMILES IDX 73 13 79 14 78 15 83 16 84 17 85 18 86 19 74 20 75 21 76 22
REMARK SMILES IDX 77 23 6 24 7 25 8 26 9 27 10 28 68 29 11 30 67 31 12 32
REMARK SMILES IDX 13 33 14 34 61 35 15 36 66 37 60 38 62 39 16 40 65 41 59 42
REMARK SMILES IDX 58 43 17 45 47 46 28 47 46 48 29 49 32 50 45 51 63 52 30 53
REMARK SMILES IDX 31 54 44 56 64 57 33 58 18 59 19 60 27 61 20 62 26 63 21 64
REMARK SMILES IDX 22 65 23 66 24 67 25 68 48 69 49 70 57 71 50 72 56 73 51 74
REMARK SMILES IDX 52 75 53 76 54 77 55 78 34 79 35 80 43 81 36 82 42 83 37 84
REMARK SMILES IDX 38 85 39 86 40 87 41 88
REMARK H PARENT 62 44 32 55
REMARK Flexibility Score: inf
ROOT
ATOM      1  C   UNL     1       4.543  -0.888   0.164  1.00  0.00     0.275 C 
ENDROOT
BRANCH   1   2
ATOM      2  C   UNL     1       3.581   1.002  -0.380  1.00  0.00     0.275 C 
BRANCH   2   3
ATOM      3  O   UNL     1       2.484   1.209  -1.389  1.00  0.00    -0.459 OA
BRANCH   3   4
ATOM      4  C   UNL     1       2.650   0.419  -2.452  1.00  0.00     0.338 C 
ATOM      5  O   UNL     1       1.884   0.234  -3.365  1.00  0.00    -0.246 OA
BRANCH   4   6
ATOM      6  C   UNL     1       3.704  -0.437  -1.915  1.00  0.00     0.087 C 
ATOM      7  C   UNL     1       5.024   0.106  -1.901  1.00  0.00     0.027 C 
ATOM      8  C   UNL     1       2.665  -0.827  -0.366  1.00  0.00     0.316 C 
ATOM      9  C   UNL     1       5.817   0.742  -0.480  1.00  0.00     0.018 A 
ATOM     10  O   UNL     1       3.413   0.060   1.222  1.00  0.00    -0.475 OA
ATOM     11  C   UNL     1       7.084   1.179  -0.664  1.00  0.00     0.025 A 
ATOM     12  C   UNL     1       5.044   0.916   1.053  1.00  0.00     0.128 A 
ATOM     13  C   UNL     1       7.645   1.854   0.425  1.00  0.00     0.056 A 
ATOM     14  C   UNL     1       5.633   1.590   2.081  1.00  0.00     0.048 A 
ATOM     15  C   UNL     1       6.939   2.071   1.712  1.00  0.00     0.017 A 
BRANCH   8  16
ATOM     16  C   UNL     1       2.693  -2.432  -0.989  1.00  0.00     0.430 C 
ATOM     17  F   UNL     1       1.481  -2.982  -0.930  1.00  0.00    -0.167 F 
ATOM     18  F   UNL     1       2.918  -2.452  -2.346  1.00  0.00    -0.167 F 
ATOM     19  F   UNL     1       3.638  -3.289  -0.552  1.00  0.00    -0.167 F 
ENDBRANCH   8  16
BRANCH  13  20
ATOM     20  C   UNL     1       9.065   2.331   0.156  1.00  0.00     0.416 C 
ATOM     21  F   UNL     1       9.953   1.296   0.142  1.00  0.00    -0.166 F 
ATOM     22  F   UNL     1       9.180   2.916  -1.074  1.00  0.00    -0.166 F 
ATOM     23  F   UNL     1       9.537   3.236   1.047  1.00  0.00    -0.166 F 
ENDBRANCH  13  20
ENDBRANCH   4   6
ENDBRANCH   3   4
ENDBRANCH   2   3
ENDBRANCH   1   2
BRANCH   1  24
ATOM     24  O   UNL     1       3.745  -2.058   1.246  1.00  0.00    -0.458 OA
BRANCH  24  25
ATOM     25  C   UNL     1       2.646  -2.180   2.097  1.00  0.00     0.338 C 
ATOM     26  O   UNL     1       2.010  -1.309   2.665  1.00  0.00    -0.246 OA
BRANCH  25  27
ATOM     27  C   UNL     1       2.031  -3.519   1.823  1.00  0.00     0.060 A 
ATOM     28  C   UNL     1       0.730  -3.580   1.271  1.00  0.00     0.016 A 
ATOM     29  C   UNL     1       2.875  -4.620   1.728  1.00  0.00     0.016 A 
ATOM     30  C   UNL     1       0.383  -4.651   0.418  1.00  0.00     0.010 A 
ATOM     31  C   UNL     1       2.537  -5.663   0.866  1.00  0.00     0.010 A 
ATOM     32  C   UNL     1       1.326  -5.655   0.143  1.00  0.00    -0.014 A 
BRANCH  32  33
ATOM     33  C   UNL     1       0.954  -6.902  -0.576  1.00  0.00     0.031 A 
ATOM     34  C   UNL     1       0.457  -7.976   0.342  1.00  0.00     0.074 A 
ATOM     35  C   UNL     1       1.153  -7.149  -1.890  1.00  0.00     0.049 A 
ATOM     36  N   UNL     1       0.256  -9.242   0.118  1.00  0.00    -0.248 NA
ATOM     37  C   UNL     1       0.234  -7.559   1.741  1.00  0.00     0.031 C 
ATOM     38  C   UNL     1       1.633  -6.199  -2.895  1.00  0.00     0.029 A 
ATOM     39  N   UNL     1       0.983  -8.316  -2.608  1.00  0.00    -0.354 N 
ATOM     40  C   UNL     1      -0.081  -9.766   1.357  1.00  0.00     0.074 A 
ATOM     41  C   UNL     1       0.046  -8.717   2.334  1.00  0.00     0.031 C 
ATOM     42  C   UNL     1       1.712  -6.819  -4.092  1.00  0.00     0.029 A 
ATOM     43  C   UNL     1       1.325  -8.223  -3.942  1.00  0.00     0.049 A 
ATOM     44  H   UNL     1       0.645  -9.147  -2.201  1.00  0.00     0.167 HD
ATOM     45  C   UNL     1      -0.501 -11.010   1.661  1.00  0.00     0.031 A 
ATOM     46  C   UNL     1       1.328  -9.167  -4.913  1.00  0.00     0.031 A 
ATOM     47  C   UNL     1      -0.610 -12.051   0.691  1.00  0.00     0.049 A 
ATOM     48  C   UNL     1       0.904 -10.579  -4.549  1.00  0.00     0.074 A 
ATOM     49  C   UNL     1      -1.036 -13.350   0.872  1.00  0.00     0.029 A 
ATOM     50  N   UNL     1      -0.276 -11.906  -0.648  1.00  0.00    -0.354 N 
ATOM     51  N   UNL     1       0.530 -11.055  -3.382  1.00  0.00    -0.248 NA
ATOM     52  C   UNL     1       0.894 -11.581  -5.628  1.00  0.00     0.031 C 
ATOM     53  C   UNL     1      -0.893 -14.014  -0.348  1.00  0.00     0.029 A 
ATOM     54  C   UNL     1      -0.467 -13.102  -1.306  1.00  0.00     0.049 A 
ATOM     55  H   UNL     1       0.049 -11.075  -1.064  1.00  0.00     0.167 HD
ATOM     56  C   UNL     1       0.196 -12.390  -3.597  1.00  0.00     0.074 A 
ATOM     57  C   UNL     1       0.414 -12.649  -5.005  1.00  0.00     0.031 C 
ATOM     58  C   UNL     1      -0.261 -13.317  -2.717  1.00  0.00     0.031 A 
BRANCH  45  59
ATOM     59  C   UNL     1      -0.823 -11.266   3.104  1.00  0.00    -0.014 A 
ATOM     60  C   UNL     1      -1.879 -10.587   3.746  1.00  0.00     0.010 A 
ATOM     61  C   UNL     1      -0.003 -12.127   3.850  1.00  0.00     0.010 A 
ATOM     62  C   UNL     1      -2.063 -10.711   5.122  1.00  0.00     0.020 A 
ATOM     63  C   UNL     1      -0.216 -12.291   5.219  1.00  0.00     0.020 A 
ATOM     64  C   UNL     1      -1.230 -11.565   5.849  1.00  0.00     0.054 A 
BRANCH  64  65
ATOM     65  S   UNL     1      -1.505 -11.725   7.631  1.00  0.00     0.124 S 
ATOM     66  O   UNL     1      -1.057 -10.425   8.124  1.00  0.00    -0.237 OA
ATOM     67  O   UNL     1      -2.944 -11.963   7.708  1.00  0.00    -0.237 OA
ATOM     68  O   UNL     1      -0.666 -12.858   8.011  1.00  0.00    -0.744 OA
ENDBRANCH  64  65
ENDBRANCH  45  59
BRANCH  46  69
ATOM     69  C   UNL     1       1.724  -8.843  -6.324  1.00  0.00    -0.014 A 
ATOM     70  C   UNL     1       0.783  -8.898  -7.373  1.00  0.00     0.010 A 
ATOM     71  C   UNL     1       3.053  -8.508  -6.644  1.00  0.00     0.010 A 
ATOM     72  C   UNL     1       1.159  -8.633  -8.698  1.00  0.00     0.020 A 
ATOM     73  C   UNL     1       3.429  -8.215  -7.964  1.00  0.00     0.020 A 
ATOM     74  C   UNL     1       2.479  -8.282  -8.985  1.00  0.00     0.054 A 
BRANCH  74  75
ATOM     75  S   UNL     1       2.927  -7.869 -10.698  1.00  0.00     0.124 S 
ATOM     76  O   UNL     1       2.793  -9.156 -11.373  1.00  0.00    -0.237 OA
ATOM     77  O   UNL     1       1.926  -6.865 -11.050  1.00  0.00    -0.237 OA
ATOM     78  O   UNL     1       4.294  -7.363 -10.585  1.00  0.00    -0.744 OA
ENDBRANCH  74  75
ENDBRANCH  46  69
BRANCH  58  79
ATOM     79  C   UNL     1      -0.638 -14.678  -3.241  1.00  0.00    -0.014 A 
ATOM     80  C   UNL     1       0.330 -15.609  -3.652  1.00  0.00     0.010 A 
ATOM     81  C   UNL     1      -1.990 -15.069  -3.184  1.00  0.00     0.010 A 
ATOM     82  C   UNL     1      -0.052 -16.905  -4.010  1.00  0.00     0.020 A 
ATOM     83  C   UNL     1      -2.370 -16.372  -3.504  1.00  0.00     0.020 A 
ATOM     84  C   UNL     1      -1.398 -17.280  -3.924  1.00  0.00     0.054 A 
BRANCH  84  85
ATOM     85  S   UNL     1      -1.853 -18.990  -4.317  1.00  0.00     0.124 S 
ATOM     86  O   UNL     1      -1.640 -19.037  -5.761  1.00  0.00    -0.237 OA
ATOM     87  O   UNL     1      -0.908 -19.764  -3.516  1.00  0.00    -0.237 OA
ATOM     88  O   UNL     1      -3.248 -19.086  -3.890  1.00  0.00    -0.744 OA
ENDBRANCH  84  85
ENDBRANCH  58  79
ENDBRANCH  32  33
ENDBRANCH  25  27
ENDBRANCH  24  25
ENDBRANCH   1  24
TORSDOF 16
