REMARK SMILES Cc1ccc(NC(=O)c2ccccc2NC(=O)[C@H]2CCCC[C@H]2C(=O)OCCOC(=O)c2ccc(-c3c4nc(c(-c5ccc(S(=O)(=O)[O-])cc5)c5ccc([nH]5)c(-c5ccc(S(=O)(=O)[O-])cc5)c5nc(c(-c6ccc(S(=O)(=O)[O-])cc6)c6ccc3[nH]6)C=C5)C=C4)cc2)cc1
REMARK SMILES IDX 27 1 26 2 24 3 25 4 23 5 18 6 19 7 20 8 22 9 21 10 16 11
REMARK SMILES IDX 15 12 17 14 14 15 9 16 10 17 11 18 13 19 12 20 7 21 6 22
REMARK SMILES IDX 8 24 5 25 1 26 2 27 3 28 93 29 4 30 92 31 28 32 29 33 30 34
REMARK SMILES IDX 31 35 32 36 33 37 91 38 34 39 90 40 35 41 36 42 37 43 84 44
REMARK SMILES IDX 38 45 89 46 83 47 85 48 39 49 88 50 82 51 81 52 40 54 70 55
REMARK SMILES IDX 51 56 69 57 52 58 55 59 68 60 86 61 53 62 54 63 67 65 87 66
REMARK SMILES IDX 56 67 41 68 42 69 50 70 43 71 49 72 44 73 45 74 46 75 47 76
REMARK SMILES IDX 48 77 71 78 72 79 80 80 73 81 79 82 74 83 75 84 76 85 77 86
REMARK SMILES IDX 78 87 57 88 58 89 66 90 59 91 65 92 60 93 61 94 62 95 63 96
REMARK SMILES IDX 64 97
REMARK H PARENT 15 13 6 23 85 53 55 64
REMARK Flexibility Score: inf
ROOT
ATOM      1  C   UNL     1      -0.679   2.295   7.188  1.00  0.00     0.274 C 
ENDROOT
BRANCH   1   2
ATOM      2  O   UNL     1      -0.534   0.870   7.061  1.00  0.00    -0.462 OA
BRANCH   2   3
ATOM      3  C   UNL     1      -1.577   0.172   6.305  1.00  0.00     0.309 C 
ATOM      4  O   UNL     1      -2.615   0.852   6.540  1.00  0.00    -0.252 OA
BRANCH   3   5
ATOM      5  C   UNL     1      -1.247  -1.651   5.112  1.00  0.00     0.111 C 
ATOM      6  C   UNL     1      -0.223  -1.981   3.702  1.00  0.00     0.093 C 
ATOM      7  C   UNL     1      -0.374  -3.328   2.956  1.00  0.00     0.014 C 
ATOM      8  C   UNL     1      -0.250  -4.551   3.833  1.00  0.00     0.001 C 
ATOM      9  C   UNL     1      -1.433  -3.380   5.677  1.00  0.00     0.016 C 
ATOM     10  C   UNL     1      -1.454  -4.563   4.721  1.00  0.00     0.001 C 
BRANCH   6  11
ATOM     11  C   UNL     1       1.270  -1.842   3.892  1.00  0.00     0.228 C 
ATOM     12  N   UNL     1       1.957  -0.852   3.256  1.00  0.00    -0.325 N 
ATOM     13  H   UNL     1       2.854  -0.737   3.645  1.00  0.00     0.169 HD
ATOM     14  O   UNL     1       1.869  -2.508   4.742  1.00  0.00    -0.274 OA
BRANCH  12  15
ATOM     15  C   UNL     1       1.744   0.054   2.196  1.00  0.00     0.054 A 
ATOM     16  C   UNL     1       2.595   1.180   2.068  1.00  0.00     0.063 A 
ATOM     17  C   UNL     1       2.242   2.202   1.160  1.00  0.00     0.016 A 
ATOM     18  C   UNL     1       1.122   2.089   0.340  1.00  0.00     0.001 A 
ATOM     19  C   UNL     1       0.702  -0.096   1.271  1.00  0.00     0.027 A 
ATOM     20  C   UNL     1       0.373   0.924   0.373  1.00  0.00     0.002 A 
BRANCH  16  21
ATOM     21  C   UNL     1       3.780   1.500   2.932  1.00  0.00     0.257 C 
ATOM     22  N   UNL     1       4.651   0.578   3.481  1.00  0.00    -0.322 N 
ATOM     23  H   UNL     1       5.244   0.967   4.163  1.00  0.00     0.170 HD
ATOM     24  O   UNL     1       3.960   2.681   3.249  1.00  0.00    -0.269 OA
BRANCH  22  25
ATOM     25  C   UNL     1       4.872  -0.795   3.277  1.00  0.00     0.041 A 
ATOM     26  C   UNL     1       4.074  -5.003   3.382  1.00  0.00     0.044 C 
ATOM     27  C   UNL     1       4.535  -3.576   3.298  1.00  0.00    -0.051 A 
ATOM     28  C   UNL     1       4.361  -2.848   2.113  1.00  0.00     0.005 A 
ATOM     29  C   UNL     1       5.007  -2.917   4.438  1.00  0.00     0.005 A 
ATOM     30  C   UNL     1       4.550  -1.461   2.095  1.00  0.00     0.026 A 
ATOM     31  C   UNL     1       5.200  -1.534   4.422  1.00  0.00     0.026 A 
ENDBRANCH  22  25
ENDBRANCH  16  21
ENDBRANCH  12  15
ENDBRANCH   6  11
ENDBRANCH   3   5
ENDBRANCH   2   3
ENDBRANCH   1   2
BRANCH   1  32
ATOM     32  C   UNL     1      -0.303   2.948   5.853  1.00  0.00     0.275 C 
BRANCH  32  33
ATOM     33  O   UNL     1      -1.288   2.798   4.791  1.00  0.00    -0.458 OA
BRANCH  33  34
ATOM     34  C   UNL     1      -1.254   1.844   3.816  1.00  0.00     0.338 C 
ATOM     35  O   UNL     1      -1.285   2.094   2.622  1.00  0.00    -0.246 OA
BRANCH  34  36
ATOM     36  C   UNL     1      -1.280   0.437   4.299  1.00  0.00     0.060 A 
ATOM     37  C   UNL     1      -2.873  -0.261   4.721  1.00  0.00     0.016 A 
ATOM     38  C   UNL     1       0.175  -0.038   5.213  1.00  0.00     0.016 A 
ATOM     39  C   UNL     1      -3.018  -1.304   6.210  1.00  0.00     0.010 A 
ATOM     40  C   UNL     1       0.071  -1.127   6.635  1.00  0.00     0.010 A 
ATOM     41  C   UNL     1      -1.546  -1.627   7.224  1.00  0.00    -0.014 A 
BRANCH  41  42
ATOM     42  C   UNL     1      -1.557  -1.814   8.664  1.00  0.00     0.031 A 
ATOM     43  C   UNL     1      -0.809  -2.944   9.247  1.00  0.00     0.074 A 
ATOM     44  C   UNL     1      -2.097  -0.816   9.399  1.00  0.00     0.049 A 
ATOM     45  N   UNL     1      -1.195  -3.579  10.299  1.00  0.00    -0.248 NA
ATOM     46  C   UNL     1       0.385  -3.545   8.642  1.00  0.00     0.031 C 
ATOM     47  C   UNL     1      -2.023  -0.612  10.837  1.00  0.00     0.029 A 
ATOM     48  N   UNL     1      -2.968   0.194   8.993  1.00  0.00    -0.354 N 
ATOM     49  C   UNL     1      -0.150  -4.400  10.669  1.00  0.00     0.074 A 
ATOM     50  C   UNL     1       0.673  -4.520   9.502  1.00  0.00     0.031 C 
ATOM     51  C   UNL     1      -3.046   0.190  11.202  1.00  0.00     0.029 A 
ATOM     52  C   UNL     1      -3.861   0.447  10.018  1.00  0.00     0.049 A 
ATOM     53  H   UNL     1      -2.950   0.651   8.122  1.00  0.00     0.167 HD
ATOM     54  C   UNL     1       0.043  -4.689  11.986  1.00  0.00     0.031 A 
ATOM     55  C   UNL     1      -5.192   0.180   9.857  1.00  0.00     0.031 A 
ATOM     56  C   UNL     1      -1.022  -4.080  12.787  1.00  0.00     0.049 A 
ATOM     57  C   UNL     1      -5.571  -0.989  10.746  1.00  0.00     0.074 A 
ATOM     58  C   UNL     1      -1.072  -2.918  13.538  1.00  0.00     0.029 A 
ATOM     59  N   UNL     1      -2.341  -4.445  12.540  1.00  0.00    -0.354 N 
ATOM     60  N   UNL     1      -4.705  -1.833  11.244  1.00  0.00    -0.248 NA
ATOM     61  C   UNL     1      -6.932  -1.271  11.186  1.00  0.00     0.031 C 
ATOM     62  C   UNL     1      -2.438  -2.526  13.639  1.00  0.00     0.029 A 
ATOM     63  C   UNL     1      -3.215  -3.467  12.982  1.00  0.00     0.049 A 
ATOM     64  H   UNL     1      -2.617  -5.286  12.107  1.00  0.00     0.167 HD
ATOM     65  C   UNL     1      -5.330  -2.699  12.095  1.00  0.00     0.074 A 
ATOM     66  C   UNL     1      -6.731  -2.316  12.011  1.00  0.00     0.031 C 
ATOM     67  C   UNL     1      -4.656  -3.647  12.813  1.00  0.00     0.031 A 
BRANCH  54  68
ATOM     68  C   UNL     1       1.350  -5.212  12.554  1.00  0.00    -0.014 A 
ATOM     69  C   UNL     1       1.627  -5.043  13.925  1.00  0.00     0.010 A 
ATOM     70  C   UNL     1       2.363  -5.843  11.802  1.00  0.00     0.010 A 
ATOM     71  C   UNL     1       2.853  -5.428  14.495  1.00  0.00     0.020 A 
ATOM     72  C   UNL     1       3.604  -6.207  12.347  1.00  0.00     0.020 A 
ATOM     73  C   UNL     1       3.841  -6.000  13.697  1.00  0.00     0.054 A 
BRANCH  73  74
ATOM     74  S   UNL     1       5.414  -6.501  14.444  1.00  0.00     0.124 S 
ATOM     75  O   UNL     1       5.920  -5.243  14.987  1.00  0.00    -0.237 OA
ATOM     76  O   UNL     1       4.990  -7.491  15.430  1.00  0.00    -0.237 OA
ATOM     77  O   UNL     1       6.178  -7.036  13.318  1.00  0.00    -0.744 OA
ENDBRANCH  73  74
ENDBRANCH  54  68
BRANCH  55  78
ATOM     78  C   UNL     1      -5.786   0.541   8.519  1.00  0.00    -0.014 A 
ATOM     79  C   UNL     1      -5.723   1.902   8.130  1.00  0.00     0.010 A 
ATOM     80  C   UNL     1      -6.131  -0.392   7.526  1.00  0.00     0.010 A 
ATOM     81  C   UNL     1      -5.860   2.302   6.790  1.00  0.00     0.020 A 
ATOM     82  C   UNL     1      -6.273   0.006   6.171  1.00  0.00     0.020 A 
ATOM     83  C   UNL     1      -6.100   1.347   5.808  1.00  0.00     0.054 A 
BRANCH  83  84
ATOM     84  S   UNL     1      -5.995   1.862   4.056  1.00  0.00     0.124 S 
ATOM     85  O   UNL     1      -7.216   2.640   3.880  1.00  0.00    -0.237 OA
ATOM     86  O   UNL     1      -4.752   2.626   4.021  1.00  0.00    -0.237 OA
ATOM     87  O   UNL     1      -5.952   0.594   3.328  1.00  0.00    -0.744 OA
ENDBRANCH  83  84
ENDBRANCH  55  78
BRANCH  67  88
ATOM     88  C   UNL     1      -5.299  -4.824  13.505  1.00  0.00    -0.014 A 
ATOM     89  C   UNL     1      -6.580  -5.303  13.199  1.00  0.00     0.010 A 
ATOM     90  C   UNL     1      -4.528  -5.593  14.412  1.00  0.00     0.010 A 
ATOM     91  C   UNL     1      -7.099  -6.439  13.829  1.00  0.00     0.020 A 
ATOM     92  C   UNL     1      -5.007  -6.767  14.991  1.00  0.00     0.020 A 
ATOM     93  C   UNL     1      -6.310  -7.161  14.724  1.00  0.00     0.054 A 
BRANCH  93  94
ATOM     94  S   UNL     1      -6.986  -8.640  15.508  1.00  0.00     0.124 S 
ATOM     95  O   UNL     1      -7.744  -8.067  16.616  1.00  0.00    -0.237 OA
ATOM     96  O   UNL     1      -7.787  -9.236  14.441  1.00  0.00    -0.237 OA
ATOM     97  O   UNL     1      -5.799  -9.403  15.887  1.00  0.00    -0.744 OA
ENDBRANCH  93  94
ENDBRANCH  67  88
ENDBRANCH  41  42
ENDBRANCH  34  36
ENDBRANCH  33  34
ENDBRANCH  32  33
ENDBRANCH   1  32
TORSDOF 18
