REMARK SMILES CCC(=O)Nc1cc(NC(=O)/C=C/C(=O)OCCOC(=O)c2ccc(-c3c4nc(c(-c5ccc(S(=O)(=O)[O-])cc5)c5ccc([nH]5)c(-c5ccc(S(=O)(=O)[O-])cc5)c5nc(c(-c6ccc(S(=O)(=O)[O-])cc6)c6ccc3[nH]6)C=C5)C=C4)cc2)ccc1C
REMARK SMILES IDX 17 1 16 2 14 3 15 4 13 5 12 6 10 7 9 8 11 10 8 11 6 12 7 13
REMARK SMILES IDX 84 14 83 15 85 16 82 17 5 18 3 19 4 20 2 22 1 23 18 24 19 25
REMARK SMILES IDX 20 26 21 27 22 28 23 29 81 30 24 31 80 32 25 33 26 34 27 35
REMARK SMILES IDX 74 36 28 37 79 38 73 39 75 40 29 41 78 42 72 43 71 44 30 46
REMARK SMILES IDX 60 47 41 48 59 49 42 50 45 51 58 52 76 53 43 54 44 55 57 57
REMARK SMILES IDX 77 58 46 59 31 60 32 61 40 62 33 63 39 64 34 65 35 66 36 67
REMARK SMILES IDX 37 68 38 69 61 70 62 71 70 72 63 73 69 74 64 75 65 76 66 77
REMARK SMILES IDX 67 78 68 79 47 80 48 81 56 82 49 83 55 84 50 85 51 86 52 87
REMARK SMILES IDX 53 88 54 89
REMARK H PARENT 9 9 5 21 75 45 45 56
REMARK Flexibility Score: inf
ROOT
ATOM      1  C   UNL     1       4.481   7.694   1.279  1.00  0.00     0.275 C 
ENDROOT
BRANCH   1   2
ATOM      2  O   UNL     1       5.480   6.636   1.443  1.00  0.00    -0.459 OA
BRANCH   2   3
ATOM      3  C   UNL     1       5.611   6.126   2.699  1.00  0.00     0.331 C 
ATOM      4  O   UNL     1       5.258   6.744   3.708  1.00  0.00    -0.247 OA
BRANCH   3   5
ATOM      5  C   UNL     1       5.887   4.641   2.760  1.00  0.00     0.099 C 
ATOM      6  C   UNL     1       6.962   3.851   2.833  1.00  0.00     0.079 C 
BRANCH   6   7
ATOM      7  C   UNL     1       7.050   2.370   3.172  1.00  0.00     0.248 C 
ATOM      8  N   UNL     1       6.502   1.215   2.683  1.00  0.00    -0.322 N 
ATOM      9  H   UNL     1       7.071   0.492   3.033  1.00  0.00     0.170 HD
ATOM     10  O   UNL     1       7.989   2.130   3.961  1.00  0.00    -0.270 OA
BRANCH   8  11
ATOM     11  C   UNL     1       5.498   0.557   1.908  1.00  0.00     0.043 A 
ATOM     12  C   UNL     1       3.339   0.189   0.778  1.00  0.00     0.046 A 
ATOM     13  C   UNL     1       4.163   0.879   1.723  1.00  0.00     0.052 A 
ATOM     14  C   UNL     1       3.862  -0.820  -0.019  1.00  0.00    -0.027 A 
ATOM     15  C   UNL     1       5.077  -1.353   0.379  1.00  0.00     0.008 A 
ATOM     16  C   UNL     1       3.253  -1.199  -1.349  1.00  0.00     0.046 C 
ATOM     17  C   UNL     1       5.872  -0.676   1.331  1.00  0.00     0.026 A 
BRANCH  12  18
ATOM     18  N   UNL     1       2.135   0.765   0.370  1.00  0.00    -0.326 N 
ATOM     19  C   UNL     1       0.954   0.147   0.021  1.00  0.00     0.224 C 
ATOM     20  O   UNL     1       0.399   0.337  -1.063  1.00  0.00    -0.275 OA
ATOM     21  H   UNL     1       2.129   1.749   0.325  1.00  0.00     0.169 HD
BRANCH  19  22
ATOM     22  C   UNL     1       0.249  -0.696   1.042  1.00  0.00     0.097 C 
ATOM     23  C   UNL     1       0.238  -2.109   0.526  1.00  0.00     0.014 C 
ENDBRANCH  19  22
ENDBRANCH  12  18
ENDBRANCH   8  11
ENDBRANCH   6   7
ENDBRANCH   3   5
ENDBRANCH   2   3
ENDBRANCH   1   2
BRANCH   1  24
ATOM     24  C   UNL     1       3.975   7.826  -0.188  1.00  0.00     0.275 C 
BRANCH  24  25
ATOM     25  O   UNL     1       3.659   6.643  -0.958  1.00  0.00    -0.458 OA
BRANCH  25  26
ATOM     26  C   UNL     1       3.941   5.425  -0.438  1.00  0.00     0.338 C 
ATOM     27  O   UNL     1       4.962   4.806  -0.699  1.00  0.00    -0.246 OA
BRANCH  26  28
ATOM     28  C   UNL     1       3.007   5.092   0.667  1.00  0.00     0.060 A 
ATOM     29  C   UNL     1       3.327   4.056   1.537  1.00  0.00     0.016 A 
ATOM     30  C   UNL     1       1.965   5.947   0.973  1.00  0.00     0.016 A 
ATOM     31  C   UNL     1       2.692   3.939   2.783  1.00  0.00     0.010 A 
ATOM     32  C   UNL     1       1.492   5.961   2.250  1.00  0.00     0.010 A 
ATOM     33  C   UNL     1       1.768   4.907   3.121  1.00  0.00    -0.014 A 
BRANCH  33  34
ATOM     34  C   UNL     1       1.010   4.944   4.367  1.00  0.00     0.031 A 
ATOM     35  C   UNL     1       1.883   4.998   5.593  1.00  0.00     0.074 A 
ATOM     36  C   UNL     1      -0.318   5.152   4.078  1.00  0.00     0.049 A 
ATOM     37  N   UNL     1       1.591   4.644   6.793  1.00  0.00    -0.248 NA
ATOM     38  C   UNL     1       3.323   5.355   5.580  1.00  0.00     0.031 C 
ATOM     39  C   UNL     1      -1.489   5.709   4.728  1.00  0.00     0.029 A 
ATOM     40  N   UNL     1      -0.933   4.711   2.894  1.00  0.00    -0.354 N 
ATOM     41  C   UNL     1       2.397   5.466   7.586  1.00  0.00     0.074 A 
ATOM     42  C   UNL     1       3.615   5.610   6.862  1.00  0.00     0.031 C 
ATOM     43  C   UNL     1      -2.623   5.176   4.211  1.00  0.00     0.029 A 
ATOM     44  C   UNL     1      -2.236   4.274   3.149  1.00  0.00     0.049 A 
ATOM     45  H   UNL     1      -0.505   4.709   2.007  1.00  0.00     0.167 HD
ATOM     46  C   UNL     1       1.782   6.258   8.512  1.00  0.00     0.031 A 
ATOM     47  C   UNL     1      -2.473   2.928   3.076  1.00  0.00     0.031 A 
ATOM     48  C   UNL     1       0.346   6.004   8.417  1.00  0.00     0.049 A 
ATOM     49  C   UNL     1      -2.418   2.412   4.512  1.00  0.00     0.074 A 
ATOM     50  C   UNL     1      -0.683   6.712   7.830  1.00  0.00     0.029 A 
ATOM     51  N   UNL     1      -0.094   4.698   8.549  1.00  0.00    -0.354 N 
ATOM     52  N   UNL     1      -1.639   2.892   5.454  1.00  0.00    -0.248 NA
ATOM     53  C   UNL     1      -3.455   1.525   5.031  1.00  0.00     0.031 C 
ATOM     54  C   UNL     1      -1.756   5.794   7.627  1.00  0.00     0.029 A 
ATOM     55  C   UNL     1      -1.300   4.515   7.905  1.00  0.00     0.049 A 
ATOM     56  H   UNL     1       0.390   3.993   9.037  1.00  0.00     0.167 HD
ATOM     57  C   UNL     1      -2.198   2.599   6.677  1.00  0.00     0.074 A 
ATOM     58  C   UNL     1      -3.301   1.702   6.352  1.00  0.00     0.031 C 
ATOM     59  C   UNL     1      -1.884   3.183   7.879  1.00  0.00     0.031 A 
BRANCH  46  60
ATOM     60  C   UNL     1       2.310   7.449   9.287  1.00  0.00    -0.014 A 
ATOM     61  C   UNL     1       1.354   8.208  10.004  1.00  0.00     0.010 A 
ATOM     62  C   UNL     1       3.647   7.874   9.405  1.00  0.00     0.010 A 
ATOM     63  C   UNL     1       1.684   9.316  10.785  1.00  0.00     0.020 A 
ATOM     64  C   UNL     1       3.999   8.993  10.203  1.00  0.00     0.020 A 
ATOM     65  C   UNL     1       3.011   9.702  10.892  1.00  0.00     0.054 A 
BRANCH  65  66
ATOM     66  S   UNL     1       3.386  11.109  11.975  1.00  0.00     0.124 S 
ATOM     67  O   UNL     1       2.639  12.197  11.348  1.00  0.00    -0.237 OA
ATOM     68  O   UNL     1       2.869  10.661  13.265  1.00  0.00    -0.237 OA
ATOM     69  O   UNL     1       4.840  11.232  11.899  1.00  0.00    -0.744 OA
ENDBRANCH  65  66
ENDBRANCH  46  60
BRANCH  47  70
ATOM     70  C   UNL     1      -1.744   2.406   1.860  1.00  0.00    -0.014 A 
ATOM     71  C   UNL     1      -2.244   2.730   0.559  1.00  0.00     0.010 A 
ATOM     72  C   UNL     1      -0.373   2.265   1.990  1.00  0.00     0.010 A 
ATOM     73  C   UNL     1      -1.396   3.070  -0.523  1.00  0.00     0.020 A 
ATOM     74  C   UNL     1       0.428   2.748   0.950  1.00  0.00     0.020 A 
ATOM     75  C   UNL     1      -0.038   3.128  -0.307  1.00  0.00     0.054 A 
BRANCH  75  76
ATOM     76  S   UNL     1       1.135   3.461  -1.680  1.00  0.00     0.124 S 
ATOM     77  O   UNL     1       0.556   2.780  -2.830  1.00  0.00    -0.237 OA
ATOM     78  O   UNL     1       1.120   4.918  -1.756  1.00  0.00    -0.237 OA
ATOM     79  O   UNL     1       2.386   2.874  -1.191  1.00  0.00    -0.744 OA
ENDBRANCH  75  76
ENDBRANCH  47  70
BRANCH  59  80
ATOM     80  C   UNL     1      -2.188   2.566   9.226  1.00  0.00    -0.014 A 
ATOM     81  C   UNL     1      -2.688   1.273   9.384  1.00  0.00     0.010 A 
ATOM     82  C   UNL     1      -1.840   3.260  10.417  1.00  0.00     0.010 A 
ATOM     83  C   UNL     1      -2.972   0.760  10.646  1.00  0.00     0.020 A 
ATOM     84  C   UNL     1      -2.008   2.714  11.683  1.00  0.00     0.020 A 
ATOM     85  C   UNL     1      -2.631   1.484  11.786  1.00  0.00     0.054 A 
BRANCH  85  86
ATOM     86  S   UNL     1      -3.010   0.780  13.394  1.00  0.00     0.124 S 
ATOM     87  O   UNL     1      -4.467   0.879  13.422  1.00  0.00    -0.237 OA
ATOM     88  O   UNL     1      -2.474  -0.574  13.273  1.00  0.00    -0.237 OA
ATOM     89  O   UNL     1      -2.304   1.647  14.333  1.00  0.00    -0.744 OA
ENDBRANCH  85  86
ENDBRANCH  59  80
ENDBRANCH  33  34
ENDBRANCH  26  28
ENDBRANCH  25  26
ENDBRANCH  24  25
ENDBRANCH   1  24
TORSDOF 18
