REMARK SMILES Cn1ccc(C(=O)NCc2ccc(C(=O)OCCOC(=O)c3ccc(-c4c5nc(c(-c6ccc(S(=O)(=O)[O-])cc6)c6ccc([nH]6)c(-c6ccc(S(=O)(=O)[O-])cc6)c6nc(c(-c7ccc(S(=O)(=O)[O-])cc7)c7ccc4[nH]7)C=C6)C=C5)cc3)cc2)cc1=O
REMARK SMILES IDX 17 1 16 2 14 3 15 4 13 5 10 6 11 7 83 8 12 9 82 10 9 11 8 12
REMARK SMILES IDX 6 13 7 14 5 16 1 17 2 18 3 19 85 20 4 21 84 22 86 23 18 24
REMARK SMILES IDX 19 25 20 26 21 27 22 28 23 29 81 30 24 31 80 32 25 33 26 34
REMARK SMILES IDX 27 35 74 36 28 37 79 38 73 39 75 40 29 41 78 42 72 43 71 44
REMARK SMILES IDX 30 46 60 47 41 48 59 49 42 50 45 51 58 52 76 53 43 54 44 55
REMARK SMILES IDX 57 57 77 58 46 59 31 60 32 61 40 62 33 63 39 64 34 65 35 66
REMARK SMILES IDX 36 67 37 68 38 69 61 70 62 71 70 72 63 73 69 74 64 75 65 76
REMARK SMILES IDX 66 77 67 78 68 79 47 80 48 81 56 82 49 83 55 84 50 85 51 86
REMARK SMILES IDX 52 87 53 88 54 89
REMARK H PARENT 8 15 75 45 45 56
REMARK Flexibility Score: inf
ROOT
ATOM      1  C   UNL     1       2.633   7.836   6.276  1.00  0.00     0.275 C 
ENDROOT
BRANCH   1   2
ATOM      2  O   UNL     1       2.744   7.002   5.104  1.00  0.00    -0.458 OA
BRANCH   2   3
ATOM      3  C   UNL     1       1.593   6.432   4.670  1.00  0.00     0.338 C 
ATOM      4  O   UNL     1       0.493   6.526   5.195  1.00  0.00    -0.246 OA
BRANCH   3   5
ATOM      5  C   UNL     1       1.814   5.737   3.379  1.00  0.00     0.060 A 
ATOM      6  C   UNL     1       2.163   4.476   0.881  1.00  0.00    -0.029 A 
ATOM      7  C   UNL     1       0.929   5.043   1.224  1.00  0.00     0.006 A 
ATOM      8  C   UNL     1       3.220   4.559   1.805  1.00  0.00     0.006 A 
ATOM      9  C   UNL     1       0.749   5.637   2.475  1.00  0.00     0.016 A 
ATOM     10  C   UNL     1       3.052   5.186   3.043  1.00  0.00     0.016 A 
BRANCH   6  11
ATOM     11  C   UNL     1       2.342   3.833  -0.478  1.00  0.00     0.152 C 
BRANCH  11  12
ATOM     12  N   UNL     1       3.262   2.715  -0.423  1.00  0.00    -0.348 N 
ATOM     13  C   UNL     1       3.123   1.391  -0.178  1.00  0.00     0.251 C 
ATOM     14  O   UNL     1       4.170   0.737  -0.108  1.00  0.00    -0.269 OA
ATOM     15  H   UNL     1       4.194   2.976  -0.605  1.00  0.00     0.164 HD
BRANCH  13  16
ATOM     16  C   UNL     1       1.805   0.678  -0.070  1.00  0.00     0.046 A 
ATOM     17  C   UNL     1      -1.706  -1.726   0.062  1.00  0.00     0.153 C 
ATOM     18  N   UNL     1      -0.512  -0.897   0.044  1.00  0.00    -0.319 N 
ATOM     19  C   UNL     1       0.697  -1.483  -0.264  1.00  0.00     0.089 A 
ATOM     20  C   UNL     1      -0.615   0.455   0.354  1.00  0.00     0.251 A 
ATOM     21  C   UNL     1       1.817  -0.757  -0.330  1.00  0.00     0.032 A 
ATOM     22  C   UNL     1       0.650   1.239   0.317  1.00  0.00     0.085 A 
ATOM     23  O   UNL     1      -1.659   1.031   0.646  1.00  0.00    -0.269 OA
ENDBRANCH  13  16
ENDBRANCH  11  12
ENDBRANCH   6  11
ENDBRANCH   3   5
ENDBRANCH   2   3
ENDBRANCH   1   2
BRANCH   1  24
ATOM     24  C   UNL     1       2.615   9.313   5.886  1.00  0.00     0.275 C 
BRANCH  24  25
ATOM     25  O   UNL     1       1.423   9.601   5.134  1.00  0.00    -0.458 OA
BRANCH  25  26
ATOM     26  C   UNL     1       1.608  10.148   3.914  1.00  0.00     0.338 C 
ATOM     27  O   UNL     1       2.668  10.489   3.404  1.00  0.00    -0.246 OA
BRANCH  26  28
ATOM     28  C   UNL     1       0.312  10.281   3.232  1.00  0.00     0.060 A 
ATOM     29  C   UNL     1      -0.413   9.135   2.914  1.00  0.00     0.016 A 
ATOM     30  C   UNL     1      -0.134  11.530   2.804  1.00  0.00     0.016 A 
ATOM     31  C   UNL     1      -1.541   9.220   2.099  1.00  0.00     0.010 A 
ATOM     32  C   UNL     1      -1.319  11.623   2.064  1.00  0.00     0.010 A 
ATOM     33  C   UNL     1      -2.019  10.466   1.670  1.00  0.00    -0.014 A 
BRANCH  33  34
ATOM     34  C   UNL     1      -3.217  10.560   0.783  1.00  0.00     0.031 A 
ATOM     35  C   UNL     1      -3.114  11.237  -0.563  1.00  0.00     0.074 A 
ATOM     36  C   UNL     1      -4.403  10.044   1.170  1.00  0.00     0.049 A 
ATOM     37  N   UNL     1      -4.069  11.578  -1.392  1.00  0.00    -0.248 NA
ATOM     38  C   UNL     1      -1.764  11.592  -1.032  1.00  0.00     0.031 C 
ATOM     39  C   UNL     1      -4.654   9.331   2.425  1.00  0.00     0.029 A 
ATOM     40  N   UNL     1      -5.626  10.038   0.541  1.00  0.00    -0.354 N 
ATOM     41  C   UNL     1      -3.445  12.245  -2.441  1.00  0.00     0.074 A 
ATOM     42  C   UNL     1      -2.028  12.254  -2.151  1.00  0.00     0.031 C 
ATOM     43  C   UNL     1      -5.934   8.931   2.459  1.00  0.00     0.029 A 
ATOM     44  C   UNL     1      -6.621   9.431   1.273  1.00  0.00     0.049 A 
ATOM     45  H   UNL     1      -5.776  10.431  -0.349  1.00  0.00     0.167 HD
ATOM     46  C   UNL     1      -4.002  12.805  -3.543  1.00  0.00     0.031 A 
ATOM     47  C   UNL     1      -7.945   9.324   1.049  1.00  0.00     0.031 A 
ATOM     48  C   UNL     1      -5.403  12.742  -3.866  1.00  0.00     0.049 A 
ATOM     49  C   UNL     1      -8.539   9.953  -0.180  1.00  0.00     0.074 A 
ATOM     50  C   UNL     1      -6.051  13.253  -4.978  1.00  0.00     0.029 A 
ATOM     51  N   UNL     1      -6.369  12.120  -3.091  1.00  0.00    -0.354 N 
ATOM     52  N   UNL     1      -7.936  10.613  -1.139  1.00  0.00    -0.248 NA
ATOM     53  C   UNL     1      -9.995   9.837  -0.349  1.00  0.00     0.031 C 
ATOM     54  C   UNL     1      -7.416  12.971  -4.858  1.00  0.00     0.029 A 
ATOM     55  C   UNL     1      -7.609  12.246  -3.694  1.00  0.00     0.049 A 
ATOM     56  H   UNL     1      -6.199  11.658  -2.239  1.00  0.00     0.167 HD
ATOM     57  C   UNL     1      -8.938  10.987  -2.027  1.00  0.00     0.074 A 
ATOM     58  C   UNL     1     -10.181  10.458  -1.506  1.00  0.00     0.031 C 
ATOM     59  C   UNL     1      -8.838  11.713  -3.166  1.00  0.00     0.031 A 
BRANCH  46  60
ATOM     60  C   UNL     1      -3.103  13.574  -4.475  1.00  0.00    -0.014 A 
ATOM     61  C   UNL     1      -2.228  12.922  -5.361  1.00  0.00     0.010 A 
ATOM     62  C   UNL     1      -3.198  14.978  -4.514  1.00  0.00     0.010 A 
ATOM     63  C   UNL     1      -1.447  13.663  -6.253  1.00  0.00     0.020 A 
ATOM     64  C   UNL     1      -2.436  15.720  -5.420  1.00  0.00     0.020 A 
ATOM     65  C   UNL     1      -1.556  15.058  -6.277  1.00  0.00     0.054 A 
BRANCH  65  66
ATOM     66  S   UNL     1      -0.567  15.993  -7.477  1.00  0.00     0.124 S 
ATOM     67  O   UNL     1       0.765  15.936  -6.878  1.00  0.00    -0.237 OA
ATOM     68  O   UNL     1      -0.735  15.220  -8.705  1.00  0.00    -0.237 OA
ATOM     69  O   UNL     1      -1.190  17.314  -7.486  1.00  0.00    -0.744 OA
ENDBRANCH  65  66
ENDBRANCH  46  60
BRANCH  47  70
ATOM     70  C   UNL     1      -8.817   8.651   2.052  1.00  0.00    -0.014 A 
ATOM     71  C   UNL     1      -9.425   7.417   1.767  1.00  0.00     0.010 A 
ATOM     72  C   UNL     1      -9.039   9.250   3.306  1.00  0.00     0.010 A 
ATOM     73  C   UNL     1     -10.253   6.802   2.712  1.00  0.00     0.020 A 
ATOM     74  C   UNL     1      -9.840   8.624   4.263  1.00  0.00     0.020 A 
ATOM     75  C   UNL     1     -10.456   7.410   3.954  1.00  0.00     0.054 A 
BRANCH  75  76
ATOM     76  S   UNL     1     -11.492   6.577   5.189  1.00  0.00     0.124 S 
ATOM     77  O   UNL     1     -12.836   6.911   4.730  1.00  0.00    -0.237 OA
ATOM     78  O   UNL     1     -11.103   5.177   5.044  1.00  0.00    -0.237 OA
ATOM     79  O   UNL     1     -11.086   7.200   6.447  1.00  0.00    -0.744 OA
ENDBRANCH  75  76
ENDBRANCH  47  70
BRANCH  59  80
ATOM     80  C   UNL     1     -10.102  11.957  -3.943  1.00  0.00    -0.014 A 
ATOM     81  C   UNL     1     -11.052  12.895  -3.504  1.00  0.00     0.010 A 
ATOM     82  C   UNL     1     -10.318  11.271  -5.152  1.00  0.00     0.010 A 
ATOM     83  C   UNL     1     -12.213  13.123  -4.247  1.00  0.00     0.020 A 
ATOM     84  C   UNL     1     -11.467  11.513  -5.909  1.00  0.00     0.020 A 
ATOM     85  C   UNL     1     -12.415  12.428  -5.444  1.00  0.00     0.054 A 
BRANCH  85  86
ATOM     86  S   UNL     1     -13.909  12.769  -6.415  1.00  0.00     0.124 S 
ATOM     87  O   UNL     1     -14.930  12.042  -5.665  1.00  0.00    -0.237 OA
ATOM     88  O   UNL     1     -14.007  14.226  -6.358  1.00  0.00    -0.237 OA
ATOM     89  O   UNL     1     -13.596  12.224  -7.734  1.00  0.00    -0.744 OA
ENDBRANCH  85  86
ENDBRANCH  59  80
ENDBRANCH  33  34
ENDBRANCH  26  28
ENDBRANCH  25  26
ENDBRANCH  24  25
ENDBRANCH   1  24
TORSDOF 17
