REMARK SMILES O=C(N[C@@H](Cc1c[nH]c2ccccc12)C(=O)N[C@@H](CS)C(=O)N[C@@H](CO)C(=O)OCCOC(=O)c1ccc(-c2c3nc(c(-c4ccc(S(=O)(=O)[O-])cc4)c4ccc([nH]4)c(-c4ccc(S(=O)(=O)[O-])cc4)c4nc(c(-c5ccc(S(=O)(=O)[O-])cc5)c5ccc2[nH]5)C=C4)C=C3)cc1)c1ccc(F)cc1
REMARK SMILES IDX 29 1 27 2 28 3 24 4 23 5 21 6 22 7 18 9 17 10 15 11 16 12
REMARK SMILES IDX 4 14 3 15 1 16 2 17 95 19 96 20 101 21 97 22 100 23 98 24
REMARK SMILES IDX 99 25 5 26 6 27 7 28 14 29 8 30 9 31 13 32 10 34 12 35 11 36
REMARK SMILES IDX 19 37 20 38 25 40 26 41 30 43 31 44 32 45 33 46 34 47 35 48
REMARK SMILES IDX 36 49 94 50 37 51 93 52 38 53 39 54 40 55 87 56 41 57 92 58
REMARK SMILES IDX 86 59 88 60 42 61 91 62 85 63 84 64 43 66 73 67 54 68 72 69
REMARK SMILES IDX 55 70 58 71 71 72 89 73 56 74 57 75 70 77 90 78 59 79 44 80
REMARK SMILES IDX 45 81 53 82 46 83 52 84 47 85 48 86 49 87 50 88 51 89 74 90
REMARK SMILES IDX 75 91 83 92 76 93 82 94 77 95 78 96 79 97 80 98 81 99 60 100
REMARK SMILES IDX 61 101 69 102 62 103 68 104 63 105 64 106 65 107 66 108
REMARK SMILES IDX 67 109
REMARK H PARENT 23 8 17 13 3 18 8 33 20 39 26 42 88 65 58 76
REMARK Flexibility Score: inf
ROOT
ATOM      1  O   UNL     1       4.216  -7.885   4.391  1.00  0.00    -0.460 OA
ENDROOT
BRANCH   1   2
ATOM      2  C   UNL     1       4.623  -7.997   3.094  1.00  0.00     0.331 C 
ATOM      3  O   UNL     1       4.467  -8.990   2.393  1.00  0.00    -0.250 OA
BRANCH   2   4
ATOM      4  C   UNL     1       5.402  -6.762   2.628  1.00  0.00     0.218 C 
BRANCH   4   5
ATOM      5  N   UNL     1       5.251  -5.592   3.521  1.00  0.00    -0.339 N 
ATOM      6  C   UNL     1       5.680  -4.358   3.115  1.00  0.00     0.244 C 
ATOM      7  O   UNL     1       6.858  -4.065   3.340  1.00  0.00    -0.273 OA
ATOM      8  H   UNL     1       4.839  -5.702   4.408  1.00  0.00     0.164 HD
BRANCH   6   9
ATOM      9  C   UNL     1       4.670  -3.364   2.456  1.00  0.00     0.181 C 
BRANCH   9  10
ATOM     10  N   UNL     1       5.305  -2.758   1.284  1.00  0.00    -0.342 N 
ATOM     11  C   UNL     1       5.475  -1.474   0.880  1.00  0.00     0.243 C 
ATOM     12  O   UNL     1       6.278  -1.315  -0.050  1.00  0.00    -0.273 OA
ATOM     13  H   UNL     1       5.687  -3.417   0.661  1.00  0.00     0.164 HD
BRANCH  11  14
ATOM     14  C   UNL     1       4.731  -0.243   1.458  1.00  0.00     0.176 C 
BRANCH  14  15
ATOM     15  N   UNL     1       3.278  -0.367   1.336  1.00  0.00    -0.340 N 
ATOM     16  O   UNL     1       1.240  -0.034   0.437  1.00  0.00    -0.269 OA
ATOM     17  C   UNL     1       2.450   0.154   0.363  1.00  0.00     0.251 C 
ATOM     18  H   UNL     1       2.834  -0.892   2.041  1.00  0.00     0.164 HD
BRANCH  17  19
ATOM     19  C   UNL     1       2.992   1.018  -0.716  1.00  0.00     0.040 A 
ATOM     20  C   UNL     1       3.931   0.548  -1.643  1.00  0.00     0.017 A 
ATOM     21  C   UNL     1       2.541   2.344  -0.790  1.00  0.00     0.017 A 
ATOM     22  C   UNL     1       4.476   1.426  -2.586  1.00  0.00     0.040 A 
ATOM     23  C   UNL     1       3.083   3.215  -1.739  1.00  0.00     0.040 A 
ATOM     24  C   UNL     1       4.058   2.753  -2.617  1.00  0.00     0.123 A 
ATOM     25  F   UNL     1       4.605   3.598  -3.502  1.00  0.00    -0.207 F 
ENDBRANCH  17  19
ENDBRANCH  14  15
BRANCH  14  26
ATOM     26  C   UNL     1       5.236   0.382   2.773  1.00  0.00     0.072 C 
BRANCH  26  27
ATOM     27  C   UNL     1       5.023  -0.355   4.059  1.00  0.00    -0.020 A 
ATOM     28  C   UNL     1       5.924  -1.232   4.636  1.00  0.00     0.087 A 
ATOM     29  C   UNL     1       3.926  -0.245   4.980  1.00  0.00     0.003 A 
ATOM     30  N   UNL     1       5.340  -1.793   5.739  1.00  0.00    -0.361 N 
ATOM     31  C   UNL     1       4.125  -1.201   5.980  1.00  0.00     0.046 A 
ATOM     32  C   UNL     1       2.779   0.572   5.063  1.00  0.00     0.010 A 
ATOM     33  H   UNL     1       5.734  -2.515   6.280  1.00  0.00     0.166 HD
ATOM     34  C   UNL     1       3.207  -1.429   7.013  1.00  0.00     0.026 A 
ATOM     35  C   UNL     1       1.884   0.401   6.128  1.00  0.00     0.001 A 
ATOM     36  C   UNL     1       2.086  -0.598   7.077  1.00  0.00     0.002 A 
ENDBRANCH  26  27
ENDBRANCH  14  26
ENDBRANCH  11  14
ENDBRANCH   9  10
BRANCH   9  37
ATOM     37  C   UNL     1       3.249  -3.871   2.233  1.00  0.00     0.101 C 
BRANCH  37  38
ATOM     38  S   UNL     1       3.109  -4.851   0.717  1.00  0.00    -0.177 SA
ATOM     39  H   UNL     1       3.434  -4.078  -0.354  1.00  0.00     0.102 HD
ENDBRANCH  37  38
ENDBRANCH   9  37
ENDBRANCH   6   9
ENDBRANCH   4   5
BRANCH   4  40
ATOM     40  C   UNL     1       6.881  -7.169   2.485  1.00  0.00     0.193 C 
BRANCH  40  41
ATOM     41  O   UNL     1       7.545  -7.123   3.753  1.00  0.00    -0.394 OA
ATOM     42  H   UNL     1       7.510  -6.219   4.104  1.00  0.00     0.210 HD
ENDBRANCH  40  41
ENDBRANCH   4  40
ENDBRANCH   2   4
ENDBRANCH   1   2
BRANCH   1  43
ATOM     43  C   UNL     1       3.533  -9.027   4.950  1.00  0.00     0.274 C 
BRANCH  43  44
ATOM     44  C   UNL     1       2.158  -8.597   5.451  1.00  0.00     0.275 C 
BRANCH  44  45
ATOM     45  O   UNL     1       1.381  -8.178   4.319  1.00  0.00    -0.458 OA
BRANCH  45  46
ATOM     46  C   UNL     1       0.483  -7.185   4.537  1.00  0.00     0.338 C 
ATOM     47  O   UNL     1       0.189  -6.708   5.619  1.00  0.00    -0.246 OA
BRANCH  46  48
ATOM     48  C   UNL     1      -0.054  -6.700   3.237  1.00  0.00     0.060 A 
ATOM     49  C   UNL     1       0.601  -6.989   2.045  1.00  0.00     0.016 A 
ATOM     50  C   UNL     1      -1.168  -5.855   3.205  1.00  0.00     0.016 A 
ATOM     51  C   UNL     1       0.202  -6.360   0.862  1.00  0.00     0.010 A 
ATOM     52  C   UNL     1      -1.615  -5.305   1.987  1.00  0.00     0.010 A 
ATOM     53  C   UNL     1      -0.913  -5.511   0.786  1.00  0.00    -0.014 A 
BRANCH  53  54
ATOM     54  C   UNL     1      -1.299  -4.821  -0.501  1.00  0.00     0.031 A 
ATOM     55  C   UNL     1      -1.735  -3.365  -0.510  1.00  0.00     0.074 A 
ATOM     56  C   UNL     1      -1.236  -5.440  -1.704  1.00  0.00     0.049 A 
ATOM     57  N   UNL     1      -2.428  -2.711  -1.413  1.00  0.00    -0.248 NA
ATOM     58  C   UNL     1      -1.355  -2.545   0.649  1.00  0.00     0.031 C 
ATOM     59  C   UNL     1      -0.747  -6.797  -1.956  1.00  0.00     0.029 A 
ATOM     60  N   UNL     1      -1.573  -4.989  -2.964  1.00  0.00    -0.354 N 
ATOM     61  C   UNL     1      -2.652  -1.440  -0.884  1.00  0.00     0.074 A 
ATOM     62  C   UNL     1      -1.998  -1.410   0.407  1.00  0.00     0.031 C 
ATOM     63  C   UNL     1      -0.707  -7.023  -3.274  1.00  0.00     0.029 A 
ATOM     64  C   UNL     1      -1.368  -5.920  -3.955  1.00  0.00     0.049 A 
ATOM     65  H   UNL     1      -1.926  -4.086  -3.136  1.00  0.00     0.167 HD
ATOM     66  C   UNL     1      -3.352  -0.406  -1.417  1.00  0.00     0.031 A 
ATOM     67  C   UNL     1      -1.755  -5.968  -5.246  1.00  0.00     0.031 A 
ATOM     68  C   UNL     1      -3.908  -0.403  -2.749  1.00  0.00     0.049 A 
ATOM     69  C   UNL     1      -2.624  -4.880  -5.793  1.00  0.00     0.074 A 
ATOM     70  C   UNL     1      -4.622   0.600  -3.387  1.00  0.00     0.029 A 
ATOM     71  N   UNL     1      -3.783  -1.437  -3.663  1.00  0.00    -0.354 N 
ATOM     72  N   UNL     1      -3.002  -3.767  -5.218  1.00  0.00    -0.248 NA
ATOM     73  C   UNL     1      -3.167  -5.086  -7.142  1.00  0.00     0.031 C 
ATOM     74  C   UNL     1      -4.971   0.151  -4.666  1.00  0.00     0.029 A 
ATOM     75  C   UNL     1      -4.427  -1.110  -4.846  1.00  0.00     0.049 A 
ATOM     76  H   UNL     1      -3.305  -2.282  -3.496  1.00  0.00     0.167 HD
ATOM     77  C   UNL     1      -3.834  -3.136  -6.134  1.00  0.00     0.074 A 
ATOM     78  C   UNL     1      -3.886  -3.984  -7.309  1.00  0.00     0.031 C 
ATOM     79  C   UNL     1      -4.496  -1.961  -6.005  1.00  0.00     0.031 A 
BRANCH  66  80
ATOM     80  C   UNL     1      -3.637   0.790  -0.537  1.00  0.00    -0.014 A 
ATOM     81  C   UNL     1      -2.647   1.718  -0.170  1.00  0.00     0.010 A 
ATOM     82  C   UNL     1      -4.963   1.009  -0.108  1.00  0.00     0.010 A 
ATOM     83  C   UNL     1      -2.969   2.813   0.643  1.00  0.00     0.020 A 
ATOM     84  C   UNL     1      -5.294   2.115   0.680  1.00  0.00     0.020 A 
ATOM     85  C   UNL     1      -4.289   3.000   1.070  1.00  0.00     0.054 A 
BRANCH  85  86
ATOM     86  S   UNL     1      -4.682   4.424   2.126  1.00  0.00     0.124 S 
ATOM     87  O   UNL     1      -4.127   4.009   3.412  1.00  0.00    -0.237 OA
ATOM     88  O   UNL     1      -3.979   5.521   1.465  1.00  0.00    -0.237 OA
ATOM     89  O   UNL     1      -6.140   4.504   2.075  1.00  0.00    -0.744 OA
ENDBRANCH  85  86
ENDBRANCH  66  80
BRANCH  67  90
ATOM     90  C   UNL     1      -1.429  -7.176  -6.056  1.00  0.00    -0.014 A 
ATOM     91  C   UNL     1      -0.475  -7.112  -7.083  1.00  0.00     0.010 A 
ATOM     92  C   UNL     1      -2.009  -8.419  -5.733  1.00  0.00     0.010 A 
ATOM     93  C   UNL     1      -0.074  -8.278  -7.744  1.00  0.00     0.020 A 
ATOM     94  C   UNL     1      -1.584  -9.589  -6.364  1.00  0.00     0.020 A 
ATOM     95  C   UNL     1      -0.616  -9.511  -7.365  1.00  0.00     0.054 A 
BRANCH  95  96
ATOM     96  S   UNL     1       0.026 -11.027  -8.128  1.00  0.00     0.124 S 
ATOM     97  O   UNL     1      -0.637 -11.018  -9.428  1.00  0.00    -0.237 OA
ATOM     98  O   UNL     1       1.467 -10.788  -8.149  1.00  0.00    -0.237 OA
ATOM     99  O   UNL     1      -0.407 -12.079  -7.210  1.00  0.00    -0.744 OA
ENDBRANCH  95  96
ENDBRANCH  67  90
BRANCH  79 100
ATOM    100  C   UNL     1      -5.315  -1.509  -7.182  1.00  0.00    -0.014 A 
ATOM    101  C   UNL     1      -6.555  -2.104  -7.473  1.00  0.00     0.010 A 
ATOM    102  C   UNL     1      -4.841  -0.469  -8.001  1.00  0.00     0.010 A 
ATOM    103  C   UNL     1      -7.294  -1.687  -8.583  1.00  0.00     0.020 A 
ATOM    104  C   UNL     1      -5.588  -0.035  -9.099  1.00  0.00     0.020 A 
ATOM    105  C   UNL     1      -6.803  -0.657  -9.392  1.00  0.00     0.054 A 
BRANCH 105 106
ATOM    106  S   UNL     1      -7.791  -0.116 -10.814  1.00  0.00     0.124 S 
ATOM    107  O   UNL     1      -7.582  -1.208 -11.762  1.00  0.00    -0.237 OA
ATOM    108  O   UNL     1      -9.136  -0.020 -10.253  1.00  0.00    -0.237 OA
ATOM    109  O   UNL     1      -7.186   1.160 -11.190  1.00  0.00    -0.744 OA
ENDBRANCH 105 106
ENDBRANCH  79 100
ENDBRANCH  53  54
ENDBRANCH  46  48
ENDBRANCH  45  46
ENDBRANCH  44  45
ENDBRANCH  43  44
ENDBRANCH   1  43
TORSDOF 26
