REMARK SMILES NC(=O)CC[C@@H](C(=O)OCCOC(=O)c1ccc(-c2c3nc(c(-c4ccc(S(=O)(=O)[O-])cc4)c4ccc([nH]4)c(-c4ccc(S(=O)(=O)[O-])cc4)c4nc(c(-c5ccc(S(=O)(=O)[O-])cc5)c5ccc2[nH]5)C=C4)C=C3)cc1)N1C(=O)/C(=C\c2ccc(-c3ccc(Br)cc3)o2)SC1=S
REMARK SMILES IDX 10 1 9 2 7 3 8 4 6 5 5 6 4 7 2 8 1 9 3 12 75 13 76 14 93 15
REMARK SMILES IDX 77 16 78 17 92 18 94 19 79 20 80 21 81 22 91 23 82 24 83 25
REMARK SMILES IDX 84 26 85 27 90 28 86 29 89 30 87 31 88 32 11 33 12 34 13 35
REMARK SMILES IDX 14 36 15 37 16 38 74 39 17 40 73 41 18 42 19 43 20 44 67 45
REMARK SMILES IDX 21 46 72 47 66 48 68 49 22 50 71 51 65 52 64 53 23 55 53 56
REMARK SMILES IDX 34 57 52 58 35 59 38 60 51 61 69 62 36 63 37 64 50 66 70 67
REMARK SMILES IDX 39 68 24 69 25 70 33 71 26 72 32 73 27 74 28 75 29 76 30 77
REMARK SMILES IDX 31 78 54 79 55 80 63 81 56 82 62 83 57 84 58 85 59 86 60 87
REMARK SMILES IDX 61 88 40 89 41 90 49 91 42 92 48 93 43 94 44 95 45 96 46 97
REMARK SMILES IDX 47 98
REMARK H PARENT 1 10 1 11 68 54 38 65
REMARK Flexibility Score: inf
ROOT
ATOM      1  C   UNL     1       4.420   1.508   2.177  1.00  0.00     0.274 C 
ENDROOT
BRANCH   1   2
ATOM      2  O   UNL     1       3.349   0.632   1.750  1.00  0.00    -0.461 OA
BRANCH   2   3
ATOM      3  C   UNL     1       3.742  -0.587   1.290  1.00  0.00     0.329 C 
ATOM      4  O   UNL     1       4.914  -0.938   1.278  1.00  0.00    -0.250 OA
BRANCH   3   5
ATOM      5  C   UNL     1       2.586  -1.436   0.710  1.00  0.00     0.202 C 
BRANCH   5   6
ATOM      6  C   UNL     1       1.496  -1.692   1.765  1.00  0.00     0.047 C 
BRANCH   6   7
ATOM      7  C   UNL     1       0.643  -0.495   2.199  1.00  0.00     0.102 C 
BRANCH   7   8
ATOM      8  C   UNL     1      -0.200   0.027   1.062  1.00  0.00     0.217 C 
ATOM      9  N   UNL     1       0.387   0.984   0.293  1.00  0.00    -0.370 N 
ATOM     10  H   UNL     1      -0.103   1.373  -0.468  1.00  0.00     0.159 HD
ATOM     11  H   UNL     1       1.300   1.288   0.497  1.00  0.00     0.159 HD
ATOM     12  O   UNL     1      -1.319  -0.399   0.802  1.00  0.00    -0.275 OA
ENDBRANCH   7   8
ENDBRANCH   6   7
ENDBRANCH   5   6
BRANCH   5  13
ATOM     13  N   UNL     1       3.237  -2.640   0.081  1.00  0.00    -0.278 N 
ATOM     14  C   UNL     1       4.145  -2.334  -0.936  1.00  0.00     0.267 C 
ATOM     15  C   UNL     1       3.096  -3.995   0.320  1.00  0.00     0.149 C 
ATOM     16  O   UNL     1       4.213  -1.257  -1.518  1.00  0.00    -0.268 OA
ATOM     17  C   UNL     1       5.000  -3.506  -1.231  1.00  0.00     0.084 C 
ATOM     18  S   UNL     1       4.129  -4.918  -0.790  1.00  0.00    -0.054 SA
ATOM     19  S   UNL     1       2.165  -4.827   1.425  1.00  0.00    -0.052 S 
ATOM     20  C   UNL     1       6.291  -3.522  -1.583  1.00  0.00     0.068 C 
BRANCH  20  21
ATOM     21  C   UNL     1       7.125  -2.373  -1.530  1.00  0.00     0.128 A 
ATOM     22  C   UNL     1       7.399  -1.547  -0.444  1.00  0.00     0.051 A 
ATOM     23  O   UNL     1       7.955  -1.989  -2.554  1.00  0.00    -0.457 OA
ATOM     24  C   UNL     1       8.436  -0.664  -0.807  1.00  0.00     0.051 A 
ATOM     25  C   UNL     1       8.739  -0.966  -2.112  1.00  0.00     0.134 A 
BRANCH  25  26
ATOM     26  C   UNL     1       9.698  -0.434  -3.058  1.00  0.00     0.017 A 
ATOM     27  C   UNL     1      11.021  -0.180  -2.668  1.00  0.00     0.013 A 
ATOM     28  C   UNL     1       9.296  -0.123  -4.361  1.00  0.00     0.013 A 
ATOM     29  C   UNL     1      11.921   0.398  -3.566  1.00  0.00     0.016 A 
ATOM     30  C   UNL     1      10.190   0.465  -5.256  1.00  0.00     0.016 A 
ATOM     31  C   UNL     1      11.496   0.731  -4.851  1.00  0.00     0.018 A 
ATOM     32  Br  UNL     1      12.691   1.583  -6.043  1.00  0.00    -0.051 Br
ENDBRANCH  25  26
ENDBRANCH  20  21
ENDBRANCH   5  13
ENDBRANCH   3   5
ENDBRANCH   2   3
ENDBRANCH   1   2
BRANCH   1  33
ATOM     33  C   UNL     1       4.911   1.249   3.612  1.00  0.00     0.275 C 
BRANCH  33  34
ATOM     34  O   UNL     1       5.845   0.151   3.685  1.00  0.00    -0.458 OA
BRANCH  34  35
ATOM     35  C   UNL     1       5.306  -1.056   3.997  1.00  0.00     0.338 C 
ATOM     36  O   UNL     1       4.145  -1.254   4.325  1.00  0.00    -0.246 OA
BRANCH  35  37
ATOM     37  C   UNL     1       6.251  -2.148   3.643  1.00  0.00     0.060 A 
ATOM     38  C   UNL     1       5.704  -3.285   3.035  1.00  0.00     0.016 A 
ATOM     39  C   UNL     1       7.634  -2.059   3.826  1.00  0.00     0.016 A 
ATOM     40  C   UNL     1       6.529  -4.308   2.572  1.00  0.00     0.010 A 
ATOM     41  C   UNL     1       8.462  -3.112   3.404  1.00  0.00     0.010 A 
ATOM     42  C   UNL     1       7.914  -4.239   2.768  1.00  0.00    -0.014 A 
BRANCH  42  43
ATOM     43  C   UNL     1       8.743  -5.402   2.360  1.00  0.00     0.031 A 
ATOM     44  C   UNL     1       8.741  -6.634   3.212  1.00  0.00     0.074 A 
ATOM     45  C   UNL     1       9.412  -5.398   1.192  1.00  0.00     0.049 A 
ATOM     46  N   UNL     1       9.306  -7.790   2.988  1.00  0.00    -0.248 NA
ATOM     47  C   UNL     1       8.011  -6.546   4.485  1.00  0.00     0.031 C 
ATOM     48  C   UNL     1       9.470  -4.268   0.279  1.00  0.00     0.029 A 
ATOM     49  N   UNL     1      10.126  -6.378   0.550  1.00  0.00    -0.354 N 
ATOM     50  C   UNL     1       9.024  -8.565   4.104  1.00  0.00     0.074 A 
ATOM     51  C   UNL     1       8.216  -7.753   4.990  1.00  0.00     0.031 C 
ATOM     52  C   UNL     1      10.096  -4.636  -0.850  1.00  0.00     0.029 A 
ATOM     53  C   UNL     1      10.556  -6.013  -0.707  1.00  0.00     0.049 A 
ATOM     54  H   UNL     1      10.314  -7.258   0.950  1.00  0.00     0.167 HD
ATOM     55  C   UNL     1       9.440  -9.822   4.385  1.00  0.00     0.031 A 
ATOM     56  C   UNL     1      11.252  -6.705  -1.631  1.00  0.00     0.031 A 
ATOM     57  C   UNL     1      10.304 -10.595   3.536  1.00  0.00     0.049 A 
ATOM     58  C   UNL     1      11.712  -8.097  -1.294  1.00  0.00     0.074 A 
ATOM     59  C   UNL     1      10.845 -11.848   3.766  1.00  0.00     0.029 A 
ATOM     60  N   UNL     1      10.773 -10.179   2.297  1.00  0.00    -0.354 N 
ATOM     61  N   UNL     1      11.458  -8.807  -0.220  1.00  0.00    -0.248 NA
ATOM     62  C   UNL     1      12.581  -8.767  -2.270  1.00  0.00     0.031 C 
ATOM     63  C   UNL     1      11.681 -12.166   2.689  1.00  0.00     0.029 A 
ATOM     64  C   UNL     1      11.617 -11.137   1.762  1.00  0.00     0.049 A 
ATOM     65  H   UNL     1      10.538  -9.327   1.863  1.00  0.00     0.167 HD
ATOM     66  C   UNL     1      12.160  -9.996  -0.377  1.00  0.00     0.074 A 
ATOM     67  C   UNL     1      12.808  -9.930  -1.672  1.00  0.00     0.031 C 
ATOM     68  C   UNL     1      12.277 -11.038   0.484  1.00  0.00     0.031 A 
BRANCH  55  69
ATOM     69  C   UNL     1       9.049 -10.364   5.731  1.00  0.00    -0.014 A 
ATOM     70  C   UNL     1       7.734 -10.781   6.002  1.00  0.00     0.010 A 
ATOM     71  C   UNL     1      10.006 -10.386   6.762  1.00  0.00     0.010 A 
ATOM     72  C   UNL     1       7.367 -11.149   7.300  1.00  0.00     0.020 A 
ATOM     73  C   UNL     1       9.647 -10.774   8.054  1.00  0.00     0.020 A 
ATOM     74  C   UNL     1       8.322 -11.124   8.321  1.00  0.00     0.054 A 
BRANCH  74  75
ATOM     75  S   UNL     1       7.814 -11.546  10.010  1.00  0.00     0.124 S 
ATOM     76  O   UNL     1       7.131 -10.325  10.430  1.00  0.00    -0.237 OA
ATOM     77  O   UNL     1       6.955 -12.710   9.809  1.00  0.00    -0.237 OA
ATOM     78  O   UNL     1       9.077 -11.819  10.692  1.00  0.00    -0.744 OA
ENDBRANCH  74  75
ENDBRANCH  55  69
BRANCH  56  79
ATOM     79  C   UNL     1      11.588  -6.076  -2.941  1.00  0.00    -0.014 A 
ATOM     80  C   UNL     1      11.003  -6.542  -4.132  1.00  0.00     0.010 A 
ATOM     81  C   UNL     1      12.473  -4.983  -3.002  1.00  0.00     0.010 A 
ATOM     82  C   UNL     1      11.293  -5.926  -5.355  1.00  0.00     0.020 A 
ATOM     83  C   UNL     1      12.742  -4.346  -4.217  1.00  0.00     0.020 A 
ATOM     84  C   UNL     1      12.155  -4.826  -5.389  1.00  0.00     0.054 A 
BRANCH  84  85
ATOM     85  S   UNL     1      12.463  -3.992  -6.972  1.00  0.00     0.124 S 
ATOM     86  O   UNL     1      13.407  -4.902  -7.614  1.00  0.00    -0.237 OA
ATOM     87  O   UNL     1      11.132  -3.937  -7.571  1.00  0.00    -0.237 OA
ATOM     88  O   UNL     1      13.014  -2.699  -6.574  1.00  0.00    -0.744 OA
ENDBRANCH  84  85
ENDBRANCH  56  79
BRANCH  68  89
ATOM     89  C   UNL     1      13.168 -12.177   0.067  1.00  0.00    -0.014 A 
ATOM     90  C   UNL     1      14.568 -12.042   0.098  1.00  0.00     0.010 A 
ATOM     91  C   UNL     1      12.604 -13.412  -0.297  1.00  0.00     0.010 A 
ATOM     92  C   UNL     1      15.389 -13.117  -0.249  1.00  0.00     0.020 A 
ATOM     93  C   UNL     1      13.423 -14.496  -0.625  1.00  0.00     0.020 A 
ATOM     94  C   UNL     1      14.811 -14.338  -0.610  1.00  0.00     0.054 A 
BRANCH  94  95
ATOM     95  S   UNL     1      15.897 -15.736  -1.007  1.00  0.00     0.124 S 
ATOM     96  O   UNL     1      16.357 -15.392  -2.349  1.00  0.00    -0.237 OA
ATOM     97  O   UNL     1      16.911 -15.666   0.042  1.00  0.00    -0.237 OA
ATOM     98  O   UNL     1      15.010 -16.895  -0.929  1.00  0.00    -0.744 OA
ENDBRANCH  94  95
ENDBRANCH  68  89
ENDBRANCH  42  43
ENDBRANCH  35  37
ENDBRANCH  34  35
ENDBRANCH  33  34
ENDBRANCH   1  33
TORSDOF 20
