REMARK SMILES C[NH+](C)[C@H]1CCN(C(=O)C(=O)c2ccccc2)C[C@H]1CCC(=O)OCCOC(=O)c1ccc(-c2c3nc(c(-c4ccc(S(=O)(=O)[O-])cc4)c4ccc([nH]4)c(-c4ccc(S(=O)(=O)[O-])cc4)c4nc(c(-c5ccc(S(=O)(=O)[O-])cc5)c5ccc2[nH]5)C=C4)C=C3)cc1
REMARK SMILES IDX 25 1 24 2 22 3 23 4 21 5 20 6 19 7 4 8 5 9 6 10 18 11 7 12
REMARK SMILES IDX 2 13 1 14 3 15 8 17 9 18 10 19 11 20 12 21 13 22 17 23 14 24
REMARK SMILES IDX 16 25 15 26 26 27 27 28 28 29 29 30 30 31 31 32 89 33 32 34
REMARK SMILES IDX 88 35 33 36 34 37 35 38 82 39 36 40 87 41 81 42 83 43 37 44
REMARK SMILES IDX 86 45 80 46 79 47 38 49 68 50 49 51 67 52 50 53 53 54 66 55
REMARK SMILES IDX 84 56 51 57 52 58 65 60 85 61 54 62 39 63 40 64 48 65 41 66
REMARK SMILES IDX 47 67 42 68 43 69 44 70 45 71 46 72 69 73 70 74 78 75 71 76
REMARK SMILES IDX 77 77 72 78 73 79 74 80 75 81 76 82 55 83 56 84 64 85 57 86
REMARK SMILES IDX 63 87 58 88 59 89 60 90 61 91 62 92
REMARK H PARENT 2 16 83 48 53 59
REMARK Flexibility Score: inf
ROOT
ATOM      1  C   UNL     1       4.181  -4.607  -0.567  1.00  0.00     0.274 C 
ENDROOT
BRANCH   1   2
ATOM      2  O   UNL     1       3.369  -3.929  -1.543  1.00  0.00    -0.462 OA
BRANCH   2   3
ATOM      3  C   UNL     1       3.961  -2.965  -2.293  1.00  0.00     0.305 C 
ATOM      4  O   UNL     1       5.135  -2.628  -2.188  1.00  0.00    -0.252 OA
BRANCH   3   5
ATOM      5  C   UNL     1       3.038  -2.369  -3.338  1.00  0.00     0.123 C 
BRANCH   5   6
ATOM      6  C   UNL     1       1.592  -2.864  -3.362  1.00  0.00     0.023 C 
BRANCH   6   7
ATOM      7  C   UNL     1       0.696  -2.591  -2.122  1.00  0.00     0.067 C 
ATOM      8  C   UNL     1       0.614  -1.105  -1.649  1.00  0.00     0.190 C 
ATOM      9  C   UNL     1      -0.128  -0.283  -2.723  1.00  0.00     0.087 C 
ATOM     10  C   UNL     1      -1.508  -0.867  -2.999  1.00  0.00     0.126 C 
ATOM     11  C   UNL     1      -0.719  -3.138  -2.430  1.00  0.00     0.129 C 
ATOM     12  N   UNL     1      -1.456  -2.276  -3.356  1.00  0.00    -0.335 N 
BRANCH   8  13
ATOM     13  N   UNL     1       1.952  -0.595  -1.277  1.00  0.00    -0.337 N 
ATOM     14  C   UNL     1       2.366  -0.998   0.068  1.00  0.00     0.332 C 
ATOM     15  C   UNL     1       2.181   0.835  -1.462  1.00  0.00     0.332 C 
ATOM     16  H   UNL     1       2.546  -1.056  -1.967  1.00  0.00     0.347 HD
ENDBRANCH   8  13
BRANCH  12  17
ATOM     17  C   UNL     1      -2.268  -2.713  -4.412  1.00  0.00     0.294 C 
ATOM     18  O   UNL     1      -2.886  -1.934  -5.136  1.00  0.00    -0.265 OA
BRANCH  17  19
ATOM     19  C   UNL     1      -2.469  -4.214  -4.659  1.00  0.00     0.250 C 
ATOM     20  O   UNL     1      -2.570  -4.976  -3.702  1.00  0.00    -0.283 OA
BRANCH  19  21
ATOM     21  C   UNL     1      -2.702  -4.711  -6.048  1.00  0.00     0.028 A 
ATOM     22  C   UNL     1      -3.365  -5.939  -6.206  1.00  0.00     0.012 A 
ATOM     23  C   UNL     1      -2.333  -3.986  -7.188  1.00  0.00     0.012 A 
ATOM     24  C   UNL     1      -3.693  -6.410  -7.480  1.00  0.00     0.001 A 
ATOM     25  C   UNL     1      -2.663  -4.462  -8.462  1.00  0.00     0.001 A 
ATOM     26  C   UNL     1      -3.350  -5.666  -8.607  1.00  0.00     0.000 A 
ENDBRANCH  19  21
ENDBRANCH  17  19
ENDBRANCH  12  17
ENDBRANCH   6   7
ENDBRANCH   5   6
ENDBRANCH   3   5
ENDBRANCH   2   3
ENDBRANCH   1   2
BRANCH   1  27
ATOM     27  C   UNL     1       4.106  -6.118  -0.790  1.00  0.00     0.275 C 
BRANCH  27  28
ATOM     28  O   UNL     1       4.709  -6.458  -2.051  1.00  0.00    -0.458 OA
BRANCH  28  29
ATOM     29  C   UNL     1       3.849  -6.543  -3.090  1.00  0.00     0.338 C 
ATOM     30  O   UNL     1       2.627  -6.490  -3.057  1.00  0.00    -0.246 OA
BRANCH  29  31
ATOM     31  C   UNL     1       4.620  -6.541  -4.335  1.00  0.00     0.060 A 
ATOM     32  C   UNL     1       4.704  -5.342  -5.043  1.00  0.00     0.016 A 
ATOM     33  C   UNL     1       5.200  -7.704  -4.836  1.00  0.00     0.016 A 
ATOM     34  C   UNL     1       5.348  -5.292  -6.271  1.00  0.00     0.010 A 
ATOM     35  C   UNL     1       5.868  -7.651  -6.062  1.00  0.00     0.010 A 
ATOM     36  C   UNL     1       5.934  -6.449  -6.793  1.00  0.00    -0.014 A 
BRANCH  36  37
ATOM     37  C   UNL     1       6.567  -6.415  -8.131  1.00  0.00     0.031 A 
ATOM     38  C   UNL     1       5.912  -7.138  -9.273  1.00  0.00     0.074 A 
ATOM     39  C   UNL     1       7.713  -5.735  -8.318  1.00  0.00     0.049 A 
ATOM     40  N   UNL     1       6.374  -7.374 -10.472  1.00  0.00    -0.248 NA
ATOM     41  C   UNL     1       4.562  -7.671  -9.029  1.00  0.00     0.031 C 
ATOM     42  C   UNL     1       8.404  -4.941  -7.300  1.00  0.00     0.029 A 
ATOM     43  N   UNL     1       8.505  -5.611  -9.431  1.00  0.00    -0.354 N 
ATOM     44  C   UNL     1       5.394  -8.124 -11.111  1.00  0.00     0.074 A 
ATOM     45  C   UNL     1       4.310  -8.300 -10.169  1.00  0.00     0.031 C 
ATOM     46  C   UNL     1       9.517  -4.414  -7.835  1.00  0.00     0.029 A 
ATOM     47  C   UNL     1       9.650  -4.884  -9.210  1.00  0.00     0.049 A 
ATOM     48  H   UNL     1       8.275  -6.005 -10.304  1.00  0.00     0.167 HD
ATOM     49  C   UNL     1       5.407  -8.628 -12.368  1.00  0.00     0.031 A 
ATOM     50  C   UNL     1      10.710  -4.660 -10.011  1.00  0.00     0.031 A 
ATOM     51  C   UNL     1       6.484  -8.429 -13.300  1.00  0.00     0.049 A 
ATOM     52  C   UNL     1      10.721  -5.265 -11.387  1.00  0.00     0.074 A 
ATOM     53  C   UNL     1       6.597  -8.892 -14.599  1.00  0.00     0.029 A 
ATOM     54  N   UNL     1       7.633  -7.699 -13.032  1.00  0.00    -0.354 N 
ATOM     55  N   UNL     1       9.805  -6.005 -11.967  1.00  0.00    -0.248 NA
ATOM     56  C   UNL     1      11.909  -5.016 -12.213  1.00  0.00     0.031 C 
ATOM     57  C   UNL     1       7.833  -8.473 -15.104  1.00  0.00     0.029 A 
ATOM     58  C   UNL     1       8.469  -7.711 -14.136  1.00  0.00     0.049 A 
ATOM     59  H   UNL     1       7.826  -7.240 -12.183  1.00  0.00     0.167 HD
ATOM     60  C   UNL     1      10.302  -6.300 -13.231  1.00  0.00     0.074 A 
ATOM     61  C   UNL     1      11.591  -5.644 -13.337  1.00  0.00     0.031 C 
ATOM     62  C   UNL     1       9.746  -7.050 -14.214  1.00  0.00     0.031 A 
BRANCH  49  63
ATOM     63  C   UNL     1       4.244  -9.486 -12.784  1.00  0.00    -0.014 A 
ATOM     64  C   UNL     1       2.988  -8.927 -13.080  1.00  0.00     0.010 A 
ATOM     65  C   UNL     1       4.421 -10.876 -12.904  1.00  0.00     0.010 A 
ATOM     66  C   UNL     1       1.921  -9.749 -13.454  1.00  0.00     0.020 A 
ATOM     67  C   UNL     1       3.363 -11.699 -13.299  1.00  0.00     0.020 A 
ATOM     68  C   UNL     1       2.114 -11.131 -13.555  1.00  0.00     0.054 A 
BRANCH  68  69
ATOM     69  S   UNL     1       0.718 -12.175 -14.059  1.00  0.00     0.124 S 
ATOM     70  O   UNL     1      -0.086 -12.211 -12.839  1.00  0.00    -0.237 OA
ATOM     71  O   UNL     1       0.138 -11.425 -15.170  1.00  0.00    -0.237 OA
ATOM     72  O   UNL     1       1.347 -13.441 -14.427  1.00  0.00    -0.744 OA
ENDBRANCH  68  69
ENDBRANCH  49  63
BRANCH  50  73
ATOM     73  C   UNL     1      11.867  -3.873  -9.507  1.00  0.00    -0.014 A 
ATOM     74  C   UNL     1      12.130  -2.584 -10.000  1.00  0.00     0.010 A 
ATOM     75  C   UNL     1      12.703  -4.406  -8.508  1.00  0.00     0.010 A 
ATOM     76  C   UNL     1      13.213  -1.846  -9.511  1.00  0.00     0.020 A 
ATOM     77  C   UNL     1      13.770  -3.662  -7.998  1.00  0.00     0.020 A 
ATOM     78  C   UNL     1      14.025  -2.389  -8.512  1.00  0.00     0.054 A 
BRANCH  78  79
ATOM     79  S   UNL     1      15.389  -1.394  -7.846  1.00  0.00     0.124 S 
ATOM     80  O   UNL     1      16.398  -1.526  -8.891  1.00  0.00    -0.237 OA
ATOM     81  O   UNL     1      14.783  -0.071  -7.714  1.00  0.00    -0.237 OA
ATOM     82  O   UNL     1      15.705  -2.053  -6.580  1.00  0.00    -0.744 OA
ENDBRANCH  78  79
ENDBRANCH  50  73
BRANCH  62  83
ATOM     83  C   UNL     1      10.517  -7.176 -15.498  1.00  0.00    -0.014 A 
ATOM     84  C   UNL     1      11.636  -8.021 -15.589  1.00  0.00     0.010 A 
ATOM     85  C   UNL     1      10.079  -6.484 -16.641  1.00  0.00     0.010 A 
ATOM     86  C   UNL     1      12.322  -8.152 -16.800  1.00  0.00     0.020 A 
ATOM     87  C   UNL     1      10.749  -6.629 -17.857  1.00  0.00     0.020 A 
ATOM     88  C   UNL     1      11.874  -7.453 -17.926  1.00  0.00     0.054 A 
BRANCH  88  89
ATOM     89  S   UNL     1      12.749  -7.675 -19.499  1.00  0.00     0.124 S 
ATOM     90  O   UNL     1      13.937  -6.849 -19.304  1.00  0.00    -0.237 OA
ATOM     91  O   UNL     1      12.985  -9.117 -19.537  1.00  0.00    -0.237 OA
ATOM     92  O   UNL     1      11.800  -7.180 -20.494  1.00  0.00    -0.744 OA
ENDBRANCH  88  89
ENDBRANCH  62  83
ENDBRANCH  36  37
ENDBRANCH  29  31
ENDBRANCH  28  29
ENDBRANCH  27  28
ENDBRANCH   1  27
TORSDOF 20
