REMARK SMILES CCc1ccc(C(=O)NCc2ccc(C(=O)OCCOC(=O)c3ccc(-c4c5nc(c(-c6ccc(S(=O)(=O)[O-])cc6)c6ccc([nH]6)c(-c6ccc(S(=O)(=O)[O-])cc6)c6nc(c(-c7ccc(S(=O)(=O)[O-])cc7)c7ccc4[nH]7)C=C6)C=C5)cc3)cc2)cc1
REMARK SMILES IDX 18 1 17 2 15 3 16 4 14 5 11 6 12 7 84 8 13 9 83 10 10 11
REMARK SMILES IDX 9 12 7 13 8 14 6 16 3 17 4 18 86 19 5 20 85 21 2 22 1 23
REMARK SMILES IDX 19 24 20 25 21 26 22 27 23 28 24 29 82 30 25 31 81 32 26 33
REMARK SMILES IDX 27 34 28 35 75 36 29 37 80 38 74 39 76 40 30 41 79 42 73 43
REMARK SMILES IDX 72 44 31 46 61 47 42 48 60 49 43 50 46 51 59 52 77 53 44 54
REMARK SMILES IDX 45 55 58 57 78 58 47 59 32 60 33 61 41 62 34 63 40 64 35 65
REMARK SMILES IDX 36 66 37 67 38 68 39 69 62 70 63 71 71 72 64 73 70 74 65 75
REMARK SMILES IDX 66 76 67 77 68 78 69 79 48 80 49 81 57 82 50 83 56 84 51 85
REMARK SMILES IDX 52 86 53 87 54 88 55 89
REMARK H PARENT 9 15 76 45 46 56
REMARK Flexibility Score: inf
ROOT
ATOM      1  C   UNL     1      -0.039  10.175   7.602  1.00  0.00     0.275 C 
ENDROOT
BRANCH   1   2
ATOM      2  O   UNL     1       0.035   9.428   6.369  1.00  0.00    -0.458 OA
BRANCH   2   3
ATOM      3  C   UNL     1      -0.962   9.671   5.480  1.00  0.00     0.338 C 
ATOM      4  O   UNL     1      -1.937  10.383   5.660  1.00  0.00    -0.246 OA
BRANCH   3   5
ATOM      5  C   UNL     1      -0.663   9.040   4.171  1.00  0.00     0.060 A 
ATOM      6  C   UNL     1      -0.095   7.968   1.625  1.00  0.00    -0.029 A 
ATOM      7  C   UNL     1      -0.850   9.140   1.752  1.00  0.00     0.006 A 
ATOM      8  C   UNL     1       0.354   7.332   2.797  1.00  0.00     0.006 A 
ATOM      9  C   UNL     1      -1.147   9.659   3.013  1.00  0.00     0.016 A 
ATOM     10  C   UNL     1       0.080   7.865   4.062  1.00  0.00     0.016 A 
BRANCH   6  11
ATOM     11  C   UNL     1       0.188   7.415   0.247  1.00  0.00     0.152 C 
BRANCH  11  12
ATOM     12  N   UNL     1       1.591   7.123   0.063  1.00  0.00    -0.348 N 
ATOM     13  C   UNL     1       2.340   5.984   0.010  1.00  0.00     0.251 C 
ATOM     14  O   UNL     1       3.536   6.132  -0.255  1.00  0.00    -0.269 OA
ATOM     15  H   UNL     1       2.133   7.937  -0.052  1.00  0.00     0.164 HD
BRANCH  13  16
ATOM     16  C   UNL     1       1.837   4.597   0.254  1.00  0.00     0.039 A 
ATOM     17  C   UNL     1       1.159   1.873   0.720  1.00  0.00    -0.048 A 
ATOM     18  C   UNL     1       2.399   2.215   0.177  1.00  0.00     0.004 A 
ATOM     19  C   UNL     1       0.276   2.907   1.052  1.00  0.00     0.004 A 
ATOM     20  C   UNL     1       2.725   3.554  -0.062  1.00  0.00     0.014 A 
ATOM     21  C   UNL     1       0.613   4.250   0.828  1.00  0.00     0.014 A 
BRANCH  17  22
ATOM     22  C   UNL     1       0.787   0.443   1.024  1.00  0.00     0.032 C 
ATOM     23  C   UNL     1       1.136  -0.546  -0.081  1.00  0.00     0.009 C 
ENDBRANCH  17  22
ENDBRANCH  13  16
ENDBRANCH  11  12
ENDBRANCH   6  11
ENDBRANCH   3   5
ENDBRANCH   2   3
ENDBRANCH   1   2
BRANCH   1  24
ATOM     24  C   UNL     1       0.929  11.357   7.567  1.00  0.00     0.275 C 
BRANCH  24  25
ATOM     25  O   UNL     1       0.572  12.232   6.484  1.00  0.00    -0.458 OA
BRANCH  25  26
ATOM     26  C   UNL     1       1.591  12.683   5.717  1.00  0.00     0.338 C 
ATOM     27  O   UNL     1       2.787  12.500   5.902  1.00  0.00    -0.246 OA
BRANCH  26  28
ATOM     28  C   UNL     1       1.051  13.465   4.586  1.00  0.00     0.060 A 
ATOM     29  C   UNL     1      -0.059  13.008   3.879  1.00  0.00     0.016 A 
ATOM     30  C   UNL     1       1.694  14.633   4.179  1.00  0.00     0.016 A 
ATOM     31  C   UNL     1      -0.492  13.674   2.732  1.00  0.00     0.010 A 
ATOM     32  C   UNL     1       1.191  15.360   3.091  1.00  0.00     0.010 A 
ATOM     33  C   UNL     1       0.101  14.883   2.340  1.00  0.00    -0.014 A 
BRANCH  33  34
ATOM     34  C   UNL     1      -0.412  15.653   1.165  1.00  0.00     0.031 A 
ATOM     35  C   UNL     1       0.523  16.061   0.052  1.00  0.00     0.074 A 
ATOM     36  C   UNL     1      -1.710  16.019   1.094  1.00  0.00     0.049 A 
ATOM     37  N   UNL     1       0.332  16.927  -0.911  1.00  0.00    -0.248 NA
ATOM     38  C   UNL     1       1.849  15.422   0.028  1.00  0.00     0.031 C 
ATOM     39  C   UNL     1      -2.752  15.664   2.062  1.00  0.00     0.029 A 
ATOM     40  N   UNL     1      -2.379  16.777   0.161  1.00  0.00    -0.354 N 
ATOM     41  C   UNL     1       1.532  16.989  -1.612  1.00  0.00     0.074 A 
ATOM     42  C   UNL     1       2.442  16.065  -0.969  1.00  0.00     0.031 C 
ATOM     43  C   UNL     1      -3.927  16.163   1.651  1.00  0.00     0.029 A 
ATOM     44  C   UNL     1      -3.709  16.970   0.457  1.00  0.00     0.049 A 
ATOM     45  H   UNL     1      -1.946  17.147  -0.643  1.00  0.00     0.167 HD
ATOM     46  C   UNL     1       1.850  17.754  -2.685  1.00  0.00     0.031 A 
ATOM     47  C   UNL     1      -4.643  17.755  -0.115  1.00  0.00     0.031 A 
ATOM     48  C   UNL     1       0.929  18.638  -3.352  1.00  0.00     0.049 A 
ATOM     49  C   UNL     1      -4.255  18.641  -1.263  1.00  0.00     0.074 A 
ATOM     50  C   UNL     1       1.151  19.432  -4.465  1.00  0.00     0.029 A 
ATOM     51  N   UNL     1      -0.390  18.838  -2.976  1.00  0.00    -0.354 N 
ATOM     52  N   UNL     1      -3.099  18.733  -1.875  1.00  0.00    -0.248 NA
ATOM     53  C   UNL     1      -5.286  19.555  -1.773  1.00  0.00     0.031 C 
ATOM     54  C   UNL     1      -0.021  20.146  -4.734  1.00  0.00     0.029 A 
ATOM     55  C   UNL     1      -0.986  19.763  -3.817  1.00  0.00     0.049 A 
ATOM     56  H   UNL     1      -0.837  18.389  -2.223  1.00  0.00     0.167 HD
ATOM     57  C   UNL     1      -3.260  19.724  -2.835  1.00  0.00     0.074 A 
ATOM     58  C   UNL     1      -4.632  20.180  -2.745  1.00  0.00     0.031 C 
ATOM     59  C   UNL     1      -2.347  20.220  -3.705  1.00  0.00     0.031 A 
BRANCH  46  60
ATOM     60  C   UNL     1       3.271  17.710  -3.183  1.00  0.00    -0.014 A 
ATOM     61  C   UNL     1       3.767  16.613  -3.906  1.00  0.00     0.010 A 
ATOM     62  C   UNL     1       4.110  18.820  -2.962  1.00  0.00     0.010 A 
ATOM     63  C   UNL     1       5.087  16.610  -4.370  1.00  0.00     0.020 A 
ATOM     64  C   UNL     1       5.422  18.831  -3.443  1.00  0.00     0.020 A 
ATOM     65  C   UNL     1       5.908  17.717  -4.130  1.00  0.00     0.054 A 
BRANCH  65  66
ATOM     66  S   UNL     1       7.610  17.699  -4.760  1.00  0.00     0.124 S 
ATOM     67  O   UNL     1       8.267  16.794  -3.820  1.00  0.00    -0.237 OA
ATOM     68  O   UNL     1       7.446  17.184  -6.117  1.00  0.00    -0.237 OA
ATOM     69  O   UNL     1       8.027  19.096  -4.674  1.00  0.00    -0.744 OA
ENDBRANCH  65  66
ENDBRANCH  46  60
BRANCH  47  70
ATOM     70  C   UNL     1      -6.016  17.803   0.458  1.00  0.00    -0.014 A 
ATOM     71  C   UNL     1      -7.101  17.237  -0.233  1.00  0.00     0.010 A 
ATOM     72  C   UNL     1      -6.236  18.381   1.723  1.00  0.00     0.010 A 
ATOM     73  C   UNL     1      -8.379  17.241   0.335  1.00  0.00     0.020 A 
ATOM     74  C   UNL     1      -7.505  18.360   2.305  1.00  0.00     0.020 A 
ATOM     75  C   UNL     1      -8.571  17.795   1.604  1.00  0.00     0.054 A 
BRANCH  75  76
ATOM     76  S   UNL     1     -10.216  17.707   2.365  1.00  0.00     0.124 S 
ATOM     77  O   UNL     1     -10.922  18.789   1.685  1.00  0.00    -0.237 OA
ATOM     78  O   UNL     1     -10.653  16.355   2.026  1.00  0.00    -0.237 OA
ATOM     79  O   UNL     1      -9.946  17.927   3.784  1.00  0.00    -0.744 OA
ENDBRANCH  75  76
ENDBRANCH  47  70
BRANCH  59  80
ATOM     80  C   UNL     1      -2.801  21.315  -4.628  1.00  0.00    -0.014 A 
ATOM     81  C   UNL     1      -2.947  22.632  -4.160  1.00  0.00     0.010 A 
ATOM     82  C   UNL     1      -3.029  21.037  -5.988  1.00  0.00     0.010 A 
ATOM     83  C   UNL     1      -3.331  23.652  -5.034  1.00  0.00     0.020 A 
ATOM     84  C   UNL     1      -3.393  22.058  -6.868  1.00  0.00     0.020 A 
ATOM     85  C   UNL     1      -3.552  23.359  -6.383  1.00  0.00     0.054 A 
BRANCH  85  86
ATOM     86  S   UNL     1      -3.995  24.710  -7.510  1.00  0.00     0.124 S 
ATOM     87  O   UNL     1      -5.394  24.947  -7.163  1.00  0.00    -0.237 OA
ATOM     88  O   UNL     1      -3.065  25.768  -7.126  1.00  0.00    -0.237 OA
ATOM     89  O   UNL     1      -3.769  24.142  -8.837  1.00  0.00    -0.744 OA
ENDBRANCH  85  86
ENDBRANCH  59  80
ENDBRANCH  33  34
ENDBRANCH  26  28
ENDBRANCH  25  26
ENDBRANCH  24  25
ENDBRANCH   1  24
TORSDOF 18
