REMARK SMILES Cc1nsc(N(C)C(=O)[C@@H](C)NC(N)=O)c1C(=O)OCCOC(=O)c1ccc(-c2c3nc(c(-c4ccc(S(=O)(=O)[O-])cc4)c4ccc([nH]4)c(-c4ccc(S(=O)(=O)[O-])cc4)c4nc(c(-c5ccc(S(=O)(=O)[O-])cc5)c5ccc2[nH]5)C=C4)C=C3)cc1
REMARK SMILES IDX 20 1 19 2 17 3 18 4 16 5 1 6 2 7 3 8 4 9 5 10 6 11 7 12 8 13
REMARK SMILES IDX 9 14 10 15 11 16 12 17 13 18 14 20 15 21 21 24 22 25 23 26
REMARK SMILES IDX 24 27 25 28 26 29 84 30 27 31 83 32 28 33 29 34 30 35 77 36
REMARK SMILES IDX 31 37 82 38 76 39 78 40 32 41 81 42 75 43 74 44 33 46 63 47
REMARK SMILES IDX 44 48 62 49 45 50 48 51 61 52 79 53 46 54 47 55 60 57 80 58
REMARK SMILES IDX 49 59 34 60 35 61 43 62 36 63 42 64 37 65 38 66 39 67 40 68
REMARK SMILES IDX 41 69 64 70 65 71 73 72 66 73 72 74 67 75 68 76 69 77 70 78
REMARK SMILES IDX 71 79 50 80 51 81 59 82 52 83 58 84 53 85 54 86 55 87 56 88
REMARK SMILES IDX 57 89
REMARK H PARENT 12 19 14 22 14 23 78 45 48 56
REMARK Flexibility Score: inf
ROOT
ATOM      1  C   UNL     1       0.250   3.554   1.326  1.00  0.00     0.275 C 
ENDROOT
BRANCH   1   2
ATOM      2  O   UNL     1       0.468   2.137   1.319  1.00  0.00    -0.458 OA
BRANCH   2   3
ATOM      3  C   UNL     1       0.990   1.560   2.436  1.00  0.00     0.343 C 
ATOM      4  O   UNL     1       1.766   2.125   3.207  1.00  0.00    -0.246 OA
BRANCH   3   5
ATOM      5  C   UNL     1       0.617   0.155   2.540  1.00  0.00     0.117 A 
ATOM      6  C   UNL     1       1.158  -0.413   0.013  1.00  0.00     0.069 C 
ATOM      7  C   UNL     1       0.738  -0.755   1.405  1.00  0.00     0.068 A 
ATOM      8  N   UNL     1       0.499  -2.039   1.653  1.00  0.00    -0.195 NA
ATOM      9  S   UNL     1      -0.020  -2.191   3.192  1.00  0.00    -0.017 S 
ATOM     10  C   UNL     1       0.104  -0.526   3.655  1.00  0.00     0.133 A 
BRANCH  10  11
ATOM     11  N   UNL     1      -0.359  -0.205   4.978  1.00  0.00    -0.303 N 
ATOM     12  C   UNL     1      -0.666  -1.260   5.950  1.00  0.00     0.154 C 
BRANCH  11  13
ATOM     13  C   UNL     1      -0.701   1.130   5.268  1.00  0.00     0.249 C 
ATOM     14  O   UNL     1      -0.622   2.034   4.431  1.00  0.00    -0.272 OA
BRANCH  13  15
ATOM     15  C   UNL     1      -1.275   1.540   6.668  1.00  0.00     0.170 C 
ATOM     16  C   UNL     1      -2.603   0.904   7.072  1.00  0.00     0.041 C 
BRANCH  15  17
ATOM     17  N   UNL     1      -0.303   1.477   7.757  1.00  0.00    -0.327 N 
ATOM     18  C   UNL     1       0.199   2.596   8.344  1.00  0.00     0.312 C 
ATOM     19  H   UNL     1      -0.001   0.595   8.075  1.00  0.00     0.166 HD
ATOM     20  N   UNL     1       1.085   2.321   9.329  1.00  0.00    -0.352 N 
ATOM     21  O   UNL     1      -0.096   3.748   8.066  1.00  0.00    -0.249 OA
ATOM     22  H   UNL     1       1.312   1.387   9.541  1.00  0.00     0.161 HD
ATOM     23  H   UNL     1       1.503   3.055   9.835  1.00  0.00     0.161 HD
ENDBRANCH  15  17
ENDBRANCH  13  15
ENDBRANCH  11  13
ENDBRANCH  10  11
ENDBRANCH   3   5
ENDBRANCH   2   3
ENDBRANCH   1   2
BRANCH   1  24
ATOM     24  C   UNL     1      -1.236   3.805   1.110  1.00  0.00     0.275 C 
BRANCH  24  25
ATOM     25  O   UNL     1      -1.978   3.296   2.210  1.00  0.00    -0.458 OA
BRANCH  25  26
ATOM     26  C   UNL     1      -2.386   2.007   2.141  1.00  0.00     0.338 C 
ATOM     27  O   UNL     1      -2.086   1.169   1.312  1.00  0.00    -0.246 OA
BRANCH  26  28
ATOM     28  C   UNL     1      -3.453   1.837   3.138  1.00  0.00     0.060 A 
ATOM     29  C   UNL     1      -4.148   0.622   3.161  1.00  0.00     0.016 A 
ATOM     30  C   UNL     1      -3.910   2.967   3.830  1.00  0.00     0.016 A 
ATOM     31  C   UNL     1      -5.414   0.604   3.710  1.00  0.00     0.010 A 
ATOM     32  C   UNL     1      -5.182   2.965   4.326  1.00  0.00     0.010 A 
ATOM     33  C   UNL     1      -5.938   1.805   4.194  1.00  0.00    -0.014 A 
BRANCH  33  34
ATOM     34  C   UNL     1      -7.316   1.868   4.614  1.00  0.00     0.031 A 
ATOM     35  C   UNL     1      -7.522   1.413   6.011  1.00  0.00     0.074 A 
ATOM     36  C   UNL     1      -8.229   2.495   3.847  1.00  0.00     0.049 A 
ATOM     37  N   UNL     1      -8.144   0.358   6.414  1.00  0.00    -0.248 NA
ATOM     38  C   UNL     1      -6.788   2.112   7.083  1.00  0.00     0.031 C 
ATOM     39  C   UNL     1      -8.019   3.283   2.625  1.00  0.00     0.029 A 
ATOM     40  N   UNL     1      -9.548   2.671   4.084  1.00  0.00    -0.354 N 
ATOM     41  C   UNL     1      -8.082   0.387   7.804  1.00  0.00     0.074 A 
ATOM     42  C   UNL     1      -7.075   1.356   8.143  1.00  0.00     0.031 C 
ATOM     43  C   UNL     1      -9.112   4.052   2.399  1.00  0.00     0.029 A 
ATOM     44  C   UNL     1     -10.137   3.704   3.369  1.00  0.00     0.049 A 
ATOM     45  H   UNL     1     -10.053   2.108   4.715  1.00  0.00     0.167 HD
ATOM     46  C   UNL     1      -9.043  -0.200   8.570  1.00  0.00     0.031 A 
ATOM     47  C   UNL     1     -11.341   4.275   3.641  1.00  0.00     0.031 A 
ATOM     48  C   UNL     1      -9.874  -1.074   7.783  1.00  0.00     0.049 A 
ATOM     49  C   UNL     1     -12.073   3.319   4.521  1.00  0.00     0.074 A 
ATOM     50  C   UNL     1      -9.646  -2.214   7.040  1.00  0.00     0.029 A 
ATOM     51  N   UNL     1     -11.070  -0.556   7.340  1.00  0.00    -0.354 N 
ATOM     52  N   UNL     1     -12.433   2.124   4.131  1.00  0.00    -0.248 NA
ATOM     53  C   UNL     1     -11.931   3.482   5.963  1.00  0.00     0.031 C 
ATOM     54  C   UNL     1     -10.443  -2.044   5.871  1.00  0.00     0.029 A 
ATOM     55  C   UNL     1     -11.177  -0.862   6.008  1.00  0.00     0.049 A 
ATOM     56  H   UNL     1     -11.727  -0.059   7.878  1.00  0.00     0.167 HD
ATOM     57  C   UNL     1     -12.159   1.292   5.210  1.00  0.00     0.074 A 
ATOM     58  C   UNL     1     -11.916   2.197   6.335  1.00  0.00     0.031 C 
ATOM     59  C   UNL     1     -11.853  -0.029   5.034  1.00  0.00     0.031 A 
BRANCH  46  60
ATOM     60  C   UNL     1      -9.504   0.332   9.905  1.00  0.00    -0.014 A 
ATOM     61  C   UNL     1     -10.541  -0.354  10.569  1.00  0.00     0.010 A 
ATOM     62  C   UNL     1      -9.179   1.617  10.384  1.00  0.00     0.010 A 
ATOM     63  C   UNL     1     -11.288   0.259  11.580  1.00  0.00     0.020 A 
ATOM     64  C   UNL     1      -9.890   2.222  11.422  1.00  0.00     0.020 A 
ATOM     65  C   UNL     1     -10.969   1.554  11.984  1.00  0.00     0.054 A 
BRANCH  65  66
ATOM     66  S   UNL     1     -12.026   2.383  13.194  1.00  0.00     0.124 S 
ATOM     67  O   UNL     1     -13.279   2.513  12.457  1.00  0.00    -0.237 OA
ATOM     68  O   UNL     1     -12.034   1.429  14.299  1.00  0.00    -0.237 OA
ATOM     69  O   UNL     1     -11.321   3.635  13.461  1.00  0.00    -0.744 OA
ENDBRANCH  65  66
ENDBRANCH  46  60
BRANCH  47  70
ATOM     70  C   UNL     1     -11.681   5.723   3.544  1.00  0.00    -0.014 A 
ATOM     71  C   UNL     1     -13.012   6.181   3.582  1.00  0.00     0.010 A 
ATOM     72  C   UNL     1     -10.662   6.691   3.674  1.00  0.00     0.010 A 
ATOM     73  C   UNL     1     -13.308   7.545   3.784  1.00  0.00     0.020 A 
ATOM     74  C   UNL     1     -10.947   8.049   3.872  1.00  0.00     0.020 A 
ATOM     75  C   UNL     1     -12.271   8.469   3.945  1.00  0.00     0.054 A 
BRANCH  75  76
ATOM     76  S   UNL     1     -12.655  10.199   4.362  1.00  0.00     0.124 S 
ATOM     77  O   UNL     1     -13.244  10.695   3.122  1.00  0.00    -0.237 OA
ATOM     78  O   UNL     1     -13.575  10.059   5.487  1.00  0.00    -0.237 OA
ATOM     79  O   UNL     1     -11.351  10.769   4.699  1.00  0.00    -0.744 OA
ENDBRANCH  75  76
ENDBRANCH  47  70
BRANCH  59  80
ATOM     80  C   UNL     1     -12.012  -0.646   3.663  1.00  0.00    -0.014 A 
ATOM     81  C   UNL     1     -11.205  -0.314   2.556  1.00  0.00     0.010 A 
ATOM     82  C   UNL     1     -12.848  -1.771   3.570  1.00  0.00     0.010 A 
ATOM     83  C   UNL     1     -11.237  -1.094   1.387  1.00  0.00     0.020 A 
ATOM     84  C   UNL     1     -12.871  -2.559   2.419  1.00  0.00     0.020 A 
ATOM     85  C   UNL     1     -12.067  -2.218   1.331  1.00  0.00     0.054 A 
BRANCH  85  86
ATOM     86  S   UNL     1     -12.045  -3.282  -0.141  1.00  0.00     0.124 S 
ATOM     87  O   UNL     1     -12.690  -2.444  -1.147  1.00  0.00    -0.237 OA
ATOM     88  O   UNL     1     -10.619  -3.528  -0.344  1.00  0.00    -0.237 OA
ATOM     89  O   UNL     1     -12.813  -4.458   0.269  1.00  0.00    -0.744 OA
ENDBRANCH  85  86
ENDBRANCH  59  80
ENDBRANCH  33  34
ENDBRANCH  26  28
ENDBRANCH  25  26
ENDBRANCH  24  25
ENDBRANCH   1  24
TORSDOF 18
