REMARK SMILES C[NH+]1CCN(c2nc3c(cc2F)c(=O)c(C(=O)OCCOC(=O)c2ccc(-c4c5nc(c(-c6ccc(S(=O)(=O)[O-])cc6)c6ccc([nH]6)c(-c6ccc(S(=O)(=O)[O-])cc6)c6nc(c(-c7ccc(S(=O)(=O)[O-])cc7)c7ccc4[nH]7)C=C6)C=C5)cc2)cn3-c2ccc(F)cc2F)CC1
REMARK SMILES IDX 20 1 19 2 18 3 16 4 17 5 15 6 6 7 7 8 11 9 8 10 10 11 12 12
REMARK SMILES IDX 9 13 85 14 13 15 84 16 14 17 5 18 1 19 2 20 3 21 95 22 4 24
REMARK SMILES IDX 94 25 86 26 87 27 92 28 88 29 91 30 93 31 89 32 90 33 21 34
REMARK SMILES IDX 22 35 23 36 24 37 25 38 83 39 26 40 82 41 27 42 28 43 29 44
REMARK SMILES IDX 76 45 30 46 81 47 75 48 77 49 31 50 80 51 74 52 73 53 32 55
REMARK SMILES IDX 62 56 43 57 61 58 44 59 47 60 60 61 78 62 45 63 46 64 59 66
REMARK SMILES IDX 79 67 48 68 33 69 34 70 42 71 35 72 41 73 36 74 37 75 38 76
REMARK SMILES IDX 39 77 40 78 63 79 64 80 72 81 65 82 71 83 66 84 67 85 68 86
REMARK SMILES IDX 69 87 70 88 49 89 50 90 58 91 51 92 57 93 52 94 53 95 54 96
REMARK SMILES IDX 55 97 56 98
REMARK H PARENT 2 23 77 54 47 65
REMARK Flexibility Score: inf
ROOT
ATOM      1  C   UNL     1     -11.255   1.190   4.544  1.00  0.00     0.275 C 
ENDROOT
BRANCH   1   2
ATOM      2  C   UNL     1     -10.688  -0.198   4.259  1.00  0.00     0.275 C 
BRANCH   2   3
ATOM      3  O   UNL     1      -9.345  -0.094   3.752  1.00  0.00    -0.458 OA
BRANCH   3   4
ATOM      4  C   UNL     1      -9.173  -0.329   2.432  1.00  0.00     0.343 C 
ATOM      5  O   UNL     1     -10.050  -0.637   1.636  1.00  0.00    -0.246 OA
BRANCH   4   6
ATOM      6  C   UNL     1      -7.779  -0.089   2.029  1.00  0.00     0.124 A 
ATOM      7  C   UNL     1      -2.826  -0.151   0.992  1.00  0.00     0.167 A 
ATOM      8  N   UNL     1      -3.897   0.415   0.390  1.00  0.00    -0.209 NA
ATOM      9  C   UNL     1      -2.949  -0.814   2.220  1.00  0.00     0.166 A 
ATOM     10  C   UNL     1      -5.125   0.282   0.963  1.00  0.00     0.151 A 
ATOM     11  C   UNL     1      -4.173  -0.900   2.848  1.00  0.00     0.059 A 
ATOM     12  F   UNL     1      -1.878  -1.363   2.817  1.00  0.00    -0.203 F 
ATOM     13  C   UNL     1      -5.279  -0.356   2.203  1.00  0.00     0.069 A 
ATOM     14  N   UNL     1      -6.293   0.764   0.287  1.00  0.00    -0.297 N 
ATOM     15  C   UNL     1      -6.612  -0.518   2.819  1.00  0.00     0.205 A 
ATOM     16  C   UNL     1      -7.535   0.497   0.847  1.00  0.00     0.113 A 
ATOM     17  O   UNL     1      -6.717  -1.066   3.911  1.00  0.00    -0.288 OA
BRANCH   7  18
ATOM     18  N   UNL     1      -1.600  -0.079   0.381  1.00  0.00    -0.343 N 
ATOM     19  C   UNL     1       2.569   0.162  -0.013  1.00  0.00     0.332 C 
ATOM     20  N   UNL     1       1.167   0.042  -0.413  1.00  0.00    -0.334 N 
ATOM     21  C   UNL     1       0.405   1.251   0.003  1.00  0.00     0.283 C 
ATOM     22  C   UNL     1       0.574  -1.173   0.194  1.00  0.00     0.283 C 
ATOM     23  H   UNL     1       1.119  -0.035  -1.429  1.00  0.00     0.347 HD
ATOM     24  C   UNL     1      -1.127   1.149  -0.245  1.00  0.00     0.179 C 
ATOM     25  C   UNL     1      -0.940  -1.302  -0.062  1.00  0.00     0.179 C 
ENDBRANCH   7  18
BRANCH  14  26
ATOM     26  C   UNL     1      -6.230   1.450  -0.965  1.00  0.00     0.083 A 
ATOM     27  C   UNL     1      -5.786   0.788  -2.120  1.00  0.00     0.033 A 
ATOM     28  C   UNL     1      -6.644   2.791  -1.083  1.00  0.00     0.150 A 
ATOM     29  C   UNL     1      -5.768   1.449  -3.351  1.00  0.00     0.041 A 
ATOM     30  C   UNL     1      -6.609   3.461  -2.302  1.00  0.00     0.080 A 
ATOM     31  F   UNL     1      -7.080   3.454  -0.000  1.00  0.00    -0.205 F 
ATOM     32  C   UNL     1      -6.173   2.778  -3.428  1.00  0.00     0.126 A 
ATOM     33  F   UNL     1      -6.138   3.405  -4.610  1.00  0.00    -0.207 F 
ENDBRANCH  14  26
ENDBRANCH   4   6
ENDBRANCH   3   4
ENDBRANCH   2   3
ENDBRANCH   1   2
BRANCH   1  34
ATOM     34  O   UNL     1     -11.476   1.895   3.309  1.00  0.00    -0.458 OA
BRANCH  34  35
ATOM     35  C   UNL     1     -10.553   2.836   3.008  1.00  0.00     0.338 C 
ATOM     36  O   UNL     1      -9.594   3.179   3.677  1.00  0.00    -0.246 OA
BRANCH  35  37
ATOM     37  C   UNL     1     -10.834   3.385   1.675  1.00  0.00     0.060 A 
ATOM     38  C   UNL     1     -10.554   2.608   0.553  1.00  0.00     0.016 A 
ATOM     39  C   UNL     1     -11.237   4.711   1.533  1.00  0.00     0.016 A 
ATOM     40  C   UNL     1     -10.566   3.183  -0.714  1.00  0.00     0.010 A 
ATOM     41  C   UNL     1     -11.343   5.259   0.252  1.00  0.00     0.010 A 
ATOM     42  C   UNL     1     -10.967   4.514  -0.881  1.00  0.00    -0.014 A 
BRANCH  42  43
ATOM     43  C   UNL     1     -10.950   5.143  -2.227  1.00  0.00     0.031 A 
ATOM     44  C   UNL     1     -10.056   6.325  -2.491  1.00  0.00     0.074 A 
ATOM     45  C   UNL     1     -11.714   4.649  -3.222  1.00  0.00     0.049 A 
ATOM     46  N   UNL     1     -10.025   7.118  -3.531  1.00  0.00    -0.248 NA
ATOM     47  C   UNL     1      -9.067   6.662  -1.452  1.00  0.00     0.031 C 
ATOM     48  C   UNL     1     -12.567   3.461  -3.130  1.00  0.00     0.029 A 
ATOM     49  N   UNL     1     -11.885   5.078  -4.515  1.00  0.00    -0.354 N 
ATOM     50  C   UNL     1      -9.051   8.070  -3.255  1.00  0.00     0.074 A 
ATOM     51  C   UNL     1      -8.509   7.757  -1.950  1.00  0.00     0.031 C 
ATOM     52  C   UNL     1     -13.136   3.234  -4.324  1.00  0.00     0.029 A 
ATOM     53  C   UNL     1     -12.758   4.303  -5.242  1.00  0.00     0.049 A 
ATOM     54  H   UNL     1     -11.427   5.866  -4.886  1.00  0.00     0.167 HD
ATOM     55  C   UNL     1      -8.650   9.113  -4.019  1.00  0.00     0.031 A 
ATOM     56  C   UNL     1     -13.232   4.451  -6.494  1.00  0.00     0.031 A 
ATOM     57  C   UNL     1      -9.170   9.405  -5.327  1.00  0.00     0.049 A 
ATOM     58  C   UNL     1     -12.819   5.648  -7.300  1.00  0.00     0.074 A 
ATOM     59  C   UNL     1      -8.854  10.462  -6.163  1.00  0.00     0.029 A 
ATOM     60  N   UNL     1     -10.094   8.623  -6.002  1.00  0.00    -0.354 N 
ATOM     61  N   UNL     1     -11.983   6.605  -6.976  1.00  0.00    -0.248 NA
ATOM     62  C   UNL     1     -13.427   5.798  -8.629  1.00  0.00     0.031 C 
ATOM     63  C   UNL     1      -9.604  10.332  -7.335  1.00  0.00     0.029 A 
ATOM     64  C   UNL     1     -10.358   9.173  -7.245  1.00  0.00     0.049 A 
ATOM     65  H   UNL     1     -10.503   7.800  -5.651  1.00  0.00     0.167 HD
ATOM     66  C   UNL     1     -11.956   7.465  -8.066  1.00  0.00     0.074 A 
ATOM     67  C   UNL     1     -12.852   6.914  -9.061  1.00  0.00     0.031 C 
ATOM     68  C   UNL     1     -11.249   8.610  -8.224  1.00  0.00     0.031 A 
BRANCH  55  69
ATOM     69  C   UNL     1      -7.614  10.043  -3.451  1.00  0.00    -0.014 A 
ATOM     70  C   UNL     1      -6.253   9.696  -3.445  1.00  0.00     0.010 A 
ATOM     71  C   UNL     1      -8.004  11.314  -2.989  1.00  0.00     0.010 A 
ATOM     72  C   UNL     1      -5.298  10.602  -2.976  1.00  0.00     0.020 A 
ATOM     73  C   UNL     1      -7.050  12.229  -2.536  1.00  0.00     0.020 A 
ATOM     74  C   UNL     1      -5.702  11.865  -2.530  1.00  0.00     0.054 A 
BRANCH  74  75
ATOM     75  S   UNL     1      -4.432  13.031  -1.963  1.00  0.00     0.124 S 
ATOM     76  O   UNL     1      -3.872  12.333  -0.807  1.00  0.00    -0.237 OA
ATOM     77  O   UNL     1      -3.553  13.129  -3.124  1.00  0.00    -0.237 OA
ATOM     78  O   UNL     1      -5.186  14.242  -1.647  1.00  0.00    -0.744 OA
ENDBRANCH  74  75
ENDBRANCH  55  69
BRANCH  56  79
ATOM     79  C   UNL     1     -14.181   3.447  -7.042  1.00  0.00    -0.014 A 
ATOM     80  C   UNL     1     -13.750   2.517  -8.004  1.00  0.00     0.010 A 
ATOM     81  C   UNL     1     -15.504   3.382  -6.567  1.00  0.00     0.010 A 
ATOM     82  C   UNL     1     -14.624   1.533  -8.474  1.00  0.00     0.020 A 
ATOM     83  C   UNL     1     -16.373   2.386  -7.019  1.00  0.00     0.020 A 
ATOM     84  C   UNL     1     -15.926   1.466  -7.969  1.00  0.00     0.054 A 
BRANCH  84  85
ATOM     85  S   UNL     1     -17.013   0.133  -8.545  1.00  0.00     0.124 S 
ATOM     86  O   UNL     1     -17.156   0.443  -9.964  1.00  0.00    -0.237 OA
ATOM     87  O   UNL     1     -16.230  -1.060  -8.234  1.00  0.00    -0.237 OA
ATOM     88  O   UNL     1     -18.223   0.303  -7.743  1.00  0.00    -0.744 OA
ENDBRANCH  84  85
ENDBRANCH  56  79
BRANCH  68  89
ATOM     89  C   UNL     1     -11.384   9.336  -9.532  1.00  0.00    -0.014 A 
ATOM     90  C   UNL     1     -12.493  10.160  -9.789  1.00  0.00     0.010 A 
ATOM     91  C   UNL     1     -10.341   9.265 -10.473  1.00  0.00     0.010 A 
ATOM     92  C   UNL     1     -12.559  10.898 -10.973  1.00  0.00     0.020 A 
ATOM     93  C   UNL     1     -10.397  10.014 -11.650  1.00  0.00     0.020 A 
ATOM     94  C   UNL     1     -11.507  10.825 -11.893  1.00  0.00     0.054 A 
BRANCH  94  95
ATOM     95  S   UNL     1     -11.598  11.839 -13.394  1.00  0.00     0.124 S 
ATOM     96  O   UNL     1     -12.762  11.278 -14.074  1.00  0.00    -0.237 OA
ATOM     97  O   UNL     1     -11.772  13.185 -12.855  1.00  0.00    -0.237 OA
ATOM     98  O   UNL     1     -10.318  11.598 -14.057  1.00  0.00    -0.744 OA
ENDBRANCH  94  95
ENDBRANCH  68  89
ENDBRANCH  42  43
ENDBRANCH  35  37
ENDBRANCH  34  35
ENDBRANCH   1  34
TORSDOF 16
