REMARK SMILES O=C(OCCOC(=O)c1cccc(OCC(F)F)c1)c1ccc(-c2c3nc(c(-c4ccc(S(=O)(=O)[O-])cc4)c4ccc([nH]4)c(-c4ccc(S(=O)(=O)[O-])cc4)c4nc(c(-c5ccc(S(=O)(=O)[O-])cc5)c5ccc2[nH]5)C=C4)C=C3)cc1
REMARK SMILES IDX 4 1 3 2 2 3 1 4 20 5 21 6 79 7 22 8 78 9 23 10 24 11 25 12
REMARK SMILES IDX 72 13 26 14 77 15 71 16 73 17 27 18 76 19 70 20 69 21 28 23
REMARK SMILES IDX 58 24 39 25 57 26 40 27 43 28 56 29 74 30 41 31 42 32 55 34
REMARK SMILES IDX 75 35 44 36 29 37 30 38 38 39 31 40 37 41 32 42 33 43 34 44
REMARK SMILES IDX 35 45 36 46 59 47 60 48 68 49 61 50 67 51 62 52 63 53 64 54
REMARK SMILES IDX 65 55 66 56 45 57 46 58 54 59 47 60 53 61 48 62 49 63 50 64
REMARK SMILES IDX 51 65 52 66 5 67 6 68 7 69 8 70 9 71 10 72 19 73 11 74 13 75
REMARK SMILES IDX 12 76 14 77 15 78 16 79 17 80 18 81
REMARK H PARENT 73 22 43 33
REMARK Flexibility Score: inf
ROOT
ATOM      1  C   UNL     1       4.138  -0.840  -1.367  1.00  0.00     0.275 C 
ENDROOT
BRANCH   1   2
ATOM      2  O   UNL     1       3.025  -1.153  -0.512  1.00  0.00    -0.458 OA
BRANCH   2   3
ATOM      3  C   UNL     1       2.657  -0.679   0.700  1.00  0.00     0.338 C 
ATOM      4  O   UNL     1       1.618  -1.125   1.190  1.00  0.00    -0.246 OA
BRANCH   3   5
ATOM      5  C   UNL     1       3.390   0.367   1.497  1.00  0.00     0.060 A 
ATOM      6  C   UNL     1       4.669   0.867   1.246  1.00  0.00     0.016 A 
ATOM      7  C   UNL     1       2.712   0.875   2.627  1.00  0.00     0.016 A 
ATOM      8  C   UNL     1       5.265   1.798   2.104  1.00  0.00     0.010 A 
ATOM      9  C   UNL     1       3.291   1.829   3.474  1.00  0.00     0.010 A 
ATOM     10  C   UNL     1       4.593   2.266   3.236  1.00  0.00    -0.014 A 
BRANCH  10  11
ATOM     11  C   UNL     1       5.335   3.097   4.211  1.00  0.00     0.031 A 
ATOM     12  C   UNL     1       5.897   2.444   5.436  1.00  0.00     0.074 A 
ATOM     13  C   UNL     1       5.590   4.391   3.950  1.00  0.00     0.049 A 
ATOM     14  N   UNL     1       6.718   2.937   6.324  1.00  0.00    -0.248 NA
ATOM     15  C   UNL     1       5.480   1.057   5.697  1.00  0.00     0.031 C 
ATOM     16  C   UNL     1       5.076   5.114   2.793  1.00  0.00     0.029 A 
ATOM     17  N   UNL     1       6.359   5.318   4.607  1.00  0.00    -0.354 N 
ATOM     18  C   UNL     1       6.908   1.926   7.257  1.00  0.00     0.074 A 
ATOM     19  C   UNL     1       6.101   0.801   6.838  1.00  0.00     0.031 C 
ATOM     20  C   UNL     1       5.579   6.359   2.792  1.00  0.00     0.029 A 
ATOM     21  C   UNL     1       6.457   6.520   3.942  1.00  0.00     0.049 A 
ATOM     22  H   UNL     1       6.799   5.141   5.470  1.00  0.00     0.167 HD
ATOM     23  C   UNL     1       7.682   1.938   8.366  1.00  0.00     0.031 A 
ATOM     24  C   UNL     1       7.195   7.615   4.211  1.00  0.00     0.031 A 
ATOM     25  C   UNL     1       8.450   3.077   8.790  1.00  0.00     0.049 A 
ATOM     26  C   UNL     1       8.068   7.597   5.434  1.00  0.00     0.074 A 
ATOM     27  C   UNL     1       9.242   3.215   9.915  1.00  0.00     0.029 A 
ATOM     28  N   UNL     1       8.513   4.282   8.103  1.00  0.00    -0.354 N 
ATOM     29  N   UNL     1       8.251   6.623   6.295  1.00  0.00    -0.248 NA
ATOM     30  C   UNL     1       8.828   8.818   5.727  1.00  0.00     0.031 C 
ATOM     31  C   UNL     1       9.751   4.520   9.929  1.00  0.00     0.029 A 
ATOM     32  C   UNL     1       9.321   5.175   8.785  1.00  0.00     0.049 A 
ATOM     33  H   UNL     1       8.052   4.473   7.255  1.00  0.00     0.167 HD
ATOM     34  C   UNL     1       9.151   7.112   7.232  1.00  0.00     0.074 A 
ATOM     35  C   UNL     1       9.501   8.455   6.811  1.00  0.00     0.031 C 
ATOM     36  C   UNL     1       9.637   6.511   8.347  1.00  0.00     0.031 A 
BRANCH  23  37
ATOM     37  C   UNL     1       7.662   0.698   9.215  1.00  0.00    -0.014 A 
ATOM     38  C   UNL     1       8.282  -0.491   8.787  1.00  0.00     0.010 A 
ATOM     39  C   UNL     1       6.967   0.708  10.437  1.00  0.00     0.010 A 
ATOM     40  C   UNL     1       8.158  -1.662   9.540  1.00  0.00     0.020 A 
ATOM     41  C   UNL     1       6.863  -0.454  11.205  1.00  0.00     0.020 A 
ATOM     42  C   UNL     1       7.439  -1.638  10.739  1.00  0.00     0.054 A 
BRANCH  42  43
ATOM     43  S   UNL     1       7.271  -3.175  11.687  1.00  0.00     0.124 S 
ATOM     44  O   UNL     1       6.290  -3.911  10.893  1.00  0.00    -0.237 OA
ATOM     45  O   UNL     1       8.627  -3.715  11.667  1.00  0.00    -0.237 OA
ATOM     46  O   UNL     1       6.801  -2.724  12.995  1.00  0.00    -0.744 OA
ENDBRANCH  42  43
ENDBRANCH  23  37
BRANCH  24  47
ATOM     47  C   UNL     1       7.171   8.790   3.290  1.00  0.00    -0.014 A 
ATOM     48  C   UNL     1       8.310   9.139   2.540  1.00  0.00     0.010 A 
ATOM     49  C   UNL     1       6.002   9.558   3.139  1.00  0.00     0.010 A 
ATOM     50  C   UNL     1       8.285  10.236   1.671  1.00  0.00     0.020 A 
ATOM     51  C   UNL     1       5.962  10.636   2.248  1.00  0.00     0.020 A 
ATOM     52  C   UNL     1       7.109  10.977   1.529  1.00  0.00     0.054 A 
BRANCH  52  53
ATOM     53  S   UNL     1       7.071  12.361   0.353  1.00  0.00     0.124 S 
ATOM     54  O   UNL     1       7.783  13.401   1.088  1.00  0.00    -0.237 OA
ATOM     55  O   UNL     1       7.770  11.812  -0.806  1.00  0.00    -0.237 OA
ATOM     56  O   UNL     1       5.643  12.596   0.155  1.00  0.00    -0.744 OA
ENDBRANCH  52  53
ENDBRANCH  24  47
BRANCH  36  57
ATOM     57  C   UNL     1      10.607   7.306   9.175  1.00  0.00    -0.014 A 
ATOM     58  C   UNL     1      10.174   8.391   9.958  1.00  0.00     0.010 A 
ATOM     59  C   UNL     1      11.964   6.942   9.189  1.00  0.00     0.010 A 
ATOM     60  C   UNL     1      11.093   9.127  10.708  1.00  0.00     0.020 A 
ATOM     61  C   UNL     1      12.881   7.660   9.958  1.00  0.00     0.020 A 
ATOM     62  C   UNL     1      12.442   8.760  10.698  1.00  0.00     0.054 A 
BRANCH  62  63
ATOM     63  S   UNL     1      13.616   9.717  11.694  1.00  0.00     0.124 S 
ATOM     64  O   UNL     1      13.787  10.921  10.885  1.00  0.00    -0.237 OA
ATOM     65  O   UNL     1      12.896   9.902  12.952  1.00  0.00    -0.237 OA
ATOM     66  O   UNL     1      14.788   8.849  11.775  1.00  0.00    -0.744 OA
ENDBRANCH  62  63
ENDBRANCH  36  57
ENDBRANCH  10  11
ENDBRANCH   3   5
ENDBRANCH   2   3
ENDBRANCH   1   2
BRANCH   1  67
ATOM     67  C   UNL     1       3.909   0.390  -2.247  1.00  0.00     0.275 C 
BRANCH  67  68
ATOM     68  O   UNL     1       3.416   1.514  -1.509  1.00  0.00    -0.458 OA
BRANCH  68  69
ATOM     69  C   UNL     1       2.066   1.691  -1.528  1.00  0.00     0.338 C 
ATOM     70  O   UNL     1       1.242   1.018  -2.112  1.00  0.00    -0.246 OA
BRANCH  69  71
ATOM     71  C   UNL     1       1.742   2.794  -0.601  1.00  0.00     0.063 A 
ATOM     72  C   UNL     1       0.758   2.600   0.371  1.00  0.00     0.016 A 
ATOM     73  C   UNL     1       2.465   3.990  -0.662  1.00  0.00     0.062 A 
ATOM     74  C   UNL     1       0.546   3.588   1.329  1.00  0.00     0.005 A 
ATOM     75  C   UNL     1       2.253   4.979   0.290  1.00  0.00     0.120 A 
ATOM     76  C   UNL     1       1.304   4.764   1.296  1.00  0.00     0.046 A 
BRANCH  75  77
ATOM     77  O   UNL     1       2.958   6.146   0.388  1.00  0.00    -0.488 OA
BRANCH  77  78
ATOM     78  C   UNL     1       3.641   6.642  -0.773  1.00  0.00     0.302 C 
BRANCH  78  79
ATOM     79  C   UNL     1       5.085   6.165  -0.901  1.00  0.00     0.379 C 
ATOM     80  F   UNL     1       5.140   4.978  -1.563  1.00  0.00    -0.207 F 
ATOM     81  F   UNL     1       5.786   7.039  -1.668  1.00  0.00    -0.207 F 
ENDBRANCH  78  79
ENDBRANCH  77  78
ENDBRANCH  75  77
ENDBRANCH  69  71
ENDBRANCH  68  69
ENDBRANCH  67  68
ENDBRANCH   1  67
TORSDOF 17
