REMARK SMILES C[NH+](C)[C@H](CC(=O)Nc1cccc(Cl)c1)C(=O)OCCOC(=O)c1ccc(-c2c3nc(c(-c4ccc(S(=O)(=O)[O-])cc4)c4ccc([nH]4)c(-c4ccc(S(=O)(=O)[O-])cc4)c4nc(c(-c5ccc(S(=O)(=O)[O-])cc5)c5ccc2[nH]5)C=C4)C=C3)cc1
REMARK SMILES IDX 19 1 18 2 16 3 17 4 4 5 2 6 1 7 3 8 5 10 6 11 7 12 8 13 9 15
REMARK SMILES IDX 10 16 15 17 11 18 13 19 12 20 14 21 20 22 21 23 22 24 23 25
REMARK SMILES IDX 24 26 25 27 83 28 26 29 82 30 27 31 28 32 29 33 76 34 30 35
REMARK SMILES IDX 81 36 75 37 77 38 31 39 80 40 74 41 73 42 32 44 62 45 43 46
REMARK SMILES IDX 61 47 44 48 47 49 60 50 78 51 45 52 46 53 59 55 79 56 48 57
REMARK SMILES IDX 33 58 34 59 42 60 35 61 41 62 36 63 37 64 38 65 39 66 40 67
REMARK SMILES IDX 63 68 64 69 72 70 65 71 71 72 66 73 67 74 68 75 69 76 70 77
REMARK SMILES IDX 49 78 50 79 58 80 51 81 57 82 52 83 53 84 54 85 55 86 56 87
REMARK H PARENT 2 9 8 14 77 43 47 54
REMARK Flexibility Score: inf
ROOT
ATOM      1  C   UNL     1       4.688   1.771  -0.746  1.00  0.00     0.274 C 
ENDROOT
BRANCH   1   2
ATOM      2  O   UNL     1       3.259   1.643  -0.583  1.00  0.00    -0.458 OA
BRANCH   2   3
ATOM      3  C   UNL     1       2.492   2.728  -0.869  1.00  0.00     0.365 C 
ATOM      4  O   UNL     1       2.963   3.812  -1.199  1.00  0.00    -0.245 OA
BRANCH   3   5
ATOM      5  C   UNL     1       0.959   2.455  -0.773  1.00  0.00     0.304 C 
BRANCH   5   6
ATOM      6  N   UNL     1       0.302   3.517   0.018  1.00  0.00    -0.328 N 
ATOM      7  C   UNL     1       0.770   3.713   1.373  1.00  0.00     0.333 C 
ATOM      8  C   UNL     1      -1.140   3.608  -0.129  1.00  0.00     0.333 C 
ATOM      9  H   UNL     1       0.660   4.344  -0.459  1.00  0.00     0.348 HD
ENDBRANCH   5   6
BRANCH   5  10
ATOM     10  C   UNL     1       0.537   0.966  -0.761  1.00  0.00     0.177 C 
BRANCH  10  11
ATOM     11  C   UNL     1      -0.495   0.491   0.230  1.00  0.00     0.231 C 
ATOM     12  O   UNL     1      -1.667   0.338  -0.143  1.00  0.00    -0.274 OA
ATOM     13  N   UNL     1      -0.251   0.231   1.540  1.00  0.00    -0.326 N 
ATOM     14  H   UNL     1      -1.060  -0.031   2.036  1.00  0.00     0.169 HD
BRANCH  13  15
ATOM     15  C   UNL     1       0.896   0.252   2.343  1.00  0.00     0.042 A 
ATOM     16  C   UNL     1       2.201   0.186   1.868  1.00  0.00     0.026 A 
ATOM     17  C   UNL     1       0.692   0.378   3.722  1.00  0.00     0.046 A 
ATOM     18  C   UNL     1       3.288   0.381   2.725  1.00  0.00     0.004 A 
ATOM     19  C   UNL     1       1.777   0.554   4.581  1.00  0.00     0.043 A 
ATOM     20  C   UNL     1       3.075   0.587   4.084  1.00  0.00     0.020 A 
ATOM     21  Cl  UNL     1       1.506   0.757   6.268  1.00  0.00    -0.084 Cl
ENDBRANCH  13  15
ENDBRANCH  10  11
ENDBRANCH   5  10
ENDBRANCH   3   5
ENDBRANCH   2   3
ENDBRANCH   1   2
BRANCH   1  22
ATOM     22  C   UNL     1       5.189   0.866  -1.876  1.00  0.00     0.275 C 
BRANCH  22  23
ATOM     23  O   UNL     1       4.761   1.358  -3.156  1.00  0.00    -0.458 OA
BRANCH  23  24
ATOM     24  C   UNL     1       3.542   0.933  -3.553  1.00  0.00     0.338 C 
ATOM     25  O   UNL     1       2.821   0.116  -2.997  1.00  0.00    -0.246 OA
BRANCH  24  26
ATOM     26  C   UNL     1       3.095   1.773  -4.668  1.00  0.00     0.060 A 
ATOM     27  C   UNL     1       2.031   2.642  -4.429  1.00  0.00     0.016 A 
ATOM     28  C   UNL     1       3.686   1.706  -5.925  1.00  0.00     0.016 A 
ATOM     29  C   UNL     1       1.534   3.451  -5.434  1.00  0.00     0.010 A 
ATOM     30  C   UNL     1       3.204   2.538  -6.937  1.00  0.00     0.010 A 
ATOM     31  C   UNL     1       2.129   3.414  -6.693  1.00  0.00    -0.014 A 
BRANCH  31  32
ATOM     32  C   UNL     1       1.621   4.295  -7.762  1.00  0.00     0.031 A 
ATOM     33  C   UNL     1       0.920   3.687  -8.935  1.00  0.00     0.074 A 
ATOM     34  C   UNL     1       1.821   5.623  -7.670  1.00  0.00     0.049 A 
ATOM     35  N   UNL     1       0.582   4.242 -10.066  1.00  0.00    -0.248 NA
ATOM     36  C   UNL     1       0.562   2.261  -8.828  1.00  0.00     0.031 C 
ATOM     37  C   UNL     1       2.433   6.313  -6.529  1.00  0.00     0.029 A 
ATOM     38  N   UNL     1       1.554   6.630  -8.561  1.00  0.00    -0.354 N 
ATOM     39  C   UNL     1       0.021   3.225 -10.828  1.00  0.00     0.074 A 
ATOM     40  C   UNL     1       0.054   2.020 -10.029  1.00  0.00     0.031 C 
ATOM     41  C   UNL     1       2.513   7.625  -6.800  1.00  0.00     0.029 A 
ATOM     42  C   UNL     1       2.030   7.855  -8.156  1.00  0.00     0.049 A 
ATOM     43  H   UNL     1       1.068   6.490  -9.406  1.00  0.00     0.167 HD
ATOM     44  C   UNL     1      -0.458   3.302 -12.090  1.00  0.00     0.031 A 
ATOM     45  C   UNL     1       2.128   9.016  -8.831  1.00  0.00     0.031 A 
ATOM     46  C   UNL     1      -0.490   4.522 -12.851  1.00  0.00     0.049 A 
ATOM     47  C   UNL     1       1.647   9.053 -10.256  1.00  0.00     0.074 A 
ATOM     48  C   UNL     1      -0.992   4.727 -14.123  1.00  0.00     0.029 A 
ATOM     49  N   UNL     1       0.007   5.741 -12.412  1.00  0.00    -0.354 N 
ATOM     50  N   UNL     1       1.099   8.093 -10.965  1.00  0.00    -0.248 NA
ATOM     51  C   UNL     1       1.806  10.322 -10.978  1.00  0.00     0.031 C 
ATOM     52  C   UNL     1      -0.734   6.053 -14.480  1.00  0.00     0.029 A 
ATOM     53  C   UNL     1      -0.134   6.692 -13.405  1.00  0.00     0.049 A 
ATOM     54  H   UNL     1       0.402   5.904 -11.525  1.00  0.00     0.167 HD
ATOM     55  C   UNL     1       0.833   8.647 -12.210  1.00  0.00     0.074 A 
ATOM     56  C   UNL     1       1.258  10.031 -12.150  1.00  0.00     0.031 C 
ATOM     57  C   UNL     1       0.294   8.065 -13.309  1.00  0.00     0.031 A 
BRANCH  44  58
ATOM     58  C   UNL     1      -0.926   2.035 -12.751  1.00  0.00    -0.014 A 
ATOM     59  C   UNL     1      -2.131   1.411 -12.386  1.00  0.00     0.010 A 
ATOM     60  C   UNL     1      -0.175   1.504 -13.817  1.00  0.00     0.010 A 
ATOM     61  C   UNL     1      -2.568   0.270 -13.067  1.00  0.00     0.020 A 
ATOM     62  C   UNL     1      -0.621   0.380 -14.516  1.00  0.00     0.020 A 
ATOM     63  C   UNL     1      -1.813  -0.234 -14.131  1.00  0.00     0.054 A 
BRANCH  63  64
ATOM     64  S   UNL     1      -2.440  -1.674 -15.040  1.00  0.00     0.124 S 
ATOM     65  O   UNL     1      -2.263  -2.747 -14.064  1.00  0.00    -0.237 OA
ATOM     66  O   UNL     1      -3.825  -1.298 -15.315  1.00  0.00    -0.237 OA
ATOM     67  O   UNL     1      -1.573  -1.750 -16.213  1.00  0.00    -0.744 OA
ENDBRANCH  63  64
ENDBRANCH  44  58
BRANCH  45  68
ATOM     68  C   UNL     1       2.780  10.199  -8.204  1.00  0.00    -0.014 A 
ATOM     69  C   UNL     1       2.048  11.365  -7.927  1.00  0.00     0.010 A 
ATOM     70  C   UNL     1       4.154  10.167  -7.892  1.00  0.00     0.010 A 
ATOM     71  C   UNL     1       2.682  12.487  -7.383  1.00  0.00     0.020 A 
ATOM     72  C   UNL     1       4.783  11.273  -7.316  1.00  0.00     0.020 A 
ATOM     73  C   UNL     1       4.046  12.435  -7.084  1.00  0.00     0.054 A 
BRANCH  73  74
ATOM     74  S   UNL     1       4.845  13.898  -6.368  1.00  0.00     0.124 S 
ATOM     75  O   UNL     1       4.906  14.800  -7.514  1.00  0.00    -0.237 OA
ATOM     76  O   UNL     1       3.913  14.281  -5.310  1.00  0.00    -0.237 OA
ATOM     77  O   UNL     1       6.133  13.392  -5.900  1.00  0.00    -0.744 OA
ENDBRANCH  73  74
ENDBRANCH  45  68
BRANCH  57  78
ATOM     78  C   UNL     1       0.107   8.929 -14.525  1.00  0.00    -0.014 A 
ATOM     79  C   UNL     1       1.205   9.321 -15.310  1.00  0.00     0.010 A 
ATOM     80  C   UNL     1      -1.193   9.282 -14.931  1.00  0.00     0.010 A 
ATOM     81  C   UNL     1       1.006  10.065 -16.474  1.00  0.00     0.020 A 
ATOM     82  C   UNL     1      -1.397   9.998 -16.111  1.00  0.00     0.020 A 
ATOM     83  C   UNL     1      -0.294  10.392 -16.871  1.00  0.00     0.054 A 
BRANCH  83  84
ATOM     84  S   UNL     1      -0.527  11.293 -18.427  1.00  0.00     0.124 S 
ATOM     85  O   UNL     1      -0.044  12.627 -18.081  1.00  0.00    -0.237 OA
ATOM     86  O   UNL     1       0.310  10.542 -19.359  1.00  0.00    -0.237 OA
ATOM     87  O   UNL     1      -1.965  11.195 -18.672  1.00  0.00    -0.744 OA
ENDBRANCH  83  84
ENDBRANCH  57  78
ENDBRANCH  31  32
ENDBRANCH  24  26
ENDBRANCH  23  24
ENDBRANCH  22  23
ENDBRANCH   1  22
TORSDOF 18
