REMARK SMILES COCCCC(=O)N[C@H]1CC[C@@H](C(=O)OCCOC(=O)c2ccc(-c3c4nc(c(-c5ccc(S(=O)(=O)[O-])cc5)c5ccc([nH]5)c(-c5ccc(S(=O)(=O)[O-])cc5)c5nc(c(-c6ccc(S(=O)(=O)[O-])cc6)c6ccc3[nH]6)C=C5)C=C4)cc2)CC1
REMARK SMILES IDX 16 1 15 2 13 3 14 4 12 5 9 6 10 7 82 8 11 9 81 10 8 11 6 12
REMARK SMILES IDX 7 13 5 15 4 16 3 17 2 18 1 19 17 20 18 21 19 22 20 23 21 24
REMARK SMILES IDX 22 25 80 26 23 27 79 28 24 29 25 30 26 31 73 32 27 33 78 34
REMARK SMILES IDX 72 35 74 36 28 37 77 38 71 39 70 40 29 42 59 43 40 44 58 45
REMARK SMILES IDX 41 46 44 47 57 48 75 49 42 50 43 51 56 53 76 54 45 55 30 56
REMARK SMILES IDX 31 57 39 58 32 59 38 60 33 61 34 62 35 63 36 64 37 65 60 66
REMARK SMILES IDX 61 67 69 68 62 69 68 70 63 71 64 72 65 73 66 74 67 75 46 76
REMARK SMILES IDX 47 77 55 78 48 79 54 80 49 81 50 82 51 83 52 84 53 85
REMARK H PARENT 8 14 74 41 44 52
REMARK Flexibility Score: inf
ROOT
ATOM      1  C   UNL     1       1.325   3.012   4.619  1.00  0.00     0.274 C 
ENDROOT
BRANCH   1   2
ATOM      2  O   UNL     1       1.921   3.096   3.311  1.00  0.00    -0.462 OA
BRANCH   2   3
ATOM      3  C   UNL     1       1.085   3.139   2.246  1.00  0.00     0.309 C 
ATOM      4  O   UNL     1      -0.134   3.033   2.317  1.00  0.00    -0.252 OA
BRANCH   3   5
ATOM      5  C   UNL     1       1.820   3.312   0.911  1.00  0.00     0.099 C 
ATOM      6  C   UNL     1       3.290   0.709   0.877  1.00  0.00     0.082 C 
ATOM      7  C   UNL     1       1.821   0.861   0.501  1.00  0.00     0.026 C 
ATOM      8  C   UNL     1       3.946   1.998   1.424  1.00  0.00     0.026 C 
ATOM      9  C   UNL     1       1.398   2.209  -0.052  1.00  0.00     0.017 C 
ATOM     10  C   UNL     1       3.343   3.325   0.972  1.00  0.00     0.017 C 
BRANCH   6  11
ATOM     11  N   UNL     1       3.568  -0.357   1.868  1.00  0.00    -0.353 N 
ATOM     12  C   UNL     1       2.893  -1.391   2.434  1.00  0.00     0.220 C 
ATOM     13  O   UNL     1       3.468  -2.006   3.338  1.00  0.00    -0.275 OA
ATOM     14  H   UNL     1       4.490  -0.301   2.207  1.00  0.00     0.163 HD
BRANCH  12  15
ATOM     15  C   UNL     1       1.502  -1.804   2.006  1.00  0.00     0.102 C 
BRANCH  15  16
ATOM     16  C   UNL     1       0.396  -1.180   2.866  1.00  0.00     0.038 C 
BRANCH  16  17
ATOM     17  C   UNL     1      -0.873  -0.803   2.091  1.00  0.00     0.160 C 
BRANCH  17  18
ATOM     18  O   UNL     1      -1.258  -1.842   1.192  1.00  0.00    -0.385 OA
ATOM     19  C   UNL     1      -1.302  -1.409  -0.164  1.00  0.00     0.194 C 
ENDBRANCH  17  18
ENDBRANCH  16  17
ENDBRANCH  15  16
ENDBRANCH  12  15
ENDBRANCH   6  11
ENDBRANCH   3   5
ENDBRANCH   2   3
ENDBRANCH   1   2
BRANCH   1  20
ATOM     20  C   UNL     1       1.504   4.338   5.355  1.00  0.00     0.275 C 
BRANCH  20  21
ATOM     21  O   UNL     1       0.759   5.378   4.697  1.00  0.00    -0.458 OA
BRANCH  21  22
ATOM     22  C   UNL     1       1.449   6.088   3.777  1.00  0.00     0.338 C 
ATOM     23  O   UNL     1       2.634   5.998   3.492  1.00  0.00    -0.246 OA
BRANCH  22  24
ATOM     24  C   UNL     1       0.515   6.957   3.059  1.00  0.00     0.060 A 
ATOM     25  C   UNL     1      -0.110   6.471   1.909  1.00  0.00     0.016 A 
ATOM     26  C   UNL     1       0.311   8.268   3.484  1.00  0.00     0.016 A 
ATOM     27  C   UNL     1      -0.924   7.303   1.154  1.00  0.00     0.010 A 
ATOM     28  C   UNL     1      -0.546   9.089   2.751  1.00  0.00     0.010 A 
ATOM     29  C   UNL     1      -1.160   8.614   1.579  1.00  0.00    -0.014 A 
BRANCH  29  30
ATOM     30  C   UNL     1      -2.060   9.488   0.798  1.00  0.00     0.031 A 
ATOM     31  C   UNL     1      -1.500  10.670   0.066  1.00  0.00     0.074 A 
ATOM     32  C   UNL     1      -3.378   9.215   0.765  1.00  0.00     0.049 A 
ATOM     33  N   UNL     1      -2.134  11.643  -0.532  1.00  0.00    -0.248 NA
ATOM     34  C   UNL     1      -0.032  10.774   0.003  1.00  0.00     0.031 C 
ATOM     35  C   UNL     1      -4.020   8.057   1.394  1.00  0.00     0.029 A 
ATOM     36  N   UNL     1      -4.416   9.898   0.187  1.00  0.00    -0.354 N 
ATOM     37  C   UNL     1      -1.148  12.496  -1.010  1.00  0.00     0.074 A 
ATOM     38  C   UNL     1       0.128  11.926  -0.634  1.00  0.00     0.031 C 
ATOM     39  C   UNL     1      -5.341   8.112   1.169  1.00  0.00     0.029 A 
ATOM     40  C   UNL     1      -5.646   9.339   0.443  1.00  0.00     0.049 A 
ATOM     41  H   UNL     1      -4.293  10.709  -0.357  1.00  0.00     0.167 HD
ATOM     42  C   UNL     1      -1.301  13.656  -1.692  1.00  0.00     0.031 A 
ATOM     43  C   UNL     1      -6.883   9.793   0.168  1.00  0.00     0.031 A 
ATOM     44  C   UNL     1      -2.579  14.205  -2.059  1.00  0.00     0.049 A 
ATOM     45  C   UNL     1      -7.028  11.115  -0.529  1.00  0.00     0.074 A 
ATOM     46  C   UNL     1      -2.850  15.368  -2.757  1.00  0.00     0.029 A 
ATOM     47  N   UNL     1      -3.803  13.626  -1.754  1.00  0.00    -0.354 N 
ATOM     48  N   UNL     1      -6.089  11.926  -0.956  1.00  0.00    -0.248 NA
ATOM     49  C   UNL     1      -8.396  11.591  -0.767  1.00  0.00     0.031 C 
ATOM     50  C   UNL     1      -4.240  15.515  -2.834  1.00  0.00     0.029 A 
ATOM     51  C   UNL     1      -4.833  14.420  -2.226  1.00  0.00     0.049 A 
ATOM     52  H   UNL     1      -3.921  12.775  -1.273  1.00  0.00     0.167 HD
ATOM     53  C   UNL     1      -6.753  13.009  -1.518  1.00  0.00     0.074 A 
ATOM     54  C   UNL     1      -8.172  12.737  -1.396  1.00  0.00     0.031 C 
ATOM     55  C   UNL     1      -6.237  14.130  -2.079  1.00  0.00     0.031 A 
BRANCH  42  56
ATOM     56  C   UNL     1      -0.058  14.428  -2.036  1.00  0.00    -0.014 A 
ATOM     57  C   UNL     1       0.810  14.004  -3.057  1.00  0.00     0.010 A 
ATOM     58  C   UNL     1       0.233  15.615  -1.338  1.00  0.00     0.010 A 
ATOM     59  C   UNL     1       1.966  14.735  -3.350  1.00  0.00     0.020 A 
ATOM     60  C   UNL     1       1.376  16.360  -1.642  1.00  0.00     0.020 A 
ATOM     61  C   UNL     1       2.245  15.905  -2.636  1.00  0.00     0.054 A 
BRANCH  61  62
ATOM     62  S   UNL     1       3.743  16.842  -3.044  1.00  0.00     0.124 S 
ATOM     63  O   UNL     1       4.787  16.016  -2.443  1.00  0.00    -0.237 OA
ATOM     64  O   UNL     1       3.723  16.863  -4.505  1.00  0.00    -0.237 OA
ATOM     65  O   UNL     1       3.527  18.137  -2.403  1.00  0.00    -0.744 OA
ENDBRANCH  61  62
ENDBRANCH  42  56
BRANCH  43  66
ATOM     66  C   UNL     1      -8.070   9.015   0.612  1.00  0.00    -0.014 A 
ATOM     67  C   UNL     1      -8.880   8.347  -0.321  1.00  0.00     0.010 A 
ATOM     68  C   UNL     1      -8.378   8.916   1.982  1.00  0.00     0.010 A 
ATOM     69  C   UNL     1      -9.979   7.597   0.107  1.00  0.00     0.020 A 
ATOM     70  C   UNL     1      -9.460   8.146   2.416  1.00  0.00     0.020 A 
ATOM     71  C   UNL     1     -10.261   7.499   1.473  1.00  0.00     0.054 A 
BRANCH  71  72
ATOM     72  S   UNL     1     -11.652   6.467   2.014  1.00  0.00     0.124 S 
ATOM     73  O   UNL     1     -12.796   7.324   1.719  1.00  0.00    -0.237 OA
ATOM     74  O   UNL     1     -11.515   5.282   1.171  1.00  0.00    -0.237 OA
ATOM     75  O   UNL     1     -11.381   6.247   3.433  1.00  0.00    -0.744 OA
ENDBRANCH  71  72
ENDBRANCH  43  66
BRANCH  55  76
ATOM     76  C   UNL     1      -7.217  15.137  -2.611  1.00  0.00    -0.014 A 
ATOM     77  C   UNL     1      -7.931  15.977  -1.739  1.00  0.00     0.010 A 
ATOM     78  C   UNL     1      -7.389  15.275  -3.999  1.00  0.00     0.010 A 
ATOM     79  C   UNL     1      -8.822  16.924  -2.248  1.00  0.00     0.020 A 
ATOM     80  C   UNL     1      -8.263  16.236  -4.512  1.00  0.00     0.020 A 
ATOM     81  C   UNL     1      -8.984  17.046  -3.632  1.00  0.00     0.054 A 
BRANCH  81  82
ATOM     82  S   UNL     1     -10.112  18.312  -4.272  1.00  0.00     0.124 S 
ATOM     83  O   UNL     1     -11.418  17.701  -4.039  1.00  0.00    -0.237 OA
ATOM     84  O   UNL     1      -9.803  19.472  -3.439  1.00  0.00    -0.237 OA
ATOM     85  O   UNL     1      -9.725  18.441  -5.676  1.00  0.00    -0.744 OA
ENDBRANCH  81  82
ENDBRANCH  55  76
ENDBRANCH  29  30
ENDBRANCH  22  24
ENDBRANCH  21  22
ENDBRANCH  20  21
ENDBRANCH   1  20
TORSDOF 19
