REMARK SMILES O=C(OCCOC(=O)[C@H]1CS[C@]2(c3ccccc3)CCC(=O)N12)c1ccc(-c2c3nc(c(-c4ccc(S(=O)(=O)[O-])cc4)c4ccc([nH]4)c(-c4ccc(S(=O)(=O)[O-])cc4)c4nc(c(-c5ccc(S(=O)(=O)[O-])cc5)c5ccc2[nH]5)C=C4)C=C3)cc1
REMARK SMILES IDX 4 1 3 2 2 3 1 4 24 5 25 6 83 7 26 8 82 9 27 10 28 11 29 12
REMARK SMILES IDX 76 13 30 14 81 15 75 16 77 17 31 18 80 19 74 20 73 21 32 23
REMARK SMILES IDX 62 24 43 25 61 26 44 27 47 28 60 29 78 30 45 31 46 32 59 34
REMARK SMILES IDX 79 35 48 36 33 37 34 38 42 39 35 40 41 41 36 42 37 43 38 44
REMARK SMILES IDX 39 45 40 46 63 47 64 48 72 49 65 50 71 51 66 52 67 53 68 54
REMARK SMILES IDX 69 55 70 56 49 57 50 58 58 59 51 60 57 61 52 62 53 63 54 64
REMARK SMILES IDX 55 65 56 66 5 67 6 68 7 69 8 70 9 71 10 72 23 73 11 74 12 75
REMARK SMILES IDX 21 76 19 77 20 78 22 79 13 80 14 81 18 82 15 83 17 84 16 85
REMARK H PARENT 77 22 47 33
REMARK Flexibility Score: inf
ROOT
ATOM      1  C   UNL     1       4.367  -1.176   0.720  1.00  0.00     0.275 C 
ENDROOT
BRANCH   1   2
ATOM      2  O   UNL     1       3.247  -0.344   1.049  1.00  0.00    -0.458 OA
BRANCH   2   3
ATOM      3  C   UNL     1       2.939   0.899   0.612  1.00  0.00     0.338 C 
ATOM      4  O   UNL     1       1.912   1.415   1.056  1.00  0.00    -0.246 OA
BRANCH   3   5
ATOM      5  C   UNL     1       3.680   1.645  -0.467  1.00  0.00     0.060 A 
ATOM      6  C   UNL     1       4.882   1.270  -1.085  1.00  0.00     0.016 A 
ATOM      7  C   UNL     1       3.008   2.765  -0.993  1.00  0.00     0.016 A 
ATOM      8  C   UNL     1       5.345   1.906  -2.245  1.00  0.00     0.010 A 
ATOM      9  C   UNL     1       3.453   3.391  -2.161  1.00  0.00     0.010 A 
ATOM     10  C   UNL     1       4.623   2.955  -2.802  1.00  0.00    -0.014 A 
BRANCH  10  11
ATOM     11  C   UNL     1       5.170   3.748  -3.925  1.00  0.00     0.031 A 
ATOM     12  C   UNL     1       5.668   5.113  -3.595  1.00  0.00     0.074 A 
ATOM     13  C   UNL     1       5.197   3.297  -5.192  1.00  0.00     0.049 A 
ATOM     14  N   UNL     1       6.050   6.064  -4.397  1.00  0.00    -0.248 NA
ATOM     15  C   UNL     1       5.754   5.443  -2.161  1.00  0.00     0.031 C 
ATOM     16  C   UNL     1       4.872   1.940  -5.602  1.00  0.00     0.029 A 
ATOM     17  N   UNL     1       5.461   3.937  -6.378  1.00  0.00    -0.354 N 
ATOM     18  C   UNL     1       6.437   7.100  -3.564  1.00  0.00     0.074 A 
ATOM     19  C   UNL     1       6.149   6.702  -2.206  1.00  0.00     0.031 C 
ATOM     20  C   UNL     1       4.820   1.872  -6.942  1.00  0.00     0.029 A 
ATOM     21  C   UNL     1       5.133   3.183  -7.486  1.00  0.00     0.049 A 
ATOM     22  H   UNL     1       5.846   4.842  -6.432  1.00  0.00     0.167 HD
ATOM     23  C   UNL     1       7.030   8.263  -3.906  1.00  0.00     0.031 A 
ATOM     24  C   UNL     1       5.066   3.523  -8.788  1.00  0.00     0.031 A 
ATOM     25  C   UNL     1       7.272   8.640  -5.267  1.00  0.00     0.049 A 
ATOM     26  C   UNL     1       5.555   4.890  -9.168  1.00  0.00     0.074 A 
ATOM     27  C   UNL     1       7.862   9.788  -5.753  1.00  0.00     0.029 A 
ATOM     28  N   UNL     1       6.911   7.868  -6.366  1.00  0.00    -0.354 N 
ATOM     29  N   UNL     1       5.963   5.854  -8.375  1.00  0.00    -0.248 NA
ATOM     30  C   UNL     1       5.647   5.201 -10.598  1.00  0.00     0.031 C 
ATOM     31  C   UNL     1       7.801   9.739  -7.149  1.00  0.00     0.029 A 
ATOM     32  C   UNL     1       7.238   8.528  -7.534  1.00  0.00     0.049 A 
ATOM     33  H   UNL     1       6.485   6.982  -6.319  1.00  0.00     0.167 HD
ATOM     34  C   UNL     1       6.435   6.856  -9.207  1.00  0.00     0.074 A 
ATOM     35  C   UNL     1       6.225   6.397 -10.569  1.00  0.00     0.031 C 
ATOM     36  C   UNL     1       7.024   8.030  -8.873  1.00  0.00     0.031 A 
BRANCH  23  37
ATOM     37  C   UNL     1       7.387   9.176  -2.770  1.00  0.00    -0.014 A 
ATOM     38  C   UNL     1       8.367   8.808  -1.826  1.00  0.00     0.010 A 
ATOM     39  C   UNL     1       6.642  10.348  -2.568  1.00  0.00     0.010 A 
ATOM     40  C   UNL     1       8.525   9.545  -0.651  1.00  0.00     0.020 A 
ATOM     41  C   UNL     1       6.824  11.109  -1.410  1.00  0.00     0.020 A 
ATOM     42  C   UNL     1       7.738  10.681  -0.444  1.00  0.00     0.054 A 
BRANCH  42  43
ATOM     43  S   UNL     1       7.908  11.581   1.120  1.00  0.00     0.124 S 
ATOM     44  O   UNL     1       7.234  10.684   2.056  1.00  0.00    -0.237 OA
ATOM     45  O   UNL     1       9.357  11.677   1.278  1.00  0.00    -0.237 OA
ATOM     46  O   UNL     1       7.226  12.847   0.867  1.00  0.00    -0.744 OA
ENDBRANCH  42  43
ENDBRANCH  23  37
BRANCH  24  47
ATOM     47  C   UNL     1       4.547   2.551  -9.794  1.00  0.00    -0.014 A 
ATOM     48  C   UNL     1       5.413   1.875 -10.670  1.00  0.00     0.010 A 
ATOM     49  C   UNL     1       3.170   2.258  -9.845  1.00  0.00     0.010 A 
ATOM     50  C   UNL     1       4.915   0.929 -11.575  1.00  0.00     0.020 A 
ATOM     51  C   UNL     1       2.669   1.304 -10.739  1.00  0.00     0.020 A 
ATOM     52  C   UNL     1       3.547   0.643 -11.598  1.00  0.00     0.054 A 
BRANCH  52  53
ATOM     53  S   UNL     1       2.943  -0.647 -12.725  1.00  0.00     0.124 S 
ATOM     54  O   UNL     1       3.194  -0.056 -14.035  1.00  0.00    -0.237 OA
ATOM     55  O   UNL     1       3.788  -1.785 -12.369  1.00  0.00    -0.237 OA
ATOM     56  O   UNL     1       1.535  -0.791 -12.361  1.00  0.00    -0.744 OA
ENDBRANCH  52  53
ENDBRANCH  24  47
BRANCH  36  57
ATOM     57  C   UNL     1       7.555   8.882  -9.988  1.00  0.00    -0.014 A 
ATOM     58  C   UNL     1       6.697   9.653 -10.787  1.00  0.00     0.010 A 
ATOM     59  C   UNL     1       8.949   9.020 -10.124  1.00  0.00     0.010 A 
ATOM     60  C   UNL     1       7.230  10.567 -11.698  1.00  0.00     0.020 A 
ATOM     61  C   UNL     1       9.483   9.953 -11.011  1.00  0.00     0.020 A 
ATOM     62  C   UNL     1       8.618  10.723 -11.790  1.00  0.00     0.054 A 
BRANCH  62  63
ATOM     63  S   UNL     1       9.277  12.013 -12.879  1.00  0.00     0.124 S 
ATOM     64  O   UNL     1       9.039  11.445 -14.202  1.00  0.00    -0.237 OA
ATOM     65  O   UNL     1       8.455  13.171 -12.533  1.00  0.00    -0.237 OA
ATOM     66  O   UNL     1      10.681  12.115 -12.486  1.00  0.00    -0.744 OA
ENDBRANCH  62  63
ENDBRANCH  36  57
ENDBRANCH  10  11
ENDBRANCH   3   5
ENDBRANCH   2   3
ENDBRANCH   1   2
BRANCH   1  67
ATOM     67  C   UNL     1       4.192  -1.952  -0.593  1.00  0.00     0.274 C 
BRANCH  67  68
ATOM     68  O   UNL     1       3.378  -1.240  -1.550  1.00  0.00    -0.461 OA
BRANCH  68  69
ATOM     69  C   UNL     1       2.249  -1.872  -1.984  1.00  0.00     0.329 C 
ATOM     70  O   UNL     1       1.954  -3.017  -1.658  1.00  0.00    -0.250 OA
BRANCH  69  71
ATOM     71  C   UNL     1       1.359  -1.002  -2.889  1.00  0.00     0.206 C 
ATOM     72  C   UNL     1       1.682   0.476  -3.055  1.00  0.00     0.109 C 
ATOM     73  N   UNL     1       1.051  -1.540  -4.218  1.00  0.00    -0.309 N 
ATOM     74  S   UNL     1       1.775   0.875  -4.817  1.00  0.00    -0.126 SA
ATOM     75  C   UNL     1       1.643  -0.866  -5.373  1.00  0.00     0.116 C 
ATOM     76  C   UNL     1      -0.321  -1.784  -4.416  1.00  0.00     0.224 C 
ATOM     77  C   UNL     1       0.530  -0.955  -6.432  1.00  0.00     0.055 C 
ATOM     78  C   UNL     1      -0.755  -1.024  -5.641  1.00  0.00     0.104 C 
ATOM     79  O   UNL     1      -1.081  -2.297  -3.622  1.00  0.00    -0.275 OA
BRANCH  75  80
ATOM     80  C   UNL     1       3.003  -1.393  -5.877  1.00  0.00    -0.012 A 
ATOM     81  C   UNL     1       4.145  -1.480  -5.058  1.00  0.00     0.007 A 
ATOM     82  C   UNL     1       3.204  -1.707  -7.244  1.00  0.00     0.007 A 
ATOM     83  C   UNL     1       5.408  -1.819  -5.579  1.00  0.00     0.000 A 
ATOM     84  C   UNL     1       4.454  -2.074  -7.760  1.00  0.00     0.000 A 
ATOM     85  C   UNL     1       5.561  -2.116  -6.929  1.00  0.00     0.000 A 
ENDBRANCH  75  80
ENDBRANCH  69  71
ENDBRANCH  68  69
ENDBRANCH  67  68
ENDBRANCH   1  67
TORSDOF 15
