REMARK SMILES COc1ccccc1[C@@H]1Nc2ccc(C(=O)OCCOC(=O)c3ccc(-c4c5nc(c(-c6ccc(S(=O)(=O)[O-])cc6)c6ccc([nH]6)c(-c6ccc(S(=O)(=O)[O-])cc6)c6nc(c(-c7ccc(S(=O)(=O)[O-])cc7)c7ccc4[nH]7)C=C6)C=C5)cc3)cc2[C@H]2C=CC[C@@H]21
REMARK SMILES IDX 19 1 18 2 17 3 15 4 16 5 14 6 9 7 10 8 89 9 11 10 85 12
REMARK SMILES IDX 88 13 12 14 84 15 86 16 87 17 13 18 83 19 8 20 3 21 4 22
REMARK SMILES IDX 5 23 7 24 6 25 2 26 1 27 20 28 21 29 22 30 23 31 24 32 82 33
REMARK SMILES IDX 25 34 81 35 26 36 27 37 28 38 75 39 29 40 80 41 74 42 76 43
REMARK SMILES IDX 30 44 79 45 73 46 72 47 31 49 61 50 42 51 60 52 43 53 46 54
REMARK SMILES IDX 59 55 77 56 44 57 45 58 58 60 78 61 47 62 32 63 33 64 41 65
REMARK SMILES IDX 34 66 40 67 35 68 36 69 37 70 38 71 39 72 62 73 63 74 71 75
REMARK SMILES IDX 64 76 70 77 65 78 66 79 67 80 68 81 69 82 48 83 49 84 57 85
REMARK SMILES IDX 50 86 56 87 51 88 52 89 53 90 54 91 55 92
REMARK H PARENT 10 11 76 48 46 59
REMARK Flexibility Score: inf
ROOT
ATOM      1  C   UNL     1      12.956   0.278  -1.114  1.00  0.00     0.275 C 
ENDROOT
BRANCH   1   2
ATOM      2  C   UNL     1      11.960   0.350   0.046  1.00  0.00     0.275 C 
BRANCH   2   3
ATOM      3  O   UNL     1      10.814  -0.488  -0.184  1.00  0.00    -0.458 OA
BRANCH   3   4
ATOM      4  C   UNL     1       9.756   0.149  -0.729  1.00  0.00     0.338 C 
ATOM      5  O   UNL     1       9.674   1.334  -1.014  1.00  0.00    -0.246 OA
BRANCH   4   6
ATOM      6  C   UNL     1       8.605  -0.757  -0.811  1.00  0.00     0.060 A 
ATOM      7  C   UNL     1       3.677  -1.354  -0.206  1.00  0.00     0.117 C 
ATOM      8  N   UNL     1       4.655  -2.106  -1.044  1.00  0.00    -0.378 N 
ATOM      9  C   UNL     1       4.437  -0.400   0.728  1.00  0.00     0.031 C 
ATOM     10  C   UNL     1       6.021  -1.826  -0.952  1.00  0.00     0.038 A 
ATOM     11  H   UNL     1       4.337  -2.802  -1.664  1.00  0.00     0.161 HD
ATOM     12  C   UNL     1       5.575  -1.181   1.398  1.00  0.00     0.049 C 
ATOM     13  C   UNL     1       3.794   0.433   1.828  1.00  0.00     0.034 C 
ATOM     14  C   UNL     1       6.835  -1.814  -2.088  1.00  0.00     0.027 A 
ATOM     15  C   UNL     1       6.555  -1.351   0.272  1.00  0.00    -0.017 A 
ATOM     16  C   UNL     1       5.916  -0.288   2.548  1.00  0.00    -0.023 C 
ATOM     17  C   UNL     1       4.943   0.601   2.781  1.00  0.00    -0.030 C 
ATOM     18  C   UNL     1       8.121  -1.256  -2.026  1.00  0.00     0.018 A 
ATOM     19  C   UNL     1       7.852  -0.854   0.348  1.00  0.00     0.022 A 
BRANCH   7  20
ATOM     20  C   UNL     1       2.688  -2.275   0.493  1.00  0.00     0.017 A 
ATOM     21  C   UNL     1       1.434  -1.824   0.953  1.00  0.00     0.124 A 
ATOM     22  C   UNL     1       0.592  -2.670   1.688  1.00  0.00     0.047 A 
ATOM     23  C   UNL     1       0.968  -3.981   1.967  1.00  0.00     0.004 A 
ATOM     24  C   UNL     1       3.043  -3.609   0.791  1.00  0.00     0.010 A 
ATOM     25  C   UNL     1       2.197  -4.450   1.521  1.00  0.00     0.001 A 
BRANCH  21  26
ATOM     26  O   UNL     1       1.013  -0.519   0.912  1.00  0.00    -0.496 OA
ATOM     27  C   UNL     1       0.779   0.010  -0.388  1.00  0.00     0.278 C 
ENDBRANCH  21  26
ENDBRANCH   7  20
ENDBRANCH   4   6
ENDBRANCH   3   4
ENDBRANCH   2   3
ENDBRANCH   1   2
BRANCH   1  28
ATOM     28  O   UNL     1      12.476   0.972  -2.280  1.00  0.00    -0.458 OA
BRANCH  28  29
ATOM     29  C   UNL     1      11.748   0.216  -3.137  1.00  0.00     0.338 C 
ATOM     30  O   UNL     1      11.507  -0.974  -3.053  1.00  0.00    -0.246 OA
BRANCH  29  31
ATOM     31  C   UNL     1      11.175   1.065  -4.190  1.00  0.00     0.060 A 
ATOM     32  C   UNL     1       9.803   1.328  -4.164  1.00  0.00     0.016 A 
ATOM     33  C   UNL     1      11.957   1.484  -5.264  1.00  0.00     0.016 A 
ATOM     34  C   UNL     1       9.193   1.968  -5.233  1.00  0.00     0.010 A 
ATOM     35  C   UNL     1      11.349   2.165  -6.322  1.00  0.00     0.010 A 
ATOM     36  C   UNL     1       9.960   2.389  -6.322  1.00  0.00    -0.014 A 
BRANCH  36  37
ATOM     37  C   UNL     1       9.290   3.023  -7.480  1.00  0.00     0.031 A 
ATOM     38  C   UNL     1       9.227   2.295  -8.792  1.00  0.00     0.074 A 
ATOM     39  C   UNL     1       8.708   4.229  -7.333  1.00  0.00     0.049 A 
ATOM     40  N   UNL     1       8.780   2.715  -9.946  1.00  0.00    -0.248 NA
ATOM     41  C   UNL     1       9.734   0.911  -8.810  1.00  0.00     0.031 C 
ATOM     42  C   UNL     1       8.648   4.995  -6.084  1.00  0.00     0.029 A 
ATOM     43  N   UNL     1       8.053   5.022  -8.239  1.00  0.00    -0.354 N 
ATOM     44  C   UNL     1       8.963   1.658 -10.830  1.00  0.00     0.074 A 
ATOM     45  C   UNL     1       9.589   0.586 -10.088  1.00  0.00     0.031 C 
ATOM     46  C   UNL     1       7.986   6.142  -6.303  1.00  0.00     0.029 A 
ATOM     47  C   UNL     1       7.635   6.223  -7.716  1.00  0.00     0.049 A 
ATOM     48  H   UNL     1       7.897   4.757  -9.174  1.00  0.00     0.167 HD
ATOM     49  C   UNL     1       8.628   1.588 -12.140  1.00  0.00     0.031 A 
ATOM     50  C   UNL     1       7.069   7.286  -8.320  1.00  0.00     0.031 A 
ATOM     51  C   UNL     1       8.005   2.664 -12.865  1.00  0.00     0.049 A 
ATOM     52  C   UNL     1       6.807   7.218  -9.801  1.00  0.00     0.074 A 
ATOM     53  C   UNL     1       7.645   2.708 -14.200  1.00  0.00     0.029 A 
ATOM     54  N   UNL     1       7.640   3.883 -12.312  1.00  0.00    -0.354 N 
ATOM     55  N   UNL     1       7.008   6.221 -10.630  1.00  0.00    -0.248 NA
ATOM     56  C   UNL     1       6.239   8.419 -10.428  1.00  0.00     0.031 C 
ATOM     57  C   UNL     1       7.108   3.971 -14.467  1.00  0.00     0.029 A 
ATOM     58  C   UNL     1       7.072   4.690 -13.283  1.00  0.00     0.049 A 
ATOM     59  H   UNL     1       7.766   4.137 -11.370  1.00  0.00     0.167 HD
ATOM     60  C   UNL     1       6.558   6.664 -11.869  1.00  0.00     0.074 A 
ATOM     61  C   UNL     1       6.057   8.009 -11.675  1.00  0.00     0.031 C 
ATOM     62  C   UNL     1       6.562   6.019 -13.062  1.00  0.00     0.031 A 
BRANCH  49  63
ATOM     63  C   UNL     1       8.939   0.315 -12.881  1.00  0.00    -0.014 A 
ATOM     64  C   UNL     1       8.202  -0.859 -12.644  1.00  0.00     0.010 A 
ATOM     65  C   UNL     1       9.930   0.311 -13.880  1.00  0.00     0.010 A 
ATOM     66  C   UNL     1       8.461  -2.018 -13.382  1.00  0.00     0.020 A 
ATOM     67  C   UNL     1      10.173  -0.838 -14.639  1.00  0.00     0.020 A 
ATOM     68  C   UNL     1       9.441  -1.998 -14.380  1.00  0.00     0.054 A 
BRANCH  68  69
ATOM     69  S   UNL     1       9.709  -3.499 -15.361  1.00  0.00     0.124 S 
ATOM     70  O   UNL     1      10.320  -4.395 -14.382  1.00  0.00    -0.237 OA
ATOM     71  O   UNL     1       8.355  -3.854 -15.777  1.00  0.00    -0.237 OA
ATOM     72  O   UNL     1      10.594  -3.059 -16.437  1.00  0.00    -0.744 OA
ENDBRANCH  68  69
ENDBRANCH  49  63
BRANCH  50  73
ATOM     73  C   UNL     1       6.763   8.523  -7.548  1.00  0.00    -0.014 A 
ATOM     74  C   UNL     1       5.439   8.970  -7.399  1.00  0.00     0.010 A 
ATOM     75  C   UNL     1       7.807   9.291  -6.998  1.00  0.00     0.010 A 
ATOM     76  C   UNL     1       5.168  10.186  -6.763  1.00  0.00     0.020 A 
ATOM     77  C   UNL     1       7.538  10.487  -6.328  1.00  0.00     0.020 A 
ATOM     78  C   UNL     1       6.221  10.940  -6.238  1.00  0.00     0.054 A 
BRANCH  78  79
ATOM     79  S   UNL     1       5.850  12.522  -5.432  1.00  0.00     0.124 S 
ATOM     80  O   UNL     1       5.516  13.370  -6.572  1.00  0.00    -0.237 OA
ATOM     81  O   UNL     1       4.737  12.174  -4.553  1.00  0.00    -0.237 OA
ATOM     82  O   UNL     1       7.096  12.857  -4.746  1.00  0.00    -0.744 OA
ENDBRANCH  78  79
ENDBRANCH  50  73
BRANCH  62  83
ATOM     83  C   UNL     1       5.950   6.738 -14.235  1.00  0.00    -0.014 A 
ATOM     84  C   UNL     1       6.581   7.846 -14.826  1.00  0.00     0.010 A 
ATOM     85  C   UNL     1       4.745   6.261 -14.782  1.00  0.00     0.010 A 
ATOM     86  C   UNL     1       5.997   8.488 -15.921  1.00  0.00     0.020 A 
ATOM     87  C   UNL     1       4.176   6.879 -15.898  1.00  0.00     0.020 A 
ATOM     88  C   UNL     1       4.799   7.999 -16.451  1.00  0.00     0.054 A 
BRANCH  88  89
ATOM     89  S   UNL     1       4.086   8.823 -17.900  1.00  0.00     0.124 S 
ATOM     90  O   UNL     1       3.595  10.074 -17.327  1.00  0.00    -0.237 OA
ATOM     91  O   UNL     1       5.235   8.949 -18.793  1.00  0.00    -0.237 OA
ATOM     92  O   UNL     1       3.051   7.897 -18.352  1.00  0.00    -0.744 OA
ENDBRANCH  88  89
ENDBRANCH  62  83
ENDBRANCH  36  37
ENDBRANCH  29  31
ENDBRANCH  28  29
ENDBRANCH   1  28
TORSDOF 16
