REMARK SMILES Cc1cccc(NC(=O)COc2ccc(N3C[C@@H](C(=O)OCCOC(=O)c4ccc(-c5c6nc(c(-c7ccc(S(=O)(=O)[O-])cc7)c7ccc([nH]7)c(-c7ccc(S(=O)(=O)[O-])cc7)c7nc(c(-c8ccc(S(=O)(=O)[O-])cc8)c8ccc5[nH]8)C=C7)C=C6)cc4)CC3=O)cc2)c1
REMARK SMILES IDX 22 1 21 2 19 3 20 4 18 5 16 6 17 7 88 8 87 9 89 10 15 11
REMARK SMILES IDX 12 12 13 13 91 14 14 15 90 16 11 17 10 18 8 19 7 20 9 22
REMARK SMILES IDX 6 23 1 24 2 25 3 26 92 27 4 28 5 29 23 30 24 31 25 32 26 33
REMARK SMILES IDX 27 34 28 35 86 36 29 37 85 38 30 39 31 40 32 41 79 42 33 43
REMARK SMILES IDX 84 44 78 45 80 46 34 47 83 48 77 49 76 50 35 52 65 53 46 54
REMARK SMILES IDX 64 55 47 56 50 57 63 58 81 59 48 60 49 61 62 63 82 64 51 65
REMARK SMILES IDX 36 66 37 67 45 68 38 69 44 70 39 71 40 72 41 73 42 74 43 75
REMARK SMILES IDX 66 76 67 77 75 78 68 79 74 80 69 81 70 82 71 83 72 84 73 85
REMARK SMILES IDX 52 86 53 87 61 88 54 89 60 90 55 91 56 92 57 93 58 94 59 95
REMARK H PARENT 7 21 80 51 50 62
REMARK Flexibility Score: inf
ROOT
ATOM      1  C   UNL     1      -7.353   6.395  -9.715  1.00  0.00     0.274 C 
ENDROOT
BRANCH   1   2
ATOM      2  O   UNL     1      -6.184   5.754  -9.208  1.00  0.00    -0.462 OA
BRANCH   2   3
ATOM      3  C   UNL     1      -6.292   5.300  -7.929  1.00  0.00     0.311 C 
ATOM      4  O   UNL     1      -7.075   5.724  -7.110  1.00  0.00    -0.252 OA
BRANCH   3   5
ATOM      5  C   UNL     1      -5.337   4.151  -7.739  1.00  0.00     0.128 C 
ATOM      6  N   UNL     1      -4.237   2.943  -6.093  1.00  0.00    -0.312 N 
ATOM      7  C   UNL     1      -5.552   3.420  -6.437  1.00  0.00     0.141 C 
ATOM      8  C   UNL     1      -3.240   3.679  -6.731  1.00  0.00     0.227 C 
ATOM      9  C   UNL     1      -3.893   4.604  -7.721  1.00  0.00     0.117 C 
ATOM     10  O   UNL     1      -2.035   3.651  -6.523  1.00  0.00    -0.274 OA
BRANCH   6  11
ATOM     11  C   UNL     1      -4.070   2.280  -4.869  1.00  0.00     0.044 A 
ATOM     12  C   UNL     1      -4.045   1.205  -2.293  1.00  0.00     0.120 A 
ATOM     13  C   UNL     1      -4.654   0.506  -3.337  1.00  0.00     0.048 A 
ATOM     14  C   UNL     1      -3.402   2.412  -2.559  1.00  0.00     0.048 A 
ATOM     15  C   UNL     1      -4.700   1.059  -4.620  1.00  0.00     0.030 A 
ATOM     16  C   UNL     1      -3.394   2.936  -3.845  1.00  0.00     0.030 A 
BRANCH  12  17
ATOM     17  O   UNL     1      -4.072   0.599  -1.071  1.00  0.00    -0.484 OA
BRANCH  17  18
ATOM     18  C   UNL     1      -4.274   1.442   0.053  1.00  0.00     0.329 C 
BRANCH  18  19
ATOM     19  C   UNL     1      -3.179   2.406   0.523  1.00  0.00     0.262 C 
ATOM     20  N   UNL     1      -1.853   2.093   0.537  1.00  0.00    -0.323 N 
ATOM     21  H   UNL     1      -1.279   2.870   0.726  1.00  0.00     0.170 HD
ATOM     22  O   UNL     1      -3.476   3.557   0.870  1.00  0.00    -0.271 OA
BRANCH  20  23
ATOM     23  C   UNL     1      -1.124   0.910   0.344  1.00  0.00     0.041 A 
ATOM     24  C   UNL     1       2.590   0.109  -0.086  1.00  0.00     0.044 C 
ATOM     25  C   UNL     1       1.105  -0.055   0.039  1.00  0.00    -0.049 A 
ATOM     26  C   UNL     1       0.539  -1.331   0.012  1.00  0.00     0.003 A 
ATOM     27  C   UNL     1       0.266   1.056   0.201  1.00  0.00     0.029 A 
ATOM     28  C   UNL     1      -0.837  -1.487   0.160  1.00  0.00     0.002 A 
ATOM     29  C   UNL     1      -1.661  -0.373   0.340  1.00  0.00     0.026 A 
ENDBRANCH  20  23
ENDBRANCH  18  19
ENDBRANCH  17  18
ENDBRANCH  12  17
ENDBRANCH   6  11
ENDBRANCH   3   5
ENDBRANCH   2   3
ENDBRANCH   1   2
BRANCH   1  30
ATOM     30  C   UNL     1      -7.310   6.394 -11.253  1.00  0.00     0.275 C 
BRANCH  30  31
ATOM     31  O   UNL     1      -7.079   5.159 -11.995  1.00  0.00    -0.458 OA
BRANCH  31  32
ATOM     32  C   UNL     1      -6.535   4.058 -11.402  1.00  0.00     0.338 C 
ATOM     33  O   UNL     1      -5.333   3.861 -11.324  1.00  0.00    -0.246 OA
BRANCH  32  34
ATOM     34  C   UNL     1      -7.574   3.277 -10.677  1.00  0.00     0.060 A 
ATOM     35  C   UNL     1      -7.215   2.266  -9.769  1.00  0.00     0.016 A 
ATOM     36  C   UNL     1      -8.858   3.799 -10.669  1.00  0.00     0.016 A 
ATOM     37  C   UNL     1      -8.075   1.932  -8.720  1.00  0.00     0.010 A 
ATOM     38  C   UNL     1      -9.617   3.615  -9.550  1.00  0.00     0.010 A 
ATOM     39  C   UNL     1      -9.246   2.669  -8.582  1.00  0.00    -0.014 A 
BRANCH  39  40
ATOM     40  C   UNL     1     -10.308   2.416  -7.622  1.00  0.00     0.031 A 
ATOM     41  C   UNL     1     -10.201   2.756  -6.190  1.00  0.00     0.074 A 
ATOM     42  C   UNL     1     -11.458   2.054  -8.237  1.00  0.00     0.049 A 
ATOM     43  N   UNL     1     -10.946   2.252  -5.270  1.00  0.00    -0.248 NA
ATOM     44  C   UNL     1      -9.224   3.696  -5.646  1.00  0.00     0.031 C 
ATOM     45  C   UNL     1     -12.824   2.024  -7.759  1.00  0.00     0.029 A 
ATOM     46  N   UNL     1     -11.557   1.500  -9.525  1.00  0.00    -0.354 N 
ATOM     47  C   UNL     1     -10.809   3.049  -4.144  1.00  0.00     0.074 A 
ATOM     48  C   UNL     1      -9.623   3.828  -4.373  1.00  0.00     0.031 C 
ATOM     49  C   UNL     1     -13.524   1.185  -8.551  1.00  0.00     0.029 A 
ATOM     50  C   UNL     1     -12.566   0.552  -9.457  1.00  0.00     0.049 A 
ATOM     51  H   UNL     1     -11.019   1.737 -10.315  1.00  0.00     0.167 HD
ATOM     52  C   UNL     1     -11.837   3.102  -3.248  1.00  0.00     0.031 A 
ATOM     53  C   UNL     1     -12.246  -0.777  -9.499  1.00  0.00     0.031 A 
ATOM     54  C   UNL     1     -12.909   2.215  -3.690  1.00  0.00     0.049 A 
ATOM     55  C   UNL     1     -12.643  -1.419  -8.192  1.00  0.00     0.074 A 
ATOM     56  C   UNL     1     -14.071   2.470  -4.396  1.00  0.00     0.029 A 
ATOM     57  N   UNL     1     -12.677   0.851  -3.767  1.00  0.00    -0.354 N 
ATOM     58  N   UNL     1     -12.582  -0.830  -7.027  1.00  0.00    -0.248 NA
ATOM     59  C   UNL     1     -13.264  -2.734  -8.138  1.00  0.00     0.031 C 
ATOM     60  C   UNL     1     -14.491   1.248  -4.980  1.00  0.00     0.029 A 
ATOM     61  C   UNL     1     -13.590   0.261  -4.617  1.00  0.00     0.049 A 
ATOM     62  H   UNL     1     -11.964   0.372  -3.285  1.00  0.00     0.167 HD
ATOM     63  C   UNL     1     -13.266  -1.592  -6.112  1.00  0.00     0.074 A 
ATOM     64  C   UNL     1     -13.635  -2.791  -6.849  1.00  0.00     0.031 C 
ATOM     65  C   UNL     1     -13.562  -1.175  -4.844  1.00  0.00     0.031 A 
BRANCH  52  66
ATOM     66  C   UNL     1     -12.062   4.146  -2.169  1.00  0.00    -0.014 A 
ATOM     67  C   UNL     1     -13.384   4.343  -1.701  1.00  0.00     0.010 A 
ATOM     68  C   UNL     1     -11.078   4.970  -1.590  1.00  0.00     0.010 A 
ATOM     69  C   UNL     1     -13.724   5.334  -0.773  1.00  0.00     0.020 A 
ATOM     70  C   UNL     1     -11.407   5.976  -0.652  1.00  0.00     0.020 A 
ATOM     71  C   UNL     1     -12.733   6.158  -0.260  1.00  0.00     0.054 A 
BRANCH  71  72
ATOM     72  S   UNL     1     -13.216   7.443   0.926  1.00  0.00     0.124 S 
ATOM     73  O   UNL     1     -14.125   8.272   0.137  1.00  0.00    -0.237 OA
ATOM     74  O   UNL     1     -13.844   6.668   1.994  1.00  0.00    -0.237 OA
ATOM     75  O   UNL     1     -11.952   8.081   1.284  1.00  0.00    -0.744 OA
ENDBRANCH  71  72
ENDBRANCH  52  66
BRANCH  53  76
ATOM     76  C   UNL     1     -11.018  -1.107 -10.305  1.00  0.00    -0.014 A 
ATOM     77  C   UNL     1     -11.046  -0.806 -11.689  1.00  0.00     0.010 A 
ATOM     78  C   UNL     1      -9.762  -1.324  -9.705  1.00  0.00     0.010 A 
ATOM     79  C   UNL     1      -9.866  -0.589 -12.412  1.00  0.00     0.020 A 
ATOM     80  C   UNL     1      -8.573  -1.129 -10.437  1.00  0.00     0.020 A 
ATOM     81  C   UNL     1      -8.635  -0.713 -11.771  1.00  0.00     0.054 A 
BRANCH  81  82
ATOM     82  S   UNL     1      -7.149  -0.138 -12.658  1.00  0.00     0.124 S 
ATOM     83  O   UNL     1      -7.041  -1.105 -13.745  1.00  0.00    -0.237 OA
ATOM     84  O   UNL     1      -7.538   1.214 -13.055  1.00  0.00    -0.237 OA
ATOM     85  O   UNL     1      -6.101  -0.209 -11.644  1.00  0.00    -0.744 OA
ENDBRANCH  81  82
ENDBRANCH  53  76
BRANCH  65  86
ATOM     86  C   UNL     1     -13.987  -2.062  -3.697  1.00  0.00    -0.014 A 
ATOM     87  C   UNL     1     -13.930  -3.461  -3.728  1.00  0.00     0.010 A 
ATOM     88  C   UNL     1     -14.342  -1.468  -2.457  1.00  0.00     0.010 A 
ATOM     89  C   UNL     1     -14.290  -4.228  -2.616  1.00  0.00     0.020 A 
ATOM     90  C   UNL     1     -14.634  -2.221  -1.320  1.00  0.00     0.020 A 
ATOM     91  C   UNL     1     -14.639  -3.603  -1.420  1.00  0.00     0.054 A 
BRANCH  91  92
ATOM     92  S   UNL     1     -15.054  -4.624   0.008  1.00  0.00     0.124 S 
ATOM     93  O   UNL     1     -16.416  -5.043  -0.312  1.00  0.00    -0.237 OA
ATOM     94  O   UNL     1     -14.043  -5.678  -0.050  1.00  0.00    -0.237 OA
ATOM     95  O   UNL     1     -14.927  -3.709   1.139  1.00  0.00    -0.744 OA
ENDBRANCH  91  92
ENDBRANCH  65  86
ENDBRANCH  39  40
ENDBRANCH  32  34
ENDBRANCH  31  32
ENDBRANCH  30  31
ENDBRANCH   1  30
TORSDOF 19
