REMARK SMILES C[C@@H](C(=O)OCCOC(=O)c1ccc(-c2c3nc(c(-c4ccc(S(=O)(=O)[O-])cc4)c4ccc([nH]4)c(-c4ccc(S(=O)(=O)[O-])cc4)c4nc(c(-c5ccc(S(=O)(=O)[O-])cc5)c5ccc2[nH]5)C=C4)C=C3)cc1)c1ccc(-c2cccc(OC(=O)NC3CC3)c2)c(F)c1
REMARK SMILES IDX 6 1 5 2 3 3 4 4 2 5 1 6 71 7 72 8 90 9 73 10 88 11 74 12
REMARK SMILES IDX 89 13 75 14 76 15 87 16 77 17 79 18 78 19 80 20 81 21 82 22
REMARK SMILES IDX 83 23 84 25 85 26 86 27 7 28 8 29 9 30 10 31 11 32 12 33
REMARK SMILES IDX 70 34 13 35 69 36 14 37 15 38 16 39 63 40 17 41 68 42 62 43
REMARK SMILES IDX 64 44 18 45 67 46 61 47 60 48 19 50 49 51 30 52 48 53 31 54
REMARK SMILES IDX 34 55 47 56 65 57 32 58 33 59 46 61 66 62 35 63 20 64 21 65
REMARK SMILES IDX 29 66 22 67 28 68 23 69 24 70 25 71 26 72 27 73 50 74 51 75
REMARK SMILES IDX 59 76 52 77 58 78 53 79 54 80 55 81 56 82 57 83 36 84 37 85
REMARK SMILES IDX 45 86 38 87 44 88 39 89 40 90 41 91 42 92 43 93
REMARK H PARENT 83 24 64 49 34 60
REMARK Flexibility Score: inf
ROOT
ATOM      1  C   UNL     1       2.666  -2.321  -2.924  1.00  0.00     0.274 C 
ENDROOT
BRANCH   1   2
ATOM      2  O   UNL     1       2.209  -1.363  -1.947  1.00  0.00    -0.462 OA
BRANCH   2   3
ATOM      3  C   UNL     1       1.188  -0.539  -2.316  1.00  0.00     0.313 C 
ATOM      4  O   UNL     1       0.670  -0.548  -3.427  1.00  0.00    -0.252 OA
BRANCH   3   5
ATOM      5  C   UNL     1       0.801   0.454  -1.212  1.00  0.00     0.126 C 
ATOM      6  C   UNL     1       1.523   0.213   0.117  1.00  0.00     0.025 C 
BRANCH   5   7
ATOM      7  C   UNL     1      -0.711   0.539  -1.035  1.00  0.00    -0.031 A 
ATOM      8  C   UNL     1      -1.452   1.520  -1.710  1.00  0.00     0.005 A 
ATOM      9  C   UNL     1      -1.415  -0.381  -0.252  1.00  0.00     0.044 A 
ATOM     10  C   UNL     1      -2.855   1.557  -1.626  1.00  0.00     0.012 A 
ATOM     11  C   UNL     1      -2.811  -0.340  -0.180  1.00  0.00     0.131 A 
ATOM     12  C   UNL     1      -3.577   0.609  -0.879  1.00  0.00     0.018 A 
ATOM     13  F   UNL     1      -3.406  -1.316   0.524  1.00  0.00    -0.206 F 
BRANCH  12  14
ATOM     14  C   UNL     1      -5.063   0.578  -0.882  1.00  0.00    -0.012 A 
ATOM     15  C   UNL     1      -5.807   0.901  -2.034  1.00  0.00     0.009 A 
ATOM     16  C   UNL     1      -5.788   0.194   0.262  1.00  0.00     0.056 A 
ATOM     17  C   UNL     1      -7.205   0.824  -2.050  1.00  0.00     0.004 A 
ATOM     18  C   UNL     1      -7.182   0.098   0.240  1.00  0.00     0.133 A 
ATOM     19  C   UNL     1      -7.894   0.411  -0.915  1.00  0.00     0.047 A 
BRANCH  18  20
ATOM     20  O   UNL     1      -7.972  -0.240   1.365  1.00  0.00    -0.410 OA
BRANCH  20  21
ATOM     21  C   UNL     1      -7.503  -0.885   2.506  1.00  0.00     0.412 C 
ATOM     22  O   UNL     1      -6.362  -1.301   2.689  1.00  0.00    -0.224 OA
ATOM     23  N   UNL     1      -8.449  -1.015   3.490  1.00  0.00    -0.318 N 
ATOM     24  H   UNL     1      -8.144  -1.432   4.328  1.00  0.00     0.167 HD
BRANCH  23  25
ATOM     25  C   UNL     1      -9.816  -0.622   3.453  1.00  0.00     0.085 C 
ATOM     26  C   UNL     1     -10.761  -0.960   2.339  1.00  0.00     0.027 C 
ATOM     27  C   UNL     1     -10.873  -1.679   3.648  1.00  0.00     0.027 C 
ENDBRANCH  23  25
ENDBRANCH  20  21
ENDBRANCH  18  20
ENDBRANCH  12  14
ENDBRANCH   5   7
ENDBRANCH   3   5
ENDBRANCH   2   3
ENDBRANCH   1   2
BRANCH   1  28
ATOM     28  C   UNL     1       2.237  -3.734  -2.537  1.00  0.00     0.275 C 
BRANCH  28  29
ATOM     29  O   UNL     1       0.815  -3.874  -2.699  1.00  0.00    -0.458 OA
BRANCH  29  30
ATOM     30  C   UNL     1       0.101  -3.906  -1.551  1.00  0.00     0.338 C 
ATOM     31  O   UNL     1       0.530  -3.881  -0.410  1.00  0.00    -0.246 OA
BRANCH  30  32
ATOM     32  C   UNL     1      -1.335  -3.923  -1.866  1.00  0.00     0.060 A 
ATOM     33  C   UNL     1      -1.905  -2.800  -2.454  1.00  0.00     0.016 A 
ATOM     34  C   UNL     1      -2.142  -4.966  -1.413  1.00  0.00     0.016 A 
ATOM     35  C   UNL     1      -3.292  -2.663  -2.460  1.00  0.00     0.010 A 
ATOM     36  C   UNL     1      -3.536  -4.866  -1.532  1.00  0.00     0.010 A 
ATOM     37  C   UNL     1      -4.139  -3.684  -1.997  1.00  0.00    -0.014 A 
BRANCH  37  38
ATOM     38  C   UNL     1      -5.626  -3.477  -1.927  1.00  0.00     0.031 A 
ATOM     39  C   UNL     1      -6.391  -3.805  -0.659  1.00  0.00     0.074 A 
ATOM     40  C   UNL     1      -6.304  -2.975  -2.981  1.00  0.00     0.049 A 
ATOM     41  N   UNL     1      -7.678  -3.987  -0.481  1.00  0.00    -0.248 NA
ATOM     42  C   UNL     1      -5.592  -4.022   0.555  1.00  0.00     0.031 C 
ATOM     43  C   UNL     1      -5.719  -2.603  -4.272  1.00  0.00     0.029 A 
ATOM     44  N   UNL     1      -7.637  -2.674  -3.133  1.00  0.00    -0.354 N 
ATOM     45  C   UNL     1      -7.829  -4.415   0.840  1.00  0.00     0.074 A 
ATOM     46  C   UNL     1      -6.496  -4.508   1.394  1.00  0.00     0.031 C 
ATOM     47  C   UNL     1      -6.664  -2.061  -5.050  1.00  0.00     0.029 A 
ATOM     48  C   UNL     1      -7.947  -2.156  -4.369  1.00  0.00     0.049 A 
ATOM     49  H   UNL     1      -8.305  -2.816  -2.424  1.00  0.00     0.167 HD
ATOM     50  C   UNL     1      -8.973  -4.681   1.526  1.00  0.00     0.031 A 
ATOM     51  C   UNL     1      -9.132  -1.840  -4.926  1.00  0.00     0.031 A 
ATOM     52  C   UNL     1     -10.295  -4.465   0.965  1.00  0.00     0.049 A 
ATOM     53  C   UNL     1     -10.383  -2.054  -4.130  1.00  0.00     0.074 A 
ATOM     54  C   UNL     1     -11.538  -4.707   1.530  1.00  0.00     0.029 A 
ATOM     55  N   UNL     1     -10.543  -3.863  -0.266  1.00  0.00    -0.354 N 
ATOM     56  N   UNL     1     -10.509  -2.550  -2.923  1.00  0.00    -0.248 NA
ATOM     57  C   UNL     1     -11.651  -1.677  -4.768  1.00  0.00     0.031 C 
ATOM     58  C   UNL     1     -12.528  -4.252   0.651  1.00  0.00     0.029 A 
ATOM     59  C   UNL     1     -11.907  -3.695  -0.453  1.00  0.00     0.049 A 
ATOM     60  H   UNL     1      -9.849  -3.595  -0.912  1.00  0.00     0.167 HD
ATOM     61  C   UNL     1     -11.871  -2.563  -2.663  1.00  0.00     0.074 A 
ATOM     62  C   UNL     1     -12.524  -1.970  -3.813  1.00  0.00     0.031 C 
ATOM     63  C   UNL     1     -12.527  -3.058  -1.586  1.00  0.00     0.031 A 
BRANCH  50  64
ATOM     64  C   UNL     1      -8.873  -5.173   2.967  1.00  0.00    -0.014 A 
ATOM     65  C   UNL     1      -8.238  -4.408   3.964  1.00  0.00     0.010 A 
ATOM     66  C   UNL     1      -9.512  -6.361   3.372  1.00  0.00     0.010 A 
ATOM     67  C   UNL     1      -8.260  -4.785   5.309  1.00  0.00     0.020 A 
ATOM     68  C   UNL     1      -9.567  -6.736   4.724  1.00  0.00     0.020 A 
ATOM     69  C   UNL     1      -8.944  -5.940   5.685  1.00  0.00     0.054 A 
BRANCH  69  70
ATOM     70  S   UNL     1      -9.026  -6.351   7.449  1.00  0.00     0.124 S 
ATOM     71  O   UNL     1      -7.620  -6.569   7.780  1.00  0.00    -0.237 OA
ATOM     72  O   UNL     1      -9.623  -5.147   8.023  1.00  0.00    -0.237 OA
ATOM     73  O   UNL     1      -9.867  -7.545   7.492  1.00  0.00    -0.744 OA
ENDBRANCH  69  70
ENDBRANCH  50  64
BRANCH  51  74
ATOM     74  C   UNL     1      -9.175  -1.373  -6.341  1.00  0.00    -0.014 A 
ATOM     75  C   UNL     1      -9.534  -0.055  -6.667  1.00  0.00     0.010 A 
ATOM     76  C   UNL     1      -8.794  -2.252  -7.374  1.00  0.00     0.010 A 
ATOM     77  C   UNL     1      -9.505   0.376  -7.998  1.00  0.00     0.020 A 
ATOM     78  C   UNL     1      -8.728  -1.815  -8.698  1.00  0.00     0.020 A 
ATOM     79  C   UNL     1      -9.092  -0.504  -9.004  1.00  0.00     0.054 A 
BRANCH  79  80
ATOM     80  S   UNL     1      -8.966   0.100 -10.710  1.00  0.00     0.124 S 
ATOM     81  O   UNL     1     -10.362   0.103 -11.134  1.00  0.00    -0.237 OA
ATOM     82  O   UNL     1      -8.353   1.414 -10.538  1.00  0.00    -0.237 OA
ATOM     83  O   UNL     1      -8.114  -0.894 -11.360  1.00  0.00    -0.744 OA
ENDBRANCH  79  80
ENDBRANCH  51  74
BRANCH  63  84
ATOM     84  C   UNL     1     -14.026  -2.935  -1.599  1.00  0.00    -0.014 A 
ATOM     85  C   UNL     1     -14.807  -3.808  -2.378  1.00  0.00     0.010 A 
ATOM     86  C   UNL     1     -14.661  -1.951  -0.821  1.00  0.00     0.010 A 
ATOM     87  C   UNL     1     -16.197  -3.677  -2.406  1.00  0.00     0.020 A 
ATOM     88  C   UNL     1     -16.054  -1.828  -0.834  1.00  0.00     0.020 A 
ATOM     89  C   UNL     1     -16.811  -2.684  -1.637  1.00  0.00     0.054 A 
BRANCH  89  90
ATOM     90  S   UNL     1     -18.620  -2.550  -1.680  1.00  0.00     0.124 S 
ATOM     91  O   UNL     1     -18.854  -2.014  -3.018  1.00  0.00    -0.237 OA
ATOM     92  O   UNL     1     -19.048  -3.931  -1.472  1.00  0.00    -0.237 OA
ATOM     93  O   UNL     1     -18.927  -1.636  -0.582  1.00  0.00    -0.744 OA
ENDBRANCH  89  90
ENDBRANCH  63  84
ENDBRANCH  37  38
ENDBRANCH  30  32
ENDBRANCH  29  30
ENDBRANCH  28  29
ENDBRANCH   1  28
TORSDOF 19
