REMARK SMILES C[C@@H](c1ccccc1)[C@@H](CC(=O)Nc1ccccc1I)C(=O)OCCOC(=O)c1ccc(-c2c3nc(c(-c4ccc(S(=O)(=O)[O-])cc4)c4ccc([nH]4)c(-c4ccc(S(=O)(=O)[O-])cc4)c4nc(c(-c5ccc(S(=O)(=O)[O-])cc5)c5ccc2[nH]5)C=C4)C=C3)cc1
REMARK SMILES IDX 24 1 23 2 21 3 22 4 9 5 2 6 1 7 3 8 4 9 8 10 5 11 7 12 6 13
REMARK SMILES IDX 10 14 11 15 12 16 13 17 14 19 15 20 19 21 16 22 18 23 20 24
REMARK SMILES IDX 17 25 25 26 26 27 27 28 28 29 29 30 30 31 88 32 31 33 87 34
REMARK SMILES IDX 32 35 33 36 34 37 81 38 35 39 86 40 80 41 82 42 36 43 85 44
REMARK SMILES IDX 79 45 78 46 37 48 67 49 48 50 66 51 49 52 52 53 65 54 83 55
REMARK SMILES IDX 50 56 51 57 64 59 84 60 53 61 38 62 39 63 47 64 40 65 46 66
REMARK SMILES IDX 41 67 42 68 43 69 44 70 45 71 68 72 69 73 77 74 70 75 76 76
REMARK SMILES IDX 71 77 72 78 73 79 74 80 75 81 54 82 55 83 63 84 56 85 62 86
REMARK SMILES IDX 57 87 58 88 59 89 60 90 61 91
REMARK H PARENT 13 18 82 47 52 58
REMARK Flexibility Score: inf
ROOT
ATOM      1  C   UNL     1      -1.675  -3.007   3.780  1.00  0.00     0.274 C 
ENDROOT
BRANCH   1   2
ATOM      2  O   UNL     1      -0.947  -2.299   2.749  1.00  0.00    -0.462 OA
BRANCH   2   3
ATOM      3  C   UNL     1      -1.714  -1.503   1.960  1.00  0.00     0.310 C 
ATOM      4  O   UNL     1      -2.930  -1.374   2.067  1.00  0.00    -0.252 OA
BRANCH   3   5
ATOM      5  C   UNL     1      -0.957  -0.863   0.812  1.00  0.00     0.116 C 
BRANCH   5   6
ATOM      6  C   UNL     1       0.396  -0.159   1.099  1.00  0.00     0.031 C 
ATOM      7  C   UNL     1       0.801   0.689  -0.133  1.00  0.00     0.013 C 
BRANCH   6   8
ATOM      8  C   UNL     1       0.611   0.671   2.366  1.00  0.00    -0.044 A 
ATOM      9  C   UNL     1       1.103   0.045   3.525  1.00  0.00     0.004 A 
ATOM     10  C   UNL     1       0.556   2.076   2.365  1.00  0.00     0.004 A 
ATOM     11  C   UNL     1       1.568   0.791   4.613  1.00  0.00     0.000 A 
ATOM     12  C   UNL     1       1.049   2.820   3.441  1.00  0.00     0.000 A 
ATOM     13  C   UNL     1       1.559   2.180   4.563  1.00  0.00     0.000 A 
ENDBRANCH   6   8
ENDBRANCH   5   6
BRANCH   5  14
ATOM     14  C   UNL     1      -0.901  -1.893  -0.355  1.00  0.00     0.116 C 
BRANCH  14  15
ATOM     15  C   UNL     1      -0.468  -3.313   0.001  1.00  0.00     0.225 C 
ATOM     16  O   UNL     1      -1.325  -4.173   0.233  1.00  0.00    -0.275 OA
ATOM     17  N   UNL     1       0.837  -3.680   0.159  1.00  0.00    -0.325 N 
ATOM     18  H   UNL     1       0.971  -4.625   0.396  1.00  0.00     0.169 HD
BRANCH  17  19
ATOM     19  C   UNL     1       2.018  -2.933   0.040  1.00  0.00     0.054 A 
ATOM     20  C   UNL     1       2.305  -2.198  -1.113  1.00  0.00     0.027 A 
ATOM     21  C   UNL     1       2.918  -2.893   1.121  1.00  0.00     0.037 A 
ATOM     22  C   UNL     1       3.417  -1.348  -1.145  1.00  0.00     0.002 A 
ATOM     23  C   UNL     1       3.990  -1.996   1.109  1.00  0.00     0.017 A 
ATOM     24  I   UNL     1       2.618  -4.027   2.865  1.00  0.00    -0.042 I 
ATOM     25  C   UNL     1       4.230  -1.215  -0.020  1.00  0.00     0.001 A 
ENDBRANCH  17  19
ENDBRANCH  14  15
ENDBRANCH   5  14
ENDBRANCH   3   5
ENDBRANCH   2   3
ENDBRANCH   1   2
BRANCH   1  26
ATOM     26  C   UNL     1      -1.611  -2.248   5.104  1.00  0.00     0.275 C 
BRANCH  26  27
ATOM     27  O   UNL     1      -2.116  -0.923   4.901  1.00  0.00    -0.458 OA
BRANCH  27  28
ATOM     28  C   UNL     1      -1.681   0.014   5.770  1.00  0.00     0.338 C 
ATOM     29  O   UNL     1      -1.047  -0.199   6.798  1.00  0.00    -0.246 OA
BRANCH  28  30
ATOM     30  C   UNL     1      -2.071   1.364   5.293  1.00  0.00     0.060 A 
ATOM     31  C   UNL     1      -2.396   1.606   3.953  1.00  0.00     0.016 A 
ATOM     32  C   UNL     1      -2.060   2.430   6.195  1.00  0.00     0.016 A 
ATOM     33  C   UNL     1      -2.669   2.899   3.507  1.00  0.00     0.010 A 
ATOM     34  C   UNL     1      -2.412   3.712   5.764  1.00  0.00     0.010 A 
ATOM     35  C   UNL     1      -2.714   3.963   4.415  1.00  0.00    -0.014 A 
BRANCH  35  36
ATOM     36  C   UNL     1      -3.122   5.328   3.988  1.00  0.00     0.031 A 
ATOM     37  C   UNL     1      -2.201   6.500   4.193  1.00  0.00     0.074 A 
ATOM     38  C   UNL     1      -4.359   5.524   3.488  1.00  0.00     0.049 A 
ATOM     39  N   UNL     1      -2.454   7.780   4.091  1.00  0.00    -0.248 NA
ATOM     40  C   UNL     1      -0.813   6.194   4.569  1.00  0.00     0.031 C 
ATOM     41  C   UNL     1      -5.341   4.474   3.206  1.00  0.00     0.029 A 
ATOM     42  N   UNL     1      -5.014   6.685   3.156  1.00  0.00    -0.354 N 
ATOM     43  C   UNL     1      -1.272   8.431   4.428  1.00  0.00     0.074 A 
ATOM     44  C   UNL     1      -0.298   7.404   4.733  1.00  0.00     0.031 C 
ATOM     45  C   UNL     1      -6.470   5.035   2.751  1.00  0.00     0.029 A 
ATOM     46  C   UNL     1      -6.324   6.484   2.787  1.00  0.00     0.049 A 
ATOM     47  H   UNL     1      -4.588   7.572   3.181  1.00  0.00     0.167 HD
ATOM     48  C   UNL     1      -1.027   9.762   4.494  1.00  0.00     0.031 A 
ATOM     49  C   UNL     1      -7.319   7.362   2.561  1.00  0.00     0.031 A 
ATOM     50  C   UNL     1      -2.008  10.776   4.208  1.00  0.00     0.049 A 
ATOM     51  C   UNL     1      -7.046   8.831   2.709  1.00  0.00     0.074 A 
ATOM     52  C   UNL     1      -1.859  12.152   4.240  1.00  0.00     0.029 A 
ATOM     53  N   UNL     1      -3.323  10.525   3.846  1.00  0.00    -0.354 N 
ATOM     54  N   UNL     1      -5.927   9.430   3.038  1.00  0.00    -0.248 NA
ATOM     55  C   UNL     1      -8.171   9.741   2.462  1.00  0.00     0.031 C 
ATOM     56  C   UNL     1      -3.098  12.732   3.946  1.00  0.00     0.029 A 
ATOM     57  C   UNL     1      -4.003  11.719   3.674  1.00  0.00     0.049 A 
ATOM     58  H   UNL     1      -3.715   9.630   3.729  1.00  0.00     0.167 HD
ATOM     59  C   UNL     1      -6.208  10.791   3.017  1.00  0.00     0.074 A 
ATOM     60  C   UNL     1      -7.598  10.925   2.631  1.00  0.00     0.031 C 
ATOM     61  C   UNL     1      -5.387  11.834   3.291  1.00  0.00     0.031 A 
BRANCH  48  62
ATOM     62  C   UNL     1       0.344  10.198   4.942  1.00  0.00    -0.014 A 
ATOM     63  C   UNL     1       1.466  10.062   4.106  1.00  0.00     0.010 A 
ATOM     64  C   UNL     1       0.504  10.789   6.210  1.00  0.00     0.010 A 
ATOM     65  C   UNL     1       2.729  10.473   4.544  1.00  0.00     0.020 A 
ATOM     66  C   UNL     1       1.760  11.223   6.642  1.00  0.00     0.020 A 
ATOM     67  C   UNL     1       2.869  11.045   5.812  1.00  0.00     0.054 A 
BRANCH  67  68
ATOM     68  S   UNL     1       4.517  11.580   6.352  1.00  0.00     0.124 S 
ATOM     69  O   UNL     1       5.170  10.303   6.631  1.00  0.00    -0.237 OA
ATOM     70  O   UNL     1       5.020  12.298   5.184  1.00  0.00    -0.237 OA
ATOM     71  O   UNL     1       4.247  12.411   7.522  1.00  0.00    -0.744 OA
ENDBRANCH  67  68
ENDBRANCH  48  62
BRANCH  49  72
ATOM     72  C   UNL     1      -8.677   6.862   2.216  1.00  0.00    -0.014 A 
ATOM     73  C   UNL     1      -9.185   7.019   0.915  1.00  0.00     0.010 A 
ATOM     74  C   UNL     1      -9.454   6.190   3.179  1.00  0.00     0.010 A 
ATOM     75  C   UNL     1     -10.448   6.520   0.585  1.00  0.00     0.020 A 
ATOM     76  C   UNL     1     -10.705   5.665   2.845  1.00  0.00     0.020 A 
ATOM     77  C   UNL     1     -11.198   5.842   1.551  1.00  0.00     0.054 A 
BRANCH  77  78
ATOM     78  S   UNL     1     -12.806   5.144   1.080  1.00  0.00     0.124 S 
ATOM     79  O   UNL     1     -13.648   6.335   1.028  1.00  0.00    -0.237 OA
ATOM     80  O   UNL     1     -12.514   4.518  -0.207  1.00  0.00    -0.237 OA
ATOM     81  O   UNL     1     -13.104   4.212   2.164  1.00  0.00    -0.744 OA
ENDBRANCH  77  78
ENDBRANCH  49  72
BRANCH  61  82
ATOM     82  C   UNL     1      -5.960  13.217   3.140  1.00  0.00    -0.014 A 
ATOM     83  C   UNL     1      -6.865  13.739   4.081  1.00  0.00     0.010 A 
ATOM     84  C   UNL     1      -5.549  14.020   2.061  1.00  0.00     0.010 A 
ATOM     85  C   UNL     1      -7.372  15.032   3.928  1.00  0.00     0.020 A 
ATOM     86  C   UNL     1      -6.034  15.321   1.918  1.00  0.00     0.020 A 
ATOM     87  C   UNL     1      -6.954  15.815   2.846  1.00  0.00     0.054 A 
BRANCH  87  88
ATOM     88  S   UNL     1      -7.591  17.506   2.691  1.00  0.00     0.124 S 
ATOM     89  O   UNL     1      -8.949  17.274   2.207  1.00  0.00    -0.237 OA
ATOM     90  O   UNL     1      -7.488  18.015   4.056  1.00  0.00    -0.237 OA
ATOM     91  O   UNL     1      -6.684  18.130   1.730  1.00  0.00    -0.744 OA
ENDBRANCH  87  88
ENDBRANCH  61  82
ENDBRANCH  35  36
ENDBRANCH  28  30
ENDBRANCH  27  28
ENDBRANCH  26  27
ENDBRANCH   1  26
TORSDOF 19
