REMARK SMILES CCOC(=O)C1=NN(c2ccc([N+](=O)[O-])cc2C(F)(F)F)[C@@](C)(C(=O)OCCOC(=O)c2ccc(-c3c4nc(c(-c5ccc(S(=O)(=O)[O-])cc5)c5ccc([nH]5)c(-c5ccc(S(=O)(=O)[O-])cc5)c5nc(c(-c6ccc(S(=O)(=O)[O-])cc6)c6ccc3[nH]6)C=C5)C=C4)cc2)C1
REMARK SMILES IDX 27 1 26 2 24 3 25 4 22 5 6 6 7 7 92 8 8 9 23 10 4 11 5 12
REMARK SMILES IDX 3 13 2 14 1 15 9 16 10 17 17 18 11 19 16 20 12 21 18 22
REMARK SMILES IDX 19 23 20 24 21 25 13 26 14 27 15 28 28 29 29 30 30 31 31 32
REMARK SMILES IDX 32 33 33 34 91 35 34 36 90 37 35 38 36 39 37 40 84 41 38 42
REMARK SMILES IDX 89 43 83 44 85 45 39 46 88 47 82 48 81 49 40 51 70 52 51 53
REMARK SMILES IDX 69 54 52 55 55 56 68 57 86 58 53 59 54 60 67 62 87 63 56 64
REMARK SMILES IDX 41 65 42 66 50 67 43 68 49 69 44 70 45 71 46 72 47 73 48 74
REMARK SMILES IDX 71 75 72 76 80 77 73 78 79 79 74 80 75 81 76 82 77 83 78 84
REMARK SMILES IDX 57 85 58 86 66 87 59 88 65 89 60 90 61 91 62 92 63 93 64 94
REMARK H PARENT 85 50 55 61
REMARK Flexibility Score: inf
ROOT
ATOM      1  C   UNL     1       6.548  -1.837  -6.903  1.00  0.00     0.274 C 
ENDROOT
BRANCH   1   2
ATOM      2  O   UNL     1       5.392  -2.538  -6.393  1.00  0.00    -0.460 OA
BRANCH   2   3
ATOM      3  C   UNL     1       5.457  -2.920  -5.090  1.00  0.00     0.334 C 
ATOM      4  O   UNL     1       6.414  -2.665  -4.359  1.00  0.00    -0.249 OA
BRANCH   3   5
ATOM      5  C   UNL     1       4.285  -3.797  -4.607  1.00  0.00     0.163 C 
ATOM      6  C   UNL     1       2.540  -2.453  -3.924  1.00  0.00     0.149 C 
ATOM      7  N   UNL     1       2.195  -2.821  -5.118  1.00  0.00    -0.169 NA
ATOM      8  C   UNL     1       3.685  -3.196  -3.315  1.00  0.00     0.108 C 
ATOM      9  N   UNL     1       3.093  -3.783  -5.486  1.00  0.00    -0.247 N 
ATOM     10  C   UNL     1       4.893  -5.172  -4.351  1.00  0.00     0.050 C 
BRANCH   6  11
ATOM     11  C   UNL     1       1.807  -1.371  -3.174  1.00  0.00     0.354 C 
ATOM     12  O   UNL     1       1.882  -0.210  -3.506  1.00  0.00    -0.245 OA
BRANCH  11  13
ATOM     13  O   UNL     1       1.081  -1.925  -2.183  1.00  0.00    -0.461 OA
BRANCH  13  14
ATOM     14  C   UNL     1       0.206  -1.024  -1.482  1.00  0.00     0.230 C 
ATOM     15  C   UNL     1       0.552  -1.041  -0.007  1.00  0.00     0.049 C 
ENDBRANCH  13  14
ENDBRANCH  11  13
ENDBRANCH   6  11
BRANCH   9  16
ATOM     16  C   UNL     1       2.824  -4.462  -6.659  1.00  0.00     0.073 A 
ATOM     17  C   UNL     1       2.782  -3.723  -7.862  1.00  0.00     0.036 A 
ATOM     18  C   UNL     1       2.424  -5.811  -6.699  1.00  0.00     0.088 A 
ATOM     19  C   UNL     1       2.422  -4.300  -9.082  1.00  0.00     0.088 A 
ATOM     20  C   UNL     1       2.105  -6.409  -7.941  1.00  0.00     0.101 A 
ATOM     21  C   UNL     1       2.096  -5.653  -9.118  1.00  0.00     0.270 A 
BRANCH  18  22
ATOM     22  C   UNL     1       2.245  -6.667  -5.468  1.00  0.00     0.418 C 
ATOM     23  F   UNL     1       1.200  -7.539  -5.590  1.00  0.00    -0.166 F 
ATOM     24  F   UNL     1       3.334  -7.457  -5.242  1.00  0.00    -0.166 F 
ATOM     25  F   UNL     1       2.013  -5.996  -4.309  1.00  0.00    -0.166 F 
ENDBRANCH  18  22
BRANCH  21  26
ATOM     26  N   UNL     1       1.705  -6.283 -10.383  1.00  0.00     0.062 N 
ATOM     27  O   UNL     1       1.522  -5.549 -11.364  1.00  0.00    -0.258 OA
ATOM     28  O   UNL     1       1.590  -7.518 -10.398  1.00  0.00    -0.258 OA
ENDBRANCH  21  26
ENDBRANCH   9  16
ENDBRANCH   3   5
ENDBRANCH   2   3
ENDBRANCH   1   2
BRANCH   1  29
ATOM     29  C   UNL     1       6.346  -0.325  -6.881  1.00  0.00     0.275 C 
BRANCH  29  30
ATOM     30  O   UNL     1       6.167   0.117  -5.525  1.00  0.00    -0.458 OA
BRANCH  30  31
ATOM     31  C   UNL     1       5.111   0.937  -5.310  1.00  0.00     0.338 C 
ATOM     32  O   UNL     1       4.366   1.398  -6.158  1.00  0.00    -0.246 OA
BRANCH  31  33
ATOM     33  C   UNL     1       4.952   1.196  -3.862  1.00  0.00     0.060 A 
ATOM     34  C   UNL     1       5.070   0.156  -2.945  1.00  0.00     0.016 A 
ATOM     35  C   UNL     1       4.527   2.450  -3.426  1.00  0.00     0.016 A 
ATOM     36  C   UNL     1       4.595   0.315  -1.643  1.00  0.00     0.010 A 
ATOM     37  C   UNL     1       4.183   2.643  -2.081  1.00  0.00     0.010 A 
ATOM     38  C   UNL     1       4.135   1.560  -1.186  1.00  0.00    -0.014 A 
BRANCH  38  39
ATOM     39  C   UNL     1       3.532   1.695   0.179  1.00  0.00     0.031 A 
ATOM     40  C   UNL     1       2.141   2.274   0.352  1.00  0.00     0.074 A 
ATOM     41  C   UNL     1       4.177   1.232   1.272  1.00  0.00     0.049 A 
ATOM     42  N   UNL     1       1.496   2.554   1.458  1.00  0.00    -0.248 NA
ATOM     43  C   UNL     1       1.374   2.570  -0.870  1.00  0.00     0.031 C 
ATOM     44  C   UNL     1       5.495   0.592   1.278  1.00  0.00     0.029 A 
ATOM     45  N   UNL     1       3.795   1.200   2.594  1.00  0.00    -0.354 N 
ATOM     46  C   UNL     1       0.277   3.101   1.066  1.00  0.00     0.074 A 
ATOM     47  C   UNL     1       0.274   3.124  -0.380  1.00  0.00     0.031 C 
ATOM     48  C   UNL     1       5.775   0.164   2.518  1.00  0.00     0.029 A 
ATOM     49  C   UNL     1       4.716   0.599   3.422  1.00  0.00     0.049 A 
ATOM     50  H   UNL     1       2.943   1.572   2.918  1.00  0.00     0.167 HD
ATOM     51  C   UNL     1      -0.753   3.536   1.831  1.00  0.00     0.031 A 
ATOM     52  C   UNL     1       4.745   0.449   4.761  1.00  0.00     0.031 A 
ATOM     53  C   UNL     1      -0.783   3.488   3.269  1.00  0.00     0.049 A 
ATOM     54  C   UNL     1       3.637   1.025   5.594  1.00  0.00     0.074 A 
ATOM     55  C   UNL     1      -1.784   3.919   4.124  1.00  0.00     0.029 A 
ATOM     56  N   UNL     1       0.222   2.966   4.066  1.00  0.00    -0.354 N 
ATOM     57  N   UNL     1       2.533   1.613   5.201  1.00  0.00    -0.248 NA
ATOM     58  C   UNL     1       3.795   0.944   7.053  1.00  0.00     0.031 C 
ATOM     59  C   UNL     1      -1.366   3.694   5.441  1.00  0.00     0.029 A 
ATOM     60  C   UNL     1      -0.126   3.080   5.403  1.00  0.00     0.049 A 
ATOM     61  H   UNL     1       1.060   2.572   3.732  1.00  0.00     0.167 HD
ATOM     62  C   UNL     1       1.865   1.974   6.366  1.00  0.00     0.074 A 
ATOM     63  C   UNL     1       2.674   1.512   7.476  1.00  0.00     0.031 C 
ATOM     64  C   UNL     1       0.691   2.636   6.501  1.00  0.00     0.031 A 
BRANCH  51  65
ATOM     65  C   UNL     1      -1.939   4.139   1.125  1.00  0.00    -0.014 A 
ATOM     66  C   UNL     1      -2.882   3.333   0.463  1.00  0.00     0.010 A 
ATOM     67  C   UNL     1      -2.139   5.532   1.171  1.00  0.00     0.010 A 
ATOM     68  C   UNL     1      -3.988   3.912  -0.166  1.00  0.00     0.020 A 
ATOM     69  C   UNL     1      -3.255   6.112   0.561  1.00  0.00     0.020 A 
ATOM     70  C   UNL     1      -4.165   5.299  -0.116  1.00  0.00     0.054 A 
BRANCH  70  71
ATOM     71  S   UNL     1      -5.625   6.022  -0.916  1.00  0.00     0.124 S 
ATOM     72  O   UNL     1      -5.276   5.915  -2.330  1.00  0.00    -0.237 OA
ATOM     73  O   UNL     1      -6.704   5.145  -0.467  1.00  0.00    -0.237 OA
ATOM     74  O   UNL     1      -5.672   7.383  -0.387  1.00  0.00    -0.744 OA
ENDBRANCH  70  71
ENDBRANCH  51  65
BRANCH  52  75
ATOM     75  C   UNL     1       5.913  -0.213   5.407  1.00  0.00    -0.014 A 
ATOM     76  C   UNL     1       5.776  -1.460   6.041  1.00  0.00     0.010 A 
ATOM     77  C   UNL     1       7.178   0.403   5.376  1.00  0.00     0.010 A 
ATOM     78  C   UNL     1       6.884  -2.078   6.631  1.00  0.00     0.020 A 
ATOM     79  C   UNL     1       8.292  -0.226   5.935  1.00  0.00     0.020 A 
ATOM     80  C   UNL     1       8.136  -1.460   6.568  1.00  0.00     0.054 A 
BRANCH  80  81
ATOM     81  S   UNL     1       9.580  -2.308   7.265  1.00  0.00     0.124 S 
ATOM     82  O   UNL     1       9.448  -2.011   8.688  1.00  0.00    -0.237 OA
ATOM     83  O   UNL     1       9.349  -3.699   6.884  1.00  0.00    -0.237 OA
ATOM     84  O   UNL     1      10.707  -1.667   6.591  1.00  0.00    -0.744 OA
ENDBRANCH  80  81
ENDBRANCH  52  75
BRANCH  64  85
ATOM     85  C   UNL     1       0.205   2.888   7.902  1.00  0.00    -0.014 A 
ATOM     86  C   UNL     1       0.807   3.869   8.710  1.00  0.00     0.010 A 
ATOM     87  C   UNL     1      -0.876   2.147   8.411  1.00  0.00     0.010 A 
ATOM     88  C   UNL     1       0.362   4.076  10.018  1.00  0.00     0.020 A 
ATOM     89  C   UNL     1      -1.339   2.367   9.710  1.00  0.00     0.020 A 
ATOM     90  C   UNL     1      -0.704   3.318  10.513  1.00  0.00     0.054 A 
BRANCH  90  91
ATOM     91  S   UNL     1      -1.277   3.612  12.209  1.00  0.00     0.124 S 
ATOM     92  O   UNL     1      -0.262   2.917  12.996  1.00  0.00    -0.237 OA
ATOM     93  O   UNL     1      -1.261   5.069  12.309  1.00  0.00    -0.237 OA
ATOM     94  O   UNL     1      -2.607   3.007  12.233  1.00  0.00    -0.744 OA
ENDBRANCH  90  91
ENDBRANCH  64  85
ENDBRANCH  38  39
ENDBRANCH  31  33
ENDBRANCH  30  31
ENDBRANCH  29  30
ENDBRANCH   1  29
TORSDOF 20
