REMARK SMILES CS(=O)(=O)c1ccc(C2=NN(c3ccc(C(=O)OCCOC(=O)c4ccc(-c5c6nc(c(-c7ccc(S(=O)(=O)[O-])cc7)c7ccc([nH]7)c(-c7ccc(S(=O)(=O)[O-])cc7)c7nc(c(-c8ccc(S(=O)(=O)[O-])cc8)c8ccc5[nH]8)C=C7)C=C6)cc4)cc3)[C@H](c3ccc(Cl)cc3)C2)cc1
REMARK SMILES IDX 19 1 18 2 16 3 17 4 15 5 12 6 13 7 85 8 14 9 84 10 11 11
REMARK SMILES IDX 9 12 10 13 94 14 86 15 8 16 5 17 6 18 96 19 7 20 95 21 2 22
REMARK SMILES IDX 1 23 3 24 4 25 87 26 88 27 93 28 89 29 92 30 90 31 91 32
REMARK SMILES IDX 20 33 21 34 22 35 23 36 24 37 25 38 83 39 26 40 82 41 27 42
REMARK SMILES IDX 28 43 29 44 76 45 30 46 81 47 75 48 77 49 31 50 80 51 74 52
REMARK SMILES IDX 73 53 32 55 62 56 43 57 61 58 44 59 47 60 60 61 78 62 45 63
REMARK SMILES IDX 46 64 59 66 79 67 48 68 33 69 34 70 42 71 35 72 41 73 36 74
REMARK SMILES IDX 37 75 38 76 39 77 40 78 63 79 64 80 72 81 65 82 71 83 66 84
REMARK SMILES IDX 67 85 68 86 69 87 70 88 49 89 50 90 58 91 51 92 57 93 52 94
REMARK SMILES IDX 53 95 54 96 55 97 56 98
REMARK H PARENT 77 54 47 65
REMARK Flexibility Score: inf
ROOT
ATOM      1  C   UNL     1      10.068  12.540   1.224  1.00  0.00     0.275 C 
ENDROOT
BRANCH   1   2
ATOM      2  O   UNL     1       8.895  11.725   1.405  1.00  0.00    -0.458 OA
BRANCH   2   3
ATOM      3  C   UNL     1       7.976  11.787   0.412  1.00  0.00     0.338 C 
ATOM      4  O   UNL     1       8.027  12.503  -0.576  1.00  0.00    -0.246 OA
BRANCH   3   5
ATOM      5  C   UNL     1       6.884  10.806   0.632  1.00  0.00     0.060 A 
ATOM      6  C   UNL     1       4.727   9.033   0.948  1.00  0.00     0.060 A 
ATOM      7  C   UNL     1       5.071   9.504  -0.321  1.00  0.00     0.029 A 
ATOM      8  C   UNL     1       5.505   9.418   2.049  1.00  0.00     0.029 A 
ATOM      9  C   UNL     1       6.120  10.408  -0.474  1.00  0.00     0.018 A 
ATOM     10  C   UNL     1       6.582  10.295   1.897  1.00  0.00     0.018 A 
BRANCH   6  11
ATOM     11  N   UNL     1       3.554   8.300   1.150  1.00  0.00    -0.257 N 
ATOM     12  C   UNL     1       2.265   6.780   0.384  1.00  0.00     0.071 C 
ATOM     13  N   UNL     1       3.499   7.020   0.705  1.00  0.00    -0.176 NA
ATOM     14  C   UNL     1       1.320   7.944   0.506  1.00  0.00     0.091 C 
ATOM     15  C   UNL     1       2.275   9.017   1.044  1.00  0.00     0.144 C 
BRANCH  12  16
ATOM     16  C   UNL     1       1.808   5.446  -0.050  1.00  0.00    -0.002 A 
ATOM     17  C   UNL     1       0.999   2.877  -0.775  1.00  0.00     0.067 A 
ATOM     18  C   UNL     1       2.035   3.036   0.145  1.00  0.00     0.021 A 
ATOM     19  C   UNL     1       0.375   3.996  -1.345  1.00  0.00     0.021 A 
ATOM     20  C   UNL     1       2.442   4.324   0.499  1.00  0.00     0.011 A 
ATOM     21  C   UNL     1       0.776   5.285  -0.978  1.00  0.00     0.011 A 
BRANCH  17  22
ATOM     22  S   UNL     1       0.394   1.272  -1.242  1.00  0.00     0.175 S 
ATOM     23  C   UNL     1       1.080   0.099  -0.106  1.00  0.00     0.163 C 
ATOM     24  O   UNL     1       0.934   0.991  -2.557  1.00  0.00    -0.224 OA
ATOM     25  O   UNL     1      -1.039   1.299  -1.008  1.00  0.00    -0.224 OA
ENDBRANCH  17  22
ENDBRANCH  12  16
BRANCH  15  26
ATOM     26  C   UNL     1       1.968   9.661   2.389  1.00  0.00    -0.023 A 
ATOM     27  C   UNL     1       1.311   8.991   3.431  1.00  0.00     0.007 A 
ATOM     28  C   UNL     1       2.503  10.940   2.652  1.00  0.00     0.007 A 
ATOM     29  C   UNL     1       1.196   9.581   4.696  1.00  0.00     0.021 A 
ATOM     30  C   UNL     1       2.413  11.516   3.920  1.00  0.00     0.021 A 
ATOM     31  C   UNL     1       1.759  10.832   4.938  1.00  0.00     0.041 A 
ATOM     32  Cl  UNL     1       1.674  11.520   6.513  1.00  0.00    -0.084 Cl
ENDBRANCH  15  26
ENDBRANCH   6  11
ENDBRANCH   3   5
ENDBRANCH   2   3
ENDBRANCH   1   2
BRANCH   1  33
ATOM     33  C   UNL     1      11.249  11.694   0.750  1.00  0.00     0.275 C 
BRANCH  33  34
ATOM     34  O   UNL     1      11.018  11.206  -0.583  1.00  0.00    -0.458 OA
BRANCH  34  35
ATOM     35  C   UNL     1      10.720   9.889  -0.679  1.00  0.00     0.338 C 
ATOM     36  O   UNL     1      10.669   9.070   0.220  1.00  0.00    -0.246 OA
BRANCH  35  37
ATOM     37  C   UNL     1      10.419   9.568  -2.082  1.00  0.00     0.060 A 
ATOM     38  C   UNL     1       9.144   9.835  -2.574  1.00  0.00     0.016 A 
ATOM     39  C   UNL     1      11.357   8.912  -2.875  1.00  0.00     0.016 A 
ATOM     40  C   UNL     1       8.776   9.403  -3.845  1.00  0.00     0.010 A 
ATOM     41  C   UNL     1      11.009   8.540  -4.178  1.00  0.00     0.010 A 
ATOM     42  C   UNL     1       9.708   8.761  -4.670  1.00  0.00    -0.014 A 
BRANCH  42  43
ATOM     43  C   UNL     1       9.326   8.291  -6.030  1.00  0.00     0.031 A 
ATOM     44  C   UNL     1       9.399   6.825  -6.364  1.00  0.00     0.074 A 
ATOM     45  C   UNL     1       8.924   9.170  -6.970  1.00  0.00     0.049 A 
ATOM     46  N   UNL     1       9.311   6.236  -7.529  1.00  0.00    -0.248 NA
ATOM     47  C   UNL     1       9.611   5.901  -5.238  1.00  0.00     0.031 C 
ATOM     48  C   UNL     1       8.737  10.608  -6.766  1.00  0.00     0.029 A 
ATOM     49  N   UNL     1       8.597   8.979  -8.290  1.00  0.00    -0.354 N 
ATOM     50  C   UNL     1       9.515   4.882  -7.286  1.00  0.00     0.074 A 
ATOM     51  C   UNL     1       9.729   4.737  -5.862  1.00  0.00     0.031 C 
ATOM     52  C   UNL     1       8.302  11.162  -7.909  1.00  0.00     0.029 A 
ATOM     53  C   UNL     1       8.265  10.139  -8.949  1.00  0.00     0.049 A 
ATOM     54  H   UNL     1       8.601   8.095  -8.724  1.00  0.00     0.167 HD
ATOM     55  C   UNL     1       9.531   3.855  -8.171  1.00  0.00     0.031 A 
ATOM     56  C   UNL     1       8.005  10.368 -10.251  1.00  0.00     0.031 A 
ATOM     57  C   UNL     1       9.287   4.004  -9.582  1.00  0.00     0.049 A 
ATOM     58  C   UNL     1       8.091   9.228 -11.226  1.00  0.00     0.074 A 
ATOM     59  C   UNL     1       9.277   3.028 -10.563  1.00  0.00     0.029 A 
ATOM     60  N   UNL     1       8.998   5.206 -10.212  1.00  0.00    -0.354 N 
ATOM     61  N   UNL     1       8.346   7.963 -10.992  1.00  0.00    -0.248 NA
ATOM     62  C   UNL     1       7.874   9.549 -12.643  1.00  0.00     0.031 C 
ATOM     63  C   UNL     1       9.023   3.646 -11.793  1.00  0.00     0.029 A 
ATOM     64  C   UNL     1       8.825   5.000 -11.570  1.00  0.00     0.049 A 
ATOM     65  H   UNL     1       8.927   6.078  -9.759  1.00  0.00     0.167 HD
ATOM     66  C   UNL     1       8.303   7.334 -12.230  1.00  0.00     0.074 A 
ATOM     67  C   UNL     1       7.986   8.354 -13.208  1.00  0.00     0.031 C 
ATOM     68  C   UNL     1       8.506   6.027 -12.529  1.00  0.00     0.031 A 
BRANCH  55  69
ATOM     69  C   UNL     1       9.882   2.489  -7.642  1.00  0.00    -0.014 A 
ATOM     70  C   UNL     1       8.989   1.754  -6.842  1.00  0.00     0.010 A 
ATOM     71  C   UNL     1      11.131   1.927  -7.965  1.00  0.00     0.010 A 
ATOM     72  C   UNL     1       9.362   0.507  -6.330  1.00  0.00     0.020 A 
ATOM     73  C   UNL     1      11.497   0.669  -7.477  1.00  0.00     0.020 A 
ATOM     74  C   UNL     1      10.618  -0.023  -6.642  1.00  0.00     0.054 A 
BRANCH  74  75
ATOM     75  S   UNL     1      11.084  -1.637  -5.956  1.00  0.00     0.124 S 
ATOM     76  O   UNL     1      11.393  -1.296  -4.570  1.00  0.00    -0.237 OA
ATOM     77  O   UNL     1       9.876  -2.433  -6.152  1.00  0.00    -0.237 OA
ATOM     78  O   UNL     1      12.230  -2.040  -6.768  1.00  0.00    -0.744 OA
ENDBRANCH  74  75
ENDBRANCH  55  69
BRANCH  56  79
ATOM     79  C   UNL     1       7.679  11.747 -10.710  1.00  0.00    -0.014 A 
ATOM     80  C   UNL     1       6.378  12.066 -11.133  1.00  0.00     0.010 A 
ATOM     81  C   UNL     1       8.662  12.755 -10.697  1.00  0.00     0.010 A 
ATOM     82  C   UNL     1       6.064  13.368 -11.536  1.00  0.00     0.020 A 
ATOM     83  C   UNL     1       8.345  14.063 -11.073  1.00  0.00     0.020 A 
ATOM     84  C   UNL     1       7.049  14.360 -11.497  1.00  0.00     0.054 A 
BRANCH  84  85
ATOM     85  S   UNL     1       6.602  16.059 -11.952  1.00  0.00     0.124 S 
ATOM     86  O   UNL     1       6.532  15.975 -13.407  1.00  0.00    -0.237 OA
ATOM     87  O   UNL     1       5.325  16.245 -11.266  1.00  0.00    -0.237 OA
ATOM     88  O   UNL     1       7.706  16.856 -11.421  1.00  0.00    -0.744 OA
ENDBRANCH  84  85
ENDBRANCH  56  79
BRANCH  68  89
ATOM     89  C   UNL     1       8.352   5.616 -13.967  1.00  0.00    -0.014 A 
ATOM     90  C   UNL     1       9.345   5.908 -14.918  1.00  0.00     0.010 A 
ATOM     91  C   UNL     1       7.223   4.872 -14.356  1.00  0.00     0.010 A 
ATOM     92  C   UNL     1       9.200   5.480 -16.241  1.00  0.00     0.020 A 
ATOM     93  C   UNL     1       7.086   4.423 -15.671  1.00  0.00     0.020 A 
ATOM     94  C   UNL     1       8.072   4.739 -16.609  1.00  0.00     0.054 A 
BRANCH  94  95
ATOM     95  S   UNL     1       7.934   4.144 -18.317  1.00  0.00     0.124 S 
ATOM     96  O   UNL     1       7.564   5.361 -19.034  1.00  0.00    -0.237 OA
ATOM     97  O   UNL     1       9.277   3.637 -18.590  1.00  0.00    -0.237 OA
ATOM     98  O   UNL     1       6.893   3.121 -18.244  1.00  0.00    -0.744 OA
ENDBRANCH  94  95
ENDBRANCH  68  89
ENDBRANCH  42  43
ENDBRANCH  35  37
ENDBRANCH  34  35
ENDBRANCH  33  34
ENDBRANCH   1  33
TORSDOF 18
