REMARK SMILES O=C(CO/N=C\c1ccccc1)Nc1ccccc1C(=O)OCCOC(=O)c1ccc(-c2c3nc(c(-c4ccc(S(=O)(=O)[O-])cc4)c4ccc([nH]4)c(-c4ccc(S(=O)(=O)[O-])cc4)c4nc(c(-c5ccc(S(=O)(=O)[O-])cc5)c5ccc2[nH]5)C=C4)C=C3)cc1
REMARK SMILES IDX 23 1 22 2 20 3 21 4 19 5 14 6 15 7 16 8 18 9 17 10 13 11
REMARK SMILES IDX 1 12 2 13 3 15 4 16 5 17 6 18 7 19 8 20 12 21 9 22 11 23
REMARK SMILES IDX 10 24 24 25 25 26 26 27 27 28 28 29 29 30 87 31 30 32 86 33
REMARK SMILES IDX 31 34 32 35 33 36 80 37 34 38 85 39 79 40 81 41 35 42 84 43
REMARK SMILES IDX 78 44 77 45 36 47 66 48 47 49 65 50 48 51 51 52 64 53 82 54
REMARK SMILES IDX 49 55 50 56 63 58 83 59 52 60 37 61 38 62 46 63 39 64 45 65
REMARK SMILES IDX 40 66 41 67 42 68 43 69 44 70 67 71 68 72 76 73 69 74 75 75
REMARK SMILES IDX 70 76 71 77 72 78 73 79 74 80 53 81 54 82 62 83 55 84 61 85
REMARK SMILES IDX 56 86 57 87 58 88 59 89 60 90
REMARK H PARENT 13 14 81 46 51 57
REMARK Flexibility Score: inf
ROOT
ATOM      1  C   UNL     1       0.116  -1.650   1.422  1.00  0.00     0.275 C 
ENDROOT
BRANCH   1   2
ATOM      2  O   UNL     1       0.885  -0.473   1.740  1.00  0.00    -0.458 OA
BRANCH   2   3
ATOM      3  C   UNL     1       0.202   0.705   1.728  1.00  0.00     0.340 C 
ATOM      4  O   UNL     1      -1.013   0.831   1.738  1.00  0.00    -0.246 OA
BRANCH   3   5
ATOM      5  C   UNL     1       1.140   1.851   1.873  1.00  0.00     0.083 A 
ATOM      6  C   UNL     1       2.420   1.930   1.293  1.00  0.00     0.055 A 
ATOM      7  C   UNL     1       3.289   2.951   1.719  1.00  0.00     0.027 A 
ATOM      8  C   UNL     1       2.872   3.921   2.635  1.00  0.00     0.002 A 
ATOM      9  C   UNL     1       0.715   2.865   2.755  1.00  0.00     0.018 A 
ATOM     10  C   UNL     1       1.577   3.891   3.138  1.00  0.00     0.001 A 
BRANCH   6  11
ATOM     11  N   UNL     1       2.932   1.070   0.295  1.00  0.00    -0.322 N 
ATOM     12  O   UNL     1       0.988   0.536  -0.866  1.00  0.00    -0.271 OA
ATOM     13  C   UNL     1       2.180   0.359  -0.627  1.00  0.00     0.265 C 
ATOM     14  H   UNL     1       3.910   0.967   0.250  1.00  0.00     0.170 HD
BRANCH  13  15
ATOM     15  C   UNL     1       2.978  -0.734  -1.323  1.00  0.00     0.363 C 
BRANCH  15  16
ATOM     16  O   UNL     1       4.035  -0.209  -2.110  1.00  0.00    -0.386 OA
BRANCH  16  17
ATOM     17  N   UNL     1       3.481   0.558  -3.143  1.00  0.00    -0.094 NA
ATOM     18  C   UNL     1       4.381   1.159  -3.858  1.00  0.00     0.162 C 
BRANCH  18  19
ATOM     19  C   UNL     1       5.842   1.015  -3.770  1.00  0.00    -0.004 A 
ATOM     20  C   UNL     1       6.625   2.169  -3.832  1.00  0.00     0.010 A 
ATOM     21  C   UNL     1       6.436  -0.247  -3.692  1.00  0.00     0.010 A 
ATOM     22  C   UNL     1       8.014   2.057  -3.783  1.00  0.00     0.001 A 
ATOM     23  C   UNL     1       7.825  -0.353  -3.650  1.00  0.00     0.001 A 
ATOM     24  C   UNL     1       8.612   0.798  -3.693  1.00  0.00     0.000 A 
ENDBRANCH  18  19
ENDBRANCH  16  17
ENDBRANCH  15  16
ENDBRANCH  13  15
ENDBRANCH   6  11
ENDBRANCH   3   5
ENDBRANCH   2   3
ENDBRANCH   1   2
BRANCH   1  25
ATOM     25  C   UNL     1       0.203  -2.672   2.550  1.00  0.00     0.275 C 
BRANCH  25  26
ATOM     26  O   UNL     1      -0.455  -2.146   3.712  1.00  0.00    -0.458 OA
BRANCH  26  27
ATOM     27  C   UNL     1       0.362  -1.785   4.726  1.00  0.00     0.338 C 
ATOM     28  O   UNL     1       1.552  -2.010   4.850  1.00  0.00    -0.246 OA
BRANCH  27  29
ATOM     29  C   UNL     1      -0.402  -0.923   5.633  1.00  0.00     0.060 A 
ATOM     30  C   UNL     1      -0.410   0.444   5.364  1.00  0.00     0.016 A 
ATOM     31  C   UNL     1      -1.026  -1.431   6.770  1.00  0.00     0.016 A 
ATOM     32  C   UNL     1      -1.017   1.326   6.250  1.00  0.00     0.010 A 
ATOM     33  C   UNL     1      -1.664  -0.545   7.647  1.00  0.00     0.010 A 
ATOM     34  C   UNL     1      -1.639   0.843   7.409  1.00  0.00    -0.014 A 
BRANCH  34  35
ATOM     35  C   UNL     1      -2.164   1.808   8.410  1.00  0.00     0.031 A 
ATOM     36  C   UNL     1      -1.488   1.932   9.750  1.00  0.00     0.074 A 
ATOM     37  C   UNL     1      -3.194   2.620   8.102  1.00  0.00     0.049 A 
ATOM     38  N   UNL     1      -1.822   2.664  10.782  1.00  0.00    -0.248 NA
ATOM     39  C   UNL     1      -0.278   1.120   9.957  1.00  0.00     0.031 C 
ATOM     40  C   UNL     1      -3.900   2.644   6.819  1.00  0.00     0.029 A 
ATOM     41  N   UNL     1      -3.807   3.603   8.838  1.00  0.00    -0.354 N 
ATOM     42  C   UNL     1      -0.896   2.365  11.775  1.00  0.00     0.074 A 
ATOM     43  C   UNL     1       0.010   1.380  11.224  1.00  0.00     0.031 C 
ATOM     44  C   UNL     1      -4.818   3.624   6.843  1.00  0.00     0.029 A 
ATOM     45  C   UNL     1      -4.807   4.257   8.159  1.00  0.00     0.049 A 
ATOM     46  H   UNL     1      -3.554   3.819   9.764  1.00  0.00     0.167 HD
ATOM     47  C   UNL     1      -0.809   2.862  13.033  1.00  0.00     0.031 A 
ATOM     48  C   UNL     1      -5.634   5.244   8.556  1.00  0.00     0.031 A 
ATOM     49  C   UNL     1      -1.691   3.864  13.570  1.00  0.00     0.049 A 
ATOM     50  C   UNL     1      -5.524   5.774   9.958  1.00  0.00     0.074 A 
ATOM     51  C   UNL     1      -1.693   4.424  14.836  1.00  0.00     0.029 A 
ATOM     52  N   UNL     1      -2.718   4.471  12.863  1.00  0.00    -0.354 N 
ATOM     53  N   UNL     1      -4.685   5.430  10.907  1.00  0.00    -0.248 NA
ATOM     54  C   UNL     1      -6.479   6.821  10.345  1.00  0.00     0.031 C 
ATOM     55  C   UNL     1      -2.742   5.350  14.903  1.00  0.00     0.029 A 
ATOM     56  C   UNL     1      -3.364   5.397  13.666  1.00  0.00     0.049 A 
ATOM     57  H   UNL     1      -2.955   4.273  11.928  1.00  0.00     0.167 HD
ATOM     58  C   UNL     1      -5.010   6.221  12.003  1.00  0.00     0.074 A 
ATOM     59  C   UNL     1      -6.101   7.080  11.589  1.00  0.00     0.031 C 
ATOM     60  C   UNL     1      -4.460   6.230  13.243  1.00  0.00     0.031 A 
BRANCH  47  61
ATOM     61  C   UNL     1       0.256   2.282  13.926  1.00  0.00    -0.014 A 
ATOM     62  C   UNL     1       1.617   2.586  13.742  1.00  0.00     0.010 A 
ATOM     63  C   UNL     1      -0.117   1.414  14.968  1.00  0.00     0.010 A 
ATOM     64  C   UNL     1       2.589   1.990  14.552  1.00  0.00     0.020 A 
ATOM     65  C   UNL     1       0.850   0.837  15.796  1.00  0.00     0.020 A 
ATOM     66  C   UNL     1       2.199   1.111  15.568  1.00  0.00     0.054 A 
BRANCH  66  67
ATOM     67  S   UNL     1       3.477   0.346  16.603  1.00  0.00     0.124 S 
ATOM     68  O   UNL     1       3.996  -0.695  15.719  1.00  0.00    -0.237 OA
ATOM     69  O   UNL     1       4.389   1.456  16.867  1.00  0.00    -0.237 OA
ATOM     70  O   UNL     1       2.737  -0.136  17.766  1.00  0.00    -0.744 OA
ENDBRANCH  66  67
ENDBRANCH  47  61
BRANCH  48  71
ATOM     71  C   UNL     1      -6.652   5.782   7.613  1.00  0.00    -0.014 A 
ATOM     72  C   UNL     1      -6.515   7.073   7.073  1.00  0.00     0.010 A 
ATOM     73  C   UNL     1      -7.753   4.995   7.231  1.00  0.00     0.010 A 
ATOM     74  C   UNL     1      -7.463   7.569   6.173  1.00  0.00     0.020 A 
ATOM     75  C   UNL     1      -8.689   5.476   6.312  1.00  0.00     0.020 A 
ATOM     76  C   UNL     1      -8.542   6.765   5.795  1.00  0.00     0.054 A 
BRANCH  76  77
ATOM     77  S   UNL     1      -9.723   7.395   4.569  1.00  0.00     0.124 S 
ATOM     78  O   UNL     1     -10.547   8.291   5.374  1.00  0.00    -0.237 OA
ATOM     79  O   UNL     1      -8.852   8.044   3.591  1.00  0.00    -0.237 OA
ATOM     80  O   UNL     1     -10.392   6.187   4.090  1.00  0.00    -0.744 OA
ENDBRANCH  76  77
ENDBRANCH  48  71
BRANCH  60  81
ATOM     81  C   UNL     1      -5.028   7.216  14.228  1.00  0.00    -0.014 A 
ATOM     82  C   UNL     1      -6.291   7.013  14.811  1.00  0.00     0.010 A 
ATOM     83  C   UNL     1      -4.287   8.361  14.572  1.00  0.00     0.010 A 
ATOM     84  C   UNL     1      -6.828   7.965  15.682  1.00  0.00     0.020 A 
ATOM     85  C   UNL     1      -4.811   9.303  15.460  1.00  0.00     0.020 A 
ATOM     86  C   UNL     1      -6.089   9.111  15.991  1.00  0.00     0.054 A 
BRANCH  86  87
ATOM     87  S   UNL     1      -6.803  10.340  17.117  1.00  0.00     0.124 S 
ATOM     88  O   UNL     1      -7.721  11.059  16.238  1.00  0.00    -0.237 OA
ATOM     89  O   UNL     1      -7.434   9.514  18.143  1.00  0.00    -0.237 OA
ATOM     90  O   UNL     1      -5.644  11.106  17.570  1.00  0.00    -0.744 OA
ENDBRANCH  86  87
ENDBRANCH  60  81
ENDBRANCH  34  35
ENDBRANCH  27  29
ENDBRANCH  26  27
ENDBRANCH  25  26
ENDBRANCH   1  25
TORSDOF 19
