REMARK SMILES O=C(OCCOC(=O)[C@H]1[C@@H]2CC[C@@H](C2)[C@@H]1C(=O)Nc1ccc([N+](=O)[O-])cc1)c1ccc(-c2c3nc(c(-c4ccc(S(=O)(=O)[O-])cc4)c4ccc([nH]4)c(-c4ccc(S(=O)(=O)[O-])cc4)c4nc(c(-c5ccc(S(=O)(=O)[O-])cc5)c5ccc2[nH]5)C=C4)C=C3)cc1
REMARK SMILES IDX 4 1 3 2 2 3 1 4 28 5 29 6 87 7 30 8 86 9 31 10 32 11 33 12
REMARK SMILES IDX 80 13 34 14 85 15 79 16 81 17 35 18 84 19 78 20 77 21 36 23
REMARK SMILES IDX 66 24 47 25 65 26 48 27 51 28 64 29 82 30 49 31 50 32 63 34
REMARK SMILES IDX 83 35 52 36 37 37 38 38 46 39 39 40 45 41 40 42 41 43 42 44
REMARK SMILES IDX 43 45 44 46 67 47 68 48 76 49 69 50 75 51 70 52 71 53 72 54
REMARK SMILES IDX 73 55 74 56 53 57 54 58 62 59 55 60 61 61 56 62 57 63 58 64
REMARK SMILES IDX 59 65 60 66 5 67 6 68 7 69 8 70 9 71 10 72 15 73 11 74 14 75
REMARK SMILES IDX 13 76 12 77 16 78 17 79 18 80 19 82 20 83 27 84 21 85 26 86
REMARK SMILES IDX 22 87 23 88 24 89 25 90
REMARK H PARENT 81 22 51 33 18 81
REMARK Flexibility Score: inf
ROOT
ATOM      1  C   UNL     1       4.713  -1.088   0.551  1.00  0.00     0.275 C 
ENDROOT
BRANCH   1   2
ATOM      2  O   UNL     1       3.624  -0.279   1.020  1.00  0.00    -0.458 OA
BRANCH   2   3
ATOM      3  C   UNL     1       3.540   1.074   1.045  1.00  0.00     0.338 C 
ATOM      4  O   UNL     1       2.695   1.591   1.774  1.00  0.00    -0.246 OA
BRANCH   3   5
ATOM      5  C   UNL     1       4.273   1.956   0.075  1.00  0.00     0.060 A 
ATOM      6  C   UNL     1       5.528   1.720  -0.507  1.00  0.00     0.016 A 
ATOM      7  C   UNL     1       3.571   3.098  -0.339  1.00  0.00     0.016 A 
ATOM      8  C   UNL     1       6.020   2.519  -1.559  1.00  0.00     0.010 A 
ATOM      9  C   UNL     1       4.041   3.874  -1.403  1.00  0.00     0.010 A 
ATOM     10  C   UNL     1       5.272   3.591  -2.034  1.00  0.00    -0.014 A 
BRANCH  10  11
ATOM     11  C   UNL     1       5.788   4.602  -3.000  1.00  0.00     0.031 A 
ATOM     12  C   UNL     1       6.020   5.969  -2.432  1.00  0.00     0.074 A 
ATOM     13  C   UNL     1       5.928   4.403  -4.330  1.00  0.00     0.049 A 
ATOM     14  N   UNL     1       6.255   7.089  -3.054  1.00  0.00    -0.248 NA
ATOM     15  C   UNL     1       6.003   6.078  -0.960  1.00  0.00     0.031 C 
ATOM     16  C   UNL     1       5.921   3.128  -5.035  1.00  0.00     0.029 A 
ATOM     17  N   UNL     1       5.968   5.321  -5.357  1.00  0.00    -0.354 N 
ATOM     18  C   UNL     1       6.499   8.006  -2.046  1.00  0.00     0.074 A 
ATOM     19  C   UNL     1       6.183   7.374  -0.788  1.00  0.00     0.031 C 
ATOM     20  C   UNL     1       5.671   3.336  -6.342  1.00  0.00     0.029 A 
ATOM     21  C   UNL     1       5.646   4.770  -6.585  1.00  0.00     0.049 A 
ATOM     22  H   UNL     1       6.202   6.269  -5.231  1.00  0.00     0.167 HD
ATOM     23  C   UNL     1       7.072   9.223  -2.154  1.00  0.00     0.031 A 
ATOM     24  C   UNL     1       5.367   5.361  -7.765  1.00  0.00     0.031 A 
ATOM     25  C   UNL     1       7.358   9.836  -3.413  1.00  0.00     0.049 A 
ATOM     26  C   UNL     1       5.718   6.819  -7.888  1.00  0.00     0.074 A 
ATOM     27  C   UNL     1       7.965  11.046  -3.674  1.00  0.00     0.029 A 
ATOM     28  N   UNL     1       7.018   9.273  -4.636  1.00  0.00    -0.354 N 
ATOM     29  N   UNL     1       6.091   7.647  -6.941  1.00  0.00    -0.248 NA
ATOM     30  C   UNL     1       5.753   7.390  -9.241  1.00  0.00     0.031 C 
ATOM     31  C   UNL     1       7.941  11.241  -5.060  1.00  0.00     0.029 A 
ATOM     32  C   UNL     1       7.368  10.127  -5.661  1.00  0.00     0.049 A 
ATOM     33  H   UNL     1       6.591   8.394  -4.755  1.00  0.00     0.167 HD
ATOM     34  C   UNL     1       6.540   8.786  -7.593  1.00  0.00     0.074 A 
ATOM     35  C   UNL     1       6.309   8.574  -9.009  1.00  0.00     0.031 C 
ATOM     36  C   UNL     1       7.152   9.874  -7.066  1.00  0.00     0.031 A 
BRANCH  23  37
ATOM     37  C   UNL     1       7.434   9.878  -0.855  1.00  0.00    -0.014 A 
ATOM     38  C   UNL     1       8.433   9.307  -0.036  1.00  0.00     0.010 A 
ATOM     39  C   UNL     1       6.673  10.949  -0.368  1.00  0.00     0.010 A 
ATOM     40  C   UNL     1       8.584   9.722   1.286  1.00  0.00     0.020 A 
ATOM     41  C   UNL     1       6.846  11.390   0.947  1.00  0.00     0.020 A 
ATOM     42  C   UNL     1       7.770  10.746   1.776  1.00  0.00     0.054 A 
BRANCH  42  43
ATOM     43  S   UNL     1       7.906  11.196   3.526  1.00  0.00     0.124 S 
ATOM     44  O   UNL     1       7.220  10.081   4.175  1.00  0.00    -0.237 OA
ATOM     45  O   UNL     1       9.351  11.249   3.734  1.00  0.00    -0.237 OA
ATOM     46  O   UNL     1       7.219  12.482   3.606  1.00  0.00    -0.744 OA
ENDBRANCH  42  43
ENDBRANCH  23  37
BRANCH  24  47
ATOM     47  C   UNL     1       4.878   4.577  -8.938  1.00  0.00    -0.014 A 
ATOM     48  C   UNL     1       5.767   4.138  -9.935  1.00  0.00     0.010 A 
ATOM     49  C   UNL     1       3.509   4.272  -9.075  1.00  0.00     0.010 A 
ATOM     50  C   UNL     1       5.300   3.428 -11.049  1.00  0.00     0.020 A 
ATOM     51  C   UNL     1       3.038   3.553 -10.185  1.00  0.00     0.020 A 
ATOM     52  C   UNL     1       3.937   3.138 -11.168  1.00  0.00     0.054 A 
BRANCH  52  53
ATOM     53  S   UNL     1       3.375   2.194 -12.617  1.00  0.00     0.124 S 
ATOM     54  O   UNL     1       3.679   3.105 -13.716  1.00  0.00    -0.237 OA
ATOM     55  O   UNL     1       4.206   0.994 -12.546  1.00  0.00    -0.237 OA
ATOM     56  O   UNL     1       1.953   1.978 -12.363  1.00  0.00    -0.744 OA
ENDBRANCH  52  53
ENDBRANCH  24  47
BRANCH  36  57
ATOM     57  C   UNL     1       7.711  10.893  -8.013  1.00  0.00    -0.014 A 
ATOM     58  C   UNL     1       6.881  11.821  -8.659  1.00  0.00     0.010 A 
ATOM     59  C   UNL     1       9.110  11.017  -8.115  1.00  0.00     0.010 A 
ATOM     60  C   UNL     1       7.446  12.878  -9.374  1.00  0.00     0.020 A 
ATOM     61  C   UNL     1       9.676  12.087  -8.805  1.00  0.00     0.020 A 
ATOM     62  C   UNL     1       8.838  13.015  -9.425  1.00  0.00     0.054 A 
BRANCH  62  63
ATOM     63  S   UNL     1       9.539  14.484 -10.223  1.00  0.00     0.124 S 
ATOM     64  O   UNL     1       9.352  14.179 -11.638  1.00  0.00    -0.237 OA
ATOM     65  O   UNL     1       8.705  15.562  -9.695  1.00  0.00    -0.237 OA
ATOM     66  O   UNL     1      10.926  14.498  -9.765  1.00  0.00    -0.744 OA
ENDBRANCH  62  63
ENDBRANCH  36  57
ENDBRANCH  10  11
ENDBRANCH   3   5
ENDBRANCH   2   3
ENDBRANCH   1   2
BRANCH   1  67
ATOM     67  C   UNL     1       4.655  -1.420  -0.941  1.00  0.00     0.274 C 
BRANCH  67  68
ATOM     68  O   UNL     1       3.786  -0.521  -1.649  1.00  0.00    -0.462 OA
BRANCH  68  69
ATOM     69  C   UNL     1       2.821  -1.082  -2.430  1.00  0.00     0.310 C 
ATOM     70  O   UNL     1       2.703  -2.281  -2.572  1.00  0.00    -0.252 OA
BRANCH  69  71
ATOM     71  C   UNL     1       1.912  -0.041  -3.118  1.00  0.00     0.115 C 
ATOM     72  C   UNL     1       2.477   1.370  -3.032  1.00  0.00     0.004 C 
ATOM     73  C   UNL     1       1.861  -0.285  -4.644  1.00  0.00     0.096 C 
ATOM     74  C   UNL     1       1.504   2.426  -3.578  1.00  0.00     0.005 C 
ATOM     75  C   UNL     1       3.534   1.329  -4.109  1.00  0.00     0.009 C 
ATOM     76  C   UNL     1       2.538   1.005  -5.210  1.00  0.00     0.003 C 
ATOM     77  C   UNL     1       1.642   2.255  -5.093  1.00  0.00     0.005 C 
BRANCH  73  78
ATOM     78  C   UNL     1       0.502  -0.547  -5.299  1.00  0.00     0.228 C 
ATOM     79  O   UNL     1       0.206  -0.034  -6.382  1.00  0.00    -0.274 OA
ATOM     80  N   UNL     1      -0.399  -1.441  -4.795  1.00  0.00    -0.326 N 
ATOM     81  H   UNL     1      -1.264  -1.488  -5.263  1.00  0.00     0.169 HD
BRANCH  80  82
ATOM     82  C   UNL     1      -0.251  -2.292  -3.707  1.00  0.00     0.041 A 
ATOM     83  C   UNL     1       0.312  -3.554  -3.886  1.00  0.00     0.033 A 
ATOM     84  C   UNL     1      -0.661  -1.860  -2.441  1.00  0.00     0.033 A 
ATOM     85  C   UNL     1       0.591  -4.345  -2.768  1.00  0.00     0.088 A 
ATOM     86  C   UNL     1      -0.353  -2.623  -1.316  1.00  0.00     0.088 A 
ATOM     87  C   UNL     1       0.304  -3.848  -1.487  1.00  0.00     0.269 A 
BRANCH  87  88
ATOM     88  N   UNL     1       0.780  -4.578  -0.311  1.00  0.00     0.062 N 
ATOM     89  O   UNL     1       1.009  -5.790  -0.439  1.00  0.00    -0.258 OA
ATOM     90  O   UNL     1       0.925  -3.942   0.743  1.00  0.00    -0.258 OA
ENDBRANCH  87  88
ENDBRANCH  80  82
ENDBRANCH  73  78
ENDBRANCH  69  71
ENDBRANCH  68  69
ENDBRANCH  67  68
ENDBRANCH   1  67
TORSDOF 17
