REMARK SMILES Cn1cc(C(=O)OCCOC(=O)c2ccc(-c3c4nc(c(-c5ccc(S(=O)(=O)[O-])cc5)c5ccc([nH]5)c(-c5ccc(S(=O)(=O)[O-])cc5)c5nc(c(-c6ccc(S(=O)(=O)[O-])cc6)c6ccc3[nH]6)C=C5)C=C4)cc2)c(C(=O)Nc2ccc(-c3nc4cc(Cl)ccc4o3)cc2)n1
REMARK SMILES IDX 8 1 7 2 5 3 6 4 4 5 1 6 2 7 3 8 93 9 73 10 74 11 75 12 76 13
REMARK SMILES IDX 77 15 78 16 92 17 79 18 91 19 80 20 81 21 82 22 90 23 83 24
REMARK SMILES IDX 89 25 84 26 88 27 85 28 87 29 86 30 9 31 10 32 11 33 12 34
REMARK SMILES IDX 13 35 14 36 72 37 15 38 71 39 16 40 17 41 18 42 65 43 19 44
REMARK SMILES IDX 70 45 64 46 66 47 20 48 69 49 63 50 62 51 21 53 51 54 32 55
REMARK SMILES IDX 50 56 33 57 36 58 49 59 67 60 34 61 35 62 48 64 68 65 37 66
REMARK SMILES IDX 22 67 23 68 31 69 24 70 30 71 25 72 26 73 27 74 28 75 29 76
REMARK SMILES IDX 52 77 53 78 61 79 54 80 60 81 55 82 56 83 57 84 58 85 59 86
REMARK SMILES IDX 38 87 39 88 47 89 40 90 46 91 41 92 42 93 43 94 44 95 45 96
REMARK H PARENT 76 14 66 52 36 63
REMARK Flexibility Score: inf
ROOT
ATOM      1  C   UNL     1       2.532  -3.473  -1.851  1.00  0.00     0.275 C 
ENDROOT
BRANCH   1   2
ATOM      2  O   UNL     1       1.687  -2.493  -1.237  1.00  0.00    -0.458 OA
BRANCH   2   3
ATOM      3  C   UNL     1       1.817  -2.246   0.097  1.00  0.00     0.342 C 
ATOM      4  O   UNL     1       2.400  -2.965   0.896  1.00  0.00    -0.246 OA
BRANCH   3   5
ATOM      5  C   UNL     1       1.074  -1.056   0.435  1.00  0.00     0.111 A 
ATOM      6  C   UNL     1      -1.978   0.845   0.245  1.00  0.00     0.173 C 
ATOM      7  N   UNL     1      -0.667   0.275   0.440  1.00  0.00    -0.274 N 
ATOM      8  C   UNL     1      -0.265  -0.960   0.082  1.00  0.00     0.125 A 
ATOM      9  N   UNL     1       0.297   0.999   1.000  1.00  0.00    -0.167 NA
ATOM     10  C   UNL     1       1.403   0.208   1.039  1.00  0.00     0.165 A 
BRANCH  10  11
ATOM     11  C   UNL     1       2.603   0.832   1.681  1.00  0.00     0.277 C 
ATOM     12  O   UNL     1       2.607   2.033   1.979  1.00  0.00    -0.267 OA
ATOM     13  N   UNL     1       3.652   0.108   2.197  1.00  0.00    -0.321 N 
ATOM     14  H   UNL     1       3.869   0.326   3.132  1.00  0.00     0.170 HD
BRANCH  13  15
ATOM     15  C   UNL     1       4.465  -0.876   1.642  1.00  0.00     0.041 A 
ATOM     16  C   UNL     1       5.139  -1.734   2.511  1.00  0.00     0.027 A 
ATOM     17  C   UNL     1       4.654  -1.003   0.274  1.00  0.00     0.027 A 
ATOM     18  C   UNL     1       5.775  -2.871   2.008  1.00  0.00     0.016 A 
ATOM     19  C   UNL     1       5.345  -2.106  -0.232  1.00  0.00     0.016 A 
ATOM     20  C   UNL     1       5.786  -3.118   0.630  1.00  0.00     0.037 A 
BRANCH  20  21
ATOM     21  C   UNL     1       5.970  -4.468   0.096  1.00  0.00     0.227 A 
ATOM     22  N   UNL     1       5.912  -4.867  -1.167  1.00  0.00    -0.209 NA
ATOM     23  O   UNL     1       5.806  -5.481   1.013  1.00  0.00    -0.436 OA
ATOM     24  C   UNL     1       5.558  -6.190  -1.075  1.00  0.00     0.111 A 
ATOM     25  C   UNL     1       5.485  -6.564   0.256  1.00  0.00     0.155 A 
ATOM     26  C   UNL     1       5.215  -7.120  -2.064  1.00  0.00     0.053 A 
ATOM     27  C   UNL     1       5.082  -7.813   0.711  1.00  0.00     0.051 A 
ATOM     28  C   UNL     1       4.776  -8.382  -1.641  1.00  0.00     0.043 A 
ATOM     29  C   UNL     1       4.708  -8.724  -0.284  1.00  0.00     0.024 A 
ATOM     30  Cl  UNL     1       4.273  -9.534  -2.821  1.00  0.00    -0.084 Cl
ENDBRANCH  20  21
ENDBRANCH  13  15
ENDBRANCH  10  11
ENDBRANCH   3   5
ENDBRANCH   2   3
ENDBRANCH   1   2
BRANCH   1  31
ATOM     31  C   UNL     1       3.009  -2.926  -3.203  1.00  0.00     0.275 C 
BRANCH  31  32
ATOM     32  O   UNL     1       3.625  -1.628  -3.050  1.00  0.00    -0.458 OA
BRANCH  32  33
ATOM     33  C   UNL     1       2.793  -0.565  -3.220  1.00  0.00     0.338 C 
ATOM     34  O   UNL     1       1.627  -0.614  -3.579  1.00  0.00    -0.246 OA
BRANCH  33  35
ATOM     35  C   UNL     1       3.453   0.692  -2.780  1.00  0.00     0.060 A 
ATOM     36  C   UNL     1       2.645   1.688  -2.218  1.00  0.00     0.016 A 
ATOM     37  C   UNL     1       4.833   0.905  -2.895  1.00  0.00     0.016 A 
ATOM     38  C   UNL     1       3.201   2.903  -1.811  1.00  0.00     0.010 A 
ATOM     39  C   UNL     1       5.391   2.127  -2.488  1.00  0.00     0.010 A 
ATOM     40  C   UNL     1       4.571   3.148  -1.978  1.00  0.00    -0.014 A 
BRANCH  40  41
ATOM     41  C   UNL     1       5.078   4.535  -1.815  1.00  0.00     0.031 A 
ATOM     42  C   UNL     1       5.027   5.456  -3.007  1.00  0.00     0.074 A 
ATOM     43  C   UNL     1       5.515   5.011  -0.634  1.00  0.00     0.049 A 
ATOM     44  N   UNL     1       5.244   6.745  -3.069  1.00  0.00    -0.248 NA
ATOM     45  C   UNL     1       4.670   4.841  -4.296  1.00  0.00     0.031 C 
ATOM     46  C   UNL     1       5.605   4.254   0.612  1.00  0.00     0.029 A 
ATOM     47  N   UNL     1       5.956   6.269  -0.297  1.00  0.00    -0.354 N 
ATOM     48  C   UNL     1       4.997   7.103  -4.388  1.00  0.00     0.074 A 
ATOM     49  C   UNL     1       4.674   5.888  -5.106  1.00  0.00     0.031 C 
ATOM     50  C   UNL     1       6.074   5.064   1.580  1.00  0.00     0.029 A 
ATOM     51  C   UNL     1       6.308   6.397   1.025  1.00  0.00     0.049 A 
ATOM     52  H   UNL     1       6.013   7.010  -0.943  1.00  0.00     0.167 HD
ATOM     53  C   UNL     1       5.010   8.332  -4.955  1.00  0.00     0.031 A 
ATOM     54  C   UNL     1       6.751   7.470   1.712  1.00  0.00     0.031 A 
ATOM     55  C   UNL     1       5.375   9.543  -4.277  1.00  0.00     0.049 A 
ATOM     56  C   UNL     1       6.877   8.809   1.029  1.00  0.00     0.074 A 
ATOM     57  C   UNL     1       5.405  10.834  -4.774  1.00  0.00     0.029 A 
ATOM     58  N   UNL     1       5.802   9.609  -2.961  1.00  0.00    -0.354 N 
ATOM     59  N   UNL     1       6.554   9.146  -0.197  1.00  0.00    -0.248 NA
ATOM     60  C   UNL     1       7.415   9.918   1.834  1.00  0.00     0.031 C 
ATOM     61  C   UNL     1       5.896  11.677  -3.770  1.00  0.00     0.029 A 
ATOM     62  C   UNL     1       6.136  10.913  -2.640  1.00  0.00     0.049 A 
ATOM     63  H   UNL     1       5.859   8.843  -2.346  1.00  0.00     0.167 HD
ATOM     64  C   UNL     1       6.822  10.508  -0.298  1.00  0.00     0.074 A 
ATOM     65  C   UNL     1       7.334  10.935   0.986  1.00  0.00     0.031 C 
ATOM     66  C   UNL     1       6.649  11.332  -1.361  1.00  0.00     0.031 A 
BRANCH  53  67
ATOM     67  C   UNL     1       4.614   8.409  -6.400  1.00  0.00    -0.014 A 
ATOM     68  C   UNL     1       3.257   8.350  -6.766  1.00  0.00     0.010 A 
ATOM     69  C   UNL     1       5.596   8.533  -7.396  1.00  0.00     0.010 A 
ATOM     70  C   UNL     1       2.890   8.370  -8.112  1.00  0.00     0.020 A 
ATOM     71  C   UNL     1       5.231   8.567  -8.744  1.00  0.00     0.020 A 
ATOM     72  C   UNL     1       3.881   8.466  -9.094  1.00  0.00     0.054 A 
BRANCH  72  73
ATOM     73  S   UNL     1       3.385   8.476 -10.838  1.00  0.00     0.124 S 
ATOM     74  O   UNL     1       3.129   7.059 -11.085  1.00  0.00    -0.237 OA
ATOM     75  O   UNL     1       2.204   9.336 -10.836  1.00  0.00    -0.237 OA
ATOM     76  O   UNL     1       4.551   9.028 -11.524  1.00  0.00    -0.744 OA
ENDBRANCH  72  73
ENDBRANCH  53  67
BRANCH  54  77
ATOM     77  C   UNL     1       7.117   7.340   3.147  1.00  0.00    -0.014 A 
ATOM     78  C   UNL     1       6.285   7.868   4.149  1.00  0.00     0.010 A 
ATOM     79  C   UNL     1       8.331   6.731   3.512  1.00  0.00     0.010 A 
ATOM     80  C   UNL     1       6.672   7.813   5.492  1.00  0.00     0.020 A 
ATOM     81  C   UNL     1       8.714   6.661   4.854  1.00  0.00     0.020 A 
ATOM     82  C   UNL     1       7.890   7.217   5.835  1.00  0.00     0.054 A 
BRANCH  82  83
ATOM     83  S   UNL     1       8.376   7.134   7.581  1.00  0.00     0.124 S 
ATOM     84  O   UNL     1       8.939   8.462   7.802  1.00  0.00    -0.237 OA
ATOM     85  O   UNL     1       7.110   6.863   8.258  1.00  0.00    -0.237 OA
ATOM     86  O   UNL     1       9.336   6.032   7.612  1.00  0.00    -0.744 OA
ENDBRANCH  82  83
ENDBRANCH  54  77
BRANCH  66  87
ATOM     87  C   UNL     1       7.001  12.784  -1.190  1.00  0.00    -0.014 A 
ATOM     88  C   UNL     1       8.341  13.209  -1.209  1.00  0.00     0.010 A 
ATOM     89  C   UNL     1       5.978  13.744  -1.087  1.00  0.00     0.010 A 
ATOM     90  C   UNL     1       8.652  14.569  -1.115  1.00  0.00     0.020 A 
ATOM     91  C   UNL     1       6.285  15.106  -1.010  1.00  0.00     0.020 A 
ATOM     92  C   UNL     1       7.622  15.510  -1.016  1.00  0.00     0.054 A 
BRANCH  92  93
ATOM     93  S   UNL     1       8.041  17.275  -0.967  1.00  0.00     0.124 S 
ATOM     94  O   UNL     1       8.394  17.465   0.437  1.00  0.00    -0.237 OA
ATOM     95  O   UNL     1       9.150  17.375  -1.912  1.00  0.00    -0.237 OA
ATOM     96  O   UNL     1       6.808  17.933  -1.395  1.00  0.00    -0.744 OA
ENDBRANCH  92  93
ENDBRANCH  66  87
ENDBRANCH  40  41
ENDBRANCH  33  35
ENDBRANCH  32  33
ENDBRANCH  31  32
ENDBRANCH   1  31
TORSDOF 17
