REMARK SMILES Cn1ccnc1SCC[C@@H]1CCC[C@]1([NH3+])C(=O)OCCOC(=O)c1ccc(-c2c3nc(c(-c4ccc(S(=O)(=O)[O-])cc4)c4ccc([nH]4)c(-c4ccc(S(=O)(=O)[O-])cc4)c4nc(c(-c5ccc(S(=O)(=O)[O-])cc5)c5ccc2[nH]5)C=C4)C=C3)cc1
REMARK SMILES IDX 19 1 18 2 16 3 17 4 14 5 10 6 11 7 12 8 13 9 9 10 8 11 7 12
REMARK SMILES IDX 6 13 1 14 2 15 3 16 4 17 5 18 15 19 20 23 21 24 22 25 23 26
REMARK SMILES IDX 24 27 25 28 83 29 26 30 82 31 27 32 28 33 29 34 76 35 30 36
REMARK SMILES IDX 81 37 75 38 77 39 31 40 80 41 74 42 73 43 32 45 62 46 43 47
REMARK SMILES IDX 61 48 44 49 47 50 60 51 78 52 45 53 46 54 59 56 79 57 48 58
REMARK SMILES IDX 33 59 34 60 42 61 35 62 41 63 36 64 37 65 38 66 39 67 40 68
REMARK SMILES IDX 63 69 64 70 72 71 65 72 71 73 66 74 67 75 68 76 69 77 70 78
REMARK SMILES IDX 49 79 50 80 58 81 51 82 57 83 52 84 53 85 54 86 55 87 56 88
REMARK H PARENT 15 20 15 21 15 22 77 44 47 55
REMARK Flexibility Score: inf
ROOT
ATOM      1  C   UNL     1       6.623   0.540   1.868  1.00  0.00     0.274 C 
ENDROOT
BRANCH   1   2
ATOM      2  O   UNL     1       5.191   0.575   1.688  1.00  0.00    -0.457 OA
BRANCH   2   3
ATOM      3  C   UNL     1       4.650  -0.539   1.134  1.00  0.00     0.368 C 
ATOM      4  O   UNL     1       5.295  -1.552   0.867  1.00  0.00    -0.245 OA
BRANCH   3   5
ATOM      5  C   UNL     1       3.167  -0.386   0.675  1.00  0.00     0.195 C 
ATOM      6  C   UNL     1       2.304   0.779   1.200  1.00  0.00     0.063 C 
ATOM      7  C   UNL     1       2.062   0.408   2.657  1.00  0.00     0.011 C 
ATOM      8  C   UNL     1       1.723  -1.075   2.563  1.00  0.00     0.008 C 
ATOM      9  C   UNL     1       2.369  -1.585   1.264  1.00  0.00     0.081 C 
BRANCH   6  10
ATOM     10  C   UNL     1       2.691   2.238   0.975  1.00  0.00     0.022 C 
BRANCH  10  11
ATOM     11  C   UNL     1       2.229   2.829  -0.365  1.00  0.00     0.079 C 
BRANCH  11  12
ATOM     12  S   UNL     1       0.456   3.214  -0.594  1.00  0.00    -0.088 SA
BRANCH  12  13
ATOM     13  C   UNL     1      -0.389   1.706  -0.502  1.00  0.00     0.167 A 
ATOM     14  C   UNL     1       0.508   0.578  -2.593  1.00  0.00     0.152 C 
ATOM     15  N   UNL     1      -0.278   0.666  -1.391  1.00  0.00    -0.329 N 
ATOM     16  C   UNL     1      -1.093  -0.345  -0.941  1.00  0.00     0.108 A 
ATOM     17  C   UNL     1      -1.698   0.154   0.187  1.00  0.00     0.132 A 
ATOM     18  N   UNL     1      -1.260   1.427   0.444  1.00  0.00    -0.231 NA
ENDBRANCH  12  13
ENDBRANCH  11  12
ENDBRANCH  10  11
ENDBRANCH   6  10
BRANCH   5  19
ATOM     19  N   UNL     1       3.175  -0.433  -0.817  1.00  0.00    -0.343 N 
ATOM     20  H   UNL     1       2.221  -0.336  -1.165  1.00  0.00     0.345 HD
ATOM     21  H   UNL     1       3.561  -1.326  -1.126  1.00  0.00     0.345 HD
ATOM     22  H   UNL     1       3.749   0.329  -1.178  1.00  0.00     0.345 HD
ENDBRANCH   5  19
ENDBRANCH   3   5
ENDBRANCH   2   3
ENDBRANCH   1   2
BRANCH   1  23
ATOM     23  C   UNL     1       7.003   0.289   3.322  1.00  0.00     0.275 C 
BRANCH  23  24
ATOM     24  O   UNL     1       6.376  -0.915   3.789  1.00  0.00    -0.458 OA
BRANCH  24  25
ATOM     25  C   UNL     1       5.575  -0.767   4.867  1.00  0.00     0.338 C 
ATOM     26  O   UNL     1       5.417   0.258   5.523  1.00  0.00    -0.246 OA
BRANCH  25  27
ATOM     27  C   UNL     1       4.849  -2.016   5.165  1.00  0.00     0.060 A 
ATOM     28  C   UNL     1       4.338  -2.813   4.141  1.00  0.00     0.016 A 
ATOM     29  C   UNL     1       4.525  -2.303   6.490  1.00  0.00     0.016 A 
ATOM     30  C   UNL     1       3.376  -3.785   4.433  1.00  0.00     0.010 A 
ATOM     31  C   UNL     1       3.653  -3.354   6.784  1.00  0.00     0.010 A 
ATOM     32  C   UNL     1       3.004  -4.063   5.757  1.00  0.00    -0.014 A 
BRANCH  32  33
ATOM     33  C   UNL     1       1.885  -4.999   6.095  1.00  0.00     0.031 A 
ATOM     34  C   UNL     1       0.779  -4.541   7.021  1.00  0.00     0.074 A 
ATOM     35  C   UNL     1       1.817  -6.250   5.595  1.00  0.00     0.049 A 
ATOM     36  N   UNL     1      -0.085  -5.253   7.700  1.00  0.00    -0.248 NA
ATOM     37  C   UNL     1       0.648  -3.089   7.228  1.00  0.00     0.031 C 
ATOM     38  C   UNL     1       2.730  -6.835   4.613  1.00  0.00     0.029 A 
ATOM     39  N   UNL     1       0.915  -7.257   5.846  1.00  0.00    -0.354 N 
ATOM     40  C   UNL     1      -0.782  -4.348   8.496  1.00  0.00     0.074 A 
ATOM     41  C   UNL     1      -0.259  -3.033   8.193  1.00  0.00     0.031 C 
ATOM     42  C   UNL     1       2.303  -8.067   4.294  1.00  0.00     0.029 A 
ATOM     43  C   UNL     1       1.164  -8.408   5.138  1.00  0.00     0.049 A 
ATOM     44  H   UNL     1       0.162  -7.162   6.473  1.00  0.00     0.167 HD
ATOM     45  C   UNL     1      -1.754  -4.592   9.411  1.00  0.00     0.031 A 
ATOM     46  C   UNL     1       0.584  -9.623   5.193  1.00  0.00     0.031 A 
ATOM     47  C   UNL     1      -2.334  -5.889   9.646  1.00  0.00     0.049 A 
ATOM     48  C   UNL     1      -0.487  -9.887   6.212  1.00  0.00     0.074 A 
ATOM     49  C   UNL     1      -3.311  -6.248  10.559  1.00  0.00     0.029 A 
ATOM     50  N   UNL     1      -2.018  -7.033   8.931  1.00  0.00    -0.354 N 
ATOM     51  N   UNL     1      -1.018  -9.061   7.081  1.00  0.00    -0.248 NA
ATOM     52  C   UNL     1      -1.008 -11.259   6.280  1.00  0.00     0.031 C 
ATOM     53  C   UNL     1      -3.574  -7.615  10.407  1.00  0.00     0.029 A 
ATOM     54  C   UNL     1      -2.787  -8.097   9.373  1.00  0.00     0.049 A 
ATOM     55  H   UNL     1      -1.346  -7.083   8.213  1.00  0.00     0.167 HD
ATOM     56  C   UNL     1      -1.942  -9.813   7.798  1.00  0.00     0.074 A 
ATOM     57  C   UNL     1      -1.909 -11.154   7.249  1.00  0.00     0.031 C 
ATOM     58  C   UNL     1      -2.742  -9.427   8.822  1.00  0.00     0.031 A 
BRANCH  45  59
ATOM     59  C   UNL     1      -2.192  -3.439  10.276  1.00  0.00    -0.014 A 
ATOM     60  C   UNL     1      -2.991  -2.394   9.781  1.00  0.00     0.010 A 
ATOM     61  C   UNL     1      -1.781  -3.406  11.622  1.00  0.00     0.010 A 
ATOM     62  C   UNL     1      -3.316  -1.306  10.599  1.00  0.00     0.020 A 
ATOM     63  C   UNL     1      -2.127  -2.335  12.450  1.00  0.00     0.020 A 
ATOM     64  C   UNL     1      -2.869  -1.277  11.925  1.00  0.00     0.054 A 
BRANCH  64  65
ATOM     65  S   UNL     1      -3.278   0.151  12.967  1.00  0.00     0.124 S 
ATOM     66  O   UNL     1      -2.272   1.124  12.551  1.00  0.00    -0.237 OA
ATOM     67  O   UNL     1      -4.651   0.460  12.575  1.00  0.00    -0.237 OA
ATOM     68  O   UNL     1      -3.125  -0.361  14.327  1.00  0.00    -0.744 OA
ENDBRANCH  64  65
ENDBRANCH  45  59
BRANCH  46  69
ATOM     69  C   UNL     1       1.046 -10.696   4.273  1.00  0.00    -0.014 A 
ATOM     70  C   UNL     1       0.240 -11.091   3.192  1.00  0.00     0.010 A 
ATOM     71  C   UNL     1       2.315 -11.282   4.435  1.00  0.00     0.010 A 
ATOM     72  C   UNL     1       0.702 -12.040   2.276  1.00  0.00     0.020 A 
ATOM     73  C   UNL     1       2.791 -12.211   3.506  1.00  0.00     0.020 A 
ATOM     74  C   UNL     1       1.980 -12.586   2.433  1.00  0.00     0.054 A 
BRANCH  74  75
ATOM     75  S   UNL     1       2.610 -13.726   1.170  1.00  0.00     0.124 S 
ATOM     76  O   UNL     1       1.953 -14.977   1.536  1.00  0.00    -0.237 OA
ATOM     77  O   UNL     1       2.152 -13.110  -0.073  1.00  0.00    -0.237 OA
ATOM     78  O   UNL     1       4.056 -13.692   1.375  1.00  0.00    -0.744 OA
ENDBRANCH  74  75
ENDBRANCH  46  69
BRANCH  58  79
ATOM     79  C   UNL     1      -3.673 -10.461   9.389  1.00  0.00    -0.014 A 
ATOM     80  C   UNL     1      -3.204 -11.470  10.248  1.00  0.00     0.010 A 
ATOM     81  C   UNL     1      -5.042 -10.409   9.071  1.00  0.00     0.010 A 
ATOM     82  C   UNL     1      -4.083 -12.433  10.751  1.00  0.00     0.020 A 
ATOM     83  C   UNL     1      -5.927 -11.358   9.587  1.00  0.00     0.020 A 
ATOM     84  C   UNL     1      -5.439 -12.375  10.410  1.00  0.00     0.054 A 
BRANCH  84  85
ATOM     85  S   UNL     1      -6.569 -13.622  11.088  1.00  0.00     0.124 S 
ATOM     86  O   UNL     1      -6.299 -14.773  10.231  1.00  0.00    -0.237 OA
ATOM     87  O   UNL     1      -6.120 -13.750  12.472  1.00  0.00    -0.237 OA
ATOM     88  O   UNL     1      -7.889 -13.016  10.923  1.00  0.00    -0.744 OA
ENDBRANCH  84  85
ENDBRANCH  58  79
ENDBRANCH  32  33
ENDBRANCH  25  27
ENDBRANCH  24  25
ENDBRANCH  23  24
ENDBRANCH   1  23
TORSDOF 19
