REMARK SMILES CS(=O)(=O)c1ccc(N2N=C(C(=O)OCCOC(=O)c3ccc(-c4c5nc(c(-c6ccc(S(=O)(=O)[O-])cc6)c6ccc([nH]6)c(-c6ccc(S(=O)(=O)[O-])cc6)c6nc(c(-c7ccc(S(=O)(=O)[O-])cc7)c7ccc4[nH]7)C=C6)C=C5)cc3)C[C@H]2c2cccs2)cc1
REMARK SMILES IDX 16 1 15 2 14 3 12 4 13 5 11 6 9 7 10 8 81 9 80 10 8 11 5 12
REMARK SMILES IDX 6 13 88 14 7 15 87 16 2 17 1 18 3 19 4 20 82 21 83 22 86 23
REMARK SMILES IDX 84 24 85 25 17 26 18 27 19 28 20 29 21 30 79 31 22 32 78 33
REMARK SMILES IDX 23 34 24 35 25 36 72 37 26 38 77 39 71 40 73 41 27 42 76 43
REMARK SMILES IDX 70 44 69 45 28 47 58 48 39 49 57 50 40 51 43 52 56 53 74 54
REMARK SMILES IDX 41 55 42 56 55 58 75 59 44 60 29 61 30 62 38 63 31 64 37 65
REMARK SMILES IDX 32 66 33 67 34 68 35 69 36 70 59 71 60 72 68 73 61 74 67 75
REMARK SMILES IDX 62 76 63 77 64 78 65 79 66 80 45 81 46 82 54 83 47 84 53 85
REMARK SMILES IDX 48 86 49 87 50 88 51 89 52 90
REMARK H PARENT 73 46 43 57
REMARK Flexibility Score: inf
ROOT
ATOM      1  C   UNL     1       5.541  -2.229  10.562  1.00  0.00     0.275 C 
ENDROOT
BRANCH   1   2
ATOM      2  C   UNL     1       5.599  -0.704  10.690  1.00  0.00     0.275 C 
BRANCH   2   3
ATOM      3  O   UNL     1       4.450  -0.143  10.037  1.00  0.00    -0.458 OA
BRANCH   3   4
ATOM      4  C   UNL     1       4.645   1.022   9.392  1.00  0.00     0.354 C 
ATOM      5  O   UNL     1       5.597   1.770   9.464  1.00  0.00    -0.245 OA
BRANCH   4   6
ATOM      6  C   UNL     1       3.455   1.270   8.506  1.00  0.00     0.148 C 
ATOM      7  N   UNL     1       2.243   1.511   6.803  1.00  0.00    -0.256 N 
ATOM      8  N   UNL     1       3.514   1.253   7.208  1.00  0.00    -0.169 NA
ATOM      9  C   UNL     1       1.356   1.962   7.875  1.00  0.00     0.154 C 
ATOM     10  C   UNL     1       2.099   1.450   9.114  1.00  0.00     0.099 C 
BRANCH   7  11
ATOM     11  C   UNL     1       1.861   1.427   5.477  1.00  0.00     0.060 A 
ATOM     12  C   UNL     1       0.979   1.280   2.819  1.00  0.00     0.067 A 
ATOM     13  C   UNL     1       0.759   0.203   3.680  1.00  0.00     0.022 A 
ATOM     14  C   UNL     1       1.632   2.429   3.269  1.00  0.00     0.022 A 
ATOM     15  C   UNL     1       1.200   0.284   5.003  1.00  0.00     0.029 A 
ATOM     16  C   UNL     1       2.078   2.491   4.593  1.00  0.00     0.029 A 
BRANCH  12  17
ATOM     17  S   UNL     1       0.343   1.204   1.160  1.00  0.00     0.175 S 
ATOM     18  C   UNL     1       1.428   0.068   0.335  1.00  0.00     0.163 C 
ATOM     19  O   UNL     1       0.516   2.516   0.563  1.00  0.00    -0.224 OA
ATOM     20  O   UNL     1      -0.977   0.608   1.248  1.00  0.00    -0.224 OA
ENDBRANCH  12  17
ENDBRANCH   7  11
BRANCH   9  21
ATOM     21  C   UNL     1       1.090   3.460   7.889  1.00  0.00     0.030 A 
ATOM     22  C   UNL     1      -0.035   4.111   7.410  1.00  0.00     0.017 A 
ATOM     23  S   UNL     1       2.252   4.593   8.457  1.00  0.00    -0.147 S 
ATOM     24  C   UNL     1       0.054   5.528   7.532  1.00  0.00     0.012 A 
ATOM     25  C   UNL     1       1.244   5.922   8.097  1.00  0.00     0.065 A 
ENDBRANCH   9  21
ENDBRANCH   4   6
ENDBRANCH   3   4
ENDBRANCH   2   3
ENDBRANCH   1   2
BRANCH   1  26
ATOM     26  O   UNL     1       5.738  -2.619   9.189  1.00  0.00    -0.458 OA
BRANCH  26  27
ATOM     27  C   UNL     1       4.617  -2.638   8.423  1.00  0.00     0.338 C 
ATOM     28  O   UNL     1       3.470  -2.470   8.803  1.00  0.00    -0.246 OA
BRANCH  27  29
ATOM     29  C   UNL     1       4.999  -2.761   7.001  1.00  0.00     0.060 A 
ATOM     30  C   UNL     1       4.298  -1.988   6.070  1.00  0.00     0.016 A 
ATOM     31  C   UNL     1       6.019  -3.620   6.579  1.00  0.00     0.016 A 
ATOM     32  C   UNL     1       4.618  -2.064   4.716  1.00  0.00     0.010 A 
ATOM     33  C   UNL     1       6.327  -3.711   5.218  1.00  0.00     0.010 A 
ATOM     34  C   UNL     1       5.623  -2.937   4.281  1.00  0.00    -0.014 A 
BRANCH  34  35
ATOM     35  C   UNL     1       5.897  -3.071   2.834  1.00  0.00     0.031 A 
ATOM     36  C   UNL     1       5.122  -4.064   2.021  1.00  0.00     0.074 A 
ATOM     37  C   UNL     1       6.814  -2.283   2.247  1.00  0.00     0.049 A 
ATOM     38  N   UNL     1       5.184  -4.303   0.737  1.00  0.00    -0.248 NA
ATOM     39  C   UNL     1       4.142  -4.888   2.746  1.00  0.00     0.031 C 
ATOM     40  C   UNL     1       7.608  -1.257   2.923  1.00  0.00     0.029 A 
ATOM     41  N   UNL     1       7.224  -2.221   0.940  1.00  0.00    -0.354 N 
ATOM     42  C   UNL     1       4.248  -5.300   0.494  1.00  0.00     0.074 A 
ATOM     43  C   UNL     1       3.635  -5.624   1.766  1.00  0.00     0.031 C 
ATOM     44  C   UNL     1       8.412  -0.666   2.023  1.00  0.00     0.029 A 
ATOM     45  C   UNL     1       8.194  -1.277   0.714  1.00  0.00     0.049 A 
ATOM     46  H   UNL     1       6.857  -2.799   0.231  1.00  0.00     0.167 HD
ATOM     47  C   UNL     1       3.927  -5.893  -0.679  1.00  0.00     0.031 A 
ATOM     48  C   UNL     1       8.838  -0.946  -0.421  1.00  0.00     0.031 A 
ATOM     49  C   UNL     1       4.548  -5.599  -1.940  1.00  0.00     0.049 A 
ATOM     50  C   UNL     1       8.509  -1.661  -1.700  1.00  0.00     0.074 A 
ATOM     51  C   UNL     1       4.290  -6.153  -3.181  1.00  0.00     0.029 A 
ATOM     52  N   UNL     1       5.568  -4.678  -2.117  1.00  0.00    -0.354 N 
ATOM     53  N   UNL     1       7.609  -2.590  -1.913  1.00  0.00    -0.248 NA
ATOM     54  C   UNL     1       9.288  -1.285  -2.888  1.00  0.00     0.031 C 
ATOM     55  C   UNL     1       5.170  -5.579  -4.108  1.00  0.00     0.029 A 
ATOM     56  C   UNL     1       5.964  -4.659  -3.443  1.00  0.00     0.049 A 
ATOM     57  H   UNL     1       5.955  -4.119  -1.405  1.00  0.00     0.167 HD
ATOM     58  C   UNL     1       7.717  -2.915  -3.260  1.00  0.00     0.074 A 
ATOM     59  C   UNL     1       8.760  -2.075  -3.814  1.00  0.00     0.031 C 
ATOM     60  C   UNL     1       7.015  -3.829  -3.972  1.00  0.00     0.031 A 
BRANCH  47  61
ATOM     61  C   UNL     1       2.855  -6.940  -0.627  1.00  0.00    -0.014 A 
ATOM     62  C   UNL     1       1.499  -6.572  -0.678  1.00  0.00     0.010 A 
ATOM     63  C   UNL     1       3.202  -8.295  -0.495  1.00  0.00     0.010 A 
ATOM     64  C   UNL     1       0.502  -7.543  -0.555  1.00  0.00     0.020 A 
ATOM     65  C   UNL     1       2.207  -9.269  -0.378  1.00  0.00     0.020 A 
ATOM     66  C   UNL     1       0.864  -8.883  -0.386  1.00  0.00     0.054 A 
BRANCH  66  67
ATOM     67  S   UNL     1      -0.434 -10.136  -0.194  1.00  0.00     0.124 S 
ATOM     68  O   UNL     1      -0.680 -10.091   1.245  1.00  0.00    -0.237 OA
ATOM     69  O   UNL     1      -1.517  -9.624  -1.031  1.00  0.00    -0.237 OA
ATOM     70  O   UNL     1       0.199 -11.358  -0.682  1.00  0.00    -0.744 OA
ENDBRANCH  66  67
ENDBRANCH  47  61
BRANCH  48  71
ATOM     71  C   UNL     1       9.873   0.116  -0.390  1.00  0.00    -0.014 A 
ATOM     72  C   UNL     1       9.553   1.429  -0.772  1.00  0.00     0.010 A 
ATOM     73  C   UNL     1      11.172  -0.179   0.059  1.00  0.00     0.010 A 
ATOM     74  C   UNL     1      10.518   2.437  -0.706  1.00  0.00     0.020 A 
ATOM     75  C   UNL     1      12.137   0.828   0.134  1.00  0.00     0.020 A 
ATOM     76  C   UNL     1      11.805   2.129  -0.254  1.00  0.00     0.054 A 
BRANCH  76  77
ATOM     77  S   UNL     1      13.041   3.449  -0.094  1.00  0.00     0.124 S 
ATOM     78  O   UNL     1      13.720   3.386  -1.384  1.00  0.00    -0.237 OA
ATOM     79  O   UNL     1      12.227   4.641   0.134  1.00  0.00    -0.237 OA
ATOM     80  O   UNL     1      13.833   3.019   1.057  1.00  0.00    -0.744 OA
ENDBRANCH  76  77
ENDBRANCH  48  71
BRANCH  60  81
ATOM     81  C   UNL     1       7.365  -3.978  -5.423  1.00  0.00    -0.014 A 
ATOM     82  C   UNL     1       8.432  -4.805  -5.814  1.00  0.00     0.010 A 
ATOM     83  C   UNL     1       6.601  -3.322  -6.405  1.00  0.00     0.010 A 
ATOM     84  C   UNL     1       8.741  -4.964  -7.167  1.00  0.00     0.020 A 
ATOM     85  C   UNL     1       6.904  -3.485  -7.759  1.00  0.00     0.020 A 
ATOM     86  C   UNL     1       7.980  -4.297  -8.131  1.00  0.00     0.054 A 
BRANCH  86  87
ATOM     87  S   UNL     1       8.355  -4.544  -9.890  1.00  0.00     0.124 S 
ATOM     88  O   UNL     1       9.349  -3.504 -10.136  1.00  0.00    -0.237 OA
ATOM     89  O   UNL     1       8.858  -5.916  -9.933  1.00  0.00    -0.237 OA
ATOM     90  O   UNL     1       7.062  -4.343 -10.541  1.00  0.00    -0.744 OA
ENDBRANCH  86  87
ENDBRANCH  60  81
ENDBRANCH  34  35
ENDBRANCH  27  29
ENDBRANCH  26  27
ENDBRANCH   1  26
TORSDOF 17
