REMARK SMILES [NH3+]C[C@@H]1CC[C@H](C(=O)N[C@@H](Cc2ccccc2)C(=O)OCCOC(=O)c2ccc(-c3c4nc(c(-c5ccc(S(=O)(=O)[O-])cc5)c5ccc([nH]5)c(-c5ccc(S(=O)(=O)[O-])cc5)c5nc(c(-c6ccc(S(=O)(=O)[O-])cc6)c6ccc3[nH]6)C=C5)C=C4)cc2)O1
REMARK SMILES IDX 21 1 20 2 18 3 19 4 10 5 9 6 7 7 8 8 6 10 3 11 4 12 86 13
REMARK SMILES IDX 5 14 2 15 1 16 11 20 12 21 13 22 17 23 14 24 16 25 15 26
REMARK SMILES IDX 22 27 23 28 24 29 25 30 26 31 27 32 85 33 28 34 84 35 29 36
REMARK SMILES IDX 30 37 31 38 78 39 32 40 83 41 77 42 79 43 33 44 82 45 76 46
REMARK SMILES IDX 75 47 34 49 64 50 45 51 63 52 46 53 49 54 62 55 80 56 47 57
REMARK SMILES IDX 48 58 61 60 81 61 50 62 35 63 36 64 44 65 37 66 43 67 38 68
REMARK SMILES IDX 39 69 40 70 41 71 42 72 65 73 66 74 74 75 67 76 73 77 68 78
REMARK SMILES IDX 69 79 70 80 71 81 72 82 51 83 52 84 60 85 53 86 59 87 54 88
REMARK SMILES IDX 55 89 56 90 57 91 58 92
REMARK H PARENT 9 9 1 17 1 18 1 19 79 48 49 59
REMARK Flexibility Score: inf
ROOT
ATOM      1  C   UNL     1      -2.881  -0.279   1.081  1.00  0.00     0.274 C 
ENDROOT
BRANCH   1   2
ATOM      2  O   UNL     1      -2.716  -0.086  -0.338  1.00  0.00    -0.461 OA
BRANCH   2   3
ATOM      3  C   UNL     1      -2.843   1.214  -0.735  1.00  0.00     0.329 C 
ATOM      4  O   UNL     1      -3.092   2.144   0.026  1.00  0.00    -0.250 OA
BRANCH   3   5
ATOM      5  C   UNL     1      -2.539   1.419  -2.230  1.00  0.00     0.196 C 
BRANCH   5   6
ATOM      6  N   UNL     1      -2.350   0.249  -3.088  1.00  0.00    -0.340 N 
ATOM      7  C   UNL     1      -1.347   0.027  -3.993  1.00  0.00     0.249 C 
ATOM      8  O   UNL     1      -1.540  -0.823  -4.866  1.00  0.00    -0.272 OA
ATOM      9  H   UNL     1      -3.025  -0.463  -3.006  1.00  0.00     0.164 HD
BRANCH   7  10
ATOM     10  C   UNL     1      -0.016   0.821  -3.932  1.00  0.00     0.207 C 
ATOM     11  C   UNL     1       0.902   2.502  -2.569  1.00  0.00     0.174 C 
ATOM     12  C   UNL     1       0.267   3.205  -3.756  1.00  0.00     0.041 C 
ATOM     13  O   UNL     1       0.369   1.173  -2.602  1.00  0.00    -0.359 OA
ATOM     14  C   UNL     1       0.028   2.094  -4.759  1.00  0.00     0.045 C 
BRANCH  11  15
ATOM     15  C   UNL     1       0.576   3.176  -1.215  1.00  0.00     0.291 C 
BRANCH  15  16
ATOM     16  N   UNL     1       0.861   2.343  -0.043  1.00  0.00    -0.355 N 
ATOM     17  H   UNL     1       0.621   2.855   0.806  1.00  0.00     0.344 HD
ATOM     18  H   UNL     1       1.853   2.106  -0.027  1.00  0.00     0.344 HD
ATOM     19  H   UNL     1       0.308   1.487  -0.091  1.00  0.00     0.344 HD
ENDBRANCH  15  16
ENDBRANCH  11  15
ENDBRANCH   7  10
ENDBRANCH   5   6
BRANCH   5  20
ATOM     20  C   UNL     1      -3.447   2.460  -2.908  1.00  0.00     0.072 C 
BRANCH  20  21
ATOM     21  C   UNL     1      -4.899   2.407  -2.516  1.00  0.00    -0.045 A 
ATOM     22  C   UNL     1      -5.525   3.586  -2.085  1.00  0.00     0.004 A 
ATOM     23  C   UNL     1      -5.623   1.210  -2.514  1.00  0.00     0.004 A 
ATOM     24  C   UNL     1      -6.826   3.554  -1.593  1.00  0.00     0.000 A 
ATOM     25  C   UNL     1      -6.920   1.178  -2.007  1.00  0.00     0.000 A 
ATOM     26  C   UNL     1      -7.517   2.347  -1.536  1.00  0.00     0.000 A 
ENDBRANCH  20  21
ENDBRANCH   5  20
ENDBRANCH   3   5
ENDBRANCH   2   3
ENDBRANCH   1   2
BRANCH   1  27
ATOM     27  C   UNL     1      -2.193  -1.563   1.551  1.00  0.00     0.275 C 
BRANCH  27  28
ATOM     28  O   UNL     1      -0.759  -1.445   1.448  1.00  0.00    -0.458 OA
BRANCH  28  29
ATOM     29  C   UNL     1      -0.203  -2.090   0.392  1.00  0.00     0.338 C 
ATOM     30  O   UNL     1      -0.775  -2.784  -0.426  1.00  0.00    -0.246 OA
BRANCH  29  31
ATOM     31  C   UNL     1       1.196  -1.645   0.239  1.00  0.00     0.060 A 
ATOM     32  C   UNL     1       1.470  -0.920  -0.913  1.00  0.00     0.016 A 
ATOM     33  C   UNL     1       2.224  -1.932   1.136  1.00  0.00     0.016 A 
ATOM     34  C   UNL     1       2.736  -0.387  -1.142  1.00  0.00     0.010 A 
ATOM     35  C   UNL     1       3.521  -1.444   0.879  1.00  0.00     0.010 A 
ATOM     36  C   UNL     1       3.777  -0.643  -0.249  1.00  0.00    -0.014 A 
BRANCH  36  37
ATOM     37  C   UNL     1       5.143  -0.206  -0.636  1.00  0.00     0.031 A 
ATOM     38  C   UNL     1       5.967  -1.134  -1.484  1.00  0.00     0.074 A 
ATOM     39  C   UNL     1       5.584   1.046  -0.395  1.00  0.00     0.049 A 
ATOM     40  N   UNL     1       7.200  -1.006  -1.897  1.00  0.00    -0.248 NA
ATOM     41  C   UNL     1       5.294  -2.357  -1.953  1.00  0.00     0.031 C 
ATOM     42  C   UNL     1       4.809   2.105   0.249  1.00  0.00     0.029 A 
ATOM     43  N   UNL     1       6.784   1.650  -0.692  1.00  0.00    -0.354 N 
ATOM     44  C   UNL     1       7.457  -2.140  -2.659  1.00  0.00     0.074 A 
ATOM     45  C   UNL     1       6.250  -2.935  -2.663  1.00  0.00     0.031 C 
ATOM     46  C   UNL     1       5.545   3.231   0.285  1.00  0.00     0.029 A 
ATOM     47  C   UNL     1       6.875   2.953  -0.251  1.00  0.00     0.049 A 
ATOM     48  H   UNL     1       7.510   1.194  -1.175  1.00  0.00     0.167 HD
ATOM     49  C   UNL     1       8.606  -2.497  -3.279  1.00  0.00     0.031 A 
ATOM     50  C   UNL     1       7.928   3.799  -0.229  1.00  0.00     0.031 A 
ATOM     51  C   UNL     1       9.814  -1.720  -3.224  1.00  0.00     0.049 A 
ATOM     52  C   UNL     1       9.252   3.311  -0.771  1.00  0.00     0.074 A 
ATOM     53  C   UNL     1      11.074  -2.044  -3.692  1.00  0.00     0.029 A 
ATOM     54  N   UNL     1       9.907  -0.456  -2.659  1.00  0.00    -0.354 N 
ATOM     55  N   UNL     1       9.526   2.180  -1.380  1.00  0.00    -0.248 NA
ATOM     56  C   UNL     1      10.413   4.198  -0.605  1.00  0.00     0.031 C 
ATOM     57  C   UNL     1      11.941  -0.997  -3.360  1.00  0.00     0.029 A 
ATOM     58  C   UNL     1      11.206   0.009  -2.751  1.00  0.00     0.049 A 
ATOM     59  H   UNL     1       9.158   0.038  -2.253  1.00  0.00     0.167 HD
ATOM     60  C   UNL     1      10.884   2.228  -1.683  1.00  0.00     0.074 A 
ATOM     61  C   UNL     1      11.369   3.510  -1.214  1.00  0.00     0.031 C 
ATOM     62  C   UNL     1      11.662   1.295  -2.286  1.00  0.00     0.031 A 
BRANCH  49  63
ATOM     63  C   UNL     1       8.623  -3.839  -3.959  1.00  0.00    -0.014 A 
ATOM     64  C   UNL     1       7.938  -4.064  -5.166  1.00  0.00     0.010 A 
ATOM     65  C   UNL     1       9.312  -4.905  -3.353  1.00  0.00     0.010 A 
ATOM     66  C   UNL     1       7.903  -5.344  -5.728  1.00  0.00     0.020 A 
ATOM     67  C   UNL     1       9.302  -6.178  -3.925  1.00  0.00     0.020 A 
ATOM     68  C   UNL     1       8.580  -6.395  -5.100  1.00  0.00     0.054 A 
BRANCH  68  69
ATOM     69  S   UNL     1       8.509  -8.048  -5.842  1.00  0.00     0.124 S 
ATOM     70  O   UNL     1       7.126  -8.438  -5.580  1.00  0.00    -0.237 OA
ATOM     71  O   UNL     1       8.833  -7.784  -7.242  1.00  0.00    -0.237 OA
ATOM     72  O   UNL     1       9.518  -8.804  -5.104  1.00  0.00    -0.744 OA
ENDBRANCH  68  69
ENDBRANCH  49  63
BRANCH  50  73
ATOM     73  C   UNL     1       7.822   5.144   0.422  1.00  0.00    -0.014 A 
ATOM     74  C   UNL     1       8.059   6.333  -0.293  1.00  0.00     0.010 A 
ATOM     75  C   UNL     1       7.537   5.236   1.798  1.00  0.00     0.010 A 
ATOM     76  C   UNL     1       8.039   7.575   0.358  1.00  0.00     0.020 A 
ATOM     77  C   UNL     1       7.478   6.475   2.444  1.00  0.00     0.020 A 
ATOM     78  C   UNL     1       7.747   7.637   1.723  1.00  0.00     0.054 A 
BRANCH  78  79
ATOM     79  S   UNL     1       7.706   9.256   2.546  1.00  0.00     0.124 S 
ATOM     80  O   UNL     1       9.119   9.618   2.578  1.00  0.00    -0.237 OA
ATOM     81  O   UNL     1       6.870  10.045   1.645  1.00  0.00    -0.237 OA
ATOM     82  O   UNL     1       7.105   8.964   3.846  1.00  0.00    -0.744 OA
ENDBRANCH  78  79
ENDBRANCH  50  73
BRANCH  62  83
ATOM     83  C   UNL     1      13.110   1.637  -2.519  1.00  0.00    -0.014 A 
ATOM     84  C   UNL     1      14.032   1.683  -1.460  1.00  0.00     0.010 A 
ATOM     85  C   UNL     1      13.566   1.833  -3.836  1.00  0.00     0.010 A 
ATOM     86  C   UNL     1      15.383   1.940  -1.711  1.00  0.00     0.020 A 
ATOM     87  C   UNL     1      14.920   2.061  -4.094  1.00  0.00     0.020 A 
ATOM     88  C   UNL     1      15.818   2.123  -3.028  1.00  0.00     0.054 A 
BRANCH  88  89
ATOM     89  S   UNL     1      17.586   2.391  -3.333  1.00  0.00     0.124 S 
ATOM     90  O   UNL     1      17.775   3.755  -2.846  1.00  0.00    -0.237 OA
ATOM     91  O   UNL     1      18.212   1.343  -2.531  1.00  0.00    -0.237 OA
ATOM     92  O   UNL     1      17.717   2.223  -4.779  1.00  0.00    -0.744 OA
ENDBRANCH  88  89
ENDBRANCH  62  83
ENDBRANCH  36  37
ENDBRANCH  29  31
ENDBRANCH  28  29
ENDBRANCH  27  28
ENDBRANCH   1  27
TORSDOF 20
