REMARK SMILES CC[C@H](C(=O)OCCOC(=O)c1ccc(-c2c3nc(c(-c4ccc(S(=O)(=O)[O-])cc4)c4ccc([nH]4)c(-c4ccc(S(=O)(=O)[O-])cc4)c4nc(c(-c5ccc(S(=O)(=O)[O-])cc5)c5ccc2[nH]5)C=C4)C=C3)cc1)N1C(=O)c2ccc([N+](=O)[O-])cc2C1=O
REMARK SMILES IDX 8 1 7 2 6 3 4 4 5 5 3 6 2 7 1 8 72 9 73 10 84 11 74 12 75 13
REMARK SMILES IDX 83 14 85 15 76 16 82 17 77 18 78 19 79 20 80 21 81 22 9 23
REMARK SMILES IDX 10 24 11 25 12 26 13 27 71 28 14 29 70 30 15 31 16 32 17 33
REMARK SMILES IDX 64 34 18 35 69 36 63 37 65 38 19 39 68 40 62 41 61 42 20 44
REMARK SMILES IDX 50 45 31 46 49 47 32 48 35 49 48 50 66 51 33 52 34 53 47 55
REMARK SMILES IDX 67 56 36 57 21 58 22 59 30 60 23 61 29 62 24 63 25 64 26 65
REMARK SMILES IDX 27 66 28 67 51 68 52 69 60 70 53 71 59 72 54 73 55 74 56 75
REMARK SMILES IDX 57 76 58 77 37 78 38 79 46 80 39 81 45 82 40 83 41 84 42 85
REMARK SMILES IDX 43 86 44 87
REMARK H PARENT 65 43 35 54
REMARK Flexibility Score: inf
ROOT
ATOM      1  C   UNL     1       0.051   1.303  -1.320  1.00  0.00     0.275 C 
ENDROOT
BRANCH   1   2
ATOM      2  C   UNL     1      -1.045   0.303  -0.939  1.00  0.00     0.274 C 
BRANCH   2   3
ATOM      3  O   UNL     1      -0.616  -0.573   0.117  1.00  0.00    -0.461 OA
BRANCH   3   4
ATOM      4  C   UNL     1      -0.066  -1.749  -0.277  1.00  0.00     0.329 C 
ATOM      5  O   UNL     1       0.063  -2.092  -1.451  1.00  0.00    -0.250 OA
BRANCH   4   6
ATOM      6  C   UNL     1       0.308  -2.670   0.893  1.00  0.00     0.203 C 
BRANCH   6   7
ATOM      7  C   UNL     1       0.038  -2.189   2.319  1.00  0.00     0.034 C 
ATOM      8  C   UNL     1       0.874  -0.978   2.724  1.00  0.00     0.007 C 
ENDBRANCH   6   7
BRANCH   6   9
ATOM      9  N   UNL     1      -0.400  -3.912   0.574  1.00  0.00    -0.260 N 
ATOM     10  C   UNL     1      -1.728  -3.933   0.249  1.00  0.00     0.262 C 
ATOM     11  C   UNL     1       0.157  -5.157   0.505  1.00  0.00     0.262 C 
ATOM     12  O   UNL     1      -2.557  -3.047   0.315  1.00  0.00    -0.269 OA
ATOM     13  C   UNL     1      -2.013  -5.276  -0.226  1.00  0.00     0.053 A 
ATOM     14  C   UNL     1      -0.893  -6.055   0.006  1.00  0.00     0.060 A 
ATOM     15  O   UNL     1       1.286  -5.511   0.789  1.00  0.00    -0.269 OA
ATOM     16  C   UNL     1      -3.161  -5.762  -0.817  1.00  0.00     0.022 A 
ATOM     17  C   UNL     1      -0.901  -7.415  -0.237  1.00  0.00     0.100 A 
ATOM     18  C   UNL     1      -3.194  -7.125  -1.104  1.00  0.00     0.086 A 
ATOM     19  C   UNL     1      -2.088  -7.949  -0.773  1.00  0.00     0.270 A 
BRANCH  19  20
ATOM     20  N   UNL     1      -2.225  -9.403  -0.931  1.00  0.00     0.062 N 
ATOM     21  O   UNL     1      -3.182  -9.819  -1.598  1.00  0.00    -0.258 OA
ATOM     22  O   UNL     1      -1.411 -10.120  -0.336  1.00  0.00    -0.258 OA
ENDBRANCH  19  20
ENDBRANCH   6   9
ENDBRANCH   4   6
ENDBRANCH   3   4
ENDBRANCH   2   3
ENDBRANCH   1   2
BRANCH   1  23
ATOM     23  O   UNL     1       1.141   0.681  -2.027  1.00  0.00    -0.458 OA
BRANCH  23  24
ATOM     24  C   UNL     1       2.109   0.146  -1.245  1.00  0.00     0.338 C 
ATOM     25  O   UNL     1       2.171   0.177  -0.026  1.00  0.00    -0.246 OA
BRANCH  24  26
ATOM     26  C   UNL     1       3.044  -0.638  -2.066  1.00  0.00     0.060 A 
ATOM     27  C   UNL     1       3.263  -1.979  -1.730  1.00  0.00     0.016 A 
ATOM     28  C   UNL     1       3.759  -0.039  -3.101  1.00  0.00     0.016 A 
ATOM     29  C   UNL     1       4.213  -2.726  -2.415  1.00  0.00     0.010 A 
ATOM     30  C   UNL     1       4.711  -0.790  -3.791  1.00  0.00     0.010 A 
ATOM     31  C   UNL     1       4.956  -2.130  -3.439  1.00  0.00    -0.014 A 
BRANCH  31  32
ATOM     32  C   UNL     1       6.050  -2.880  -4.094  1.00  0.00     0.031 A 
ATOM     33  C   UNL     1       7.474  -2.505  -3.798  1.00  0.00     0.074 A 
ATOM     34  C   UNL     1       5.764  -3.881  -4.946  1.00  0.00     0.049 A 
ATOM     35  N   UNL     1       8.574  -2.940  -4.352  1.00  0.00    -0.248 NA
ATOM     36  C   UNL     1       7.686  -1.500  -2.741  1.00  0.00     0.031 C 
ATOM     37  C   UNL     1       4.420  -4.369  -5.260  1.00  0.00     0.029 A 
ATOM     38  N   UNL     1       6.591  -4.662  -5.712  1.00  0.00    -0.354 N 
ATOM     39  C   UNL     1       9.608  -2.251  -3.728  1.00  0.00     0.074 A 
ATOM     40  C   UNL     1       9.002  -1.348  -2.773  1.00  0.00     0.031 C 
ATOM     41  C   UNL     1       4.515  -5.364  -6.157  1.00  0.00     0.029 A 
ATOM     42  C   UNL     1       5.917  -5.545  -6.522  1.00  0.00     0.049 A 
ATOM     43  H   UNL     1       7.573  -4.597  -5.684  1.00  0.00     0.167 HD
ATOM     44  C   UNL     1      10.941  -2.368  -3.932  1.00  0.00     0.031 A 
ATOM     45  C   UNL     1       6.378  -6.378  -7.474  1.00  0.00     0.031 A 
ATOM     46  C   UNL     1      11.527  -3.268  -4.890  1.00  0.00     0.049 A 
ATOM     47  C   UNL     1       7.859  -6.421  -7.746  1.00  0.00     0.074 A 
ATOM     48  C   UNL     1      12.866  -3.464  -5.179  1.00  0.00     0.029 A 
ATOM     49  N   UNL     1      10.810  -4.123  -5.714  1.00  0.00    -0.354 N 
ATOM     50  N   UNL     1       8.827  -5.759  -7.155  1.00  0.00    -0.248 NA
ATOM     51  C   UNL     1       8.312  -7.327  -8.811  1.00  0.00     0.031 C 
ATOM     52  C   UNL     1      12.955  -4.394  -6.219  1.00  0.00     0.029 A 
ATOM     53  C   UNL     1      11.677  -4.834  -6.525  1.00  0.00     0.049 A 
ATOM     54  H   UNL     1       9.829  -4.212  -5.720  1.00  0.00     0.167 HD
ATOM     55  C   UNL     1      10.005  -6.203  -7.747  1.00  0.00     0.074 A 
ATOM     56  C   UNL     1       9.629  -7.193  -8.735  1.00  0.00     0.031 C 
ATOM     57  C   UNL     1      11.283  -5.829  -7.492  1.00  0.00     0.031 A 
BRANCH  44  58
ATOM     58  C   UNL     1      11.855  -1.483  -3.126  1.00  0.00    -0.014 A 
ATOM     59  C   UNL     1      12.033  -1.681  -1.745  1.00  0.00     0.010 A 
ATOM     60  C   UNL     1      12.591  -0.471  -3.771  1.00  0.00     0.010 A 
ATOM     61  C   UNL     1      12.906  -0.866  -1.019  1.00  0.00     0.020 A 
ATOM     62  C   UNL     1      13.487   0.327  -3.054  1.00  0.00     0.020 A 
ATOM     63  C   UNL     1      13.630   0.132  -1.680  1.00  0.00     0.054 A 
BRANCH  63  64
ATOM     64  S   UNL     1      14.785   1.147  -0.718  1.00  0.00     0.124 S 
ATOM     65  O   UNL     1      13.875   1.953   0.093  1.00  0.00    -0.237 OA
ATOM     66  O   UNL     1      15.558   0.146   0.012  1.00  0.00    -0.237 OA
ATOM     67  O   UNL     1      15.529   1.886  -1.735  1.00  0.00    -0.744 OA
ENDBRANCH  63  64
ENDBRANCH  44  58
BRANCH  45  68
ATOM     68  C   UNL     1       5.433  -7.218  -8.261  1.00  0.00    -0.014 A 
ATOM     69  C   UNL     1       5.455  -8.619  -8.148  1.00  0.00     0.010 A 
ATOM     70  C   UNL     1       4.516  -6.620  -9.146  1.00  0.00     0.010 A 
ATOM     71  C   UNL     1       4.605  -9.407  -8.929  1.00  0.00     0.020 A 
ATOM     72  C   UNL     1       3.639  -7.403  -9.902  1.00  0.00     0.020 A 
ATOM     73  C   UNL     1       3.703  -8.793  -9.802  1.00  0.00     0.054 A 
BRANCH  73  74
ATOM     74  S   UNL     1       2.596  -9.836 -10.791  1.00  0.00     0.124 S 
ATOM     75  O   UNL     1       3.518 -10.427 -11.756  1.00  0.00    -0.237 OA
ATOM     76  O   UNL     1       2.051 -10.752  -9.792  1.00  0.00    -0.237 OA
ATOM     77  O   UNL     1       1.634  -8.886 -11.345  1.00  0.00    -0.744 OA
ENDBRANCH  73  74
ENDBRANCH  45  68
BRANCH  57  78
ATOM     78  C   UNL     1      12.380  -6.540  -8.242  1.00  0.00    -0.014 A 
ATOM     79  C   UNL     1      12.598  -6.321  -9.613  1.00  0.00     0.010 A 
ATOM     80  C   UNL     1      13.250  -7.394  -7.537  1.00  0.00     0.010 A 
ATOM     81  C   UNL     1      13.649  -6.965 -10.271  1.00  0.00     0.020 A 
ATOM     82  C   UNL     1      14.321  -8.013  -8.184  1.00  0.00     0.020 A 
ATOM     83  C   UNL     1      14.507  -7.804  -9.551  1.00  0.00     0.054 A 
BRANCH  83  84
ATOM     84  S   UNL     1      15.897  -8.581 -10.417  1.00  0.00     0.124 S 
ATOM     85  O   UNL     1      15.221  -9.574 -11.248  1.00  0.00    -0.237 OA
ATOM     86  O   UNL     1      16.492  -7.458 -11.138  1.00  0.00    -0.237 OA
ATOM     87  O   UNL     1      16.718  -9.127  -9.339  1.00  0.00    -0.744 OA
ENDBRANCH  83  84
ENDBRANCH  57  78
ENDBRANCH  31  32
ENDBRANCH  24  26
ENDBRANCH  23  24
ENDBRANCH   1  23
TORSDOF 17
