REMARK SMILES Cc1nn2c(nnc3c(=O)n(CCCC(=O)OCCOC(=O)c4ccc(-c5c6nc(c(-c7ccc(S(=O)(=O)[O-])cc7)c7ccc([nH]7)c(-c7ccc(S(=O)(=O)[O-])cc7)c7nc(c(-c8ccc(S(=O)(=O)[O-])cc8)c8ccc5[nH]8)C=C7)C=C6)cc4)ccc32)c1-c1ccc(F)cc1
REMARK SMILES IDX 18 1 17 2 15 3 16 4 14 5 13 6 12 7 11 8 1 9 2 10 3 11 86 12
REMARK SMILES IDX 4 13 5 14 85 15 6 16 8 17 84 18 7 19 9 20 83 21 10 22 87 23
REMARK SMILES IDX 88 24 93 25 89 26 92 27 90 28 91 29 19 30 20 31 21 32 22 33
REMARK SMILES IDX 23 34 24 35 82 36 25 37 81 38 26 39 27 40 28 41 75 42 29 43
REMARK SMILES IDX 80 44 74 45 76 46 30 47 79 48 73 49 72 50 31 52 61 53 42 54
REMARK SMILES IDX 60 55 43 56 46 57 59 58 77 59 44 60 45 61 58 63 78 64 47 65
REMARK SMILES IDX 32 66 33 67 41 68 34 69 40 70 35 71 36 72 37 73 38 74 39 75
REMARK SMILES IDX 62 76 63 77 71 78 64 79 70 80 65 81 66 82 67 83 68 84 69 85
REMARK SMILES IDX 48 86 49 87 57 88 50 89 56 90 51 91 52 92 53 93 54 94 55 95
REMARK H PARENT 76 51 46 62
REMARK Flexibility Score: inf
ROOT
ATOM      1  C   UNL     1      -3.524  -7.169  -6.973  1.00  0.00     0.274 C 
ENDROOT
BRANCH   1   2
ATOM      2  O   UNL     1      -2.592  -6.181  -7.436  1.00  0.00    -0.462 OA
BRANCH   2   3
ATOM      3  C   UNL     1      -1.320  -6.547  -7.704  1.00  0.00     0.305 C 
ATOM      4  O   UNL     1      -0.894  -7.695  -7.639  1.00  0.00    -0.252 OA
BRANCH   3   5
ATOM      5  C   UNL     1      -0.429  -5.365  -8.050  1.00  0.00     0.124 C 
BRANCH   5   6
ATOM      6  C   UNL     1      -1.056  -4.073  -8.596  1.00  0.00     0.034 C 
BRANCH   6   7
ATOM      7  C   UNL     1      -2.116  -3.341  -7.753  1.00  0.00     0.126 C 
BRANCH   7   8
ATOM      8  N   UNL     1      -1.633  -2.888  -6.444  1.00  0.00    -0.313 N 
ATOM      9  C   UNL     1       1.031   0.349  -0.087  1.00  0.00     0.069 C 
ATOM     10  C   UNL     1       0.743  -0.756  -1.030  1.00  0.00     0.070 A 
ATOM     11  N   UNL     1       0.198  -0.493  -2.228  1.00  0.00    -0.170 NA
ATOM     12  C   UNL     1       0.979  -2.135  -0.846  1.00  0.00     0.051 A 
ATOM     13  N   UNL     1      -0.001  -1.715  -2.795  1.00  0.00    -0.210 N 
ATOM     14  C   UNL     1       0.449  -2.732  -1.962  1.00  0.00     0.186 A 
ATOM     15  C   UNL     1      -0.594  -2.050  -4.009  1.00  0.00     0.102 A 
ATOM     16  N   UNL     1       0.311  -4.041  -2.305  1.00  0.00    -0.129 NA
ATOM     17  C   UNL     1      -0.749  -3.367  -4.217  1.00  0.00     0.177 A 
ATOM     18  C   UNL     1      -1.013  -1.094  -5.014  1.00  0.00     0.049 A 
ATOM     19  N   UNL     1      -0.299  -4.345  -3.355  1.00  0.00    -0.141 NA
ATOM     20  C   UNL     1      -1.482  -3.819  -5.419  1.00  0.00     0.280 A 
ATOM     21  C   UNL     1      -1.450  -1.533  -6.204  1.00  0.00     0.091 A 
ATOM     22  O   UNL     1      -1.891  -4.974  -5.429  1.00  0.00    -0.267 OA
BRANCH  12  23
ATOM     23  C   UNL     1       1.546  -2.926   0.220  1.00  0.00    -0.012 A 
ATOM     24  C   UNL     1       0.807  -3.182   1.380  1.00  0.00     0.012 A 
ATOM     25  C   UNL     1       2.780  -3.565   0.020  1.00  0.00     0.012 A 
ATOM     26  C   UNL     1       1.300  -4.075   2.332  1.00  0.00     0.040 A 
ATOM     27  C   UNL     1       3.270  -4.454   0.975  1.00  0.00     0.040 A 
ATOM     28  C   UNL     1       2.525  -4.702   2.120  1.00  0.00     0.123 A 
ATOM     29  F   UNL     1       2.984  -5.573   3.029  1.00  0.00    -0.207 F 
ENDBRANCH  12  23
ENDBRANCH   7   8
ENDBRANCH   6   7
ENDBRANCH   5   6
ENDBRANCH   3   5
ENDBRANCH   2   3
ENDBRANCH   1   2
BRANCH   1  30
ATOM     30  C   UNL     1      -4.490  -7.507  -8.093  1.00  0.00     0.275 C 
BRANCH  30  31
ATOM     31  O   UNL     1      -3.771  -8.087  -9.177  1.00  0.00    -0.458 OA
BRANCH  31  32
ATOM     32  C   UNL     1      -3.233  -7.176 -10.018  1.00  0.00     0.338 C 
ATOM     33  O   UNL     1      -3.267  -5.960  -9.929  1.00  0.00    -0.246 OA
BRANCH  32  34
ATOM     34  C   UNL     1      -2.707  -7.847 -11.198  1.00  0.00     0.060 A 
ATOM     35  C   UNL     1      -1.881  -7.087 -12.031  1.00  0.00     0.016 A 
ATOM     36  C   UNL     1      -3.354  -9.012 -11.624  1.00  0.00     0.016 A 
ATOM     37  C   UNL     1      -1.890  -7.375 -13.373  1.00  0.00     0.010 A 
ATOM     38  C   UNL     1      -3.380  -9.281 -12.967  1.00  0.00     0.010 A 
ATOM     39  C   UNL     1      -2.719  -8.407 -13.825  1.00  0.00    -0.014 A 
BRANCH  39  40
ATOM     40  C   UNL     1      -2.852  -8.574 -15.248  1.00  0.00     0.031 A 
ATOM     41  C   UNL     1      -1.700  -9.238 -15.878  1.00  0.00     0.074 A 
ATOM     42  C   UNL     1      -3.960  -8.232 -15.924  1.00  0.00     0.049 A 
ATOM     43  N   UNL     1      -0.821  -8.711 -16.660  1.00  0.00    -0.248 NA
ATOM     44  C   UNL     1      -1.415 -10.619 -15.466  1.00  0.00     0.031 C 
ATOM     45  C   UNL     1      -5.272  -7.842 -15.401  1.00  0.00     0.029 A 
ATOM     46  N   UNL     1      -4.154  -8.272 -17.265  1.00  0.00    -0.354 N 
ATOM     47  C   UNL     1       0.033  -9.748 -16.998  1.00  0.00     0.074 A 
ATOM     48  C   UNL     1      -0.276 -10.848 -16.115  1.00  0.00     0.031 C 
ATOM     49  C   UNL     1      -6.177  -7.897 -16.407  1.00  0.00     0.029 A 
ATOM     50  C   UNL     1      -5.480  -8.185 -17.651  1.00  0.00     0.049 A 
ATOM     51  H   UNL     1      -3.414  -8.355 -17.910  1.00  0.00     0.167 HD
ATOM     52  C   UNL     1       0.776  -9.729 -18.134  1.00  0.00     0.031 A 
ATOM     53  C   UNL     1      -5.950  -8.421 -18.899  1.00  0.00     0.031 A 
ATOM     54  C   UNL     1       0.858  -8.420 -18.722  1.00  0.00     0.049 A 
ATOM     55  C   UNL     1      -4.807  -8.244 -19.834  1.00  0.00     0.074 A 
ATOM     56  C   UNL     1       1.355  -7.200 -18.307  1.00  0.00     0.029 A 
ATOM     57  N   UNL     1       0.017  -8.150 -19.776  1.00  0.00    -0.354 N 
ATOM     58  N   UNL     1      -4.212  -7.102 -20.039  1.00  0.00    -0.248 NA
ATOM     59  C   UNL     1      -4.053  -9.416 -20.255  1.00  0.00     0.031 C 
ATOM     60  C   UNL     1       0.455  -6.229 -18.836  1.00  0.00     0.029 A 
ATOM     61  C   UNL     1      -0.525  -6.905 -19.567  1.00  0.00     0.049 A 
ATOM     62  H   UNL     1      -0.165  -8.742 -20.541  1.00  0.00     0.167 HD
ATOM     63  C   UNL     1      -2.874  -7.418 -20.230  1.00  0.00     0.074 A 
ATOM     64  C   UNL     1      -2.859  -8.857 -20.471  1.00  0.00     0.031 C 
ATOM     65  C   UNL     1      -1.884  -6.533 -19.909  1.00  0.00     0.031 A 
BRANCH  52  66
ATOM     66  C   UNL     1       1.089 -10.987 -18.888  1.00  0.00    -0.014 A 
ATOM     67  C   UNL     1       2.072 -10.976 -19.890  1.00  0.00     0.010 A 
ATOM     68  C   UNL     1       0.258 -12.127 -18.802  1.00  0.00     0.010 A 
ATOM     69  C   UNL     1       2.199 -12.051 -20.780  1.00  0.00     0.020 A 
ATOM     70  C   UNL     1       0.408 -13.221 -19.649  1.00  0.00     0.020 A 
ATOM     71  C   UNL     1       1.362 -13.163 -20.654  1.00  0.00     0.054 A 
BRANCH  71  72
ATOM     72  S   UNL     1       1.459 -14.491 -21.878  1.00  0.00     0.124 S 
ATOM     73  O   UNL     1       1.161 -13.781 -23.118  1.00  0.00    -0.237 OA
ATOM     74  O   UNL     1       2.837 -14.949 -21.724  1.00  0.00    -0.237 OA
ATOM     75  O   UNL     1       0.438 -15.439 -21.440  1.00  0.00    -0.744 OA
ENDBRANCH  71  72
ENDBRANCH  52  66
BRANCH  53  76
ATOM     76  C   UNL     1      -7.197  -9.131 -19.275  1.00  0.00    -0.014 A 
ATOM     77  C   UNL     1      -7.580  -9.220 -20.627  1.00  0.00     0.010 A 
ATOM     78  C   UNL     1      -7.855  -9.970 -18.351  1.00  0.00     0.010 A 
ATOM     79  C   UNL     1      -8.515 -10.176 -21.051  1.00  0.00     0.020 A 
ATOM     80  C   UNL     1      -8.800 -10.916 -18.765  1.00  0.00     0.020 A 
ATOM     81  C   UNL     1      -9.095 -11.040 -20.119  1.00  0.00     0.054 A 
BRANCH  81  82
ATOM     82  S   UNL     1     -10.153 -12.394 -20.705  1.00  0.00     0.124 S 
ATOM     83  O   UNL     1     -11.216 -11.682 -21.408  1.00  0.00    -0.237 OA
ATOM     84  O   UNL     1      -9.237 -13.157 -21.548  1.00  0.00    -0.237 OA
ATOM     85  O   UNL     1     -10.567 -13.066 -19.475  1.00  0.00    -0.744 OA
ENDBRANCH  81  82
ENDBRANCH  53  76
BRANCH  65  86
ATOM     86  C   UNL     1      -2.280  -5.101 -19.625  1.00  0.00    -0.014 A 
ATOM     87  C   UNL     1      -3.058  -4.725 -18.511  1.00  0.00     0.010 A 
ATOM     88  C   UNL     1      -1.716  -4.090 -20.421  1.00  0.00     0.010 A 
ATOM     89  C   UNL     1      -3.271  -3.371 -18.209  1.00  0.00     0.020 A 
ATOM     90  C   UNL     1      -1.914  -2.740 -20.118  1.00  0.00     0.020 A 
ATOM     91  C   UNL     1      -2.687  -2.386 -19.011  1.00  0.00     0.054 A 
BRANCH  91  92
ATOM     92  S   UNL     1      -2.914  -0.637 -18.575  1.00  0.00     0.124 S 
ATOM     93  O   UNL     1      -4.365  -0.479 -18.613  1.00  0.00    -0.237 OA
ATOM     94  O   UNL     1      -2.308  -0.558 -17.248  1.00  0.00    -0.237 OA
ATOM     95  O   UNL     1      -2.189   0.082 -19.623  1.00  0.00    -0.744 OA
ENDBRANCH  91  92
ENDBRANCH  65  86
ENDBRANCH  39  40
ENDBRANCH  32  34
ENDBRANCH  31  32
ENDBRANCH  30  31
ENDBRANCH   1  30
TORSDOF 18
