REMARK SMILES CCc1ccc2c(CC(=O)OCCOC(=O)c3ccc(-c4c5nc(c(-c6ccc(S(=O)(=O)[O-])cc6)c6ccc([nH]6)c(-c6ccc(S(=O)(=O)[O-])cc6)c6nc(c(-c7ccc(S(=O)(=O)[O-])cc7)c7ccc4[nH]7)C=C6)C=C5)cc3)c(C(=O)c3cc(C)ccn3)[nH]c2c1
REMARK SMILES IDX 12 1 11 2 9 3 10 4 8 5 7 6 3 7 4 8 89 9 5 10 88 11 6 12
REMARK SMILES IDX 87 13 77 14 2 16 1 17 78 18 79 19 80 20 81 21 86 22 82 23
REMARK SMILES IDX 85 24 83 25 84 26 13 27 14 28 15 29 16 30 17 31 18 32 76 33
REMARK SMILES IDX 19 34 75 35 20 36 21 37 22 38 69 39 23 40 74 41 68 42 70 43
REMARK SMILES IDX 24 44 73 45 67 46 66 47 25 49 55 50 36 51 54 52 37 53 40 54
REMARK SMILES IDX 53 55 71 56 38 57 39 58 52 60 72 61 41 62 26 63 27 64 35 65
REMARK SMILES IDX 28 66 34 67 29 68 30 69 31 70 32 71 33 72 56 73 57 74 65 75
REMARK SMILES IDX 58 76 64 77 59 78 60 79 61 80 62 81 63 82 42 83 43 84 51 85
REMARK SMILES IDX 44 86 50 87 45 88 46 89 47 90 48 91 49 92
REMARK H PARENT 87 15 70 48 40 59
REMARK Flexibility Score: inf
ROOT
ATOM      1  C   UNL     1      -0.113  -5.171   7.391  1.00  0.00     0.274 C 
ENDROOT
BRANCH   1   2
ATOM      2  O   UNL     1       0.573  -5.079   6.127  1.00  0.00    -0.462 OA
BRANCH   2   3
ATOM      3  C   UNL     1       1.906  -4.813   6.199  1.00  0.00     0.310 C 
ATOM      4  O   UNL     1       2.501  -4.562   7.245  1.00  0.00    -0.252 OA
BRANCH   3   5
ATOM      5  C   UNL     1       2.639  -4.890   4.878  1.00  0.00     0.161 C 
BRANCH   5   6
ATOM      6  C   UNL     1       1.789  -4.964   3.645  1.00  0.00     0.000 A 
ATOM      7  C   UNL     1       0.595  -2.102   0.787  1.00  0.00    -0.046 A 
ATOM      8  C   UNL     1       1.227  -1.601   1.930  1.00  0.00     0.004 A 
ATOM      9  C   UNL     1       0.274  -3.472   0.720  1.00  0.00     0.030 A 
ATOM     10  C   UNL     1       1.611  -2.446   2.980  1.00  0.00     0.011 A 
ATOM     11  C   UNL     1       0.695  -4.304   1.763  1.00  0.00     0.046 A 
ATOM     12  C   UNL     1       1.382  -3.830   2.873  1.00  0.00     0.004 A 
ATOM     13  N   UNL     1       0.578  -5.664   1.918  1.00  0.00    -0.352 N 
ATOM     14  C   UNL     1       1.403  -6.101   2.933  1.00  0.00     0.093 A 
ATOM     15  H   UNL     1      -0.009  -6.244   1.381  1.00  0.00     0.167 HD
BRANCH   7  16
ATOM     16  C   UNL     1       0.249  -1.243  -0.409  1.00  0.00     0.032 C 
ATOM     17  C   UNL     1       0.779   0.186  -0.402  1.00  0.00     0.009 C 
ENDBRANCH   7  16
BRANCH  14  18
ATOM     18  C   UNL     1       1.828  -7.482   3.100  1.00  0.00     0.227 C 
ATOM     19  O   UNL     1       2.850  -7.802   3.701  1.00  0.00    -0.285 OA
BRANCH  18  20
ATOM     20  C   UNL     1       1.084  -8.552   2.394  1.00  0.00     0.113 A 
ATOM     21  C   UNL     1       1.617  -9.091   1.228  1.00  0.00     0.036 A 
ATOM     22  N   UNL     1      -0.095  -8.931   2.939  1.00  0.00    -0.253 NA
ATOM     23  C   UNL     1       0.902 -10.101   0.582  1.00  0.00    -0.047 A 
ATOM     24  C   UNL     1      -0.722  -9.965   2.342  1.00  0.00     0.112 A 
ATOM     25  C   UNL     1       1.383 -10.696  -0.707  1.00  0.00     0.044 C 
ATOM     26  C   UNL     1      -0.276 -10.566   1.175  1.00  0.00     0.023 A 
ENDBRANCH  18  20
ENDBRANCH  14  18
ENDBRANCH   5   6
ENDBRANCH   3   5
ENDBRANCH   2   3
ENDBRANCH   1   2
BRANCH   1  27
ATOM     27  C   UNL     1      -0.355  -6.632   7.758  1.00  0.00     0.275 C 
BRANCH  27  28
ATOM     28  O   UNL     1       0.879  -7.362   7.663  1.00  0.00    -0.458 OA
BRANCH  28  29
ATOM     29  C   UNL     1       0.850  -8.443   6.849  1.00  0.00     0.338 C 
ATOM     30  O   UNL     1      -0.139  -8.915   6.302  1.00  0.00    -0.246 OA
BRANCH  29  31
ATOM     31  C   UNL     1       2.192  -9.048   6.747  1.00  0.00     0.060 A 
ATOM     32  C   UNL     1       3.343  -8.267   6.629  1.00  0.00     0.016 A 
ATOM     33  C   UNL     1       2.288 -10.439   6.687  1.00  0.00     0.016 A 
ATOM     34  C   UNL     1       4.573  -8.873   6.363  1.00  0.00     0.010 A 
ATOM     35  C   UNL     1       3.535 -11.046   6.525  1.00  0.00     0.010 A 
ATOM     36  C   UNL     1       4.691 -10.271   6.334  1.00  0.00    -0.014 A 
BRANCH  36  37
ATOM     37  C   UNL     1       6.010 -10.934   6.133  1.00  0.00     0.031 A 
ATOM     38  C   UNL     1       6.217 -11.907   4.999  1.00  0.00     0.074 A 
ATOM     39  C   UNL     1       7.013 -10.710   7.007  1.00  0.00     0.049 A 
ATOM     40  N   UNL     1       7.208 -12.739   4.797  1.00  0.00    -0.248 NA
ATOM     41  C   UNL     1       5.167 -11.969   3.968  1.00  0.00     0.031 C 
ATOM     42  C   UNL     1       6.961  -9.786   8.143  1.00  0.00     0.029 A 
ATOM     43  N   UNL     1       8.271 -11.256   7.085  1.00  0.00    -0.354 N 
ATOM     44  C   UNL     1       6.878 -13.460   3.655  1.00  0.00     0.074 A 
ATOM     45  C   UNL     1       5.595 -12.965   3.201  1.00  0.00     0.031 C 
ATOM     46  C   UNL     1       8.134  -9.816   8.792  1.00  0.00     0.029 A 
ATOM     47  C   UNL     1       8.992 -10.818   8.171  1.00  0.00     0.049 A 
ATOM     48  H   UNL     1       8.622 -11.900   6.428  1.00  0.00     0.167 HD
ATOM     49  C   UNL     1       7.578 -14.447   3.045  1.00  0.00     0.031 A 
ATOM     50  C   UNL     1      10.188 -11.206   8.652  1.00  0.00     0.031 A 
ATOM     51  C   UNL     1       8.878 -14.903   3.466  1.00  0.00     0.049 A 
ATOM     52  C   UNL     1      10.940 -12.305   7.959  1.00  0.00     0.074 A 
ATOM     53  C   UNL     1       9.680 -15.869   2.882  1.00  0.00     0.029 A 
ATOM     54  N   UNL     1       9.572 -14.419   4.563  1.00  0.00    -0.354 N 
ATOM     55  N   UNL     1      10.600 -12.988   6.894  1.00  0.00    -0.248 NA
ATOM     56  C   UNL     1      12.232 -12.692   8.542  1.00  0.00     0.031 C 
ATOM     57  C   UNL     1      10.845 -15.994   3.645  1.00  0.00     0.029 A 
ATOM     58  C   UNL     1      10.786 -15.076   4.681  1.00  0.00     0.049 A 
ATOM     59  H   UNL     1       9.251 -13.712   5.168  1.00  0.00     0.167 HD
ATOM     60  C   UNL     1      11.641 -13.881   6.673  1.00  0.00     0.074 A 
ATOM     61  C   UNL     1      12.632 -13.637   7.702  1.00  0.00     0.031 C 
ATOM     62  C   UNL     1      11.762 -14.823   5.707  1.00  0.00     0.031 A 
BRANCH  49  63
ATOM     63  C   UNL     1       6.952 -15.133   1.861  1.00  0.00    -0.014 A 
ATOM     64  C   UNL     1       6.930 -14.529   0.592  1.00  0.00     0.010 A 
ATOM     65  C   UNL     1       6.468 -16.448   2.003  1.00  0.00     0.010 A 
ATOM     66  C   UNL     1       6.420 -15.222  -0.510  1.00  0.00     0.020 A 
ATOM     67  C   UNL     1       5.974 -17.150   0.900  1.00  0.00     0.020 A 
ATOM     68  C   UNL     1       5.944 -16.527  -0.350  1.00  0.00     0.054 A 
BRANCH  68  69
ATOM     69  S   UNL     1       5.334 -17.422  -1.806  1.00  0.00     0.124 S 
ATOM     70  O   UNL     1       4.028 -16.801  -2.014  1.00  0.00    -0.237 OA
ATOM     71  O   UNL     1       6.341 -17.115  -2.819  1.00  0.00    -0.237 OA
ATOM     72  O   UNL     1       5.299 -18.815  -1.369  1.00  0.00    -0.744 OA
ENDBRANCH  68  69
ENDBRANCH  49  63
BRANCH  50  73
ATOM     73  C   UNL     1      10.719 -10.589   9.897  1.00  0.00    -0.014 A 
ATOM     74  C   UNL     1      11.815  -9.712   9.851  1.00  0.00     0.010 A 
ATOM     75  C   UNL     1      10.118 -10.874  11.137  1.00  0.00     0.010 A 
ATOM     76  C   UNL     1      12.314  -9.145  11.027  1.00  0.00     0.020 A 
ATOM     77  C   UNL     1      10.597 -10.289  12.310  1.00  0.00     0.020 A 
ATOM     78  C   UNL     1      11.703  -9.440  12.250  1.00  0.00     0.054 A 
BRANCH  78  79
ATOM     79  S   UNL     1      12.332  -8.663  13.764  1.00  0.00     0.124 S 
ATOM     80  O   UNL     1      13.465  -9.521  14.094  1.00  0.00    -0.237 OA
ATOM     81  O   UNL     1      12.670  -7.313  13.318  1.00  0.00    -0.237 OA
ATOM     82  O   UNL     1      11.197  -8.741  14.680  1.00  0.00    -0.744 OA
ENDBRANCH  78  79
ENDBRANCH  50  73
BRANCH  62  83
ATOM     83  C   UNL     1      13.024 -15.639   5.701  1.00  0.00    -0.014 A 
ATOM     84  C   UNL     1      13.222 -16.672   6.633  1.00  0.00     0.010 A 
ATOM     85  C   UNL     1      14.010 -15.386   4.731  1.00  0.00     0.010 A 
ATOM     86  C   UNL     1      14.402 -17.421   6.614  1.00  0.00     0.020 A 
ATOM     87  C   UNL     1      15.181 -16.147   4.696  1.00  0.00     0.020 A 
ATOM     88  C   UNL     1      15.377 -17.149   5.649  1.00  0.00     0.054 A 
BRANCH  88  89
ATOM     89  S   UNL     1      16.887 -18.154   5.619  1.00  0.00     0.124 S 
ATOM     90  O   UNL     1      17.664 -17.565   6.707  1.00  0.00    -0.237 OA
ATOM     91  O   UNL     1      16.385 -19.504   5.865  1.00  0.00    -0.237 OA
ATOM     92  O   UNL     1      17.423 -17.931   4.278  1.00  0.00    -0.744 OA
ENDBRANCH  88  89
ENDBRANCH  62  83
ENDBRANCH  36  37
ENDBRANCH  29  31
ENDBRANCH  28  29
ENDBRANCH  27  28
ENDBRANCH   1  27
TORSDOF 18
