REMARK SMILES O=C(C[C@H](Cc1ccc(Cl)cc1)C(=O)Nc1cc(Cl)ccc1Cl)OCCOC(=O)c1ccc(-c2c3nc(c(-c4ccc(S(=O)(=O)[O-])cc4)c4ccc([nH]4)c(-c4ccc(S(=O)(=O)[O-])cc4)c4nc(c(-c5ccc(S(=O)(=O)[O-])cc5)c5ccc2[nH]5)C=C4)C=C3)cc1
REMARK SMILES IDX 25 1 24 2 2 3 1 4 3 5 4 6 13 7 14 8 15 9 16 11 17 12 22 13
REMARK SMILES IDX 18 14 21 15 23 16 19 17 20 18 5 19 6 20 7 21 12 22 8 23
REMARK SMILES IDX 11 24 9 25 10 26 26 27 27 28 28 29 29 30 30 31 31 32 89 33
REMARK SMILES IDX 32 34 88 35 33 36 34 37 35 38 82 39 36 40 87 41 81 42 83 43
REMARK SMILES IDX 37 44 86 45 80 46 79 47 38 49 68 50 49 51 67 52 50 53 53 54
REMARK SMILES IDX 66 55 84 56 51 57 52 58 65 60 85 61 54 62 39 63 40 64 48 65
REMARK SMILES IDX 41 66 47 67 42 68 43 69 44 70 45 71 46 72 69 73 70 74 78 75
REMARK SMILES IDX 71 76 77 77 72 78 73 79 74 80 75 81 76 82 55 83 56 84 64 85
REMARK SMILES IDX 57 86 63 87 58 88 59 89 60 90 61 91 62 92
REMARK H PARENT 15 10 83 48 53 59
REMARK Flexibility Score: inf
ROOT
ATOM      1  C   UNL     1       2.986   2.755   0.928  1.00  0.00     0.274 C 
ENDROOT
BRANCH   1   2
ATOM      2  O   UNL     1       3.168   1.403   1.405  1.00  0.00    -0.462 OA
BRANCH   2   3
ATOM      3  C   UNL     1       3.765   0.395   0.735  1.00  0.00     0.306 C 
ATOM      4  O   UNL     1       3.730  -0.747   1.184  1.00  0.00    -0.252 OA
BRANCH   3   5
ATOM      5  C   UNL     1       4.445   0.686  -0.577  1.00  0.00     0.136 C 
BRANCH   5   6
ATOM      6  C   UNL     1       3.607   0.518  -1.847  1.00  0.00     0.094 C 
BRANCH   6   7
ATOM      7  C   UNL     1       4.396  -0.120  -3.006  1.00  0.00     0.228 C 
ATOM      8  O   UNL     1       4.419   0.478  -4.090  1.00  0.00    -0.274 OA
ATOM      9  N   UNL     1       5.197  -1.219  -2.897  1.00  0.00    -0.324 N 
ATOM     10  H   UNL     1       5.779  -1.362  -3.678  1.00  0.00     0.169 HD
BRANCH   9  11
ATOM     11  C   UNL     1       5.354  -2.189  -1.890  1.00  0.00     0.061 A 
ATOM     12  C   UNL     1       4.265  -2.713  -1.203  1.00  0.00     0.048 A 
ATOM     13  C   UNL     1       6.632  -2.693  -1.592  1.00  0.00     0.064 A 
ATOM     14  C   UNL     1       4.455  -3.600  -0.142  1.00  0.00     0.043 A 
ATOM     15  C   UNL     1       6.828  -3.555  -0.510  1.00  0.00     0.024 A 
ATOM     16  Cl  UNL     1       8.019  -2.256  -2.510  1.00  0.00    -0.082 Cl
ATOM     17  Cl  UNL     1       3.088  -4.234   0.689  1.00  0.00    -0.084 Cl
ATOM     18  C   UNL     1       5.736  -3.990   0.235  1.00  0.00     0.022 A 
ENDBRANCH   9  11
ENDBRANCH   6   7
BRANCH   6  19
ATOM     19  C   UNL     1       2.160   0.044  -1.657  1.00  0.00     0.049 C 
BRANCH  19  20
ATOM     20  C   UNL     1       1.301   0.264  -2.879  1.00  0.00    -0.047 A 
ATOM     21  C   UNL     1       0.866   1.557  -3.207  1.00  0.00     0.005 A 
ATOM     22  C   UNL     1       0.959  -0.807  -3.713  1.00  0.00     0.005 A 
ATOM     23  C   UNL     1       0.102   1.776  -4.352  1.00  0.00     0.021 A 
ATOM     24  C   UNL     1       0.191  -0.587  -4.858  1.00  0.00     0.021 A 
ATOM     25  C   UNL     1      -0.233   0.702  -5.173  1.00  0.00     0.041 A 
ATOM     26  Cl  UNL     1      -1.184   0.974  -6.582  1.00  0.00    -0.084 Cl
ENDBRANCH  19  20
ENDBRANCH   6  19
ENDBRANCH   5   6
ENDBRANCH   3   5
ENDBRANCH   2   3
ENDBRANCH   1   2
BRANCH   1  27
ATOM     27  C   UNL     1       3.998   3.710   1.562  1.00  0.00     0.275 C 
BRANCH  27  28
ATOM     28  O   UNL     1       5.264   3.601   0.887  1.00  0.00    -0.458 OA
BRANCH  28  29
ATOM     29  C   UNL     1       6.189   2.798   1.477  1.00  0.00     0.338 C 
ATOM     30  O   UNL     1       6.103   2.281   2.568  1.00  0.00    -0.246 OA
BRANCH  29  31
ATOM     31  C   UNL     1       7.232   2.457   0.471  1.00  0.00     0.060 A 
ATOM     32  C   UNL     1       7.814   1.186   0.544  1.00  0.00     0.016 A 
ATOM     33  C   UNL     1       7.578   3.325  -0.572  1.00  0.00     0.016 A 
ATOM     34  C   UNL     1       8.745   0.788  -0.417  1.00  0.00     0.010 A 
ATOM     35  C   UNL     1       8.522   2.931  -1.526  1.00  0.00     0.010 A 
ATOM     36  C   UNL     1       9.123   1.667  -1.444  1.00  0.00    -0.014 A 
BRANCH  36  37
ATOM     37  C   UNL     1      10.273   1.319  -2.312  1.00  0.00     0.031 A 
ATOM     38  C   UNL     1      11.658   1.571  -1.786  1.00  0.00     0.074 A 
ATOM     39  C   UNL     1      10.103   0.770  -3.529  1.00  0.00     0.049 A 
ATOM     40  N   UNL     1      12.814   1.269  -2.315  1.00  0.00    -0.248 NA
ATOM     41  C   UNL     1      11.748   2.272  -0.493  1.00  0.00     0.031 C 
ATOM     42  C   UNL     1       8.815   0.493  -4.160  1.00  0.00     0.029 A 
ATOM     43  N   UNL     1      11.027   0.306  -4.433  1.00  0.00    -0.354 N 
ATOM     44  C   UNL     1      13.769   1.761  -1.434  1.00  0.00     0.074 A 
ATOM     45  C   UNL     1      13.058   2.372  -0.332  1.00  0.00     0.031 C 
ATOM     46  C   UNL     1       9.027  -0.176  -5.308  1.00  0.00     0.029 A 
ATOM     47  C   UNL     1      10.466  -0.328  -5.518  1.00  0.00     0.049 A 
ATOM     48  H   UNL     1      11.998   0.417  -4.316  1.00  0.00     0.167 HD
ATOM     49  C   UNL     1      15.117   1.735  -1.544  1.00  0.00     0.031 A 
ATOM     50  C   UNL     1      11.051  -0.969  -6.551  1.00  0.00     0.031 A 
ATOM     51  C   UNL     1      15.827   1.178  -2.661  1.00  0.00     0.049 A 
ATOM     52  C   UNL     1      12.558  -0.999  -6.644  1.00  0.00     0.074 A 
ATOM     53  C   UNL     1      17.193   1.143  -2.882  1.00  0.00     0.029 A 
ATOM     54  N   UNL     1      15.228   0.572  -3.754  1.00  0.00    -0.354 N 
ATOM     55  N   UNL     1      13.448  -0.550  -5.791  1.00  0.00    -0.248 NA
ATOM     56  C   UNL     1      13.137  -1.604  -7.854  1.00  0.00     0.031 C 
ATOM     57  C   UNL     1      17.417   0.556  -4.132  1.00  0.00     0.029 A 
ATOM     58  C   UNL     1      16.194   0.178  -4.663  1.00  0.00     0.049 A 
ATOM     59  H   UNL     1      14.259   0.441  -3.867  1.00  0.00     0.167 HD
ATOM     60  C   UNL     1      14.689  -0.809  -6.367  1.00  0.00     0.074 A 
ATOM     61  C   UNL     1      14.437  -1.492  -7.618  1.00  0.00     0.031 C 
ATOM     62  C   UNL     1      15.926  -0.494  -5.909  1.00  0.00     0.031 A 
BRANCH  49  63
ATOM     63  C   UNL     1      15.900   2.405  -0.451  1.00  0.00    -0.014 A 
ATOM     64  C   UNL     1      16.042   1.807   0.814  1.00  0.00     0.010 A 
ATOM     65  C   UNL     1      16.491   3.657  -0.694  1.00  0.00     0.010 A 
ATOM     66  C   UNL     1      16.729   2.473   1.832  1.00  0.00     0.020 A 
ATOM     67  C   UNL     1      17.197   4.316   0.316  1.00  0.00     0.020 A 
ATOM     68  C   UNL     1      17.294   3.727   1.578  1.00  0.00     0.054 A 
BRANCH  68  69
ATOM     69  S   UNL     1      18.175   4.575   2.917  1.00  0.00     0.124 S 
ATOM     70  O   UNL     1      17.071   5.052   3.747  1.00  0.00    -0.237 OA
ATOM     71  O   UNL     1      18.982   3.506   3.500  1.00  0.00    -0.237 OA
ATOM     72  O   UNL     1      18.931   5.618   2.228  1.00  0.00    -0.744 OA
ENDBRANCH  68  69
ENDBRANCH  49  63
BRANCH  50  73
ATOM     73  C   UNL     1      10.225  -1.644  -7.592  1.00  0.00    -0.014 A 
ATOM     74  C   UNL     1      10.246  -3.046  -7.714  1.00  0.00     0.010 A 
ATOM     75  C   UNL     1       9.437  -0.896  -8.484  1.00  0.00     0.010 A 
ATOM     76  C   UNL     1       9.513  -3.685  -8.719  1.00  0.00     0.020 A 
ATOM     77  C   UNL     1       8.679  -1.533  -9.473  1.00  0.00     0.020 A 
ATOM     78  C   UNL     1       8.735  -2.923  -9.594  1.00  0.00     0.054 A 
BRANCH  78  79
ATOM     79  S   UNL     1       7.756  -3.769 -10.868  1.00  0.00     0.124 S 
ATOM     80  O   UNL     1       8.764  -4.054 -11.884  1.00  0.00    -0.237 OA
ATOM     81  O   UNL     1       7.234  -4.930 -10.152  1.00  0.00    -0.237 OA
ATOM     82  O   UNL     1       6.753  -2.774 -11.240  1.00  0.00    -0.744 OA
ENDBRANCH  78  79
ENDBRANCH  50  73
BRANCH  62  83
ATOM     83  C   UNL     1      17.107  -0.872  -6.764  1.00  0.00    -0.014 A 
ATOM     84  C   UNL     1      17.401  -0.163  -7.942  1.00  0.00     0.010 A 
ATOM     85  C   UNL     1      17.977  -1.893  -6.342  1.00  0.00     0.010 A 
ATOM     86  C   UNL     1      18.535  -0.482  -8.695  1.00  0.00     0.020 A 
ATOM     87  C   UNL     1      19.124  -2.200  -7.080  1.00  0.00     0.020 A 
ATOM     88  C   UNL     1      19.389  -1.500  -8.259  1.00  0.00     0.054 A 
BRANCH  88  89
ATOM     89  S   UNL     1      20.887  -1.856  -9.220  1.00  0.00     0.124 S 
ATOM     90  O   UNL     1      20.348  -2.593 -10.359  1.00  0.00    -0.237 OA
ATOM     91  O   UNL     1      21.402  -0.522  -9.521  1.00  0.00    -0.237 OA
ATOM     92  O   UNL     1      21.709  -2.641  -8.301  1.00  0.00    -0.744 OA
ENDBRANCH  88  89
ENDBRANCH  62  83
ENDBRANCH  36  37
ENDBRANCH  29  31
ENDBRANCH  28  29
ENDBRANCH  27  28
ENDBRANCH   1  27
TORSDOF 19
