REMARK SMILES CCc1cccc2c3c([nH]c12)[C@](CC)(CC(=O)OCCOC(=O)c1ccc(-c2c4nc(c(-c5ccc(S(=O)(=O)[O-])cc5)c5ccc([nH]5)c(-c5ccc(S(=O)(=O)[O-])cc5)c5nc(c(-c6ccc(S(=O)(=O)[O-])cc6)c6ccc2[nH]6)C=C5)C=C4)cc1)OCC3
REMARK SMILES IDX 20 1 19 2 18 3 16 4 17 5 15 6 12 7 3 8 4 9 11 10 5 11 7 12
REMARK SMILES IDX 10 13 6 14 8 15 9 16 86 18 85 19 84 20 2 21 1 22 13 23 14 24
REMARK SMILES IDX 21 25 22 26 23 27 24 28 25 29 83 30 26 31 82 32 27 33 28 34
REMARK SMILES IDX 29 35 76 36 30 37 81 38 75 39 77 40 31 41 80 42 74 43 73 44
REMARK SMILES IDX 32 46 62 47 43 48 61 49 44 50 47 51 60 52 78 53 45 54 46 55
REMARK SMILES IDX 59 57 79 58 48 59 33 60 34 61 42 62 35 63 41 64 36 65 37 66
REMARK SMILES IDX 38 67 39 68 40 69 63 70 64 71 72 72 65 73 71 74 66 75 67 76
REMARK SMILES IDX 68 77 69 78 70 79 49 80 50 81 58 82 51 83 57 84 52 85 53 86
REMARK SMILES IDX 54 87 55 88 56 89
REMARK H PARENT 10 17 77 45 47 56
REMARK Flexibility Score: inf
ROOT
ATOM      1  C   UNL     1       2.940  -7.393   0.465  1.00  0.00     0.275 C 
ENDROOT
BRANCH   1   2
ATOM      2  C   UNL     1       1.653  -8.014   1.011  1.00  0.00     0.274 C 
BRANCH   2   3
ATOM      3  O   UNL     1       0.522  -7.131   0.801  1.00  0.00    -0.462 OA
BRANCH   3   4
ATOM      4  C   UNL     1      -0.120  -6.706   1.909  1.00  0.00     0.309 C 
ATOM      5  O   UNL     1       0.262  -6.966   3.049  1.00  0.00    -0.252 OA
BRANCH   4   6
ATOM      6  C   UNL     1      -1.439  -5.990   1.710  1.00  0.00     0.164 C 
BRANCH   6   7
ATOM      7  C   UNL     1      -2.000  -5.318   0.439  1.00  0.00     0.118 C 
ATOM      8  C   UNL     1       0.671  -1.657  -1.849  1.00  0.00    -0.024 A 
ATOM      9  C   UNL     1       1.617  -1.691  -2.893  1.00  0.00     0.006 A 
ATOM     10  C   UNL     1       0.098  -2.898  -1.489  1.00  0.00     0.049 A 
ATOM     11  C   UNL     1       1.932  -2.870  -3.565  1.00  0.00     0.001 A 
ATOM     12  C   UNL     1       0.387  -4.093  -2.155  1.00  0.00     0.003 A 
ATOM     13  N   UNL     1      -0.815  -3.214  -0.499  1.00  0.00    -0.356 N 
ATOM     14  C   UNL     1       1.306  -4.071  -3.221  1.00  0.00     0.010 A 
ATOM     15  C   UNL     1      -0.417  -5.107  -1.562  1.00  0.00    -0.014 A 
ATOM     16  C   UNL     1      -1.049  -4.570  -0.461  1.00  0.00     0.052 A 
ATOM     17  H   UNL     1      -1.241  -2.557   0.099  1.00  0.00     0.166 HD
ATOM     18  C   UNL     1      -0.685  -6.498  -2.001  1.00  0.00     0.066 C 
ATOM     19  C   UNL     1      -1.758  -7.184  -1.124  1.00  0.00     0.166 C 
ATOM     20  O   UNL     1      -2.642  -6.294  -0.423  1.00  0.00    -0.368 OA
BRANCH   8  21
ATOM     21  C   UNL     1       0.328  -0.335  -1.206  1.00  0.00     0.034 C 
ATOM     22  C   UNL     1       1.013  -0.132   0.136  1.00  0.00     0.009 C 
ENDBRANCH   8  21
BRANCH   7  23
ATOM     23  C   UNL     1      -3.146  -4.341   0.879  1.00  0.00     0.039 C 
ATOM     24  C   UNL     1      -4.174  -4.924   1.847  1.00  0.00     0.007 C 
ENDBRANCH   7  23
ENDBRANCH   6   7
ENDBRANCH   4   6
ENDBRANCH   3   4
ENDBRANCH   2   3
ENDBRANCH   1   2
BRANCH   1  25
ATOM     25  O   UNL     1       3.384  -6.383   1.379  1.00  0.00    -0.458 OA
BRANCH  25  26
ATOM     26  C   UNL     1       3.070  -5.111   1.040  1.00  0.00     0.338 C 
ATOM     27  O   UNL     1       2.963  -4.659  -0.086  1.00  0.00    -0.246 OA
BRANCH  26  28
ATOM     28  C   UNL     1       2.536  -4.491   2.268  1.00  0.00     0.060 A 
ATOM     29  C   UNL     1       3.080  -4.771   3.520  1.00  0.00     0.016 A 
ATOM     30  C   UNL     1       1.316  -3.824   2.155  1.00  0.00     0.016 A 
ATOM     31  C   UNL     1       2.331  -4.491   4.655  1.00  0.00     0.010 A 
ATOM     32  C   UNL     1       0.549  -3.580   3.284  1.00  0.00     0.010 A 
ATOM     33  C   UNL     1       1.040  -3.958   4.531  1.00  0.00    -0.014 A 
BRANCH  33  34
ATOM     34  C   UNL     1       0.349  -3.550   5.745  1.00  0.00     0.031 A 
ATOM     35  C   UNL     1       0.730  -2.187   6.168  1.00  0.00     0.074 A 
ATOM     36  C   UNL     1      -0.577  -4.221   6.453  1.00  0.00     0.049 A 
ATOM     37  N   UNL     1       1.619  -1.876   7.050  1.00  0.00    -0.248 NA
ATOM     38  C   UNL     1       0.200  -1.051   5.403  1.00  0.00     0.031 C 
ATOM     39  C   UNL     1      -1.335  -5.416   6.089  1.00  0.00     0.029 A 
ATOM     40  N   UNL     1      -1.083  -3.889   7.679  1.00  0.00    -0.354 N 
ATOM     41  C   UNL     1       1.621  -0.491   7.098  1.00  0.00     0.074 A 
ATOM     42  C   UNL     1       0.902  -0.048   5.929  1.00  0.00     0.031 C 
ATOM     43  C   UNL     1      -2.341  -5.592   6.984  1.00  0.00     0.029 A 
ATOM     44  C   UNL     1      -2.196  -4.622   8.060  1.00  0.00     0.049 A 
ATOM     45  H   UNL     1      -0.689  -3.186   8.244  1.00  0.00     0.167 HD
ATOM     46  C   UNL     1       1.994   0.180   8.220  1.00  0.00     0.031 A 
ATOM     47  C   UNL     1      -2.951  -4.408   9.167  1.00  0.00     0.031 A 
ATOM     48  C   UNL     1       2.631  -0.690   9.177  1.00  0.00     0.049 A 
ATOM     49  C   UNL     1      -2.112  -3.690  10.157  1.00  0.00     0.074 A 
ATOM     50  C   UNL     1       3.762  -1.481   9.184  1.00  0.00     0.029 A 
ATOM     51  N   UNL     1       1.852  -1.116  10.227  1.00  0.00    -0.354 N 
ATOM     52  N   UNL     1      -1.089  -4.223  10.763  1.00  0.00    -0.248 NA
ATOM     53  C   UNL     1      -2.201  -2.241  10.248  1.00  0.00     0.031 C 
ATOM     54  C   UNL     1       3.432  -2.607   9.992  1.00  0.00     0.029 A 
ATOM     55  C   UNL     1       2.131  -2.436  10.471  1.00  0.00     0.049 A 
ATOM     56  H   UNL     1       1.203  -0.565  10.721  1.00  0.00     0.167 HD
ATOM     57  C   UNL     1      -0.196  -3.179  10.937  1.00  0.00     0.074 A 
ATOM     58  C   UNL     1      -0.988  -1.972  10.736  1.00  0.00     0.031 C 
ATOM     59  C   UNL     1       1.152  -3.400  10.945  1.00  0.00     0.031 A 
BRANCH  46  60
ATOM     60  C   UNL     1       1.425   1.521   8.615  1.00  0.00    -0.014 A 
ATOM     61  C   UNL     1       0.277   2.083   8.021  1.00  0.00     0.010 A 
ATOM     62  C   UNL     1       1.900   2.138   9.791  1.00  0.00     0.010 A 
ATOM     63  C   UNL     1      -0.366   3.198   8.556  1.00  0.00     0.020 A 
ATOM     64  C   UNL     1       1.231   3.226  10.367  1.00  0.00     0.020 A 
ATOM     65  C   UNL     1       0.103   3.751   9.739  1.00  0.00     0.054 A 
BRANCH  65  66
ATOM     66  S   UNL     1      -0.846   5.101  10.475  1.00  0.00     0.124 S 
ATOM     67  O   UNL     1      -0.579   6.194   9.544  1.00  0.00    -0.237 OA
ATOM     68  O   UNL     1      -2.207   4.572  10.453  1.00  0.00    -0.237 OA
ATOM     69  O   UNL     1      -0.256   5.249  11.803  1.00  0.00    -0.744 OA
ENDBRANCH  65  66
ENDBRANCH  46  60
BRANCH  47  70
ATOM     70  C   UNL     1      -4.428  -4.467   9.303  1.00  0.00    -0.014 A 
ATOM     71  C   UNL     1      -5.243  -4.281   8.170  1.00  0.00     0.010 A 
ATOM     72  C   UNL     1      -5.031  -4.359  10.574  1.00  0.00     0.010 A 
ATOM     73  C   UNL     1      -6.582  -3.898   8.298  1.00  0.00     0.020 A 
ATOM     74  C   UNL     1      -6.374  -3.970  10.709  1.00  0.00     0.020 A 
ATOM     75  C   UNL     1      -7.127  -3.700   9.566  1.00  0.00     0.054 A 
BRANCH  75  76
ATOM     76  S   UNL     1      -8.793  -2.986   9.683  1.00  0.00     0.124 S 
ATOM     77  O   UNL     1      -8.583  -1.642   9.152  1.00  0.00    -0.237 OA
ATOM     78  O   UNL     1      -9.578  -3.878   8.833  1.00  0.00    -0.237 OA
ATOM     79  O   UNL     1      -9.103  -3.055  11.108  1.00  0.00    -0.744 OA
ENDBRANCH  75  76
ENDBRANCH  47  70
BRANCH  59  80
ATOM     80  C   UNL     1       1.660  -4.803  11.205  1.00  0.00    -0.014 A 
ATOM     81  C   UNL     1       2.657  -4.957  12.187  1.00  0.00     0.010 A 
ATOM     82  C   UNL     1       1.305  -5.928  10.435  1.00  0.00     0.010 A 
ATOM     83  C   UNL     1       3.299  -6.181  12.380  1.00  0.00     0.020 A 
ATOM     84  C   UNL     1       1.925  -7.170  10.644  1.00  0.00     0.020 A 
ATOM     85  C   UNL     1       2.935  -7.281  11.602  1.00  0.00     0.054 A 
BRANCH  85  86
ATOM     86  S   UNL     1       3.820  -8.843  11.858  1.00  0.00     0.124 S 
ATOM     87  O   UNL     1       5.133  -8.552  11.287  1.00  0.00    -0.237 OA
ATOM     88  O   UNL     1       3.795  -8.994  13.312  1.00  0.00    -0.237 OA
ATOM     89  O   UNL     1       3.027  -9.826  11.124  1.00  0.00    -0.744 OA
ENDBRANCH  85  86
ENDBRANCH  59  80
ENDBRANCH  33  34
ENDBRANCH  26  28
ENDBRANCH  25  26
ENDBRANCH   1  25
TORSDOF 17
