REMARK SMILES O=C(CCN1C(=O)[C@@H]2[C@@H](C1=O)[C@H]1c3ccccc3[C@]2(Br)c2ccccc21)OCCOC(=O)c1ccc(-c2c3nc(c(-c4ccc(S(=O)(=O)[O-])cc4)c4ccc([nH]4)c(-c4ccc(S(=O)(=O)[O-])cc4)c4nc(c(-c5ccc(S(=O)(=O)[O-])cc5)c5ccc2[nH]5)C=C4)C=C3)cc1
REMARK SMILES IDX 29 1 28 2 27 3 2 4 1 5 3 6 4 7 5 8 6 9 10 10 7 11 8 12 9 13
REMARK SMILES IDX 11 14 19 15 12 16 21 17 20 18 18 19 26 20 13 21 22 22 17 23
REMARK SMILES IDX 25 24 14 25 23 26 16 27 24 28 15 29 30 30 31 31 32 32 33 33
REMARK SMILES IDX 34 34 92 35 35 36 91 37 36 38 37 39 38 40 85 41 39 42 90 43
REMARK SMILES IDX 84 44 86 45 40 46 89 47 83 48 82 49 41 51 71 52 52 53 70 54
REMARK SMILES IDX 53 55 56 56 69 57 87 58 54 59 55 60 68 62 88 63 57 64 42 65
REMARK SMILES IDX 43 66 51 67 44 68 50 69 45 70 46 71 47 72 48 73 49 74 72 75
REMARK SMILES IDX 73 76 81 77 74 78 80 79 75 80 76 81 77 82 78 83 79 84 58 85
REMARK SMILES IDX 59 86 67 87 60 88 66 89 61 90 62 91 63 92 64 93 65 94
REMARK H PARENT 86 50 56 61
REMARK Flexibility Score: inf
ROOT
ATOM      1  C   UNL     1       3.531   1.875   1.670  1.00  0.00     0.275 C 
ENDROOT
BRANCH   1   2
ATOM      2  C   UNL     1       3.288   1.479   0.215  1.00  0.00     0.274 C 
BRANCH   2   3
ATOM      3  O   UNL     1       2.099   0.698   0.008  1.00  0.00    -0.462 OA
BRANCH   3   4
ATOM      4  C   UNL     1       2.151  -0.580  -0.453  1.00  0.00     0.307 C 
ATOM      5  O   UNL     1       1.248  -1.026  -1.156  1.00  0.00    -0.252 OA
BRANCH   4   6
ATOM      6  C   UNL     1       3.270  -1.476   0.036  1.00  0.00     0.144 C 
BRANCH   6   7
ATOM      7  C   UNL     1       4.155  -2.016  -1.084  1.00  0.00     0.140 C 
BRANCH   7   8
ATOM      8  N   UNL     1       5.124  -1.036  -1.551  1.00  0.00    -0.281 N 
ATOM      9  C   UNL     1       6.319  -0.719  -0.888  1.00  0.00     0.235 C 
ATOM     10  C   UNL     1       4.908  -0.221  -2.655  1.00  0.00     0.234 C 
ATOM     11  O   UNL     1       6.826  -1.293   0.055  1.00  0.00    -0.274 OA
ATOM     12  C   UNL     1       6.663   0.638  -1.432  1.00  0.00     0.118 C 
ATOM     13  C   UNL     1       6.233   0.412  -2.889  1.00  0.00     0.105 C 
ATOM     14  O   UNL     1       3.904  -0.075  -3.320  1.00  0.00    -0.274 OA
ATOM     15  C   UNL     1       7.860   1.604  -1.393  1.00  0.00     0.088 C 
ATOM     16  C   UNL     1       6.509   1.675  -3.700  1.00  0.00     0.063 C 
ATOM     17  C   UNL     1       7.091   2.957  -1.637  1.00  0.00    -0.022 A 
ATOM     18  Br  UNL     1       8.757   1.536   0.305  1.00  0.00    -0.074 Br
ATOM     19  C   UNL     1       8.758   1.431  -2.629  1.00  0.00    -0.022 A 
ATOM     20  C   UNL     1       6.301   2.921  -2.838  1.00  0.00    -0.035 A 
ATOM     21  C   UNL     1       8.038   1.537  -3.869  1.00  0.00    -0.035 A 
ATOM     22  C   UNL     1       7.014   4.071  -0.804  1.00  0.00     0.006 A 
ATOM     23  C   UNL     1      10.135   1.242  -2.665  1.00  0.00     0.006 A 
ATOM     24  C   UNL     1       5.432   3.957  -3.158  1.00  0.00     0.005 A 
ATOM     25  C   UNL     1       8.682   1.444  -5.095  1.00  0.00     0.005 A 
ATOM     26  C   UNL     1       6.147   5.115  -1.145  1.00  0.00     0.000 A 
ATOM     27  C   UNL     1      10.778   1.149  -3.903  1.00  0.00     0.000 A 
ATOM     28  C   UNL     1       5.356   5.053  -2.300  1.00  0.00     0.000 A 
ATOM     29  C   UNL     1      10.061   1.249  -5.104  1.00  0.00     0.000 A 
ENDBRANCH   7   8
ENDBRANCH   6   7
ENDBRANCH   4   6
ENDBRANCH   3   4
ENDBRANCH   2   3
ENDBRANCH   1   2
BRANCH   1  30
ATOM     30  O   UNL     1       3.486   0.712   2.504  1.00  0.00    -0.458 OA
BRANCH  30  31
ATOM     31  C   UNL     1       2.252   0.438   2.997  1.00  0.00     0.338 C 
ATOM     32  O   UNL     1       1.285   1.181   2.983  1.00  0.00    -0.246 OA
BRANCH  31  33
ATOM     33  C   UNL     1       2.183  -0.990   3.370  1.00  0.00     0.060 A 
ATOM     34  C   UNL     1       3.271  -1.666   3.932  1.00  0.00     0.016 A 
ATOM     35  C   UNL     1       0.981  -1.665   3.125  1.00  0.00     0.016 A 
ATOM     36  C   UNL     1       3.133  -3.008   4.291  1.00  0.00     0.010 A 
ATOM     37  C   UNL     1       0.843  -3.002   3.493  1.00  0.00     0.010 A 
ATOM     38  C   UNL     1       1.908  -3.675   4.105  1.00  0.00    -0.014 A 
BRANCH  38  39
ATOM     39  C   UNL     1       1.689  -5.005   4.721  1.00  0.00     0.031 A 
ATOM     40  C   UNL     1       1.668  -6.263   3.908  1.00  0.00     0.074 A 
ATOM     41  C   UNL     1       1.487  -5.051   6.053  1.00  0.00     0.049 A 
ATOM     42  N   UNL     1       1.585  -7.499   4.328  1.00  0.00    -0.248 NA
ATOM     43  C   UNL     1       1.749  -6.127   2.446  1.00  0.00     0.031 C 
ATOM     44  C   UNL     1       1.457  -3.880   6.933  1.00  0.00     0.029 A 
ATOM     45  N   UNL     1       1.288  -6.111   6.900  1.00  0.00    -0.354 N 
ATOM     46  C   UNL     1       1.625  -8.292   3.189  1.00  0.00     0.074 A 
ATOM     47  C   UNL     1       1.698  -7.396   2.055  1.00  0.00     0.031 C 
ATOM     48  C   UNL     1       1.297  -4.289   8.200  1.00  0.00     0.029 A 
ATOM     49  C   UNL     1       1.180  -5.744   8.221  1.00  0.00     0.049 A 
ATOM     50  H   UNL     1       1.228  -7.044   6.592  1.00  0.00     0.167 HD
ATOM     51  C   UNL     1       1.618  -9.644   3.109  1.00  0.00     0.031 A 
ATOM     52  C   UNL     1       1.022  -6.490   9.332  1.00  0.00     0.031 A 
ATOM     53  C   UNL     1       1.524 -10.522   4.249  1.00  0.00     0.049 A 
ATOM     54  C   UNL     1       0.978  -7.986   9.207  1.00  0.00     0.074 A 
ATOM     55  C   UNL     1       1.555 -11.906   4.264  1.00  0.00     0.029 A 
ATOM     56  N   UNL     1       1.372 -10.113   5.566  1.00  0.00    -0.354 N 
ATOM     57  N   UNL     1       1.102  -8.722   8.129  1.00  0.00    -0.248 NA
ATOM     58  C   UNL     1       0.790  -8.755  10.445  1.00  0.00     0.031 C 
ATOM     59  C   UNL     1       1.352 -12.335   5.577  1.00  0.00     0.029 A 
ATOM     60  C   UNL     1       1.273 -11.219   6.395  1.00  0.00     0.049 A 
ATOM     61  H   UNL     1       1.340  -9.176   5.867  1.00  0.00     0.167 HD
ATOM     62  C   UNL     1       1.036 -10.041   8.562  1.00  0.00     0.074 A 
ATOM     63  C   UNL     1       0.870 -10.003  10.000  1.00  0.00     0.031 C 
ATOM     64  C   UNL     1       1.111 -11.177   7.827  1.00  0.00     0.031 A 
BRANCH  51  65
ATOM     65  C   UNL     1       1.739 -10.289   1.753  1.00  0.00    -0.014 A 
ATOM     66  C   UNL     1       0.667 -11.038   1.233  1.00  0.00     0.010 A 
ATOM     67  C   UNL     1       2.973 -10.301   1.079  1.00  0.00     0.010 A 
ATOM     68  C   UNL     1       0.838 -11.822   0.088  1.00  0.00     0.020 A 
ATOM     69  C   UNL     1       3.141 -11.066  -0.080  1.00  0.00     0.020 A 
ATOM     70  C   UNL     1       2.080 -11.843  -0.552  1.00  0.00     0.054 A 
BRANCH  70  71
ATOM     71  S   UNL     1       2.302 -12.914  -2.000  1.00  0.00     0.124 S 
ATOM     72  O   UNL     1       2.379 -14.240  -1.394  1.00  0.00    -0.237 OA
ATOM     73  O   UNL     1       1.099 -12.645  -2.783  1.00  0.00    -0.237 OA
ATOM     74  O   UNL     1       3.544 -12.426  -2.597  1.00  0.00    -0.744 OA
ENDBRANCH  70  71
ENDBRANCH  51  65
BRANCH  52  75
ATOM     75  C   UNL     1       0.966  -5.816  10.657  1.00  0.00    -0.014 A 
ATOM     76  C   UNL     1      -0.128  -5.000  11.000  1.00  0.00     0.010 A 
ATOM     77  C   UNL     1       2.049  -5.919  11.547  1.00  0.00     0.010 A 
ATOM     78  C   UNL     1      -0.117  -4.262  12.186  1.00  0.00     0.020 A 
ATOM     79  C   UNL     1       2.050  -5.205  12.749  1.00  0.00     0.020 A 
ATOM     80  C   UNL     1       0.979  -4.360  13.047  1.00  0.00     0.054 A 
BRANCH  80  81
ATOM     81  S   UNL     1       0.990  -3.364  14.563  1.00  0.00     0.124 S 
ATOM     82  O   UNL     1       1.331  -2.040  14.048  1.00  0.00    -0.237 OA
ATOM     83  O   UNL     1      -0.377  -3.515  15.056  1.00  0.00    -0.237 OA
ATOM     84  O   UNL     1       2.018  -4.001  15.383  1.00  0.00    -0.744 OA
ENDBRANCH  80  81
ENDBRANCH  52  75
BRANCH  64  85
ATOM     85  C   UNL     1       1.028 -12.498   8.547  1.00  0.00    -0.014 A 
ATOM     86  C   UNL     1       2.153 -13.344   8.577  1.00  0.00     0.010 A 
ATOM     87  C   UNL     1      -0.192 -12.963   9.068  1.00  0.00     0.010 A 
ATOM     88  C   UNL     1       2.051 -14.645   9.077  1.00  0.00     0.020 A 
ATOM     89  C   UNL     1      -0.291 -14.254   9.597  1.00  0.00     0.020 A 
ATOM     90  C   UNL     1       0.825 -15.095   9.572  1.00  0.00     0.054 A 
BRANCH  90  91
ATOM     91  S   UNL     1       0.699 -16.801  10.177  1.00  0.00     0.124 S 
ATOM     92  O   UNL     1       0.633 -17.564   8.935  1.00  0.00    -0.237 OA
ATOM     93  O   UNL     1       1.929 -16.960  10.950  1.00  0.00    -0.237 OA
ATOM     94  O   UNL     1      -0.528 -16.793  10.971  1.00  0.00    -0.744 OA
ENDBRANCH  90  91
ENDBRANCH  64  85
ENDBRANCH  38  39
ENDBRANCH  31  33
ENDBRANCH  30  31
ENDBRANCH   1  30
TORSDOF 16
