REMARK SMILES CCn1ccnc1[C@H](F)C(=O)OCCOC(=O)c1ccc(-c2c3nc(c(-c4ccc(S(=O)(=O)[O-])cc4)c4ccc([nH]4)c(-c4ccc(S(=O)(=O)[O-])cc4)c4nc(c(-c5ccc(S(=O)(=O)[O-])cc5)c5ccc2[nH]5)C=C4)C=C3)cc1
REMARK SMILES IDX 14 1 13 2 12 3 10 4 11 5 8 6 9 7 7 8 3 9 4 10 5 11 6 12 2 13
REMARK SMILES IDX 1 14 15 15 16 16 17 17 18 18 19 19 77 20 20 21 76 22 21 23
REMARK SMILES IDX 22 24 23 25 70 26 24 27 75 28 69 29 71 30 25 31 74 32 68 33
REMARK SMILES IDX 67 34 26 36 56 37 37 38 55 39 38 40 41 41 54 42 72 43 39 44
REMARK SMILES IDX 40 45 53 47 73 48 42 49 27 50 28 51 36 52 29 53 35 54 30 55
REMARK SMILES IDX 31 56 32 57 33 58 34 59 57 60 58 61 66 62 59 63 65 64 60 65
REMARK SMILES IDX 61 66 62 67 63 68 64 69 43 70 44 71 52 72 45 73 51 74 46 75
REMARK SMILES IDX 47 76 48 77 49 78 50 79
REMARK H PARENT 71 35 41 46
REMARK Flexibility Score: inf
ROOT
ATOM      1  C   UNL     1       0.851   1.710   7.602  1.00  0.00     0.275 C 
ENDROOT
BRANCH   1   2
ATOM      2  C   UNL     1       2.367   1.574   7.533  1.00  0.00     0.274 C 
BRANCH   2   3
ATOM      3  O   UNL     1       2.820   1.525   6.169  1.00  0.00    -0.460 OA
BRANCH   3   4
ATOM      4  C   UNL     1       2.885   0.280   5.598  1.00  0.00     0.348 C 
ATOM      5  O   UNL     1       2.756  -0.774   6.216  1.00  0.00    -0.248 OA
BRANCH   4   6
ATOM      6  C   UNL     1       3.068   0.374   4.089  1.00  0.00     0.341 C 
ATOM      7  F   UNL     1       2.337   1.390   3.549  1.00  0.00    -0.226 F 
BRANCH   6   8
ATOM      8  C   UNL     1       4.526   0.540   3.810  1.00  0.00     0.155 A 
ATOM      9  N   UNL     1       5.075   1.426   2.907  1.00  0.00    -0.332 N 
ATOM     10  C   UNL     1       6.440   1.370   3.065  1.00  0.00     0.107 A 
ATOM     11  C   UNL     1       6.665   0.385   3.990  1.00  0.00     0.131 A 
ATOM     12  N   UNL     1       5.484  -0.136   4.424  1.00  0.00    -0.238 NA
BRANCH   9  13
ATOM     13  C   UNL     1       4.427   2.302   1.947  1.00  0.00     0.120 C 
ATOM     14  C   UNL     1       4.620   1.835   0.513  1.00  0.00     0.027 C 
ENDBRANCH   9  13
ENDBRANCH   6   8
ENDBRANCH   4   6
ENDBRANCH   3   4
ENDBRANCH   2   3
ENDBRANCH   1   2
BRANCH   1  15
ATOM     15  O   UNL     1       0.223   0.499   7.185  1.00  0.00    -0.458 OA
BRANCH  15  16
ATOM     16  C   UNL     1      -0.069   0.426   5.867  1.00  0.00     0.338 C 
ATOM     17  O   UNL     1       0.249   1.221   5.003  1.00  0.00    -0.246 OA
BRANCH  16  18
ATOM     18  C   UNL     1      -0.988  -0.687   5.624  1.00  0.00     0.060 A 
ATOM     19  C   UNL     1      -1.457  -0.840   4.313  1.00  0.00     0.016 A 
ATOM     20  C   UNL     1      -1.621  -1.280   6.721  1.00  0.00     0.016 A 
ATOM     21  C   UNL     1      -2.712  -1.372   4.130  1.00  0.00     0.010 A 
ATOM     22  C   UNL     1      -2.884  -1.774   6.542  1.00  0.00     0.010 A 
ATOM     23  C   UNL     1      -3.443  -1.722   5.265  1.00  0.00    -0.014 A 
BRANCH  23  24
ATOM     24  C   UNL     1      -4.854  -1.989   5.123  1.00  0.00     0.031 A 
ATOM     25  C   UNL     1      -5.173  -3.382   4.764  1.00  0.00     0.074 A 
ATOM     26  C   UNL     1      -5.769  -1.079   5.502  1.00  0.00     0.049 A 
ATOM     27  N   UNL     1      -5.692  -3.827   3.669  1.00  0.00    -0.248 NA
ATOM     28  C   UNL     1      -4.711  -4.427   5.691  1.00  0.00     0.031 C 
ATOM     29  C   UNL     1      -5.537   0.191   6.202  1.00  0.00     0.029 A 
ATOM     30  N   UNL     1      -7.121  -1.175   5.475  1.00  0.00    -0.354 N 
ATOM     31  C   UNL     1      -5.815  -5.196   3.863  1.00  0.00     0.074 A 
ATOM     32  C   UNL     1      -4.995  -5.528   5.000  1.00  0.00     0.031 C 
ATOM     33  C   UNL     1      -6.702   0.614   6.742  1.00  0.00     0.029 A 
ATOM     34  C   UNL     1      -7.766  -0.279   6.314  1.00  0.00     0.049 A 
ATOM     35  H   UNL     1      -7.602  -1.823   4.911  1.00  0.00     0.167 HD
ATOM     36  C   UNL     1      -6.808  -5.922   3.282  1.00  0.00     0.031 A 
ATOM     37  C   UNL     1      -9.063  -0.344   6.705  1.00  0.00     0.031 A 
ATOM     38  C   UNL     1      -7.449  -5.212   2.209  1.00  0.00     0.049 A 
ATOM     39  C   UNL     1      -9.771  -1.233   5.749  1.00  0.00     0.074 A 
ATOM     40  C   UNL     1      -7.024  -4.668   1.013  1.00  0.00     0.029 A 
ATOM     41  N   UNL     1      -8.664  -4.627   2.484  1.00  0.00    -0.354 N 
ATOM     42  N   UNL     1      -9.931  -0.950   4.485  1.00  0.00    -0.248 NA
ATOM     43  C   UNL     1      -9.920  -2.641   6.088  1.00  0.00     0.031 C 
ATOM     44  C   UNL     1      -7.778  -3.468   0.860  1.00  0.00     0.029 A 
ATOM     45  C   UNL     1      -8.651  -3.363   1.947  1.00  0.00     0.049 A 
ATOM     46  H   UNL     1      -9.409  -5.040   2.977  1.00  0.00     0.167 HD
ATOM     47  C   UNL     1      -9.783  -2.161   3.820  1.00  0.00     0.074 A 
ATOM     48  C   UNL     1      -9.898  -3.177   4.863  1.00  0.00     0.031 C 
ATOM     49  C   UNL     1      -9.303  -2.212   2.541  1.00  0.00     0.031 A 
BRANCH  36  50
ATOM     50  C   UNL     1      -7.449  -7.094   3.979  1.00  0.00    -0.014 A 
ATOM     51  C   UNL     1      -8.325  -7.928   3.264  1.00  0.00     0.010 A 
ATOM     52  C   UNL     1      -7.415  -7.247   5.383  1.00  0.00     0.010 A 
ATOM     53  C   UNL     1      -9.154  -8.841   3.932  1.00  0.00     0.020 A 
ATOM     54  C   UNL     1      -8.193  -8.188   6.052  1.00  0.00     0.020 A 
ATOM     55  C   UNL     1      -9.088  -8.954   5.323  1.00  0.00     0.054 A 
BRANCH  55  56
ATOM     56  S   UNL     1     -10.241 -10.046   6.188  1.00  0.00     0.124 S 
ATOM     57  O   UNL     1     -11.513  -9.363   5.972  1.00  0.00    -0.237 OA
ATOM     58  O   UNL     1     -10.067 -11.308   5.475  1.00  0.00    -0.237 OA
ATOM     59  O   UNL     1      -9.750 -10.040   7.564  1.00  0.00    -0.744 OA
ENDBRANCH  55  56
ENDBRANCH  36  50
BRANCH  37  60
ATOM     60  C   UNL     1      -9.599   0.012   8.042  1.00  0.00    -0.014 A 
ATOM     61  C   UNL     1     -10.975   0.205   8.253  1.00  0.00     0.010 A 
ATOM     62  C   UNL     1      -8.769  -0.084   9.180  1.00  0.00     0.010 A 
ATOM     63  C   UNL     1     -11.504   0.260   9.555  1.00  0.00     0.020 A 
ATOM     64  C   UNL     1      -9.286  -0.023  10.477  1.00  0.00     0.020 A 
ATOM     65  C   UNL     1     -10.656   0.131  10.659  1.00  0.00     0.054 A 
BRANCH  65  66
ATOM     66  S   UNL     1     -11.364   0.053  12.332  1.00  0.00     0.124 S 
ATOM     67  O   UNL     1     -11.838   1.420  12.531  1.00  0.00    -0.237 OA
ATOM     68  O   UNL     1     -12.402  -0.963  12.190  1.00  0.00    -0.237 OA
ATOM     69  O   UNL     1     -10.229  -0.336  13.168  1.00  0.00    -0.744 OA
ENDBRANCH  65  66
ENDBRANCH  37  60
BRANCH  49  70
ATOM     70  C   UNL     1      -9.197  -0.911   1.772  1.00  0.00    -0.014 A 
ATOM     71  C   UNL     1      -8.339   0.142   2.153  1.00  0.00     0.010 A 
ATOM     72  C   UNL     1      -9.864  -0.814   0.539  1.00  0.00     0.010 A 
ATOM     73  C   UNL     1      -8.172   1.268   1.333  1.00  0.00     0.020 A 
ATOM     74  C   UNL     1      -9.689   0.298  -0.291  1.00  0.00     0.020 A 
ATOM     75  C   UNL     1      -8.848   1.337   0.112  1.00  0.00     0.054 A 
BRANCH  75  76
ATOM     76  S   UNL     1      -8.577   2.767  -0.975  1.00  0.00     0.124 S 
ATOM     77  O   UNL     1      -9.231   3.850  -0.247  1.00  0.00    -0.237 OA
ATOM     78  O   UNL     1      -7.119   2.848  -1.048  1.00  0.00    -0.237 OA
ATOM     79  O   UNL     1      -9.229   2.381  -2.226  1.00  0.00    -0.744 OA
ENDBRANCH  75  76
ENDBRANCH  49  70
ENDBRANCH  23  24
ENDBRANCH  16  18
ENDBRANCH  15  16
ENDBRANCH   1  15
TORSDOF 16
