REMARK SMILES O=C(Cc1ccn(C(F)F)c(=O)c1)OCCOC(=O)c1ccc(-c2c3nc(c(-c4ccc(S(=O)(=O)[O-])cc4)c4ccc([nH]4)c(-c4ccc(S(=O)(=O)[O-])cc4)c4nc(c(-c5ccc(S(=O)(=O)[O-])cc5)c5ccc2[nH]5)C=C4)C=C3)cc1
REMARK SMILES IDX 16 1 15 2 14 3 2 4 1 5 3 6 4 7 5 8 13 9 6 10 11 11 7 12
REMARK SMILES IDX 12 13 8 14 9 15 10 16 17 17 18 18 19 19 20 20 21 21 79 22
REMARK SMILES IDX 22 23 78 24 23 25 24 26 25 27 72 28 26 29 77 30 71 31 73 32
REMARK SMILES IDX 27 33 76 34 70 35 69 36 28 38 58 39 39 40 57 41 40 42 43 43
REMARK SMILES IDX 56 44 74 45 41 46 42 47 55 49 75 50 44 51 29 52 30 53 38 54
REMARK SMILES IDX 31 55 37 56 32 57 33 58 34 59 35 60 36 61 59 62 60 63 68 64
REMARK SMILES IDX 61 65 67 66 62 67 63 68 64 69 65 70 66 71 45 72 46 73 54 74
REMARK SMILES IDX 47 75 53 76 48 77 49 78 50 79 51 80 52 81
REMARK H PARENT 73 37 43 48
REMARK Flexibility Score: inf
ROOT
ATOM      1  C   UNL     1       4.132  -2.062  -1.140  1.00  0.00     0.275 C 
ENDROOT
BRANCH   1   2
ATOM      2  C   UNL     1       4.025  -1.443   0.256  1.00  0.00     0.274 C 
BRANCH   2   3
ATOM      3  O   UNL     1       2.723  -0.881   0.515  1.00  0.00    -0.462 OA
BRANCH   3   4
ATOM      4  C   UNL     1       2.575   0.437   0.823  1.00  0.00     0.310 C 
ATOM      5  O   UNL     1       1.780   0.792   1.689  1.00  0.00    -0.252 OA
BRANCH   4   6
ATOM      6  C   UNL     1       3.305   1.434  -0.064  1.00  0.00     0.158 C 
BRANCH   6   7
ATOM      7  C   UNL     1       4.216   2.380   0.663  1.00  0.00    -0.030 A 
ATOM      8  C   UNL     1       3.772   3.741   0.885  1.00  0.00     0.023 A 
ATOM      9  C   UNL     1       5.480   2.050   0.977  1.00  0.00     0.076 A 
ATOM     10  C   UNL     1       4.628   4.664   1.343  1.00  0.00     0.095 A 
ATOM     11  C   UNL     1       6.420   3.043   1.560  1.00  0.00     0.255 A 
ATOM     12  N   UNL     1       5.936   4.334   1.659  1.00  0.00    -0.258 N 
ATOM     13  O   UNL     1       7.539   2.653   1.878  1.00  0.00    -0.269 OA
BRANCH  12  14
ATOM     14  C   UNL     1       6.848   5.333   2.153  1.00  0.00     0.451 C 
ATOM     15  F   UNL     1       7.187   5.066   3.439  1.00  0.00    -0.185 F 
ATOM     16  F   UNL     1       7.990   5.343   1.421  1.00  0.00    -0.185 F 
ENDBRANCH  12  14
ENDBRANCH   6   7
ENDBRANCH   4   6
ENDBRANCH   3   4
ENDBRANCH   2   3
ENDBRANCH   1   2
BRANCH   1  17
ATOM     17  O   UNL     1       3.952  -1.060  -2.154  1.00  0.00    -0.458 OA
BRANCH  17  18
ATOM     18  C   UNL     1       2.685  -0.945  -2.634  1.00  0.00     0.338 C 
ATOM     19  O   UNL     1       1.751  -1.685  -2.401  1.00  0.00    -0.246 OA
BRANCH  18  20
ATOM     20  C   UNL     1       2.552   0.368  -3.312  1.00  0.00     0.060 A 
ATOM     21  C   UNL     1       3.585   0.918  -4.079  1.00  0.00     0.016 A 
ATOM     22  C   UNL     1       1.368   1.087  -3.107  1.00  0.00     0.016 A 
ATOM     23  C   UNL     1       3.428   2.189  -4.643  1.00  0.00     0.010 A 
ATOM     24  C   UNL     1       1.218   2.360  -3.661  1.00  0.00     0.010 A 
ATOM     25  C   UNL     1       2.244   2.917  -4.438  1.00  0.00    -0.014 A 
BRANCH  25  26
ATOM     26  C   UNL     1       2.017   4.197  -5.147  1.00  0.00     0.031 A 
ATOM     27  C   UNL     1       2.254   5.521  -4.488  1.00  0.00     0.074 A 
ATOM     28  C   UNL     1       1.550   4.151  -6.408  1.00  0.00     0.049 A 
ATOM     29  N   UNL     1       2.146   6.718  -5.005  1.00  0.00    -0.248 NA
ATOM     30  C   UNL     1       2.662   5.506  -3.076  1.00  0.00     0.031 C 
ATOM     31  C   UNL     1       1.275   2.920  -7.149  1.00  0.00     0.029 A 
ATOM     32  N   UNL     1       1.223   5.154  -7.284  1.00  0.00    -0.354 N 
ATOM     33  C   UNL     1       2.487   7.603  -3.992  1.00  0.00     0.074 A 
ATOM     34  C   UNL     1       2.772   6.804  -2.817  1.00  0.00     0.031 C 
ATOM     35  C   UNL     1       0.827   3.240  -8.371  1.00  0.00     0.029 A 
ATOM     36  C   UNL     1       0.760   4.696  -8.493  1.00  0.00     0.049 A 
ATOM     37  H   UNL     1       1.312   6.111  -7.068  1.00  0.00     0.167 HD
ATOM     38  C   UNL     1       2.566   8.954  -4.049  1.00  0.00     0.031 A 
ATOM     39  C   UNL     1       0.328   5.361  -9.583  1.00  0.00     0.031 A 
ATOM     40  C   UNL     1       2.261   9.739  -5.218  1.00  0.00     0.049 A 
ATOM     41  C   UNL     1       0.357   6.860  -9.601  1.00  0.00     0.074 A 
ATOM     42  C   UNL     1       2.393  11.108  -5.383  1.00  0.00     0.029 A 
ATOM     43  N   UNL     1       1.739   9.244  -6.403  1.00  0.00    -0.354 N 
ATOM     44  N   UNL     1       0.778   7.678  -8.667  1.00  0.00    -0.248 NA
ATOM     45  C   UNL     1      -0.131   7.528 -10.814  1.00  0.00     0.031 C 
ATOM     46  C   UNL     1       1.877  11.449  -6.636  1.00  0.00     0.029 A 
ATOM     47  C   UNL     1       1.492  10.286  -7.283  1.00  0.00     0.049 A 
ATOM     48  H   UNL     1       1.569   8.293  -6.592  1.00  0.00     0.167 HD
ATOM     49  C   UNL     1       0.623   8.958  -9.185  1.00  0.00     0.074 A 
ATOM     50  C   UNL     1       0.072   8.807 -10.517  1.00  0.00     0.031 C 
ATOM     51  C   UNL     1       0.923  10.144  -8.603  1.00  0.00     0.031 A 
BRANCH  38  52
ATOM     52  C   UNL     1       3.003   9.695  -2.813  1.00  0.00    -0.014 A 
ATOM     53  C   UNL     1       2.091  10.531  -2.142  1.00  0.00     0.010 A 
ATOM     54  C   UNL     1       4.343   9.664  -2.391  1.00  0.00     0.010 A 
ATOM     55  C   UNL     1       2.514  11.333  -1.078  1.00  0.00     0.020 A 
ATOM     56  C   UNL     1       4.765  10.447  -1.313  1.00  0.00     0.020 A 
ATOM     57  C   UNL     1       3.850  11.289  -0.674  1.00  0.00     0.054 A 
BRANCH  57  58
ATOM     58  S   UNL     1       4.384  12.319   0.720  1.00  0.00     0.124 S 
ATOM     59  O   UNL     1       4.552  13.626   0.093  1.00  0.00    -0.237 OA
ATOM     60  O   UNL     1       3.266  12.201   1.653  1.00  0.00    -0.237 OA
ATOM     61  O   UNL     1       5.617  11.669   1.163  1.00  0.00    -0.744 OA
ENDBRANCH  57  58
ENDBRANCH  38  52
BRANCH  39  62
ATOM     62  C   UNL     1      -0.114   4.562 -10.755  1.00  0.00    -0.014 A 
ATOM     63  C   UNL     1      -1.312   3.824 -10.697  1.00  0.00     0.010 A 
ATOM     64  C   UNL     1       0.745   4.397 -11.855  1.00  0.00     0.010 A 
ATOM     65  C   UNL     1      -1.601   2.871 -11.676  1.00  0.00     0.020 A 
ATOM     66  C   UNL     1       0.446   3.461 -12.848  1.00  0.00     0.020 A 
ATOM     67  C   UNL     1      -0.704   2.676 -12.730  1.00  0.00     0.054 A 
BRANCH  67  68
ATOM     68  S   UNL     1      -1.030   1.342 -13.914  1.00  0.00     0.124 S 
ATOM     69  O   UNL     1      -0.678   0.159 -13.132  1.00  0.00    -0.237 OA
ATOM     70  O   UNL     1      -2.453   1.508 -14.199  1.00  0.00    -0.237 OA
ATOM     71  O   UNL     1      -0.134   1.645 -15.027  1.00  0.00    -0.744 OA
ENDBRANCH  67  68
ENDBRANCH  39  62
BRANCH  51  72
ATOM     72  C   UNL     1       0.656  11.413  -9.371  1.00  0.00    -0.014 A 
ATOM     73  C   UNL     1       1.735  12.203  -9.812  1.00  0.00     0.010 A 
ATOM     74  C   UNL     1      -0.654  11.906  -9.508  1.00  0.00     0.010 A 
ATOM     75  C   UNL     1       1.515  13.484 -10.323  1.00  0.00     0.020 A 
ATOM     76  C   UNL     1      -0.879  13.178 -10.044  1.00  0.00     0.020 A 
ATOM     77  C   UNL     1       0.209  13.971 -10.418  1.00  0.00     0.054 A 
BRANCH  77  78
ATOM     78  S   UNL     1      -0.051  15.666 -11.012  1.00  0.00     0.124 S 
ATOM     79  O   UNL     1       0.351  16.462  -9.855  1.00  0.00    -0.237 OA
ATOM     80  O   UNL     1       0.840  15.742 -12.168  1.00  0.00    -0.237 OA
ATOM     81  O   UNL     1      -1.476  15.704 -11.330  1.00  0.00    -0.744 OA
ENDBRANCH  77  78
ENDBRANCH  51  72
ENDBRANCH  25  26
ENDBRANCH  18  20
ENDBRANCH  17  18
ENDBRANCH   1  17
TORSDOF 16
