REMARK SMILES Cc1ccccc1OCC(=O)N[C@@H](Cc1c[nH]c2ccccc12)C(=O)OCCOC(=O)c1ccc(-c2c3nc(c(-c4ccc(S(=O)(=O)[O-])cc4)c4ccc([nH]4)c(-c4ccc(S(=O)(=O)[O-])cc4)c4nc(c(-c5ccc(S(=O)(=O)[O-])cc5)c5ccc2[nH]5)C=C4)C=C3)cc1
REMARK SMILES IDX 27 1 26 2 24 3 25 4 13 5 12 6 10 7 11 8 9 10 8 11 7 12 1 13
REMARK SMILES IDX 2 14 3 15 4 16 6 17 5 18 14 19 15 20 16 21 23 22 17 23 18 24
REMARK SMILES IDX 22 25 19 27 21 28 20 29 28 30 29 31 30 32 31 33 32 34 33 35
REMARK SMILES IDX 91 36 34 37 90 38 35 39 36 40 37 41 84 42 38 43 89 44 83 45
REMARK SMILES IDX 85 46 39 47 88 48 82 49 81 50 40 52 70 53 51 54 69 55 52 56
REMARK SMILES IDX 55 57 68 58 86 59 53 60 54 61 67 63 87 64 56 65 41 66 42 67
REMARK SMILES IDX 50 68 43 69 49 70 44 71 45 72 46 73 47 74 48 75 71 76 72 77
REMARK SMILES IDX 80 78 73 79 79 80 74 81 75 82 76 83 77 84 78 85 57 86 58 87
REMARK SMILES IDX 66 88 59 89 65 90 60 91 61 92 62 93 63 94 64 95
REMARK H PARENT 12 9 17 26 85 51 55 62
REMARK Flexibility Score: inf
ROOT
ATOM      1  C   UNL     1       4.604   6.750   4.826  1.00  0.00     0.274 C 
ENDROOT
BRANCH   1   2
ATOM      2  O   UNL     1       3.586   6.788   3.785  1.00  0.00    -0.461 OA
BRANCH   2   3
ATOM      3  C   UNL     1       2.377   6.243   3.548  1.00  0.00     0.329 C 
ATOM      4  O   UNL     1       1.529   7.071   3.239  1.00  0.00    -0.250 OA
BRANCH   3   5
ATOM      5  C   UNL     1       1.839   4.758   3.454  1.00  0.00     0.196 C 
BRANCH   5   6
ATOM      6  N   UNL     1       2.987   2.942   3.414  1.00  0.00    -0.339 N 
ATOM      7  C   UNL     1       3.225   1.778   2.402  1.00  0.00     0.258 C 
ATOM      8  O   UNL     1       3.716   0.739   2.865  1.00  0.00    -0.271 OA
ATOM      9  H   UNL     1       3.494   2.811   4.248  1.00  0.00     0.164 HD
BRANCH   7  10
ATOM     10  C   UNL     1       2.845   1.823   0.738  1.00  0.00     0.329 C 
BRANCH  10  11
ATOM     11  O   UNL     1       1.530   1.870   0.166  1.00  0.00    -0.484 OA
BRANCH  11  12
ATOM     12  C   UNL     1       0.714   0.781   0.066  1.00  0.00     0.122 A 
ATOM     13  C   UNL     1       2.481  -1.099  -0.203  1.00  0.00     0.048 C 
ATOM     14  C   UNL     1       1.096  -0.557  -0.038  1.00  0.00    -0.009 A 
ATOM     15  C   UNL     1       0.094  -1.552  -0.014  1.00  0.00     0.007 A 
ATOM     16  C   UNL     1      -1.262  -1.246   0.020  1.00  0.00     0.001 A 
ATOM     17  C   UNL     1      -0.671   1.087   0.018  1.00  0.00     0.047 A 
ATOM     18  C   UNL     1      -1.651   0.082   0.004  1.00  0.00     0.004 A 
ENDBRANCH  11  12
ENDBRANCH  10  11
ENDBRANCH   7  10
ENDBRANCH   5   6
BRANCH   5  19
ATOM     19  C   UNL     1      -0.108   4.109   3.946  1.00  0.00     0.074 C 
BRANCH  19  20
ATOM     20  C   UNL     1      -0.115   2.510   5.152  1.00  0.00    -0.020 A 
ATOM     21  C   UNL     1       0.321   2.620   6.556  1.00  0.00     0.087 A 
ATOM     22  C   UNL     1       0.035   0.966   5.121  1.00  0.00     0.003 A 
ATOM     23  N   UNL     1       0.704   1.527   7.205  1.00  0.00    -0.361 N 
ATOM     24  C   UNL     1       0.467   0.490   6.405  1.00  0.00     0.046 A 
ATOM     25  C   UNL     1      -0.078  -0.100   4.202  1.00  0.00     0.010 A 
ATOM     26  H   UNL     1       1.091   1.491   8.109  1.00  0.00     0.166 HD
ATOM     27  C   UNL     1       0.694  -0.809   6.842  1.00  0.00     0.026 A 
ATOM     28  C   UNL     1       0.110  -1.456   4.639  1.00  0.00     0.001 A 
ATOM     29  C   UNL     1       0.467  -1.806   5.941  1.00  0.00     0.002 A 
ENDBRANCH  19  20
ENDBRANCH   5  19
ENDBRANCH   3   5
ENDBRANCH   2   3
ENDBRANCH   1   2
BRANCH   1  30
ATOM     30  C   UNL     1       5.981   6.241   4.296  1.00  0.00     0.275 C 
BRANCH  30  31
ATOM     31  O   UNL     1       6.109   5.663   2.921  1.00  0.00    -0.458 OA
BRANCH  31  32
ATOM     32  C   UNL     1       5.292   4.950   2.063  1.00  0.00     0.338 C 
ATOM     33  O   UNL     1       5.698   4.495   1.000  1.00  0.00    -0.246 OA
BRANCH  32  34
ATOM     34  C   UNL     1       4.000   4.499   2.595  1.00  0.00     0.060 A 
ATOM     35  C   UNL     1       2.513   3.931   1.788  1.00  0.00     0.016 A 
ATOM     36  C   UNL     1       4.197   4.328   4.314  1.00  0.00     0.016 A 
ATOM     37  C   UNL     1       1.270   3.108   2.947  1.00  0.00     0.010 A 
ATOM     38  C   UNL     1       3.074   4.059   5.378  1.00  0.00     0.010 A 
ATOM     39  C   UNL     1       1.645   3.602   4.847  1.00  0.00    -0.014 A 
BRANCH  39  40
ATOM     40  C   UNL     1       0.703   5.048   5.788  1.00  0.00     0.031 A 
ATOM     41  C   UNL     1      -0.961   4.706   6.390  1.00  0.00     0.074 A 
ATOM     42  C   UNL     1       0.763   6.467   6.024  1.00  0.00     0.049 A 
ATOM     43  N   UNL     1      -1.117   4.881   7.666  1.00  0.00    -0.248 NA
ATOM     44  C   UNL     1      -2.115   3.790   5.882  1.00  0.00     0.031 C 
ATOM     45  C   UNL     1       0.115   7.185   7.181  1.00  0.00     0.029 A 
ATOM     46  N   UNL     1       1.277   7.661   5.448  1.00  0.00    -0.354 N 
ATOM     47  C   UNL     1      -2.072   4.013   8.114  1.00  0.00     0.074 A 
ATOM     48  C   UNL     1      -2.547   3.221   7.023  1.00  0.00     0.031 C 
ATOM     49  C   UNL     1      -0.039   8.502   6.942  1.00  0.00     0.029 A 
ATOM     50  C   UNL     1       0.366   8.723   5.588  1.00  0.00     0.049 A 
ATOM     51  H   UNL     1       2.155   7.734   5.008  1.00  0.00     0.167 HD
ATOM     52  C   UNL     1      -2.737   4.320   9.235  1.00  0.00     0.031 A 
ATOM     53  C   UNL     1      -0.303   9.477   4.647  1.00  0.00     0.031 A 
ATOM     54  C   UNL     1      -2.897   5.752   9.278  1.00  0.00     0.049 A 
ATOM     55  C   UNL     1      -1.777   9.550   5.018  1.00  0.00     0.074 A 
ATOM     56  C   UNL     1      -2.191   6.806   9.817  1.00  0.00     0.029 A 
ATOM     57  N   UNL     1      -3.638   6.267   8.228  1.00  0.00    -0.354 N 
ATOM     58  N   UNL     1      -2.320   8.635   5.778  1.00  0.00    -0.248 NA
ATOM     59  C   UNL     1      -2.735  10.594   4.650  1.00  0.00     0.031 C 
ATOM     60  C   UNL     1      -2.554   7.974   9.070  1.00  0.00     0.029 A 
ATOM     61  C   UNL     1      -3.478   7.620   8.096  1.00  0.00     0.049 A 
ATOM     62  H   UNL     1      -4.213   5.722   7.644  1.00  0.00     0.167 HD
ATOM     63  C   UNL     1      -3.578   9.015   6.137  1.00  0.00     0.074 A 
ATOM     64  C   UNL     1      -3.825  10.208   5.344  1.00  0.00     0.031 C 
ATOM     65  C   UNL     1      -4.274   8.331   7.092  1.00  0.00     0.031 A 
BRANCH  52  66
ATOM     66  C   UNL     1      -2.991   3.312  10.291  1.00  0.00    -0.014 A 
ATOM     67  C   UNL     1      -3.594   3.783  11.461  1.00  0.00     0.010 A 
ATOM     68  C   UNL     1      -2.525   1.973  10.272  1.00  0.00     0.010 A 
ATOM     69  C   UNL     1      -3.719   2.974  12.586  1.00  0.00     0.020 A 
ATOM     70  C   UNL     1      -2.665   1.143  11.400  1.00  0.00     0.020 A 
ATOM     71  C   UNL     1      -3.256   1.661  12.553  1.00  0.00     0.054 A 
BRANCH  71  72
ATOM     72  S   UNL     1      -3.445   0.679  14.062  1.00  0.00     0.124 S 
ATOM     73  O   UNL     1      -2.619   1.417  15.016  1.00  0.00    -0.237 OA
ATOM     74  O   UNL     1      -4.885   0.745  14.296  1.00  0.00    -0.237 OA
ATOM     75  O   UNL     1      -2.935  -0.638  13.691  1.00  0.00    -0.744 OA
ENDBRANCH  71  72
ENDBRANCH  52  66
BRANCH  53  76
ATOM     76  C   UNL     1       0.219   9.575   3.239  1.00  0.00    -0.014 A 
ATOM     77  C   UNL     1       1.465  10.211   3.031  1.00  0.00     0.010 A 
ATOM     78  C   UNL     1      -0.257   8.703   2.237  1.00  0.00     0.010 A 
ATOM     79  C   UNL     1       2.330   9.783   2.008  1.00  0.00     0.020 A 
ATOM     80  C   UNL     1       0.602   8.287   1.188  1.00  0.00     0.020 A 
ATOM     81  C   UNL     1       1.919   8.775   1.130  1.00  0.00     0.054 A 
BRANCH  81  82
ATOM     82  S   UNL     1       3.228   7.798   0.283  1.00  0.00     0.124 S 
ATOM     83  O   UNL     1       3.467   8.579  -0.924  1.00  0.00    -0.237 OA
ATOM     84  O   UNL     1       4.325   7.795   1.250  1.00  0.00    -0.237 OA
ATOM     85  O   UNL     1       2.601   6.494   0.079  1.00  0.00    -0.744 OA
ENDBRANCH  81  82
ENDBRANCH  53  76
BRANCH  65  86
ATOM     86  C   UNL     1      -5.782   8.276   7.201  1.00  0.00    -0.014 A 
ATOM     87  C   UNL     1      -6.657   9.090   6.479  1.00  0.00     0.010 A 
ATOM     88  C   UNL     1      -6.389   7.292   8.027  1.00  0.00     0.010 A 
ATOM     89  C   UNL     1      -8.042   8.990   6.634  1.00  0.00     0.020 A 
ATOM     90  C   UNL     1      -7.765   7.134   8.142  1.00  0.00     0.020 A 
ATOM     91  C   UNL     1      -8.585   8.017   7.468  1.00  0.00     0.054 A 
BRANCH  91  92
ATOM     92  S   UNL     1     -10.367   7.953   7.679  1.00  0.00     0.124 S 
ATOM     93  O   UNL     1     -10.636   9.238   8.319  1.00  0.00    -0.237 OA
ATOM     94  O   UNL     1     -10.834   7.824   6.301  1.00  0.00    -0.237 OA
ATOM     95  O   UNL     1     -10.579   6.778   8.520  1.00  0.00    -0.744 OA
ENDBRANCH  91  92
ENDBRANCH  65  86
ENDBRANCH  39  40
ENDBRANCH  32  34
ENDBRANCH  31  32
ENDBRANCH  30  31
ENDBRANCH   1  30
TORSDOF 20
