REMARK SMILES O=C(OCCOC(=O)C1CCN(c2nc(-c3ccc(F)cc3)cc(C(F)F)n2)CC1)c1ccc(-c2c3nc(c(-c4ccc(S(=O)(=O)[O-])cc4)c4ccc([nH]4)c(-c4ccc(S(=O)(=O)[O-])cc4)c4nc(c(-c5ccc(S(=O)(=O)[O-])cc5)c5ccc2[nH]5)C=C4)C=C3)cc1
REMARK SMILES IDX 4 1 3 2 2 3 1 4 31 5 32 6 90 7 33 8 89 9 34 10 35 11 36 12
REMARK SMILES IDX 83 13 37 14 88 15 82 16 84 17 38 18 87 19 81 20 80 21 39 23
REMARK SMILES IDX 69 24 50 25 68 26 51 27 54 28 67 29 85 30 52 31 53 32 66 34
REMARK SMILES IDX 86 35 55 36 40 37 41 38 49 39 42 40 48 41 43 42 44 43 45 44
REMARK SMILES IDX 46 45 47 46 70 47 71 48 79 49 72 50 78 51 73 52 74 53 75 54
REMARK SMILES IDX 76 55 77 56 56 57 57 58 65 59 58 60 64 61 59 62 60 63 61 64
REMARK SMILES IDX 62 65 63 66 5 67 6 68 7 69 8 70 9 71 10 72 30 73 11 74 29 75
REMARK SMILES IDX 12 76 13 77 14 78 28 79 15 80 24 81 23 82 16 83 17 84 22 85
REMARK SMILES IDX 18 86 21 87 19 88 20 89 25 90 26 91 27 92
REMARK H PARENT 84 22 54 33
REMARK Flexibility Score: inf
ROOT
ATOM      1  C   UNL     1       4.303  -1.974   0.218  1.00  0.00     0.275 C 
ENDROOT
BRANCH   1   2
ATOM      2  O   UNL     1       3.777  -1.112   1.256  1.00  0.00    -0.458 OA
BRANCH   2   3
ATOM      3  C   UNL     1       3.456   0.197   1.153  1.00  0.00     0.338 C 
ATOM      4  O   UNL     1       2.791   0.770   2.004  1.00  0.00    -0.246 OA
BRANCH   3   5
ATOM      5  C   UNL     1       3.842   0.930  -0.054  1.00  0.00     0.060 A 
ATOM      6  C   UNL     1       5.461   1.134  -0.596  1.00  0.00     0.016 A 
ATOM      7  C   UNL     1       2.565   1.633  -1.026  1.00  0.00     0.016 A 
ATOM      8  C   UNL     1       5.873   1.916  -2.086  1.00  0.00     0.010 A 
ATOM      9  C   UNL     1       3.006   2.491  -2.733  1.00  0.00     0.010 A 
ATOM     10  C   UNL     1       4.727   2.659  -3.167  1.00  0.00    -0.014 A 
BRANCH  10  11
ATOM     11  C   UNL     1       5.239   3.624  -4.178  1.00  0.00     0.031 A 
ATOM     12  C   UNL     1       6.010   4.859  -3.727  1.00  0.00     0.074 A 
ATOM     13  C   UNL     1       5.008   3.414  -5.484  1.00  0.00     0.049 A 
ATOM     14  N   UNL     1       6.293   5.959  -4.382  1.00  0.00    -0.248 NA
ATOM     15  C   UNL     1       6.489   4.901  -2.338  1.00  0.00     0.031 C 
ATOM     16  C   UNL     1       4.388   2.219  -6.055  1.00  0.00     0.029 A 
ATOM     17  N   UNL     1       5.303   4.192  -6.574  1.00  0.00    -0.354 N 
ATOM     18  C   UNL     1       6.806   6.849  -3.434  1.00  0.00     0.074 A 
ATOM     19  C   UNL     1       6.810   6.169  -2.173  1.00  0.00     0.031 C 
ATOM     20  C   UNL     1       4.351   2.342  -7.392  1.00  0.00     0.029 A 
ATOM     21  C   UNL     1       4.904   3.641  -7.768  1.00  0.00     0.049 A 
ATOM     22  H   UNL     1       5.758   5.063  -6.508  1.00  0.00     0.167 HD
ATOM     23  C   UNL     1       7.227   8.125  -3.600  1.00  0.00     0.031 A 
ATOM     24  C   UNL     1       4.971   4.136  -9.020  1.00  0.00     0.031 A 
ATOM     25  C   UNL     1       7.362   8.718  -4.901  1.00  0.00     0.049 A 
ATOM     26  C   UNL     1       5.608   5.484  -9.222  1.00  0.00     0.074 A 
ATOM     27  C   UNL     1       7.810   9.979  -5.238  1.00  0.00     0.029 A 
ATOM     28  N   UNL     1       7.087   8.051  -6.088  1.00  0.00    -0.354 N 
ATOM     29  N   UNL     1       6.068   6.317  -8.316  1.00  0.00    -0.248 NA
ATOM     30  C   UNL     1       5.765   5.949 -10.605  1.00  0.00     0.031 C 
ATOM     31  C   UNL     1       7.745  10.098  -6.629  1.00  0.00     0.029 A 
ATOM     32  C   UNL     1       7.317   8.889  -7.159  1.00  0.00     0.049 A 
ATOM     33  H   UNL     1       6.776   7.119  -6.155  1.00  0.00     0.167 HD
ATOM     34  C   UNL     1       6.587   7.397  -9.019  1.00  0.00     0.074 A 
ATOM     35  C   UNL     1       6.400   7.102 -10.427  1.00  0.00     0.031 C 
ATOM     36  C   UNL     1       7.157   8.533  -8.546  1.00  0.00     0.031 A 
BRANCH  23  37
ATOM     37  C   UNL     1       7.468   8.970  -2.364  1.00  0.00    -0.014 A 
ATOM     38  C   UNL     1       8.447   8.668  -1.401  1.00  0.00     0.010 A 
ATOM     39  C   UNL     1       6.648  10.097  -2.149  1.00  0.00     0.010 A 
ATOM     40  C   UNL     1       8.537   9.405  -0.213  1.00  0.00     0.020 A 
ATOM     41  C   UNL     1       6.768  10.870  -0.989  1.00  0.00     0.020 A 
ATOM     42  C   UNL     1       7.689  10.497  -0.011  1.00  0.00     0.054 A 
BRANCH  42  43
ATOM     43  S   UNL     1       7.825  11.448   1.529  1.00  0.00     0.124 S 
ATOM     44  O   UNL     1       7.167  10.566   2.487  1.00  0.00    -0.237 OA
ATOM     45  O   UNL     1       9.270  11.590   1.692  1.00  0.00    -0.237 OA
ATOM     46  O   UNL     1       7.110  12.686   1.228  1.00  0.00    -0.744 OA
ENDBRANCH  42  43
ENDBRANCH  23  37
BRANCH  24  47
ATOM     47  C   UNL     1       4.458   3.308 -10.147  1.00  0.00    -0.014 A 
ATOM     48  C   UNL     1       5.346   2.613 -10.987  1.00  0.00     0.010 A 
ATOM     49  C   UNL     1       3.074   3.089 -10.290  1.00  0.00     0.010 A 
ATOM     50  C   UNL     1       4.863   1.684 -11.916  1.00  0.00     0.020 A 
ATOM     51  C   UNL     1       2.589   2.145 -11.202  1.00  0.00     0.020 A 
ATOM     52  C   UNL     1       3.489   1.438 -12.002  1.00  0.00     0.054 A 
BRANCH  52  53
ATOM     53  S   UNL     1       2.905   0.105 -13.089  1.00  0.00     0.124 S 
ATOM     54  O   UNL     1       3.103   0.682 -14.415  1.00  0.00    -0.237 OA
ATOM     55  O   UNL     1       3.797  -0.998 -12.739  1.00  0.00    -0.237 OA
ATOM     56  O   UNL     1       1.513  -0.080 -12.687  1.00  0.00    -0.744 OA
ENDBRANCH  52  53
ENDBRANCH  24  47
BRANCH  36  57
ATOM     57  C   UNL     1       7.665   9.531  -9.544  1.00  0.00    -0.014 A 
ATOM     58  C   UNL     1       6.780  10.370 -10.238  1.00  0.00     0.010 A 
ATOM     59  C   UNL     1       9.053   9.726  -9.668  1.00  0.00     0.010 A 
ATOM     60  C   UNL     1       7.277  11.389 -11.052  1.00  0.00     0.020 A 
ATOM     61  C   UNL     1       9.552  10.756 -10.464  1.00  0.00     0.020 A 
ATOM     62  C   UNL     1       8.660  11.579 -11.155  1.00  0.00     0.054 A 
BRANCH  62  63
ATOM     63  S   UNL     1       9.276  12.963 -12.149  1.00  0.00     0.124 S 
ATOM     64  O   UNL     1       9.040  12.487 -13.509  1.00  0.00    -0.237 OA
ATOM     65  O   UNL     1       8.428  14.070 -11.713  1.00  0.00    -0.237 OA
ATOM     66  O   UNL     1      10.680  13.071 -11.760  1.00  0.00    -0.744 OA
ENDBRANCH  62  63
ENDBRANCH  36  57
ENDBRANCH  10  11
ENDBRANCH   3   5
ENDBRANCH   2   3
ENDBRANCH   1   2
BRANCH   1  67
ATOM     67  C   UNL     1       3.210  -2.542  -0.705  1.00  0.00     0.274 C 
BRANCH  67  68
ATOM     68  O   UNL     1       2.966  -1.651  -1.811  1.00  0.00    -0.462 OA
BRANCH  68  69
ATOM     69  C   UNL     1       1.829  -0.896  -1.841  1.00  0.00     0.309 C 
ATOM     70  O   UNL     1       0.814  -1.138  -1.208  1.00  0.00    -0.252 OA
BRANCH  69  71
ATOM     71  C   UNL     1       2.093   0.367  -2.693  1.00  0.00     0.103 C 
ATOM     72  C   UNL     1       3.882   0.908  -2.207  1.00  0.00     0.037 C 
ATOM     73  C   UNL     1       0.770   1.637  -2.499  1.00  0.00     0.037 C 
ATOM     74  C   UNL     1       4.022   2.834  -1.138  1.00  0.00     0.120 C 
ATOM     75  C   UNL     1       0.979   3.278  -1.687  1.00  0.00     0.120 C 
ATOM     76  N   UNL     1       2.474   3.861  -1.145  1.00  0.00    -0.341 N 
BRANCH  76  77
ATOM     77  C   UNL     1       2.744   5.186  -1.533  1.00  0.00     0.226 A 
ATOM     78  N   UNL     1       2.512   5.566  -2.809  1.00  0.00    -0.213 NA
ATOM     79  N   UNL     1       3.287   5.996  -0.621  1.00  0.00    -0.212 NA
ATOM     80  C   UNL     1       2.885   6.814  -3.192  1.00  0.00     0.076 A 
ATOM     81  C   UNL     1       3.564   7.274  -0.984  1.00  0.00     0.112 A 
ATOM     82  C   UNL     1       3.383   7.720  -2.277  1.00  0.00     0.059 A 
BRANCH  80  83
ATOM     83  C   UNL     1       2.740   7.168  -4.629  1.00  0.00     0.001 A 
ATOM     84  C   UNL     1       3.637   8.059  -5.261  1.00  0.00     0.013 A 
ATOM     85  C   UNL     1       1.703   6.649  -5.424  1.00  0.00     0.013 A 
ATOM     86  C   UNL     1       3.501   8.430  -6.603  1.00  0.00     0.040 A 
ATOM     87  C   UNL     1       1.554   7.027  -6.768  1.00  0.00     0.040 A 
ATOM     88  C   UNL     1       2.454   7.915  -7.344  1.00  0.00     0.123 A 
ATOM     89  F   UNL     1       2.297   8.285  -8.622  1.00  0.00    -0.207 F 
ENDBRANCH  80  83
BRANCH  81  90
ATOM     90  C   UNL     1       4.057   8.232   0.082  1.00  0.00     0.391 C 
ATOM     91  F   UNL     1       3.089   8.519   1.001  1.00  0.00    -0.203 F 
ATOM     92  F   UNL     1       5.117   7.739   0.778  1.00  0.00    -0.203 F 
ENDBRANCH  81  90
ENDBRANCH  76  77
ENDBRANCH  69  71
ENDBRANCH  68  69
ENDBRANCH  67  68
ENDBRANCH   1  67
TORSDOF 17
