REMARK SMILES CN1C(=O)N(CC(=O)OCCOC(=O)c2ccc(-c3c4nc(c(-c5ccc(S(=O)(=O)[O-])cc5)c5ccc([nH]5)c(-c5ccc(S(=O)(=O)[O-])cc5)c5nc(c(-c6ccc(S(=O)(=O)[O-])cc6)c6ccc3[nH]6)C=C5)C=C4)cc2)C(=O)C12CCCCC2
REMARK SMILES IDX 11 1 10 2 9 3 7 4 8 5 6 6 5 7 1 8 2 9 3 10 77 11 4 12 75 13
REMARK SMILES IDX 78 14 82 15 76 16 79 17 81 18 80 19 12 20 13 21 14 22 15 23
REMARK SMILES IDX 16 24 74 25 17 26 73 27 18 28 19 29 20 30 67 31 21 32 72 33
REMARK SMILES IDX 66 34 68 35 22 36 71 37 65 38 64 39 23 41 53 42 34 43 52 44
REMARK SMILES IDX 35 45 38 46 51 47 69 48 36 49 37 50 50 52 70 53 39 54 24 55
REMARK SMILES IDX 25 56 33 57 26 58 32 59 27 60 28 61 29 62 30 63 31 64 54 65
REMARK SMILES IDX 55 66 63 67 56 68 62 69 57 70 58 71 59 72 60 73 61 74 40 75
REMARK SMILES IDX 41 76 49 77 42 78 48 79 43 80 44 81 45 82 46 83 47 84
REMARK H PARENT 68 40 38 51
REMARK Flexibility Score: inf
ROOT
ATOM      1  C   UNL     1      -0.539   4.941   0.169  1.00  0.00     0.275 C 
ENDROOT
BRANCH   1   2
ATOM      2  C   UNL     1      -1.740   4.624  -0.719  1.00  0.00     0.274 C 
BRANCH   2   3
ATOM      3  O   UNL     1      -1.378   3.614  -1.682  1.00  0.00    -0.461 OA
BRANCH   3   4
ATOM      4  C   UNL     1      -1.087   4.051  -2.944  1.00  0.00     0.326 C 
ATOM      5  O   UNL     1      -1.284   5.193  -3.344  1.00  0.00    -0.250 OA
BRANCH   4   6
ATOM      6  C   UNL     1      -0.455   2.971  -3.824  1.00  0.00     0.253 C 
BRANCH   6   7
ATOM      7  N   UNL     1      -0.295   1.731  -3.103  1.00  0.00    -0.251 N 
ATOM      8  C   UNL     1       1.160  -0.116  -0.382  1.00  0.00     0.150 C 
ATOM      9  N   UNL     1       0.419   0.310  -1.550  1.00  0.00    -0.313 N 
ATOM     10  C   UNL     1       0.704   1.492  -2.212  1.00  0.00     0.327 C 
ATOM     11  C   UNL     1      -0.855  -0.274  -1.978  1.00  0.00     0.124 C 
ATOM     12  O   UNL     1       1.656   2.226  -2.000  1.00  0.00    -0.248 OA
ATOM     13  C   UNL     1      -1.210   0.728  -3.099  1.00  0.00     0.257 C 
ATOM     14  C   UNL     1      -0.680  -1.695  -2.521  1.00  0.00     0.039 C 
ATOM     15  C   UNL     1      -1.933  -0.191  -0.888  1.00  0.00     0.039 C 
ATOM     16  O   UNL     1      -2.192   0.676  -3.829  1.00  0.00    -0.272 OA
ATOM     17  C   UNL     1      -2.001  -2.340  -2.938  1.00  0.00     0.003 C 
ATOM     18  C   UNL     1      -3.256  -0.823  -1.326  1.00  0.00     0.003 C 
ATOM     19  C   UNL     1      -3.068  -2.243  -1.851  1.00  0.00     0.000 C 
ENDBRANCH   6   7
ENDBRANCH   4   6
ENDBRANCH   3   4
ENDBRANCH   2   3
ENDBRANCH   1   2
BRANCH   1  20
ATOM     20  O   UNL     1       0.554   5.346  -0.668  1.00  0.00    -0.458 OA
BRANCH  20  21
ATOM     21  C   UNL     1       1.774   4.881  -0.306  1.00  0.00     0.338 C 
ATOM     22  O   UNL     1       2.047   4.262   0.708  1.00  0.00    -0.246 OA
BRANCH  21  23
ATOM     23  C   UNL     1       2.768   5.330  -1.306  1.00  0.00     0.060 A 
ATOM     24  C   UNL     1       2.486   5.308  -2.676  1.00  0.00     0.016 A 
ATOM     25  C   UNL     1       4.017   5.758  -0.860  1.00  0.00     0.016 A 
ATOM     26  C   UNL     1       3.463   5.668  -3.604  1.00  0.00     0.010 A 
ATOM     27  C   UNL     1       4.968   6.191  -1.785  1.00  0.00     0.010 A 
ATOM     28  C   UNL     1       4.709   6.132  -3.166  1.00  0.00    -0.014 A 
BRANCH  28  29
ATOM     29  C   UNL     1       5.766   6.536  -4.128  1.00  0.00     0.031 A 
ATOM     30  C   UNL     1       7.072   5.789  -4.153  1.00  0.00     0.074 A 
ATOM     31  C   UNL     1       5.580   7.593  -4.942  1.00  0.00     0.049 A 
ATOM     32  N   UNL     1       8.193   6.102  -4.750  1.00  0.00    -0.248 NA
ATOM     33  C   UNL     1       7.125   4.530  -3.392  1.00  0.00     0.031 C 
ATOM     34  C   UNL     1       4.345   8.371  -5.060  1.00  0.00     0.029 A 
ATOM     35  N   UNL     1       6.441   8.205  -5.819  1.00  0.00    -0.354 N 
ATOM     36  C   UNL     1       9.097   5.105  -4.402  1.00  0.00     0.074 A 
ATOM     37  C   UNL     1       8.397   4.185  -3.531  1.00  0.00     0.031 C 
ATOM     38  C   UNL     1       4.524   9.346  -5.965  1.00  0.00     0.029 A 
ATOM     39  C   UNL     1       5.905   9.312  -6.434  1.00  0.00     0.049 A 
ATOM     40  H   UNL     1       7.355   7.882  -5.991  1.00  0.00     0.167 HD
ATOM     41  C   UNL     1      10.393   4.970  -4.773  1.00  0.00     0.031 A 
ATOM     42  C   UNL     1       6.470  10.222  -7.250  1.00  0.00     0.031 A 
ATOM     43  C   UNL     1      11.079   5.883  -5.649  1.00  0.00     0.049 A 
ATOM     44  C   UNL     1       7.929  10.094  -7.593  1.00  0.00     0.074 A 
ATOM     45  C   UNL     1      12.391   5.836  -6.088  1.00  0.00     0.029 A 
ATOM     46  N   UNL     1      10.505   7.007  -6.226  1.00  0.00    -0.354 N 
ATOM     47  N   UNL     1       8.783   9.168  -7.225  1.00  0.00    -0.248 NA
ATOM     48  C   UNL     1       8.502  11.139  -8.452  1.00  0.00     0.031 C 
ATOM     49  C   UNL     1      12.621   6.954  -6.898  1.00  0.00     0.029 A 
ATOM     50  C   UNL     1      11.438   7.668  -7.005  1.00  0.00     0.049 A 
ATOM     51  H   UNL     1       9.571   7.292  -6.099  1.00  0.00     0.167 HD
ATOM     52  C   UNL     1       9.989   9.506  -7.829  1.00  0.00     0.074 A 
ATOM     53  C   UNL     1       9.751  10.715  -8.591  1.00  0.00     0.031 C 
ATOM     54  C   UNL     1      11.184   8.870  -7.760  1.00  0.00     0.031 A 
BRANCH  41  55
ATOM     55  C   UNL     1      11.161   3.811  -4.195  1.00  0.00    -0.014 A 
ATOM     56  C   UNL     1      10.909   2.489  -4.605  1.00  0.00     0.010 A 
ATOM     57  C   UNL     1      12.161   4.050  -3.234  1.00  0.00     0.010 A 
ATOM     58  C   UNL     1      11.608   1.424  -4.028  1.00  0.00     0.020 A 
ATOM     59  C   UNL     1      12.880   2.990  -2.674  1.00  0.00     0.020 A 
ATOM     60  C   UNL     1      12.583   1.681  -3.059  1.00  0.00     0.054 A 
BRANCH  60  61
ATOM     61  S   UNL     1      13.474   0.282  -2.324  1.00  0.00     0.124 S 
ATOM     62  O   UNL     1      12.470  -0.272  -1.419  1.00  0.00    -0.237 OA
ATOM     63  O   UNL     1      13.794  -0.543  -3.486  1.00  0.00    -0.237 OA
ATOM     64  O   UNL     1      14.623   0.906  -1.672  1.00  0.00    -0.744 OA
ENDBRANCH  60  61
ENDBRANCH  41  55
BRANCH  42  65
ATOM     65  C   UNL     1       5.657  11.350  -7.779  1.00  0.00    -0.014 A 
ATOM     66  C   UNL     1       5.300  11.391  -9.138  1.00  0.00     0.010 A 
ATOM     67  C   UNL     1       5.214  12.376  -6.924  1.00  0.00     0.010 A 
ATOM     68  C   UNL     1       4.521  12.441  -9.634  1.00  0.00     0.020 A 
ATOM     69  C   UNL     1       4.413  13.413  -7.411  1.00  0.00     0.020 A 
ATOM     70  C   UNL     1       4.080  13.444  -8.766  1.00  0.00     0.054 A 
BRANCH  70  71
ATOM     71  S   UNL     1       3.018  14.762  -9.419  1.00  0.00     0.124 S 
ATOM     72  O   UNL     1       3.973  15.585 -10.153  1.00  0.00    -0.237 OA
ATOM     73  O   UNL     1       2.061  14.021 -10.238  1.00  0.00    -0.237 OA
ATOM     74  O   UNL     1       2.455  15.374  -8.218  1.00  0.00    -0.744 OA
ENDBRANCH  70  71
ENDBRANCH  42  65
BRANCH  54  75
ATOM     75  C   UNL     1      12.318   9.442  -8.566  1.00  0.00    -0.014 A 
ATOM     76  C   UNL     1      12.985  10.610  -8.159  1.00  0.00     0.010 A 
ATOM     77  C   UNL     1      12.757   8.765  -9.718  1.00  0.00     0.010 A 
ATOM     78  C   UNL     1      14.059  11.105  -8.905  1.00  0.00     0.020 A 
ATOM     79  C   UNL     1      13.844   9.243 -10.453  1.00  0.00     0.020 A 
ATOM     80  C   UNL     1      14.482  10.417 -10.048  1.00  0.00     0.054 A 
BRANCH  80  81
ATOM     81  S   UNL     1      15.910  11.049 -10.970  1.00  0.00     0.124 S 
ATOM     82  O   UNL     1      15.338  12.194 -11.672  1.00  0.00    -0.237 OA
ATOM     83  O   UNL     1      16.861  11.373  -9.909  1.00  0.00    -0.237 OA
ATOM     84  O   UNL     1      16.296   9.925 -11.821  1.00  0.00    -0.744 OA
ENDBRANCH  80  81
ENDBRANCH  54  75
ENDBRANCH  28  29
ENDBRANCH  21  23
ENDBRANCH  20  21
ENDBRANCH   1  20
TORSDOF 15
