REMARK SMILES CC1(C)[C@H](C(=O)Nc2cccc3[nH]ccc23)[C@H]1C(=O)OCCOC(=O)c1ccc(-c2c3nc(c(-c4ccc(S(=O)(=O)[O-])cc4)c4ccc([nH]4)c(-c4ccc(S(=O)(=O)[O-])cc4)c4nc(c(-c5ccc(S(=O)(=O)[O-])cc5)c5ccc2[nH]5)C=C4)C=C3)cc1
REMARK SMILES IDX 22 1 21 2 20 3 18 4 19 5 17 6 1 7 2 8 3 9 4 10 5 11 6 12
REMARK SMILES IDX 7 13 8 15 9 16 16 17 10 18 12 19 15 20 11 21 13 22 14 23
REMARK SMILES IDX 23 25 24 26 25 27 26 28 27 29 85 30 28 31 84 32 29 33 30 34
REMARK SMILES IDX 31 35 78 36 32 37 83 38 77 39 79 40 33 41 82 42 76 43 75 44
REMARK SMILES IDX 34 46 64 47 45 48 63 49 46 50 49 51 62 52 80 53 47 54 48 55
REMARK SMILES IDX 61 57 81 58 50 59 35 60 36 61 44 62 37 63 43 64 38 65 39 66
REMARK SMILES IDX 40 67 41 68 42 69 65 70 66 71 74 72 67 73 73 74 68 75 69 76
REMARK SMILES IDX 70 77 71 78 72 79 51 80 52 81 60 82 53 83 59 84 54 85 55 86
REMARK SMILES IDX 56 87 57 88 58 89
REMARK H PARENT 7 14 13 24 79 45 49 56
REMARK Flexibility Score: inf
ROOT
ATOM      1  C   UNL     1      -1.526  -3.075   3.829  1.00  0.00     0.275 C 
ENDROOT
BRANCH   1   2
ATOM      2  C   UNL     1      -2.064  -3.145   2.401  1.00  0.00     0.274 C 
BRANCH   2   3
ATOM      3  O   UNL     1      -1.287  -2.272   1.564  1.00  0.00    -0.462 OA
BRANCH   3   4
ATOM      4  C   UNL     1      -1.944  -1.257   0.951  1.00  0.00     0.310 C 
ATOM      5  O   UNL     1      -3.152  -1.080   0.937  1.00  0.00    -0.252 OA
BRANCH   4   6
ATOM      6  C   UNL     1      -1.018  -0.265   0.362  1.00  0.00     0.118 C 
ATOM      7  C   UNL     1       0.696  -2.046  -0.580  1.00  0.00     0.013 C 
ATOM      8  C   UNL     1       0.289  -0.613  -0.333  1.00  0.00    -0.009 C 
ATOM      9  C   UNL     1       1.465   0.247   0.056  1.00  0.00     0.013 C 
ATOM     10  C   UNL     1      -0.924  -0.113  -1.129  1.00  0.00     0.100 C 
BRANCH  10  11
ATOM     11  C   UNL     1      -1.030   1.191  -1.852  1.00  0.00     0.228 C 
ATOM     12  O   UNL     1      -0.778   1.210  -3.052  1.00  0.00    -0.274 OA
ATOM     13  N   UNL     1      -1.704   2.216  -1.228  1.00  0.00    -0.325 N 
ATOM     14  H   UNL     1      -2.675   2.275  -1.380  1.00  0.00     0.169 HD
BRANCH  13  15
ATOM     15  C   UNL     1      -1.122   3.191  -0.388  1.00  0.00     0.050 A 
ATOM     16  C   UNL     1       0.264   3.274  -0.214  1.00  0.00     0.027 A 
ATOM     17  C   UNL     1      -1.934   4.135   0.286  1.00  0.00     0.023 A 
ATOM     18  C   UNL     1       0.834   4.142   0.714  1.00  0.00     0.004 A 
ATOM     19  C   UNL     1      -1.333   5.010   1.200  1.00  0.00     0.047 A 
ATOM     20  C   UNL     1      -3.328   4.440   0.295  1.00  0.00     0.030 A 
ATOM     21  C   UNL     1       0.041   5.006   1.464  1.00  0.00     0.027 A 
ATOM     22  N   UNL     1      -2.328   5.790   1.749  1.00  0.00    -0.361 N 
ATOM     23  C   UNL     1      -3.533   5.472   1.183  1.00  0.00     0.083 A 
ATOM     24  H   UNL     1      -2.192   6.474   2.444  1.00  0.00     0.166 HD
ENDBRANCH  13  15
ENDBRANCH  10  11
ENDBRANCH   4   6
ENDBRANCH   3   4
ENDBRANCH   2   3
ENDBRANCH   1   2
BRANCH   1  25
ATOM     25  O   UNL     1      -1.776  -1.772   4.391  1.00  0.00    -0.458 OA
BRANCH  25  26
ATOM     26  C   UNL     1      -0.747  -0.899   4.289  1.00  0.00     0.338 C 
ATOM     27  O   UNL     1       0.369  -1.111   3.844  1.00  0.00    -0.246 OA
BRANCH  26  28
ATOM     28  C   UNL     1      -1.190   0.433   4.715  1.00  0.00     0.060 A 
ATOM     29  C   UNL     1      -1.677   1.303   3.746  1.00  0.00     0.016 A 
ATOM     30  C   UNL     1      -0.990   0.875   6.022  1.00  0.00     0.016 A 
ATOM     31  C   UNL     1      -1.866   2.645   4.052  1.00  0.00     0.010 A 
ATOM     32  C   UNL     1      -1.259   2.213   6.345  1.00  0.00     0.010 A 
ATOM     33  C   UNL     1      -1.652   3.127   5.351  1.00  0.00    -0.014 A 
BRANCH  33  34
ATOM     34  C   UNL     1      -1.784   4.589   5.623  1.00  0.00     0.031 A 
ATOM     35  C   UNL     1      -0.601   5.383   6.122  1.00  0.00     0.074 A 
ATOM     36  C   UNL     1      -2.941   5.231   5.362  1.00  0.00     0.049 A 
ATOM     37  N   UNL     1      -0.545   6.645   6.473  1.00  0.00    -0.248 NA
ATOM     38  C   UNL     1       0.680   4.672   6.250  1.00  0.00     0.031 C 
ATOM     39  C   UNL     1      -4.157   4.607   4.835  1.00  0.00     0.029 A 
ATOM     40  N   UNL     1      -3.278   6.559   5.480  1.00  0.00    -0.354 N 
ATOM     41  C   UNL     1       0.755   6.859   6.922  1.00  0.00     0.074 A 
ATOM     42  C   UNL     1       1.455   5.599   6.794  1.00  0.00     0.031 C 
ATOM     43  C   UNL     1      -5.085   5.554   4.628  1.00  0.00     0.029 A 
ATOM     44  C   UNL     1      -4.565   6.839   5.081  1.00  0.00     0.049 A 
ATOM     45  H   UNL     1      -2.658   7.245   5.818  1.00  0.00     0.167 HD
ATOM     46  C   UNL     1       1.316   7.997   7.401  1.00  0.00     0.031 A 
ATOM     47  C   UNL     1      -5.267   7.989   5.101  1.00  0.00     0.031 A 
ATOM     48  C   UNL     1       0.637   9.262   7.498  1.00  0.00     0.049 A 
ATOM     49  C   UNL     1      -4.629   9.235   5.649  1.00  0.00     0.074 A 
ATOM     50  C   UNL     1       1.131  10.470   7.963  1.00  0.00     0.029 A 
ATOM     51  N   UNL     1      -0.675   9.491   7.116  1.00  0.00    -0.354 N 
ATOM     52  N   UNL     1      -3.409   9.402   6.101  1.00  0.00    -0.248 NA
ATOM     53  C   UNL     1      -5.465  10.442   5.699  1.00  0.00     0.031 C 
ATOM     54  C   UNL     1       0.105  11.419   7.897  1.00  0.00     0.029 A 
ATOM     55  C   UNL     1      -1.010  10.816   7.342  1.00  0.00     0.049 A 
ATOM     56  H   UNL     1      -1.280   8.811   6.739  1.00  0.00     0.167 HD
ATOM     57  C   UNL     1      -3.331  10.737   6.483  1.00  0.00     0.074 A 
ATOM     58  C   UNL     1      -4.615  11.337   6.182  1.00  0.00     0.031 C 
ATOM     59  C   UNL     1      -2.290  11.403   7.041  1.00  0.00     0.031 A 
BRANCH  46  60
ATOM     60  C   UNL     1       2.735   7.917   7.903  1.00  0.00    -0.014 A 
ATOM     61  C   UNL     1       3.823   7.801   7.021  1.00  0.00     0.010 A 
ATOM     62  C   UNL     1       2.981   8.002   9.287  1.00  0.00     0.010 A 
ATOM     63  C   UNL     1       5.129   7.733   7.516  1.00  0.00     0.020 A 
ATOM     64  C   UNL     1       4.286   7.961   9.784  1.00  0.00     0.020 A 
ATOM     65  C   UNL     1       5.352   7.808   8.895  1.00  0.00     0.054 A 
BRANCH  65  66
ATOM     66  S   UNL     1       7.057   7.734   9.511  1.00  0.00     0.124 S 
ATOM     67  O   UNL     1       7.371   6.316   9.352  1.00  0.00    -0.237 OA
ATOM     68  O   UNL     1       7.764   8.639   8.610  1.00  0.00    -0.237 OA
ATOM     69  O   UNL     1       6.946   8.196  10.893  1.00  0.00    -0.744 OA
ENDBRANCH  65  66
ENDBRANCH  46  60
BRANCH  47  70
ATOM     70  C   UNL     1      -6.673   8.008   4.611  1.00  0.00    -0.014 A 
ATOM     71  C   UNL     1      -7.008   8.685   3.425  1.00  0.00     0.010 A 
ATOM     72  C   UNL     1      -7.682   7.334   5.323  1.00  0.00     0.010 A 
ATOM     73  C   UNL     1      -8.328   8.694   2.965  1.00  0.00     0.020 A 
ATOM     74  C   UNL     1      -8.996   7.315   4.850  1.00  0.00     0.020 A 
ATOM     75  C   UNL     1      -9.313   8.006   3.679  1.00  0.00     0.054 A 
BRANCH  75  76
ATOM     76  S   UNL     1     -11.008   7.974   3.034  1.00  0.00     0.124 S 
ATOM     77  O   UNL     1     -11.496   9.299   3.403  1.00  0.00    -0.237 OA
ATOM     78  O   UNL     1     -10.800   7.751   1.605  1.00  0.00    -0.237 OA
ATOM     79  O   UNL     1     -11.622   6.857   3.748  1.00  0.00    -0.744 OA
ENDBRANCH  75  76
ENDBRANCH  47  70
BRANCH  59  80
ATOM     80  C   UNL     1      -2.483  12.867   7.332  1.00  0.00    -0.014 A 
ATOM     81  C   UNL     1      -3.291  13.299   8.398  1.00  0.00     0.010 A 
ATOM     82  C   UNL     1      -1.813  13.824   6.548  1.00  0.00     0.010 A 
ATOM     83  C   UNL     1      -3.455  14.664   8.653  1.00  0.00     0.020 A 
ATOM     84  C   UNL     1      -1.954  15.188   6.815  1.00  0.00     0.020 A 
ATOM     85  C   UNL     1      -2.788  15.600   7.856  1.00  0.00     0.054 A 
BRANCH  85  86
ATOM     86  S   UNL     1      -2.992  17.365   8.223  1.00  0.00     0.124 S 
ATOM     87  O   UNL     1      -4.329  17.631   7.698  1.00  0.00    -0.237 OA
ATOM     88  O   UNL     1      -2.869  17.408   9.678  1.00  0.00    -0.237 OA
ATOM     89  O   UNL     1      -1.897  17.998   7.492  1.00  0.00    -0.744 OA
ENDBRANCH  85  86
ENDBRANCH  59  80
ENDBRANCH  33  34
ENDBRANCH  26  28
ENDBRANCH  25  26
ENDBRANCH   1  25
TORSDOF 16
