REMARK SMILES O=C(OCCOC(=O)[C@H]1CC2=c3ccccc3=N[C@H]2[C@@H](c2ccccc2)[NH2+]1)c1ccc(-c2c3nc(c(-c4ccc(S(=O)(=O)[O-])cc4)c4ccc([nH]4)c(-c4ccc(S(=O)(=O)[O-])cc4)c4nc(c(-c5ccc(S(=O)(=O)[O-])cc5)c5ccc2[nH]5)C=C4)C=C3)cc1
REMARK SMILES IDX 4 1 3 2 2 3 1 4 28 5 29 6 87 7 30 8 86 9 31 10 32 11 33 12
REMARK SMILES IDX 80 13 34 14 85 15 79 16 81 17 35 18 84 19 78 20 77 21 36 23
REMARK SMILES IDX 66 24 47 25 65 26 48 27 51 28 64 29 82 30 49 31 50 32 63 34
REMARK SMILES IDX 83 35 52 36 37 37 38 38 46 39 39 40 45 41 40 42 41 43 42 44
REMARK SMILES IDX 43 45 44 46 67 47 68 48 76 49 69 50 75 51 70 52 71 53 72 54
REMARK SMILES IDX 73 55 74 56 53 57 54 58 62 59 55 60 61 61 56 62 57 63 58 64
REMARK SMILES IDX 59 65 60 66 5 67 6 68 7 69 8 70 9 71 10 72 27 73 11 74 20 75
REMARK SMILES IDX 12 78 19 79 13 80 17 81 18 82 14 83 16 84 15 85 21 86 22 87
REMARK SMILES IDX 26 88 23 89 25 90 24 91
REMARK H PARENT 81 22 51 33 27 76 27 77
REMARK Flexibility Score: inf
ROOT
ATOM      1  C   UNL     1       4.386   1.130   0.354  1.00  0.00     0.275 C 
ENDROOT
BRANCH   1   2
ATOM      2  O   UNL     1       3.376   0.537  -0.479  1.00  0.00    -0.458 OA
BRANCH   2   3
ATOM      3  C   UNL     1       3.441  -0.644  -1.143  1.00  0.00     0.338 C 
ATOM      4  O   UNL     1       2.582  -0.903  -1.987  1.00  0.00    -0.246 OA
BRANCH   3   5
ATOM      5  C   UNL     1       4.392  -1.725  -0.735  1.00  0.00     0.060 A 
ATOM      6  C   UNL     1       3.858  -3.012  -0.690  1.00  0.00     0.016 A 
ATOM      7  C   UNL     1       5.733  -1.556  -0.352  1.00  0.00     0.016 A 
ATOM      8  C   UNL     1       4.606  -4.055  -0.140  1.00  0.00     0.010 A 
ATOM      9  C   UNL     1       6.471  -2.599   0.253  1.00  0.00     0.010 A 
ATOM     10  C   UNL     1       5.902  -3.859   0.414  1.00  0.00    -0.014 A 
BRANCH  10  11
ATOM     11  C   UNL     1       6.650  -5.063   0.928  1.00  0.00     0.031 A 
ATOM     12  C   UNL     1       6.735  -5.453   2.419  1.00  0.00     0.074 A 
ATOM     13  C   UNL     1       6.860  -5.974  -0.051  1.00  0.00     0.049 A 
ATOM     14  N   UNL     1       6.909  -6.652   2.941  1.00  0.00    -0.248 NA
ATOM     15  C   UNL     1       6.480  -4.425   3.441  1.00  0.00     0.031 C 
ATOM     16  C   UNL     1       6.677  -5.685  -1.483  1.00  0.00     0.029 A 
ATOM     17  N   UNL     1       7.088  -7.326  -0.015  1.00  0.00    -0.354 N 
ATOM     18  C   UNL     1       6.617  -6.552   4.313  1.00  0.00     0.074 A 
ATOM     19  C   UNL     1       6.389  -5.144   4.565  1.00  0.00     0.031 C 
ATOM     20  C   UNL     1       6.655  -6.832  -2.164  1.00  0.00     0.029 A 
ATOM     21  C   UNL     1       6.956  -7.925  -1.252  1.00  0.00     0.049 A 
ATOM     22  H   UNL     1       7.320  -7.817   0.806  1.00  0.00     0.167 HD
ATOM     23  C   UNL     1       6.464  -7.558   5.225  1.00  0.00     0.031 A 
ATOM     24  C   UNL     1       7.069  -9.210  -1.641  1.00  0.00     0.031 A 
ATOM     25  C   UNL     1       6.662  -8.957   4.898  1.00  0.00     0.049 A 
ATOM     26  C   UNL     1       7.241 -10.241  -0.576  1.00  0.00     0.074 A 
ATOM     27  C   UNL     1       6.596 -10.049   5.749  1.00  0.00     0.029 A 
ATOM     28  N   UNL     1       6.949  -9.456   3.637  1.00  0.00    -0.354 N 
ATOM     29  N   UNL     1       7.091 -10.093   0.719  1.00  0.00    -0.248 NA
ATOM     30  C   UNL     1       7.609 -11.595  -0.999  1.00  0.00     0.031 C 
ATOM     31  C   UNL     1       6.814 -11.204   5.001  1.00  0.00     0.029 A 
ATOM     32  C   UNL     1       7.041 -10.837   3.685  1.00  0.00     0.049 A 
ATOM     33  H   UNL     1       7.071  -8.909   2.827  1.00  0.00     0.167 HD
ATOM     34  C   UNL     1       7.365 -11.333   1.272  1.00  0.00     0.074 A 
ATOM     35  C   UNL     1       7.656 -12.227   0.168  1.00  0.00     0.031 C 
ATOM     36  C   UNL     1       7.378 -11.695   2.576  1.00  0.00     0.031 A 
BRANCH  23  37
ATOM     37  C   UNL     1       6.001  -7.311   6.664  1.00  0.00    -0.014 A 
ATOM     38  C   UNL     1       6.865  -6.852   7.674  1.00  0.00     0.010 A 
ATOM     39  C   UNL     1       4.746  -7.822   7.070  1.00  0.00     0.010 A 
ATOM     40  C   UNL     1       6.468  -6.853   9.029  1.00  0.00     0.020 A 
ATOM     41  C   UNL     1       4.354  -7.850   8.420  1.00  0.00     0.020 A 
ATOM     42  C   UNL     1       5.211  -7.344   9.394  1.00  0.00     0.054 A 
BRANCH  42  43
ATOM     43  S   UNL     1       4.621  -7.229  11.115  1.00  0.00     0.124 S 
ATOM     44  O   UNL     1       4.780  -8.595  11.601  1.00  0.00    -0.237 OA
ATOM     45  O   UNL     1       5.516  -6.240  11.713  1.00  0.00    -0.237 OA
ATOM     46  O   UNL     1       3.241  -6.776  10.948  1.00  0.00    -0.744 OA
ENDBRANCH  42  43
ENDBRANCH  23  37
BRANCH  24  47
ATOM     47  C   UNL     1       7.093  -9.513  -3.105  1.00  0.00    -0.014 A 
ATOM     48  C   UNL     1       8.053  -8.859  -3.910  1.00  0.00     0.010 A 
ATOM     49  C   UNL     1       6.122 -10.309  -3.731  1.00  0.00     0.010 A 
ATOM     50  C   UNL     1       7.968  -8.887  -5.301  1.00  0.00     0.020 A 
ATOM     51  C   UNL     1       6.066 -10.384  -5.132  1.00  0.00     0.020 A 
ATOM     52  C   UNL     1       6.958  -9.634  -5.905  1.00  0.00     0.054 A 
BRANCH  52  53
ATOM     53  S   UNL     1       6.819  -9.577  -7.713  1.00  0.00     0.124 S 
ATOM     54  O   UNL     1       6.183  -8.280  -7.922  1.00  0.00    -0.237 OA
ATOM     55  O   UNL     1       8.211  -9.671  -8.144  1.00  0.00    -0.237 OA
ATOM     56  O   UNL     1       5.993 -10.742  -8.026  1.00  0.00    -0.744 OA
ENDBRANCH  52  53
ENDBRANCH  24  47
BRANCH  36  57
ATOM     57  C   UNL     1       7.803 -13.098   2.902  1.00  0.00    -0.014 A 
ATOM     58  C   UNL     1       6.880 -14.030   3.409  1.00  0.00     0.010 A 
ATOM     59  C   UNL     1       9.164 -13.444   2.827  1.00  0.00     0.010 A 
ATOM     60  C   UNL     1       7.320 -15.264   3.891  1.00  0.00     0.020 A 
ATOM     61  C   UNL     1       9.602 -14.689   3.276  1.00  0.00     0.020 A 
ATOM     62  C   UNL     1       8.681 -15.579   3.834  1.00  0.00     0.054 A 
BRANCH  62  63
ATOM     63  S   UNL     1       9.243 -17.162   4.514  1.00  0.00     0.124 S 
ATOM     64  O   UNL     1       9.161 -16.923   5.952  1.00  0.00    -0.237 OA
ATOM     65  O   UNL     1       8.267 -18.105   3.974  1.00  0.00    -0.237 OA
ATOM     66  O   UNL     1      10.596 -17.303   3.981  1.00  0.00    -0.744 OA
ENDBRANCH  62  63
ENDBRANCH  36  57
ENDBRANCH  10  11
ENDBRANCH   3   5
ENDBRANCH   2   3
ENDBRANCH   1   2
BRANCH   1  67
ATOM     67  C   UNL     1       4.409   0.626   1.803  1.00  0.00     0.274 C 
BRANCH  67  68
ATOM     68  O   UNL     1       4.019  -0.758   1.909  1.00  0.00    -0.458 OA
BRANCH  68  69
ATOM     69  C   UNL     1       2.970  -1.034   2.731  1.00  0.00     0.365 C 
ATOM     70  O   UNL     1       2.501  -0.225   3.529  1.00  0.00    -0.245 OA
BRANCH  69  71
ATOM     71  C   UNL     1       2.334  -2.419   2.445  1.00  0.00     0.298 C 
ATOM     72  C   UNL     1       3.250  -3.666   2.664  1.00  0.00     0.111 C 
ATOM     73  N   UNL     1       1.020  -2.480   3.168  1.00  0.00    -0.326 N 
ATOM     74  C   UNL     1       2.498  -4.968   2.412  1.00  0.00    -0.024 C 
ATOM     75  C   UNL     1       0.693  -3.828   3.707  1.00  0.00     0.243 C 
ATOM     76  H   UNL     1       0.282  -2.206   2.520  1.00  0.00     0.347 HD
ATOM     77  H   UNL     1       1.091  -1.850   3.967  1.00  0.00     0.347 HD
ATOM     78  C   UNL     1       2.780  -6.258   2.201  1.00  0.00     0.002 A 
ATOM     79  C   UNL     1       1.008  -4.815   2.541  1.00  0.00     0.196 C 
ATOM     80  C   UNL     1       3.920  -7.068   1.951  1.00  0.00     0.010 A 
ATOM     81  C   UNL     1       1.473  -6.926   2.412  1.00  0.00     0.066 A 
ATOM     82  N   UNL     1       0.436  -6.177   2.648  1.00  0.00    -0.270 NA
ATOM     83  C   UNL     1       3.851  -8.407   1.960  1.00  0.00     0.001 A 
ATOM     84  C   UNL     1       1.461  -8.410   2.415  1.00  0.00     0.028 A 
ATOM     85  C   UNL     1       2.606  -9.084   2.228  1.00  0.00     0.002 A 
BRANCH  75  86
ATOM     86  C   UNL     1       1.400  -4.141   5.043  1.00  0.00     0.012 A 
ATOM     87  C   UNL     1       2.176  -3.201   5.756  1.00  0.00     0.010 A 
ATOM     88  C   UNL     1       1.339  -5.444   5.558  1.00  0.00     0.010 A 
ATOM     89  C   UNL     1       2.933  -3.575   6.869  1.00  0.00     0.001 A 
ATOM     90  C   UNL     1       2.075  -5.809   6.682  1.00  0.00     0.001 A 
ATOM     91  C   UNL     1       2.884  -4.881   7.327  1.00  0.00     0.000 A 
ENDBRANCH  75  86
ENDBRANCH  69  71
ENDBRANCH  68  69
ENDBRANCH  67  68
ENDBRANCH   1  67
TORSDOF 15
