REMARK SMILES Cc1cc(C(=O)N2C[C@@H](C(=O)OCCOC(=O)c3ccc(-c4c5nc(c(-c6ccc(S(=O)(=O)[O-])cc6)c6ccc([nH]6)c(-c6ccc(S(=O)(=O)[O-])cc6)c6nc(c(-c7ccc(S(=O)(=O)[O-])cc7)c7ccc4[nH]7)C=C6)C=C5)cc3)[C@H](C3CC3)C2)sc1C
REMARK SMILES IDX 14 1 13 2 12 3 10 4 11 5 9 6 7 7 8 8 82 9 78 10 5 11 6 12
REMARK SMILES IDX 4 13 1 14 2 15 3 16 84 17 83 18 85 19 79 20 80 21 81 22
REMARK SMILES IDX 15 23 16 24 17 25 18 26 19 27 77 28 20 29 76 30 21 31 22 32
REMARK SMILES IDX 23 33 70 34 24 35 75 36 69 37 71 38 25 39 74 40 68 41 67 42
REMARK SMILES IDX 26 44 56 45 37 46 55 47 38 48 41 49 54 50 72 51 39 52 40 53
REMARK SMILES IDX 53 55 73 56 42 57 27 58 28 59 36 60 29 61 35 62 30 63 31 64
REMARK SMILES IDX 32 65 33 66 34 67 57 68 58 69 66 70 59 71 65 72 60 73 61 74
REMARK SMILES IDX 62 75 63 76 64 77 43 78 44 79 52 80 45 81 51 82 46 83 47 84
REMARK SMILES IDX 48 85 49 86 50 87
REMARK H PARENT 71 43 41 54
REMARK Flexibility Score: inf
ROOT
ATOM      1  C   UNL     1       7.504   1.985   2.917  1.00  0.00     0.275 C 
ENDROOT
BRANCH   1   2
ATOM      2  C   UNL     1       7.862   1.620   1.478  1.00  0.00     0.274 C 
BRANCH   2   3
ATOM      3  O   UNL     1       6.694   1.263   0.709  1.00  0.00    -0.462 OA
BRANCH   3   4
ATOM      4  C   UNL     1       6.517  -0.067   0.475  1.00  0.00     0.311 C 
ATOM      5  O   UNL     1       7.220  -0.954   0.940  1.00  0.00    -0.252 OA
BRANCH   4   6
ATOM      6  C   UNL     1       5.369  -0.309  -0.474  1.00  0.00     0.124 C 
ATOM      7  N   UNL     1       3.486  -1.616  -0.862  1.00  0.00    -0.337 N 
ATOM      8  C   UNL     1       4.154  -0.910   0.213  1.00  0.00     0.135 C 
ATOM      9  C   UNL     1       4.469  -2.188  -1.753  1.00  0.00     0.124 C 
ATOM     10  C   UNL     1       5.753  -1.363  -1.541  1.00  0.00     0.028 C 
BRANCH   7  11
ATOM     11  C   UNL     1       2.155  -1.988  -0.971  1.00  0.00     0.263 C 
ATOM     12  O   UNL     1       1.872  -3.035  -1.558  1.00  0.00    -0.268 OA
BRANCH  11  13
ATOM     13  C   UNL     1       1.107  -1.098  -0.488  1.00  0.00     0.093 A 
ATOM     14  C   UNL     1      -2.526  -0.497   0.317  1.00  0.00     0.045 C 
ATOM     15  C   UNL     1      -1.065  -0.347   0.041  1.00  0.00    -0.037 A 
ATOM     16  C   UNL     1      -0.186  -1.464  -0.158  1.00  0.00     0.029 A 
ATOM     17  C   UNL     1      -0.379   0.848  -0.095  1.00  0.00     0.005 A 
ATOM     18  S   UNL     1       1.254   0.603  -0.535  1.00  0.00    -0.135 S 
ATOM     19  C   UNL     1      -0.897   2.242   0.035  1.00  0.00     0.056 C 
ENDBRANCH  11  13
ENDBRANCH   7  11
BRANCH  10  20
ATOM     20  C   UNL     1       6.295  -0.827  -2.847  1.00  0.00    -0.005 C 
ATOM     21  C   UNL     1       6.292   0.624  -3.273  1.00  0.00     0.004 C 
ATOM     22  C   UNL     1       7.578  -0.033  -2.860  1.00  0.00     0.004 C 
ENDBRANCH  10  20
ENDBRANCH   4   6
ENDBRANCH   3   4
ENDBRANCH   2   3
ENDBRANCH   1   2
BRANCH   1  23
ATOM     23  O   UNL     1       7.019   0.831   3.624  1.00  0.00    -0.458 OA
BRANCH  23  24
ATOM     24  C   UNL     1       5.689   0.800   3.831  1.00  0.00     0.338 C 
ATOM     25  O   UNL     1       4.866   1.659   3.518  1.00  0.00    -0.246 OA
BRANCH  24  26
ATOM     26  C   UNL     1       5.298  -0.478   4.431  1.00  0.00     0.060 A 
ATOM     27  C   UNL     1       5.240  -1.602   3.613  1.00  0.00     0.016 A 
ATOM     28  C   UNL     1       4.817  -0.535   5.737  1.00  0.00     0.016 A 
ATOM     29  C   UNL     1       4.586  -2.749   4.045  1.00  0.00     0.010 A 
ATOM     30  C   UNL     1       4.261  -1.729   6.209  1.00  0.00     0.010 A 
ATOM     31  C   UNL     1       4.092  -2.834   5.353  1.00  0.00    -0.014 A 
BRANCH  31  32
ATOM     32  C   UNL     1       3.348  -4.047   5.795  1.00  0.00     0.031 A 
ATOM     33  C   UNL     1       1.932  -3.920   6.298  1.00  0.00     0.074 A 
ATOM     34  C   UNL     1       3.915  -5.268   5.720  1.00  0.00     0.049 A 
ATOM     35  N   UNL     1       1.187  -4.811   6.902  1.00  0.00    -0.248 NA
ATOM     36  C   UNL     1       1.273  -2.616   6.114  1.00  0.00     0.031 C 
ATOM     37  C   UNL     1       5.253  -5.556   5.197  1.00  0.00     0.029 A 
ATOM     38  N   UNL     1       3.426  -6.503   6.067  1.00  0.00    -0.354 N 
ATOM     39  C   UNL     1       0.007  -4.156   7.238  1.00  0.00     0.074 A 
ATOM     40  C   UNL     1       0.129  -2.796   6.759  1.00  0.00     0.031 C 
ATOM     41  C   UNL     1       5.455  -6.883   5.207  1.00  0.00     0.029 A 
ATOM     42  C   UNL     1       4.305  -7.533   5.823  1.00  0.00     0.049 A 
ATOM     43  H   UNL     1       2.531  -6.639   6.455  1.00  0.00     0.167 HD
ATOM     44  C   UNL     1      -1.074  -4.641   7.894  1.00  0.00     0.031 A 
ATOM     45  C   UNL     1       4.218  -8.848   6.099  1.00  0.00     0.031 A 
ATOM     46  C   UNL     1      -1.218  -6.010   8.313  1.00  0.00     0.049 A 
ATOM     47  C   UNL     1       3.009  -9.368   6.819  1.00  0.00     0.074 A 
ATOM     48  C   UNL     1      -2.269  -6.598   8.995  1.00  0.00     0.029 A 
ATOM     49  N   UNL     1      -0.294  -7.013   8.061  1.00  0.00    -0.354 N 
ATOM     50  N   UNL     1       1.948  -8.711   7.223  1.00  0.00    -0.248 NA
ATOM     51  C   UNL     1       2.995 -10.800   7.143  1.00  0.00     0.031 C 
ATOM     52  C   UNL     1      -1.970  -7.954   9.175  1.00  0.00     0.029 A 
ATOM     53  C   UNL     1      -0.750  -8.216   8.572  1.00  0.00     0.049 A 
ATOM     54  H   UNL     1       0.560  -6.888   7.589  1.00  0.00     0.167 HD
ATOM     55  C   UNL     1       1.140  -9.650   7.852  1.00  0.00     0.074 A 
ATOM     56  C   UNL     1       1.823 -10.925   7.752  1.00  0.00     0.031 C 
ATOM     57  C   UNL     1      -0.054  -9.472   8.467  1.00  0.00     0.031 A 
BRANCH  44  58
ATOM     58  C   UNL     1      -2.164  -3.666   8.248  1.00  0.00    -0.014 A 
ATOM     59  C   UNL     1      -3.063  -3.180   7.282  1.00  0.00     0.010 A 
ATOM     60  C   UNL     1      -2.299  -3.242   9.583  1.00  0.00     0.010 A 
ATOM     61  C   UNL     1      -4.049  -2.254   7.638  1.00  0.00     0.020 A 
ATOM     62  C   UNL     1      -3.297  -2.335   9.947  1.00  0.00     0.020 A 
ATOM     63  C   UNL     1      -4.153  -1.830   8.967  1.00  0.00     0.054 A 
BRANCH  63  64
ATOM     64  S   UNL     1      -5.442  -0.632   9.410  1.00  0.00     0.124 S 
ATOM     65  O   UNL     1      -4.855   0.624   8.950  1.00  0.00    -0.237 OA
ATOM     66  O   UNL     1      -6.597  -1.100   8.648  1.00  0.00    -0.237 OA
ATOM     67  O   UNL     1      -5.560  -0.772  10.860  1.00  0.00    -0.744 OA
ENDBRANCH  63  64
ENDBRANCH  44  58
BRANCH  45  68
ATOM     68  C   UNL     1       5.343  -9.752   5.736  1.00  0.00    -0.014 A 
ATOM     69  C   UNL     1       5.211 -10.667   4.678  1.00  0.00     0.010 A 
ATOM     70  C   UNL     1       6.567  -9.671   6.424  1.00  0.00     0.010 A 
ATOM     71  C   UNL     1       6.285 -11.486   4.314  1.00  0.00     0.020 A 
ATOM     72  C   UNL     1       7.650 -10.468   6.046  1.00  0.00     0.020 A 
ATOM     73  C   UNL     1       7.499 -11.378   4.998  1.00  0.00     0.054 A 
BRANCH  73  74
ATOM     74  S   UNL     1       8.911 -12.385   4.462  1.00  0.00     0.124 S 
ATOM     75  O   UNL     1       8.630 -13.665   5.103  1.00  0.00    -0.237 OA
ATOM     76  O   UNL     1       8.786 -12.365   3.006  1.00  0.00    -0.237 OA
ATOM     77  O   UNL     1      10.064 -11.658   4.988  1.00  0.00    -0.744 OA
ENDBRANCH  73  74
ENDBRANCH  45  68
BRANCH  57  78
ATOM     78  C   UNL     1      -0.703 -10.688   9.062  1.00  0.00    -0.014 A 
ATOM     79  C   UNL     1      -0.251 -11.223  10.281  1.00  0.00     0.010 A 
ATOM     80  C   UNL     1      -1.798 -11.282   8.411  1.00  0.00     0.010 A 
ATOM     81  C   UNL     1      -0.866 -12.353  10.825  1.00  0.00     0.020 A 
ATOM     82  C   UNL     1      -2.427 -12.402   8.962  1.00  0.00     0.020 A 
ATOM     83  C   UNL     1      -1.946 -12.939  10.158  1.00  0.00     0.054 A 
BRANCH  83  84
ATOM     84  S   UNL     1      -2.753 -14.387  10.896  1.00  0.00     0.124 S 
ATOM     85  O   UNL     1      -1.833 -15.462  10.534  1.00  0.00    -0.237 OA
ATOM     86  O   UNL     1      -2.795 -14.047  12.316  1.00  0.00    -0.237 OA
ATOM     87  O   UNL     1      -4.055 -14.430  10.234  1.00  0.00    -0.744 OA
ENDBRANCH  83  84
ENDBRANCH  57  78
ENDBRANCH  31  32
ENDBRANCH  24  26
ENDBRANCH  23  24
ENDBRANCH   1  23
TORSDOF 17
