REMARK SMILES O=C(CSC(=S)N1CCCCC1)OCCOC(=O)c1ccc(-c2c3nc(c(-c4ccc(S(=O)(=O)[O-])cc4)c4ccc([nH]4)c(-c4ccc(S(=O)(=O)[O-])cc4)c4nc(c(-c5ccc(S(=O)(=O)[O-])cc5)c5ccc2[nH]5)C=C4)C=C3)cc1
REMARK SMILES IDX 14 1 13 2 2 3 1 4 3 5 4 6 5 7 6 8 7 9 8 10 12 11 9 12 11 13
REMARK SMILES IDX 10 14 15 15 16 16 17 17 18 18 19 19 20 20 78 21 21 22 77 23
REMARK SMILES IDX 22 24 23 25 24 26 71 27 25 28 76 29 70 30 72 31 26 32 75 33
REMARK SMILES IDX 69 34 68 35 27 37 57 38 38 39 56 40 39 41 42 42 55 43 73 44
REMARK SMILES IDX 40 45 41 46 54 48 74 49 43 50 28 51 29 52 37 53 30 54 36 55
REMARK SMILES IDX 31 56 32 57 33 58 34 59 35 60 58 61 59 62 67 63 60 64 66 65
REMARK SMILES IDX 61 66 62 67 63 68 64 69 65 70 44 71 45 72 53 73 46 74 52 75
REMARK SMILES IDX 47 76 48 77 49 78 50 79 51 80
REMARK H PARENT 72 36 42 47
REMARK Flexibility Score: inf
ROOT
ATOM      1  C   UNL     1       4.652   0.771   0.807  1.00  0.00     0.274 C 
ENDROOT
BRANCH   1   2
ATOM      2  O   UNL     1       3.327   1.108   0.342  1.00  0.00    -0.461 OA
BRANCH   2   3
ATOM      3  C   UNL     1       2.563   0.343  -0.475  1.00  0.00     0.316 C 
ATOM      4  O   UNL     1       1.357   0.568  -0.553  1.00  0.00    -0.251 OA
BRANCH   3   5
ATOM      5  C   UNL     1       3.215  -0.769  -1.270  1.00  0.00     0.199 C 
BRANCH   5   6
ATOM      6  S   UNL     1       4.222  -0.158  -2.632  1.00  0.00    -0.085 SA
BRANCH   6   7
ATOM      7  C   UNL     1       3.104   0.048  -3.979  1.00  0.00     0.136 C 
ATOM      8  S   UNL     1       1.433   0.104  -3.886  1.00  0.00    -0.053 S 
BRANCH   7   9
ATOM      9  N   UNL     1       3.800   0.275  -5.162  1.00  0.00    -0.358 N 
ATOM     10  C   UNL     1       3.407   1.319  -6.106  1.00  0.00     0.118 C 
ATOM     11  C   UNL     1       4.811  -0.664  -5.660  1.00  0.00     0.118 C 
ATOM     12  C   UNL     1       2.889   0.716  -7.404  1.00  0.00     0.021 C 
ATOM     13  C   UNL     1       4.328  -1.310  -6.961  1.00  0.00     0.021 C 
ATOM     14  C   UNL     1       3.910  -0.259  -7.990  1.00  0.00     0.004 C 
ENDBRANCH   7   9
ENDBRANCH   6   7
ENDBRANCH   5   6
ENDBRANCH   3   5
ENDBRANCH   2   3
ENDBRANCH   1   2
BRANCH   1  15
ATOM     15  C   UNL     1       4.594  -0.039   2.104  1.00  0.00     0.275 C 
BRANCH  15  16
ATOM     16  O   UNL     1       4.174  -1.386   1.822  1.00  0.00    -0.458 OA
BRANCH  16  17
ATOM     17  C   UNL     1       2.869  -1.669   2.063  1.00  0.00     0.338 C 
ATOM     18  O   UNL     1       2.054  -0.938   2.595  1.00  0.00    -0.246 OA
BRANCH  17  19
ATOM     19  C   UNL     1       2.529  -2.946   1.392  1.00  0.00     0.060 A 
ATOM     20  C   UNL     1       1.286  -3.054   0.754  1.00  0.00     0.016 A 
ATOM     21  C   UNL     1       3.430  -4.016   1.361  1.00  0.00     0.016 A 
ATOM     22  C   UNL     1       0.928  -4.245   0.116  1.00  0.00     0.010 A 
ATOM     23  C   UNL     1       3.068  -5.207   0.728  1.00  0.00     0.010 A 
ATOM     24  C   UNL     1       1.803  -5.339   0.129  1.00  0.00    -0.014 A 
BRANCH  24  25
ATOM     25  C   UNL     1       1.345  -6.681  -0.307  1.00  0.00     0.031 A 
ATOM     26  C   UNL     1       0.846  -7.639   0.741  1.00  0.00     0.074 A 
ATOM     27  C   UNL     1       1.397  -7.062  -1.596  1.00  0.00     0.049 A 
ATOM     28  N   UNL     1       0.461  -8.882   0.612  1.00  0.00    -0.248 NA
ATOM     29  C   UNL     1       0.782  -7.125   2.119  1.00  0.00     0.031 C 
ATOM     30  C   UNL     1       1.831  -6.226  -2.713  1.00  0.00     0.029 A 
ATOM     31  N   UNL     1       1.091  -8.269  -2.176  1.00  0.00    -0.354 N 
ATOM     32  C   UNL     1       0.113  -9.300   1.891  1.00  0.00     0.074 A 
ATOM     33  C   UNL     1       0.363  -8.190   2.784  1.00  0.00     0.031 C 
ATOM     34  C   UNL     1       1.777  -6.952  -3.845  1.00  0.00     0.029 A 
ATOM     35  C   UNL     1       1.331  -8.309  -3.528  1.00  0.00     0.049 A 
ATOM     36  H   UNL     1       0.733  -9.034  -1.670  1.00  0.00     0.167 HD
ATOM     37  C   UNL     1      -0.376 -10.498   2.289  1.00  0.00     0.031 A 
ATOM     38  C   UNL     1       1.221  -9.327  -4.406  1.00  0.00     0.031 A 
ATOM     39  C   UNL     1      -0.602 -11.614   1.412  1.00  0.00     0.049 A 
ATOM     40  C   UNL     1       0.741 -10.675  -3.930  1.00  0.00     0.074 A 
ATOM     41  C   UNL     1      -1.103 -12.865   1.724  1.00  0.00     0.029 A 
ATOM     42  N   UNL     1      -0.331 -11.617   0.053  1.00  0.00    -0.354 N 
ATOM     43  N   UNL     1       0.384 -11.046  -2.724  1.00  0.00    -0.248 NA
ATOM     44  C   UNL     1       0.642 -11.740  -4.940  1.00  0.00     0.031 C 
ATOM     45  C   UNL     1      -1.089 -13.642   0.560  1.00  0.00     0.029 A 
ATOM     46  C   UNL     1      -0.631 -12.856  -0.485  1.00  0.00     0.049 A 
ATOM     47  H   UNL     1       0.023 -10.851  -0.455  1.00  0.00     0.167 HD
ATOM     48  C   UNL     1      -0.014 -12.375  -2.836  1.00  0.00     0.074 A 
ATOM     49  C   UNL     1       0.145 -12.744  -4.227  1.00  0.00     0.031 C 
ATOM     50  C   UNL     1      -0.476 -13.211  -1.874  1.00  0.00     0.031 A 
BRANCH  37  51
ATOM     51  C   UNL     1      -0.661 -10.665   3.756  1.00  0.00    -0.014 A 
ATOM     52  C   UNL     1      -1.752 -10.016   4.362  1.00  0.00     0.010 A 
ATOM     53  C   UNL     1       0.174 -11.482   4.539  1.00  0.00     0.010 A 
ATOM     54  C   UNL     1      -1.973 -10.140   5.736  1.00  0.00     0.020 A 
ATOM     55  C   UNL     1      -0.059 -11.630   5.909  1.00  0.00     0.020 A 
ATOM     56  C   UNL     1      -1.119 -10.939   6.502  1.00  0.00     0.054 A 
BRANCH  56  57
ATOM     57  S   UNL     1      -1.421 -11.080   8.284  1.00  0.00     0.124 S 
ATOM     58  O   UNL     1      -0.940  -9.789   8.772  1.00  0.00    -0.237 OA
ATOM     59  O   UNL     1      -2.867 -11.277   8.352  1.00  0.00    -0.237 OA
ATOM     60  O   UNL     1      -0.618 -12.234   8.682  1.00  0.00    -0.744 OA
ENDBRANCH  56  57
ENDBRANCH  37  51
BRANCH  38  61
ATOM     61  C   UNL     1       1.582  -9.115  -5.835  1.00  0.00    -0.014 A 
ATOM     62  C   UNL     1       0.586  -9.070  -6.825  1.00  0.00     0.010 A 
ATOM     63  C   UNL     1       2.928  -8.958  -6.210  1.00  0.00     0.010 A 
ATOM     64  C   UNL     1       0.930  -8.882  -8.168  1.00  0.00     0.020 A 
ATOM     65  C   UNL     1       3.275  -8.747  -7.547  1.00  0.00     0.020 A 
ATOM     66  C   UNL     1       2.273  -8.718  -8.520  1.00  0.00     0.054 A 
BRANCH  66  67
ATOM     67  S   UNL     1       2.695  -8.413 -10.259  1.00  0.00     0.124 S 
ATOM     68  O   UNL     1       2.530  -9.738 -10.848  1.00  0.00    -0.237 OA
ATOM     69  O   UNL     1       1.704  -7.415 -10.654  1.00  0.00    -0.237 OA
ATOM     70  O   UNL     1       4.069  -7.921 -10.194  1.00  0.00    -0.744 OA
ENDBRANCH  66  67
ENDBRANCH  38  61
BRANCH  50  71
ATOM     71  C   UNL     1      -0.890 -14.600  -2.286  1.00  0.00    -0.014 A 
ATOM     72  C   UNL     1       0.061 -15.586  -2.599  1.00  0.00     0.010 A 
ATOM     73  C   UNL     1      -2.256 -14.943  -2.280  1.00  0.00     0.010 A 
ATOM     74  C   UNL     1      -0.347 -16.885  -2.917  1.00  0.00     0.020 A 
ATOM     75  C   UNL     1      -2.666 -16.246  -2.574  1.00  0.00     0.020 A 
ATOM     76  C   UNL     1      -1.708 -17.207  -2.901  1.00  0.00     0.054 A 
BRANCH  76  77
ATOM     77  S   UNL     1      -2.209 -18.915  -3.258  1.00  0.00     0.124 S 
ATOM     78  O   UNL     1      -2.041 -18.985  -4.706  1.00  0.00    -0.237 OA
ATOM     79  O   UNL     1      -1.256 -19.700  -2.476  1.00  0.00    -0.237 OA
ATOM     80  O   UNL     1      -3.591 -18.976  -2.787  1.00  0.00    -0.744 OA
ENDBRANCH  76  77
ENDBRANCH  50  71
ENDBRANCH  24  25
ENDBRANCH  17  19
ENDBRANCH  16  17
ENDBRANCH  15  16
ENDBRANCH   1  15
TORSDOF 17
