REMARK SMILES O=C1C[C@@H](c2cccc(O)c2)c2c(c(C(=O)OCCOC(=O)c3ccc(-c4c5nc(c(-c6ccc(S(=O)(=O)[O-])cc6)c6ccc([nH]6)c(-c6ccc(S(=O)(=O)[O-])cc6)c6nc(c(-c7ccc(S(=O)(=O)[O-])cc7)c7ccc4[nH]7)C=C6)C=C5)cc3)cn2-c2cccc(C(F)(F)F)c2)N1
REMARK SMILES IDX 19 1 18 2 17 3 15 4 16 5 14 6 1 7 2 8 3 9 95 10 4 11 13 12
REMARK SMILES IDX 12 14 84 15 83 16 5 17 6 18 11 19 7 20 9 21 8 22 10 23 85 25
REMARK SMILES IDX 86 26 94 27 87 28 89 29 88 30 90 31 91 32 92 33 93 34 20 35
REMARK SMILES IDX 21 36 22 37 23 38 24 39 82 40 25 41 81 42 26 43 27 44 28 45
REMARK SMILES IDX 75 46 29 47 80 48 74 49 76 50 30 51 79 52 73 53 72 54 31 56
REMARK SMILES IDX 61 57 42 58 60 59 43 60 46 61 59 62 77 63 44 64 45 65 58 67
REMARK SMILES IDX 78 68 47 69 32 70 33 71 41 72 34 73 40 74 35 75 36 76 37 77
REMARK SMILES IDX 38 78 39 79 62 80 63 81 71 82 64 83 70 84 65 85 66 86 67 87
REMARK SMILES IDX 68 88 69 89 48 90 49 91 57 92 50 93 56 94 51 95 52 96 53 97
REMARK SMILES IDX 54 98 55 99
REMARK H PARENT 95 13 10 24 76 55 46 66
REMARK Flexibility Score: inf
ROOT
ATOM      1  C   UNL     1       4.755  -5.763   2.845  1.00  0.00     0.275 C 
ENDROOT
BRANCH   1   2
ATOM      2  C   UNL     1       6.042  -5.243   2.214  1.00  0.00     0.275 C 
BRANCH   2   3
ATOM      3  O   UNL     1       6.138  -3.812   2.294  1.00  0.00    -0.458 OA
BRANCH   3   4
ATOM      4  C   UNL     1       5.527  -3.121   1.287  1.00  0.00     0.341 C 
ATOM      5  O   UNL     1       5.091  -3.631   0.258  1.00  0.00    -0.246 OA
BRANCH   4   6
ATOM      6  C   UNL     1       5.372  -1.708   1.585  1.00  0.00     0.102 A 
ATOM      7  O   UNL     1       1.874  -0.200  -1.303  1.00  0.00    -0.275 OA
ATOM      8  C   UNL     1       2.801   0.021  -0.526  1.00  0.00     0.225 C 
ATOM      9  C   UNL     1       3.334   1.429  -0.291  1.00  0.00     0.115 C 
ATOM     10  N   UNL     1       3.506  -1.008   0.043  1.00  0.00    -0.324 N 
ATOM     11  C   UNL     1       3.905   1.675   1.119  1.00  0.00     0.078 C 
ATOM     12  C   UNL     1       4.457  -0.798   1.013  1.00  0.00     0.078 A 
ATOM     13  H   UNL     1       3.326  -1.929  -0.255  1.00  0.00     0.170 HD
ATOM     14  C   UNL     1       4.617   0.439   1.595  1.00  0.00     0.055 A 
ATOM     15  N   UNL     1       5.607   0.323   2.557  1.00  0.00    -0.317 N 
ATOM     16  C   UNL     1       6.089  -0.974   2.514  1.00  0.00     0.109 A 
BRANCH  11  17
ATOM     17  C   UNL     1       2.820   2.197   2.043  1.00  0.00    -0.035 A 
ATOM     18  C   UNL     1       1.781   1.385   2.523  1.00  0.00     0.005 A 
ATOM     19  C   UNL     1       2.858   3.545   2.441  1.00  0.00     0.050 A 
ATOM     20  C   UNL     1       0.829   1.902   3.406  1.00  0.00     0.004 A 
ATOM     21  C   UNL     1       1.924   4.040   3.343  1.00  0.00     0.115 A 
ATOM     22  C   UNL     1       0.905   3.229   3.828  1.00  0.00     0.046 A 
BRANCH  21  23
ATOM     23  O   UNL     1       2.069   5.330   3.760  1.00  0.00    -0.508 OA
ATOM     24  H   UNL     1       1.457   5.697   4.368  1.00  0.00     0.293 HD
ENDBRANCH  21  23
ENDBRANCH  11  17
BRANCH  15  25
ATOM     25  C   UNL     1       6.120   1.311   3.433  1.00  0.00     0.046 A 
ATOM     26  C   UNL     1       7.506   1.464   3.548  1.00  0.00     0.026 A 
ATOM     27  C   UNL     1       5.262   2.074   4.229  1.00  0.00     0.039 A 
ATOM     28  C   UNL     1       8.028   2.433   4.403  1.00  0.00     0.003 A 
ATOM     29  C   UNL     1       5.779   3.044   5.103  1.00  0.00     0.058 A 
ATOM     30  C   UNL     1       7.170   3.226   5.166  1.00  0.00     0.013 A 
BRANCH  29  31
ATOM     31  C   UNL     1       4.876   3.881   5.978  1.00  0.00     0.416 C 
ATOM     32  F   UNL     1       5.251   3.837   7.289  1.00  0.00    -0.166 F 
ATOM     33  F   UNL     1       4.905   5.201   5.637  1.00  0.00    -0.166 F 
ATOM     34  F   UNL     1       3.569   3.511   5.958  1.00  0.00    -0.166 F 
ENDBRANCH  29  31
ENDBRANCH  15  25
ENDBRANCH   4   6
ENDBRANCH   3   4
ENDBRANCH   2   3
ENDBRANCH   1   2
BRANCH   1  35
ATOM     35  O   UNL     1       3.603  -5.474   2.051  1.00  0.00    -0.458 OA
BRANCH  35  36
ATOM     36  C   UNL     1       2.921  -4.366   2.422  1.00  0.00     0.338 C 
ATOM     37  O   UNL     1       3.345  -3.430   3.079  1.00  0.00    -0.246 OA
BRANCH  36  38
ATOM     38  C   UNL     1       1.502  -4.530   2.092  1.00  0.00     0.060 A 
ATOM     39  C   UNL     1       0.673  -3.408   2.179  1.00  0.00     0.016 A 
ATOM     40  C   UNL     1       0.978  -5.821   1.938  1.00  0.00     0.016 A 
ATOM     41  C   UNL     1      -0.695  -3.597   2.231  1.00  0.00     0.010 A 
ATOM     42  C   UNL     1      -0.385  -6.008   2.006  1.00  0.00     0.010 A 
ATOM     43  C   UNL     1      -1.206  -4.901   2.207  1.00  0.00    -0.014 A 
BRANCH  43  44
ATOM     44  C   UNL     1      -2.648  -5.081   2.208  1.00  0.00     0.031 A 
ATOM     45  C   UNL     1      -3.274  -4.612   0.947  1.00  0.00     0.074 A 
ATOM     46  C   UNL     1      -3.310  -5.738   3.182  1.00  0.00     0.049 A 
ATOM     47  N   UNL     1      -4.095  -3.628   0.795  1.00  0.00    -0.248 NA
ATOM     48  C   UNL     1      -2.787  -5.189  -0.321  1.00  0.00     0.031 C 
ATOM     49  C   UNL     1      -2.741  -6.468   4.319  1.00  0.00     0.029 A 
ATOM     50  N   UNL     1      -4.642  -5.998   3.295  1.00  0.00    -0.354 N 
ATOM     51  C   UNL     1      -4.412  -3.615  -0.559  1.00  0.00     0.074 A 
ATOM     52  C   UNL     1      -3.435  -4.444  -1.215  1.00  0.00     0.031 C 
ATOM     53  C   UNL     1      -3.687  -7.279   4.846  1.00  0.00     0.029 A 
ATOM     54  C   UNL     1      -4.952  -7.034   4.173  1.00  0.00     0.049 A 
ATOM     55  H   UNL     1      -5.328  -5.495   2.799  1.00  0.00     0.167 HD
ATOM     56  C   UNL     1      -5.624  -3.172  -0.992  1.00  0.00     0.031 A 
ATOM     57  C   UNL     1      -6.140  -7.689   4.280  1.00  0.00     0.031 A 
ATOM     58  C   UNL     1      -6.280  -2.367   0.005  1.00  0.00     0.049 A 
ATOM     59  C   UNL     1      -7.174  -6.826   3.657  1.00  0.00     0.074 A 
ATOM     60  C   UNL     1      -5.955  -1.208   0.682  1.00  0.00     0.029 A 
ATOM     61  N   UNL     1      -7.277  -2.971   0.734  1.00  0.00    -0.354 N 
ATOM     62  N   UNL     1      -7.542  -5.679   4.152  1.00  0.00    -0.248 NA
ATOM     63  C   UNL     1      -7.456  -7.014   2.243  1.00  0.00     0.031 C 
ATOM     64  C   UNL     1      -6.429  -1.413   2.010  1.00  0.00     0.029 A 
ATOM     65  C   UNL     1      -7.093  -2.641   2.051  1.00  0.00     0.049 A 
ATOM     66  H   UNL     1      -7.996  -3.539   0.374  1.00  0.00     0.167 HD
ATOM     67  C   UNL     1      -7.671  -4.846   3.050  1.00  0.00     0.074 A 
ATOM     68  C   UNL     1      -7.697  -5.746   1.897  1.00  0.00     0.031 C 
ATOM     69  C   UNL     1      -7.459  -3.501   3.156  1.00  0.00     0.031 A 
BRANCH  56  70
ATOM     70  C   UNL     1      -6.382  -3.855  -2.106  1.00  0.00    -0.014 A 
ATOM     71  C   UNL     1      -7.632  -3.333  -2.494  1.00  0.00     0.010 A 
ATOM     72  C   UNL     1      -6.053  -5.144  -2.579  1.00  0.00     0.010 A 
ATOM     73  C   UNL     1      -8.530  -4.093  -3.255  1.00  0.00     0.020 A 
ATOM     74  C   UNL     1      -6.921  -5.891  -3.374  1.00  0.00     0.020 A 
ATOM     75  C   UNL     1      -8.169  -5.373  -3.681  1.00  0.00     0.054 A 
BRANCH  75  76
ATOM     76  S   UNL     1      -9.365  -6.377  -4.593  1.00  0.00     0.124 S 
ATOM     77  O   UNL     1     -10.396  -6.604  -3.586  1.00  0.00    -0.237 OA
ATOM     78  O   UNL     1      -9.733  -5.490  -5.693  1.00  0.00    -0.237 OA
ATOM     79  O   UNL     1      -8.595  -7.556  -4.981  1.00  0.00    -0.744 OA
ENDBRANCH  75  76
ENDBRANCH  56  70
BRANCH  57  80
ATOM     80  C   UNL     1      -6.385  -9.129   4.566  1.00  0.00    -0.014 A 
ATOM     81  C   UNL     1      -7.684  -9.614   4.822  1.00  0.00     0.010 A 
ATOM     82  C   UNL     1      -5.382 -10.081   4.294  1.00  0.00     0.010 A 
ATOM     83  C   UNL     1      -7.981 -10.988   4.736  1.00  0.00     0.020 A 
ATOM     84  C   UNL     1      -5.667 -11.450   4.215  1.00  0.00     0.020 A 
ATOM     85  C   UNL     1      -6.971 -11.896   4.409  1.00  0.00     0.054 A 
BRANCH  85  86
ATOM     86  S   UNL     1      -7.390 -13.641   4.105  1.00  0.00     0.124 S 
ATOM     87  O   UNL     1      -7.699 -14.127   5.447  1.00  0.00    -0.237 OA
ATOM     88  O   UNL     1      -8.524 -13.543   3.191  1.00  0.00    -0.237 OA
ATOM     89  O   UNL     1      -6.170 -14.189   3.515  1.00  0.00    -0.744 OA
ENDBRANCH  85  86
ENDBRANCH  57  80
BRANCH  69  90
ATOM     90  C   UNL     1      -7.411  -2.884   4.535  1.00  0.00    -0.014 A 
ATOM     91  C   UNL     1      -6.499  -3.247   5.545  1.00  0.00     0.010 A 
ATOM     92  C   UNL     1      -8.268  -1.794   4.768  1.00  0.00     0.010 A 
ATOM     93  C   UNL     1      -6.482  -2.563   6.772  1.00  0.00     0.020 A 
ATOM     94  C   UNL     1      -8.241  -1.097   5.975  1.00  0.00     0.020 A 
ATOM     95  C   UNL     1      -7.361  -1.494   6.979  1.00  0.00     0.054 A 
BRANCH  95  96
ATOM     96  S   UNL     1      -7.343  -0.609   8.563  1.00  0.00     0.124 S 
ATOM     97  O   UNL     1      -7.837  -1.618   9.496  1.00  0.00    -0.237 OA
ATOM     98  O   UNL     1      -5.937  -0.243   8.716  1.00  0.00    -0.237 OA
ATOM     99  O   UNL     1      -8.246   0.520   8.341  1.00  0.00    -0.744 OA
ENDBRANCH  95  96
ENDBRANCH  69  90
ENDBRANCH  43  44
ENDBRANCH  36  38
ENDBRANCH  35  36
ENDBRANCH   1  35
TORSDOF 18
