REMARK SMILES CC[C@@H](C)N1C(=O)/C(=C/Nc2cccc(C(=O)OCCOC(=O)c3ccc(-c4c5nc(c(-c6ccc(S(=O)(=O)[O-])cc6)c6ccc([nH]6)c(-c6ccc(S(=O)(=O)[O-])cc6)c6nc(c(-c7ccc(S(=O)(=O)[O-])cc7)c7ccc4[nH]7)C=C6)C=C5)cc3)c2)C(=O)NC1=S
REMARK SMILES IDX 19 1 18 2 16 3 17 4 15 5 11 6 12 7 84 8 13 9 14 10 10 11
REMARK SMILES IDX 9 13 5 14 6 15 88 16 7 17 8 18 87 19 89 20 85 21 86 23 3 24
REMARK SMILES IDX 4 25 2 26 1 27 20 28 21 29 22 30 23 31 24 32 25 33 83 34
REMARK SMILES IDX 26 35 82 36 27 37 28 38 29 39 76 40 30 41 81 42 75 43 77 44
REMARK SMILES IDX 31 45 80 46 74 47 73 48 32 50 62 51 43 52 61 53 44 54 47 55
REMARK SMILES IDX 60 56 78 57 45 58 46 59 59 61 79 62 48 63 33 64 34 65 42 66
REMARK SMILES IDX 35 67 41 68 36 69 37 70 38 71 39 72 40 73 63 74 64 75 72 76
REMARK SMILES IDX 65 77 71 78 66 79 67 80 68 81 69 82 70 83 49 84 50 85 58 86
REMARK SMILES IDX 51 87 57 88 52 89 53 90 54 91 55 92 56 93
REMARK H PARENT 10 12 87 22 77 49 47 60
REMARK Flexibility Score: inf
ROOT
ATOM      1  C   UNL     1       4.759   6.024   0.322  1.00  0.00     0.275 C 
ENDROOT
BRANCH   1   2
ATOM      2  O   UNL     1       4.075   6.053  -0.949  1.00  0.00    -0.458 OA
BRANCH   2   3
ATOM      3  C   UNL     1       3.453   7.217  -1.266  1.00  0.00     0.338 C 
ATOM      4  O   UNL     1       3.411   8.225  -0.578  1.00  0.00    -0.246 OA
BRANCH   3   5
ATOM      5  C   UNL     1       2.898   7.159  -2.643  1.00  0.00     0.062 A 
ATOM      6  C   UNL     1       1.969   5.932  -4.530  1.00  0.00     0.039 A 
ATOM      7  C   UNL     1       2.002   7.112  -5.285  1.00  0.00     0.026 A 
ATOM      8  C   UNL     1       2.444   5.963  -3.209  1.00  0.00     0.041 A 
ATOM      9  C   UNL     1       2.422   8.314  -4.717  1.00  0.00     0.003 A 
ATOM     10  C   UNL     1       2.829   8.344  -3.386  1.00  0.00     0.016 A 
BRANCH   6  11
ATOM     11  N   UNL     1       1.369   4.792  -5.089  1.00  0.00    -0.361 N 
ATOM     12  H   UNL     1       1.416   4.703  -6.068  1.00  0.00     0.166 HD
BRANCH  11  13
ATOM     13  C   UNL     1       0.725   3.788  -4.410  1.00  0.00     0.102 C 
ATOM     14  N   UNL     1       0.637   0.418  -3.830  1.00  0.00    -0.282 N 
ATOM     15  C   UNL     1      -0.104   1.601  -3.846  1.00  0.00     0.267 C 
ATOM     16  C   UNL     1       1.185  -0.079  -5.019  1.00  0.00     0.183 C 
ATOM     17  O   UNL     1      -1.045   1.875  -3.110  1.00  0.00    -0.268 OA
ATOM     18  C   UNL     1       0.390   2.563  -4.841  1.00  0.00     0.121 C 
ATOM     19  N   UNL     1       1.089   0.730  -6.132  1.00  0.00    -0.298 N 
ATOM     20  S   UNL     1       1.948  -1.554  -5.255  1.00  0.00    -0.040 S 
ATOM     21  C   UNL     1       0.778   2.063  -6.156  1.00  0.00     0.264 C 
ATOM     22  H   UNL     1       1.263   0.303  -7.002  1.00  0.00     0.172 HD
ATOM     23  O   UNL     1       0.893   2.761  -7.154  1.00  0.00    -0.269 OA
BRANCH  14  24
ATOM     24  C   UNL     1       0.728  -0.327  -2.535  1.00  0.00     0.090 C 
ATOM     25  C   UNL     1      -0.274  -1.486  -2.463  1.00  0.00     0.031 C 
BRANCH  24  26
ATOM     26  C   UNL     1       0.601   0.579  -1.278  1.00  0.00     0.022 C 
ATOM     27  C   UNL     1       1.184  -0.026  -0.010  1.00  0.00     0.006 C 
ENDBRANCH  24  26
ENDBRANCH  14  24
ENDBRANCH  11  13
ENDBRANCH   6  11
ENDBRANCH   3   5
ENDBRANCH   2   3
ENDBRANCH   1   2
BRANCH   1  28
ATOM     28  C   UNL     1       6.272   6.134   0.137  1.00  0.00     0.275 C 
BRANCH  28  29
ATOM     29  O   UNL     1       6.608   7.436  -0.371  1.00  0.00    -0.458 OA
BRANCH  29  30
ATOM     30  C   UNL     1       7.250   7.457  -1.562  1.00  0.00     0.338 C 
ATOM     31  O   UNL     1       7.645   6.506  -2.212  1.00  0.00    -0.246 OA
BRANCH  30  32
ATOM     32  C   UNL     1       7.343   8.847  -2.030  1.00  0.00     0.060 A 
ATOM     33  C   UNL     1       6.209   9.423  -2.595  1.00  0.00     0.016 A 
ATOM     34  C   UNL     1       8.556   9.530  -2.042  1.00  0.00     0.016 A 
ATOM     35  C   UNL     1       6.284  10.660  -3.228  1.00  0.00     0.010 A 
ATOM     36  C   UNL     1       8.621  10.802  -2.629  1.00  0.00     0.010 A 
ATOM     37  C   UNL     1       7.494  11.364  -3.262  1.00  0.00    -0.014 A 
BRANCH  37  38
ATOM     38  C   UNL     1       7.595  12.629  -4.044  1.00  0.00     0.031 A 
ATOM     39  C   UNL     1       8.502  12.697  -5.247  1.00  0.00     0.074 A 
ATOM     40  C   UNL     1       6.844  13.702  -3.722  1.00  0.00     0.049 A 
ATOM     41  N   UNL     1       8.812  13.726  -5.994  1.00  0.00    -0.248 NA
ATOM     42  C   UNL     1       9.152  11.442  -5.659  1.00  0.00     0.031 C 
ATOM     43  C   UNL     1       5.879  13.765  -2.623  1.00  0.00     0.029 A 
ATOM     44  N   UNL     1       6.765  14.945  -4.302  1.00  0.00    -0.354 N 
ATOM     45  C   UNL     1       9.732  13.258  -6.926  1.00  0.00     0.074 A 
ATOM     46  C   UNL     1       9.934  11.852  -6.648  1.00  0.00     0.031 C 
ATOM     47  C   UNL     1       5.279  14.967  -2.632  1.00  0.00     0.029 A 
ATOM     48  C   UNL     1       5.865  15.786  -3.689  1.00  0.00     0.049 A 
ATOM     49  H   UNL     1       7.302  15.210  -5.084  1.00  0.00     0.167 HD
ATOM     50  C   UNL     1      10.353  13.933  -7.923  1.00  0.00     0.031 A 
ATOM     51  C   UNL     1       5.563  17.077  -3.928  1.00  0.00     0.031 A 
ATOM     52  C   UNL     1      10.123  15.320  -8.231  1.00  0.00     0.049 A 
ATOM     53  C   UNL     1       6.281  17.814  -5.025  1.00  0.00     0.074 A 
ATOM     54  C   UNL     1      10.704  16.090  -9.223  1.00  0.00     0.029 A 
ATOM     55  N   UNL     1       9.227  16.140  -7.562  1.00  0.00    -0.354 N 
ATOM     56  N   UNL     1       7.189  17.367  -5.860  1.00  0.00    -0.248 NA
ATOM     57  C   UNL     1       5.940  19.232  -5.206  1.00  0.00     0.031 C 
ATOM     58  C   UNL     1      10.185  17.387  -9.133  1.00  0.00     0.029 A 
ATOM     59  C   UNL     1       9.246  17.410  -8.115  1.00  0.00     0.049 A 
ATOM     60  H   UNL     1       8.662  15.862  -6.807  1.00  0.00     0.167 HD
ATOM     61  C   UNL     1       7.520  18.447  -6.671  1.00  0.00     0.074 A 
ATOM     62  C   UNL     1       6.699  19.561  -6.243  1.00  0.00     0.031 C 
ATOM     63  C   UNL     1       8.426  18.510  -7.678  1.00  0.00     0.031 A 
BRANCH  50  64
ATOM     64  C   UNL     1      11.382  13.185  -8.730  1.00  0.00    -0.014 A 
ATOM     65  C   UNL     1      11.012  12.212  -9.675  1.00  0.00     0.010 A 
ATOM     66  C   UNL     1      12.746  13.484  -8.553  1.00  0.00     0.010 A 
ATOM     67  C   UNL     1      11.990  11.519 -10.395  1.00  0.00     0.020 A 
ATOM     68  C   UNL     1      13.725  12.812  -9.289  1.00  0.00     0.020 A 
ATOM     69  C   UNL     1      13.341  11.819 -10.192  1.00  0.00     0.054 A 
BRANCH  69  70
ATOM     70  S   UNL     1      14.592  10.913 -11.144  1.00  0.00     0.124 S 
ATOM     71  O   UNL     1      14.612   9.622 -10.461  1.00  0.00    -0.237 OA
ATOM     72  O   UNL     1      14.028  10.903 -12.491  1.00  0.00    -0.237 OA
ATOM     73  O   UNL     1      15.800  11.720 -10.985  1.00  0.00    -0.744 OA
ENDBRANCH  69  70
ENDBRANCH  50  64
BRANCH  51  74
ATOM     74  C   UNL     1       4.552  17.771  -3.083  1.00  0.00    -0.014 A 
ATOM     75  C   UNL     1       3.304  18.141  -3.613  1.00  0.00     0.010 A 
ATOM     76  C   UNL     1       4.835  18.058  -1.734  1.00  0.00     0.010 A 
ATOM     77  C   UNL     1       2.360  18.793  -2.812  1.00  0.00     0.020 A 
ATOM     78  C   UNL     1       3.883  18.683  -0.924  1.00  0.00     0.020 A 
ATOM     79  C   UNL     1       2.655  19.057  -1.472  1.00  0.00     0.054 A 
BRANCH  79  80
ATOM     80  S   UNL     1       1.395  19.846  -0.431  1.00  0.00     0.124 S 
ATOM     81  O   UNL     1       1.487  21.241  -0.849  1.00  0.00    -0.237 OA
ATOM     82  O   UNL     1       0.174  19.146  -0.824  1.00  0.00    -0.237 OA
ATOM     83  O   UNL     1       1.852  19.565   0.928  1.00  0.00    -0.744 OA
ENDBRANCH  79  80
ENDBRANCH  51  74
BRANCH  63  84
ATOM     84  C   UNL     1       8.555  19.820  -8.407  1.00  0.00    -0.014 A 
ATOM     85  C   UNL     1       9.199  20.922  -7.816  1.00  0.00     0.010 A 
ATOM     86  C   UNL     1       8.056  19.938  -9.717  1.00  0.00     0.010 A 
ATOM     87  C   UNL     1       9.311  22.129  -8.511  1.00  0.00     0.020 A 
ATOM     88  C   UNL     1       8.187  21.136 -10.423  1.00  0.00     0.020 A 
ATOM     89  C   UNL     1       8.800  22.230  -9.809  1.00  0.00     0.054 A 
BRANCH  89  90
ATOM     90  S   UNL     1       8.982  23.798 -10.703  1.00  0.00     0.124 S 
ATOM     91  O   UNL     1       7.947  24.622 -10.085  1.00  0.00    -0.237 OA
ATOM     92  O   UNL     1      10.358  24.186 -10.400  1.00  0.00    -0.237 OA
ATOM     93  O   UNL     1       8.738  23.431 -12.096  1.00  0.00    -0.744 OA
ENDBRANCH  89  90
ENDBRANCH  63  84
ENDBRANCH  37  38
ENDBRANCH  30  32
ENDBRANCH  29  30
ENDBRANCH  28  29
ENDBRANCH   1  28
TORSDOF 18
