REMARK SMILES CS(=O)(=O)c1ccc(/C=C(/C(=O)OCCOC(=O)c2ccc(-c3c4nc(c(-c5ccc(S(=O)(=O)[O-])cc5)c5ccc([nH]5)c(-c5ccc(S(=O)(=O)[O-])cc5)c5nc(c(-c6ccc(S(=O)(=O)[O-])cc6)c6ccc3[nH]6)C=C5)C=C4)cc2)c2cccc(Br)c2)cc1
REMARK SMILES IDX 15 1 14 2 13 3 11 4 12 5 10 6 9 7 8 8 5 9 6 10 87 11 7 12
REMARK SMILES IDX 86 13 2 14 1 15 3 16 4 17 79 18 80 19 85 20 81 21 83 22
REMARK SMILES IDX 82 23 84 24 16 25 17 26 18 27 19 28 20 29 78 30 21 31 77 32
REMARK SMILES IDX 22 33 23 34 24 35 71 36 25 37 76 38 70 39 72 40 26 41 75 42
REMARK SMILES IDX 69 43 68 44 27 46 57 47 38 48 56 49 39 50 42 51 55 52 73 53
REMARK SMILES IDX 40 54 41 55 54 57 74 58 43 59 28 60 29 61 37 62 30 63 36 64
REMARK SMILES IDX 31 65 32 66 33 67 34 68 35 69 58 70 59 71 67 72 60 73 66 74
REMARK SMILES IDX 61 75 62 76 63 77 64 78 65 79 44 80 45 81 53 82 46 83 52 84
REMARK SMILES IDX 47 85 48 86 49 87 50 88 51 89
REMARK H PARENT 72 45 42 56
REMARK Flexibility Score: inf
ROOT
ATOM      1  C   UNL     1       2.712  10.787   3.049  1.00  0.00     0.275 C 
ENDROOT
BRANCH   1   2
ATOM      2  C   UNL     1       3.189  10.360   1.661  1.00  0.00     0.275 C 
BRANCH   2   3
ATOM      3  O   UNL     1       2.697   9.037   1.349  1.00  0.00    -0.458 OA
BRANCH   3   4
ATOM      4  C   UNL     1       3.596   8.022   1.466  1.00  0.00     0.338 C 
ATOM      5  O   UNL     1       4.770   8.155   1.781  1.00  0.00    -0.246 OA
BRANCH   4   6
ATOM      6  C   UNL     1       2.977   6.683   1.193  1.00  0.00     0.067 C 
ATOM      7  C   UNL     1       1.817   6.585   0.503  1.00  0.00     0.024 C 
BRANCH   7   8
ATOM      8  C   UNL     1       1.214   5.317   0.054  1.00  0.00    -0.025 A 
ATOM      9  C   UNL     1       0.421   2.807  -0.888  1.00  0.00     0.067 A 
ATOM     10  C   UNL     1       0.480   3.038   0.486  1.00  0.00     0.021 A 
ATOM     11  C   UNL     1       0.678   3.840  -1.793  1.00  0.00     0.021 A 
ATOM     12  C   UNL     1       0.853   4.301   0.950  1.00  0.00     0.009 A 
ATOM     13  C   UNL     1       1.073   5.093  -1.320  1.00  0.00     0.009 A 
BRANCH   9  14
ATOM     14  S   UNL     1       0.086   1.179  -1.517  1.00  0.00     0.175 S 
ATOM     15  C   UNL     1       0.918   0.054  -0.425  1.00  0.00     0.163 C 
ATOM     16  O   UNL     1       0.744   1.082  -2.808  1.00  0.00    -0.224 OA
ATOM     17  O   UNL     1      -1.343   0.973  -1.394  1.00  0.00    -0.224 OA
ENDBRANCH   9  14
ENDBRANCH   7   8
BRANCH   6  18
ATOM     18  C   UNL     1       3.706   5.472   1.640  1.00  0.00    -0.010 A 
ATOM     19  C   UNL     1       3.444   4.932   2.908  1.00  0.00     0.009 A 
ATOM     20  C   UNL     1       4.595   4.805   0.790  1.00  0.00     0.024 A 
ATOM     21  C   UNL     1       4.067   3.755   3.330  1.00  0.00     0.002 A 
ATOM     22  C   UNL     1       5.206   3.622   1.214  1.00  0.00     0.018 A 
ATOM     23  C   UNL     1       4.953   3.099   2.482  1.00  0.00     0.016 A 
ATOM     24  Br  UNL     1       6.362   2.696   0.040  1.00  0.00    -0.051 Br
ENDBRANCH   6  18
ENDBRANCH   4   6
ENDBRANCH   3   4
ENDBRANCH   2   3
ENDBRANCH   1   2
BRANCH   1  25
ATOM     25  O   UNL     1       3.323   9.927   4.020  1.00  0.00    -0.458 OA
BRANCH  25  26
ATOM     26  C   UNL     1       2.642   9.747   5.176  1.00  0.00     0.338 C 
ATOM     27  O   UNL     1       1.644  10.346   5.535  1.00  0.00    -0.246 OA
BRANCH  26  28
ATOM     28  C   UNL     1       3.277   8.647   5.940  1.00  0.00     0.060 A 
ATOM     29  C   UNL     1       3.825   7.562   5.260  1.00  0.00     0.016 A 
ATOM     30  C   UNL     1       3.252   8.636   7.337  1.00  0.00     0.016 A 
ATOM     31  C   UNL     1       4.257   6.441   5.962  1.00  0.00     0.010 A 
ATOM     32  C   UNL     1       3.767   7.534   8.042  1.00  0.00     0.010 A 
ATOM     33  C   UNL     1       4.230   6.395   7.362  1.00  0.00    -0.014 A 
BRANCH  33  34
ATOM     34  C   UNL     1       4.600   5.120   8.054  1.00  0.00     0.031 A 
ATOM     35  C   UNL     1       3.605   4.415   8.949  1.00  0.00     0.074 A 
ATOM     36  C   UNL     1       5.776   4.507   7.791  1.00  0.00     0.049 A 
ATOM     37  N   UNL     1       3.756   3.315   9.646  1.00  0.00    -0.248 NA
ATOM     38  C   UNL     1       2.268   5.018   9.076  1.00  0.00     0.031 C 
ATOM     39  C   UNL     1       6.818   5.013   6.895  1.00  0.00     0.029 A 
ATOM     40  N   UNL     1       6.271   3.294   8.212  1.00  0.00    -0.354 N 
ATOM     41  C   UNL     1       2.560   3.127  10.332  1.00  0.00     0.074 A 
ATOM     42  C   UNL     1       1.692   4.225   9.968  1.00  0.00     0.031 C 
ATOM     43  C   UNL     1       7.776   4.083   6.760  1.00  0.00     0.029 A 
ATOM     44  C   UNL     1       7.476   2.958   7.638  1.00  0.00     0.049 A 
ATOM     45  H   UNL     1       5.806   2.720   8.863  1.00  0.00     0.167 HD
ATOM     46  C   UNL     1       2.210   2.138  11.190  1.00  0.00     0.031 A 
ATOM     47  C   UNL     1       8.271   1.883   7.809  1.00  0.00     0.031 A 
ATOM     48  C   UNL     1       3.045   1.020  11.540  1.00  0.00     0.049 A 
ATOM     49  C   UNL     1       7.882   0.822   8.800  1.00  0.00     0.074 A 
ATOM     50  C   UNL     1       2.782  -0.005  12.434  1.00  0.00     0.029 A 
ATOM     51  N   UNL     1       4.295   0.765  11.001  1.00  0.00    -0.354 N 
ATOM     52  N   UNL     1       6.783   0.717   9.507  1.00  0.00    -0.248 NA
ATOM     53  C   UNL     1       8.857  -0.254   9.033  1.00  0.00     0.031 C 
ATOM     54  C   UNL     1       3.889  -0.862  12.460  1.00  0.00     0.029 A 
ATOM     55  C   UNL     1       4.820  -0.394  11.549  1.00  0.00     0.049 A 
ATOM     56  H   UNL     1       4.745   1.326  10.328  1.00  0.00     0.167 HD
ATOM     57  C   UNL     1       6.937  -0.434  10.271  1.00  0.00     0.074 A 
ATOM     58  C   UNL     1       8.216  -1.011   9.913  1.00  0.00     0.031 C 
ATOM     59  C   UNL     1       6.097  -0.959  11.198  1.00  0.00     0.031 A 
BRANCH  46  60
ATOM     60  C   UNL     1       0.869   2.255  11.863  1.00  0.00    -0.014 A 
ATOM     61  C   UNL     1      -0.325   1.961  11.181  1.00  0.00     0.010 A 
ATOM     62  C   UNL     1       0.811   2.648  13.213  1.00  0.00     0.010 A 
ATOM     63  C   UNL     1      -1.557   2.097  11.828  1.00  0.00     0.020 A 
ATOM     64  C   UNL     1      -0.417   2.763  13.868  1.00  0.00     0.020 A 
ATOM     65  C   UNL     1      -1.595   2.506  13.165  1.00  0.00     0.054 A 
BRANCH  65  66
ATOM     66  S   UNL     1      -3.205   2.672  13.985  1.00  0.00     0.124 S 
ATOM     67  O   UNL     1      -3.696   3.929  13.425  1.00  0.00    -0.237 OA
ATOM     68  O   UNL     1      -3.914   1.472  13.552  1.00  0.00    -0.237 OA
ATOM     69  O   UNL     1      -2.866   2.713  15.406  1.00  0.00    -0.744 OA
ENDBRANCH  65  66
ENDBRANCH  46  60
BRANCH  47  70
ATOM     70  C   UNL     1       9.558   1.779   7.065  1.00  0.00    -0.014 A 
ATOM     71  C   UNL     1       9.747   0.786   6.088  1.00  0.00     0.010 A 
ATOM     72  C   UNL     1      10.608   2.673   7.344  1.00  0.00     0.010 A 
ATOM     73  C   UNL     1      10.968   0.679   5.415  1.00  0.00     0.020 A 
ATOM     74  C   UNL     1      11.818   2.590   6.651  1.00  0.00     0.020 A 
ATOM     75  C   UNL     1      11.996   1.583   5.701  1.00  0.00     0.054 A 
BRANCH  75  76
ATOM     76  S   UNL     1      13.559   1.465   4.789  1.00  0.00     0.124 S 
ATOM     77  O   UNL     1      14.237   0.381   5.491  1.00  0.00    -0.237 OA
ATOM     78  O   UNL     1      13.116   1.161   3.431  1.00  0.00    -0.237 OA
ATOM     79  O   UNL     1      14.150   2.791   4.959  1.00  0.00    -0.744 OA
ENDBRANCH  75  76
ENDBRANCH  47  70
BRANCH  59  80
ATOM     80  C   UNL     1       6.530  -2.230  11.875  1.00  0.00    -0.014 A 
ATOM     81  C   UNL     1       7.560  -2.227  12.834  1.00  0.00     0.010 A 
ATOM     82  C   UNL     1       5.894  -3.443  11.556  1.00  0.00     0.010 A 
ATOM     83  C   UNL     1       7.977  -3.422  13.427  1.00  0.00     0.020 A 
ATOM     84  C   UNL     1       6.293  -4.636  12.164  1.00  0.00     0.020 A 
ATOM     85  C   UNL     1       7.347  -4.621  13.081  1.00  0.00     0.054 A 
BRANCH  85  86
ATOM     86  S   UNL     1       7.897  -6.161  13.867  1.00  0.00     0.124 S 
ATOM     87  O   UNL     1       9.114  -6.464  13.119  1.00  0.00    -0.237 OA
ATOM     88  O   UNL     1       8.096  -5.763  15.258  1.00  0.00    -0.237 OA
ATOM     89  O   UNL     1       6.782  -7.079  13.642  1.00  0.00    -0.744 OA
ENDBRANCH  85  86
ENDBRANCH  59  80
ENDBRANCH  33  34
ENDBRANCH  26  28
ENDBRANCH  25  26
ENDBRANCH   1  25
TORSDOF 17
