REMARK SMILES CC(C)CC[C@@H](C(=O)OCCOC(=O)c1ccc(-c2c3nc(c(-c4ccc(S(=O)(=O)[O-])cc4)c4ccc([nH]4)c(-c4ccc(S(=O)(=O)[O-])cc4)c4nc(c(-c5ccc(S(=O)(=O)[O-])cc5)c5ccc2[nH]5)C=C4)C=C3)cc1)c1ccc(Br)cc1
REMARK SMILES IDX 10 1 9 2 7 3 8 4 6 5 5 6 4 7 2 8 1 9 3 10 75 11 76 12 81 13
REMARK SMILES IDX 77 14 80 15 78 16 79 17 11 18 12 19 13 20 14 21 15 22 16 23
REMARK SMILES IDX 74 24 17 25 73 26 18 27 19 28 20 29 67 30 21 31 72 32 66 33
REMARK SMILES IDX 68 34 22 35 71 36 65 37 64 38 23 40 53 41 34 42 52 43 35 44
REMARK SMILES IDX 38 45 51 46 69 47 36 48 37 49 50 51 70 52 39 53 24 54 25 55
REMARK SMILES IDX 33 56 26 57 32 58 27 59 28 60 29 61 30 62 31 63 54 64 55 65
REMARK SMILES IDX 63 66 56 67 62 68 57 69 58 70 59 71 60 72 61 73 40 74 41 75
REMARK SMILES IDX 49 76 42 77 48 78 43 79 44 80 45 81 46 82 47 83
REMARK H PARENT 68 39 38 50
REMARK Flexibility Score: inf
ROOT
ATOM      1  C   UNL     1      -1.825  -4.028  -3.038  1.00  0.00     0.274 C 
ENDROOT
BRANCH   1   2
ATOM      2  O   UNL     1      -1.649  -2.648  -2.657  1.00  0.00    -0.462 OA
BRANCH   2   3
ATOM      3  C   UNL     1      -0.663  -1.938  -3.269  1.00  0.00     0.313 C 
ATOM      4  O   UNL     1       0.042  -2.391  -4.163  1.00  0.00    -0.252 OA
BRANCH   3   5
ATOM      5  C   UNL     1      -0.497  -0.525  -2.672  1.00  0.00     0.129 C 
BRANCH   5   6
ATOM      6  C   UNL     1      -1.273  -0.375  -1.328  1.00  0.00     0.020 C 
BRANCH   6   7
ATOM      7  C   UNL     1      -0.826  -1.295  -0.173  1.00  0.00     0.004 C 
BRANCH   7   8
ATOM      8  C   UNL     1       0.693  -1.400   0.047  1.00  0.00    -0.017 C 
ATOM      9  C   UNL     1       1.327  -0.044   0.360  1.00  0.00     0.007 C 
ATOM     10  C   UNL     1       0.991  -2.391   1.173  1.00  0.00     0.007 C 
ENDBRANCH   7   8
ENDBRANCH   6   7
ENDBRANCH   5   6
BRANCH   5  11
ATOM     11  C   UNL     1      -0.729   0.646  -3.650  1.00  0.00    -0.034 A 
ATOM     12  C   UNL     1      -0.845   1.967  -3.168  1.00  0.00     0.006 A 
ATOM     13  C   UNL     1      -0.706   0.487  -5.046  1.00  0.00     0.006 A 
ATOM     14  C   UNL     1      -1.019   3.059  -4.026  1.00  0.00     0.016 A 
ATOM     15  C   UNL     1      -0.868   1.581  -5.912  1.00  0.00     0.016 A 
ATOM     16  C   UNL     1      -1.046   2.858  -5.397  1.00  0.00     0.017 A 
ATOM     17  Br  UNL     1      -1.306   4.324  -6.559  1.00  0.00    -0.051 Br
ENDBRANCH   5  11
ENDBRANCH   3   5
ENDBRANCH   2   3
ENDBRANCH   1   2
BRANCH   1  18
ATOM     18  C   UNL     1      -3.317  -4.342  -2.992  1.00  0.00     0.275 C 
BRANCH  18  19
ATOM     19  O   UNL     1      -3.941  -3.537  -4.004  1.00  0.00    -0.458 OA
BRANCH  19  20
ATOM     20  C   UNL     1      -4.893  -2.666  -3.593  1.00  0.00     0.338 C 
ATOM     21  O   UNL     1      -5.475  -2.647  -2.526  1.00  0.00    -0.246 OA
BRANCH  20  22
ATOM     22  C   UNL     1      -5.084  -1.687  -4.679  1.00  0.00     0.060 A 
ATOM     23  C   UNL     1      -3.969  -1.031  -5.201  1.00  0.00     0.016 A 
ATOM     24  C   UNL     1      -6.359  -1.392  -5.159  1.00  0.00     0.016 A 
ATOM     25  C   UNL     1      -4.129  -0.076  -6.200  1.00  0.00     0.010 A 
ATOM     26  C   UNL     1      -6.504  -0.481  -6.215  1.00  0.00     0.010 A 
ATOM     27  C   UNL     1      -5.388   0.189  -6.749  1.00  0.00    -0.014 A 
BRANCH  27  28
ATOM     28  C   UNL     1      -5.527   1.176  -7.859  1.00  0.00     0.031 A 
ATOM     29  C   UNL     1      -6.401   2.388  -7.686  1.00  0.00     0.074 A 
ATOM     30  C   UNL     1      -4.842   1.024  -9.012  1.00  0.00     0.049 A 
ATOM     31  N   UNL     1      -6.821   3.238  -8.587  1.00  0.00    -0.248 NA
ATOM     32  C   UNL     1      -6.866   2.678  -6.321  1.00  0.00     0.031 C 
ATOM     33  C   UNL     1      -3.872  -0.036  -9.296  1.00  0.00     0.029 A 
ATOM     34  N   UNL     1      -4.841   1.782 -10.159  1.00  0.00    -0.354 N 
ATOM     35  C   UNL     1      -7.646   4.129  -7.912  1.00  0.00     0.074 A 
ATOM     36  C   UNL     1      -7.659   3.722  -6.522  1.00  0.00     0.031 C 
ATOM     37  C   UNL     1      -3.326   0.176 -10.504  1.00  0.00     0.029 A 
ATOM     38  C   UNL     1      -3.990   1.313 -11.133  1.00  0.00     0.049 A 
ATOM     39  H   UNL     1      -5.398   2.586 -10.274  1.00  0.00     0.167 HD
ATOM     40  C   UNL     1      -8.342   5.181  -8.408  1.00  0.00     0.031 A 
ATOM     41  C   UNL     1      -3.801   1.707 -12.408  1.00  0.00     0.031 A 
ATOM     42  C   UNL     1      -8.306   5.599  -9.784  1.00  0.00     0.049 A 
ATOM     43  C   UNL     1      -4.664   2.802 -12.970  1.00  0.00     0.074 A 
ATOM     44  C   UNL     1      -9.008   6.625 -10.393  1.00  0.00     0.029 A 
ATOM     45  N   UNL     1      -7.514   5.021 -10.764  1.00  0.00    -0.354 N 
ATOM     46  N   UNL     1      -5.541   3.556 -12.353  1.00  0.00    -0.248 NA
ATOM     47  C   UNL     1      -4.551   3.061 -14.413  1.00  0.00     0.031 C 
ATOM     48  C   UNL     1      -8.672   6.638 -11.752  1.00  0.00     0.029 A 
ATOM     49  C   UNL     1      -7.728   5.650 -11.979  1.00  0.00     0.049 A 
ATOM     50  H   UNL     1      -6.890   4.273 -10.618  1.00  0.00     0.167 HD
ATOM     51  C   UNL     1      -6.097   4.369 -13.334  1.00  0.00     0.074 A 
ATOM     52  C   UNL     1      -5.435   4.037 -14.580  1.00  0.00     0.031 C 
ATOM     53  C   UNL     1      -7.079   5.295 -13.215  1.00  0.00     0.031 A 
BRANCH  40  54
ATOM     54  C   UNL     1      -9.265   5.901  -7.463  1.00  0.00    -0.014 A 
ATOM     55  C   UNL     1      -8.778   6.780  -6.481  1.00  0.00     0.010 A 
ATOM     56  C   UNL     1     -10.652   5.690  -7.570  1.00  0.00     0.010 A 
ATOM     57  C   UNL     1      -9.661   7.397  -5.588  1.00  0.00     0.020 A 
ATOM     58  C   UNL     1     -11.539   6.322  -6.695  1.00  0.00     0.020 A 
ATOM     59  C   UNL     1     -11.034   7.155  -5.694  1.00  0.00     0.054 A 
BRANCH  59  60
ATOM     60  S   UNL     1     -12.160   7.952  -4.516  1.00  0.00     0.124 S 
ATOM     61  O   UNL     1     -11.949   7.152  -3.312  1.00  0.00    -0.237 OA
ATOM     62  O   UNL     1     -11.650   9.320  -4.457  1.00  0.00    -0.237 OA
ATOM     63  O   UNL     1     -13.473   7.807  -5.138  1.00  0.00    -0.744 OA
ENDBRANCH  59  60
ENDBRANCH  40  54
BRANCH  41  64
ATOM     64  C   UNL     1      -2.817   0.994 -13.269  1.00  0.00    -0.014 A 
ATOM     65  C   UNL     1      -1.640   1.634 -13.692  1.00  0.00     0.010 A 
ATOM     66  C   UNL     1      -3.040  -0.345 -13.645  1.00  0.00     0.010 A 
ATOM     67  C   UNL     1      -0.699   0.946 -14.465  1.00  0.00     0.020 A 
ATOM     68  C   UNL     1      -2.089  -1.044 -14.392  1.00  0.00     0.020 A 
ATOM     69  C   UNL     1      -0.926  -0.392 -14.803  1.00  0.00     0.054 A 
BRANCH  69  70
ATOM     70  S   UNL     1       0.346  -1.299 -15.727  1.00  0.00     0.124 S 
ATOM     71  O   UNL     1       0.120  -0.833 -17.091  1.00  0.00    -0.237 OA
ATOM     72  O   UNL     1       1.584  -0.844 -15.098  1.00  0.00    -0.237 OA
ATOM     73  O   UNL     1       0.011  -2.700 -15.478  1.00  0.00    -0.744 OA
ENDBRANCH  69  70
ENDBRANCH  41  64
BRANCH  53  74
ATOM     74  C   UNL     1      -7.511   6.009 -14.465  1.00  0.00    -0.014 A 
ATOM     75  C   UNL     1      -8.348   5.374 -15.398  1.00  0.00     0.010 A 
ATOM     76  C   UNL     1      -7.133   7.347 -14.677  1.00  0.00     0.010 A 
ATOM     77  C   UNL     1      -8.794   6.062 -16.530  1.00  0.00     0.020 A 
ATOM     78  C   UNL     1      -7.592   8.044 -15.798  1.00  0.00     0.020 A 
ATOM     79  C   UNL     1      -8.414   7.394 -16.722  1.00  0.00     0.054 A 
BRANCH  79  80
ATOM     80  S   UNL     1      -9.059   8.286 -18.164  1.00  0.00     0.124 S 
ATOM     81  O   UNL     1      -8.258   7.727 -19.250  1.00  0.00    -0.237 OA
ATOM     82  O   UNL     1     -10.471   7.914 -18.169  1.00  0.00    -0.237 OA
ATOM     83  O   UNL     1      -8.792   9.688 -17.851  1.00  0.00    -0.744 OA
ENDBRANCH  79  80
ENDBRANCH  53  74
ENDBRANCH  27  28
ENDBRANCH  20  22
ENDBRANCH  19  20
ENDBRANCH  18  19
ENDBRANCH   1  18
TORSDOF 18
