REMARK SMILES Nc1c(C(=O)OCCOC(=O)c2ccc(-c3c4nc(c(-c5ccc(S(=O)(=O)[O-])cc5)c5ccc([nH]5)c(-c5ccc(S(=O)(=O)[O-])cc5)c5nc(c(-c6ccc(S(=O)(=O)[O-])cc6)c6ccc3[nH]6)C=C5)C=C4)cc2)cccc1-c1cc(F)c(F)c(F)c1
REMARK SMILES IDX 8 1 7 2 6 3 4 4 5 5 3 6 2 7 75 8 72 9 74 10 73 11 1 12 76 15
REMARK SMILES IDX 77 16 84 17 78 18 82 19 79 20 80 21 83 22 81 23 9 24 10 25
REMARK SMILES IDX 11 26 12 27 13 28 71 29 14 30 70 31 15 32 16 33 17 34 64 35
REMARK SMILES IDX 18 36 69 37 63 38 65 39 19 40 68 41 62 42 61 43 20 45 50 46
REMARK SMILES IDX 31 47 49 48 32 49 35 50 48 51 66 52 33 53 34 54 47 56 67 57
REMARK SMILES IDX 36 58 21 59 22 60 30 61 23 62 29 63 24 64 25 65 26 66 27 67
REMARK SMILES IDX 28 68 51 69 52 70 60 71 53 72 59 73 54 74 55 75 56 76 57 77
REMARK SMILES IDX 58 78 37 79 38 80 46 81 39 82 45 83 40 84 41 85 42 86 43 87
REMARK SMILES IDX 44 88
REMARK H PARENT 1 13 1 14 65 44 35 55
REMARK Flexibility Score: inf
ROOT
ATOM      1  C   UNL     1       2.530  -4.535   1.065  1.00  0.00     0.275 C 
ENDROOT
BRANCH   1   2
ATOM      2  C   UNL     1       2.839  -3.628  -0.124  1.00  0.00     0.275 C 
BRANCH   2   3
ATOM      3  O   UNL     1       2.199  -2.343   0.026  1.00  0.00    -0.458 OA
BRANCH   3   4
ATOM      4  C   UNL     1       1.125  -2.114  -0.779  1.00  0.00     0.340 C 
ATOM      5  O   UNL     1       0.663  -2.895  -1.592  1.00  0.00    -0.246 OA
BRANCH   4   6
ATOM      6  C   UNL     1       0.495  -0.797  -0.485  1.00  0.00     0.083 A 
ATOM      7  C   UNL     1       1.230   0.366  -0.171  1.00  0.00     0.054 A 
ATOM      8  C   UNL     1       0.525   1.598  -0.067  1.00  0.00     0.006 A 
ATOM      9  C   UNL     1      -0.906  -0.742  -0.591  1.00  0.00     0.018 A 
ATOM     10  C   UNL     1      -0.886   1.595  -0.084  1.00  0.00     0.011 A 
ATOM     11  C   UNL     1      -1.599   0.432  -0.334  1.00  0.00     0.002 A 
BRANCH   7  12
ATOM     12  N   UNL     1       2.636   0.356  -0.156  1.00  0.00    -0.398 N 
ATOM     13  H   UNL     1       3.123  -0.496  -0.228  1.00  0.00     0.156 HD
ATOM     14  H   UNL     1       3.133   1.202  -0.073  1.00  0.00     0.156 HD
ENDBRANCH   7  12
BRANCH   8  15
ATOM     15  C   UNL     1       1.207   2.905  -0.056  1.00  0.00    -0.010 A 
ATOM     16  C   UNL     1       1.016   3.833   0.980  1.00  0.00     0.051 A 
ATOM     17  C   UNL     1       2.007   3.282  -1.152  1.00  0.00     0.051 A 
ATOM     18  C   UNL     1       1.609   5.093   0.910  1.00  0.00     0.162 A 
ATOM     19  C   UNL     1       2.596   4.542  -1.202  1.00  0.00     0.162 A 
ATOM     20  F   UNL     1       1.402   5.969   1.904  1.00  0.00    -0.204 F 
ATOM     21  C   UNL     1       2.397   5.450  -0.175  1.00  0.00     0.194 A 
ATOM     22  F   UNL     1       3.351   4.870  -2.259  1.00  0.00    -0.204 F 
ATOM     23  F   UNL     1       2.958   6.666  -0.234  1.00  0.00    -0.200 F 
ENDBRANCH   8  15
ENDBRANCH   4   6
ENDBRANCH   3   4
ENDBRANCH   2   3
ENDBRANCH   1   2
BRANCH   1  24
ATOM     24  O   UNL     1       1.137  -4.891   1.055  1.00  0.00    -0.458 OA
BRANCH  24  25
ATOM     25  C   UNL     1       0.399  -4.405   2.078  1.00  0.00     0.338 C 
ATOM     26  O   UNL     1       0.789  -3.766   3.041  1.00  0.00    -0.246 OA
BRANCH  25  27
ATOM     27  C   UNL     1      -1.019  -4.707   1.835  1.00  0.00     0.060 A 
ATOM     28  C   UNL     1      -1.676  -4.014   0.825  1.00  0.00     0.016 A 
ATOM     29  C   UNL     1      -1.729  -5.558   2.676  1.00  0.00     0.016 A 
ATOM     30  C   UNL     1      -3.061  -4.084   0.706  1.00  0.00     0.010 A 
ATOM     31  C   UNL     1      -3.109  -5.710   2.488  1.00  0.00     0.010 A 
ATOM     32  C   UNL     1      -3.800  -4.944   1.529  1.00  0.00    -0.014 A 
BRANCH  32  33
ATOM     33  C   UNL     1      -5.288  -5.004   1.418  1.00  0.00     0.031 A 
ATOM     34  C   UNL     1      -6.149  -4.710   2.623  1.00  0.00     0.074 A 
ATOM     35  C   UNL     1      -5.882  -5.303   0.244  1.00  0.00     0.049 A 
ATOM     36  N   UNL     1      -7.438  -4.878   2.781  1.00  0.00    -0.248 NA
ATOM     37  C   UNL     1      -5.468  -4.169   3.811  1.00  0.00     0.031 C 
ATOM     38  C   UNL     1      -5.188  -5.554  -1.022  1.00  0.00     0.029 A 
ATOM     39  N   UNL     1      -7.211  -5.434  -0.080  1.00  0.00    -0.354 N 
ATOM     40  C   UNL     1      -7.708  -4.535   4.102  1.00  0.00     0.074 A 
ATOM     41  C   UNL     1      -6.450  -4.145   4.700  1.00  0.00     0.031 C 
ATOM     42  C   UNL     1      -6.095  -5.758  -1.990  1.00  0.00     0.029 A 
ATOM     43  C   UNL     1      -7.429  -5.752  -1.401  1.00  0.00     0.049 A 
ATOM     44  H   UNL     1      -7.939  -5.312   0.571  1.00  0.00     0.167 HD
ATOM     45  C   UNL     1      -8.894  -4.550   4.758  1.00  0.00     0.031 A 
ATOM     46  C   UNL     1      -8.564  -6.050  -2.063  1.00  0.00     0.031 A 
ATOM     47  C   UNL     1     -10.152  -4.890   4.147  1.00  0.00     0.049 A 
ATOM     48  C   UNL     1      -9.863  -6.090  -1.311  1.00  0.00     0.074 A 
ATOM     49  C   UNL     1     -11.410  -4.918   4.725  1.00  0.00     0.029 A 
ATOM     50  N   UNL     1     -10.317  -5.245   2.817  1.00  0.00    -0.354 N 
ATOM     51  N   UNL     1     -10.090  -5.825  -0.046  1.00  0.00    -0.248 NA
ATOM     52  C   UNL     1     -11.056  -6.491  -2.069  1.00  0.00     0.031 C 
ATOM     53  C   UNL     1     -12.330  -5.330   3.753  1.00  0.00     0.029 A 
ATOM     54  C   UNL     1     -11.652  -5.508   2.558  1.00  0.00     0.049 A 
ATOM     55  H   UNL     1      -9.591  -5.301   2.154  1.00  0.00     0.167 HD
ATOM     56  C   UNL     1     -11.454  -6.019   0.141  1.00  0.00     0.074 A 
ATOM     57  C   UNL     1     -12.003  -6.403  -1.145  1.00  0.00     0.031 C 
ATOM     58  C   UNL     1     -12.183  -5.895   1.276  1.00  0.00     0.031 A 
BRANCH  45  59
ATOM     59  C   UNL     1      -8.876  -4.242   6.233  1.00  0.00    -0.014 A 
ATOM     60  C   UNL     1      -8.658  -2.940   6.717  1.00  0.00     0.010 A 
ATOM     61  C   UNL     1      -9.104  -5.283   7.154  1.00  0.00     0.010 A 
ATOM     62  C   UNL     1      -8.618  -2.695   8.093  1.00  0.00     0.020 A 
ATOM     63  C   UNL     1      -9.091  -5.037   8.529  1.00  0.00     0.020 A 
ATOM     64  C   UNL     1      -8.825  -3.747   8.991  1.00  0.00     0.054 A 
BRANCH  64  65
ATOM     65  S   UNL     1      -8.766  -3.405  10.771  1.00  0.00     0.124 S 
ATOM     66  O   UNL     1      -7.330  -3.268  11.003  1.00  0.00    -0.237 OA
ATOM     67  O   UNL     1      -9.540  -2.171  10.889  1.00  0.00    -0.237 OA
ATOM     68  O   UNL     1      -9.385  -4.584  11.372  1.00  0.00    -0.744 OA
ENDBRANCH  64  65
ENDBRANCH  45  59
BRANCH  46  69
ATOM     69  C   UNL     1      -8.507  -6.382  -3.514  1.00  0.00    -0.014 A 
ATOM     70  C   UNL     1      -9.032  -5.497  -4.470  1.00  0.00     0.010 A 
ATOM     71  C   UNL     1      -7.893  -7.572  -3.947  1.00  0.00     0.010 A 
ATOM     72  C   UNL     1      -8.940  -5.793  -5.834  1.00  0.00     0.020 A 
ATOM     73  C   UNL     1      -7.773  -7.857  -5.310  1.00  0.00     0.020 A 
ATOM     74  C   UNL     1      -8.305  -6.968  -6.245  1.00  0.00     0.054 A 
BRANCH  74  75
ATOM     75  S   UNL     1      -8.121  -7.293  -8.021  1.00  0.00     0.124 S 
ATOM     76  O   UNL     1      -9.464  -7.728  -8.390  1.00  0.00    -0.237 OA
ATOM     77  O   UNL     1      -7.711  -5.991  -8.541  1.00  0.00    -0.237 OA
ATOM     78  O   UNL     1      -7.090  -8.328  -8.073  1.00  0.00    -0.744 OA
ENDBRANCH  74  75
ENDBRANCH  46  69
BRANCH  58  79
ATOM     79  C   UNL     1     -13.662  -6.149   1.175  1.00  0.00    -0.014 A 
ATOM     80  C   UNL     1     -14.168  -7.455   1.052  1.00  0.00     0.010 A 
ATOM     81  C   UNL     1     -14.559  -5.068   1.246  1.00  0.00     0.010 A 
ATOM     82  C   UNL     1     -15.546  -7.673   0.972  1.00  0.00     0.020 A 
ATOM     83  C   UNL     1     -15.938  -5.284   1.190  1.00  0.00     0.020 A 
ATOM     84  C   UNL     1     -16.422  -6.585   1.039  1.00  0.00     0.054 A 
BRANCH  84  85
ATOM     85  S   UNL     1     -18.209  -6.894   0.972  1.00  0.00     0.124 S 
ATOM     86  O   UNL     1     -18.415  -7.173  -0.447  1.00  0.00    -0.237 OA
ATOM     87  O   UNL     1     -18.372  -8.037   1.867  1.00  0.00    -0.237 OA
ATOM     88  O   UNL     1     -18.794  -5.645   1.453  1.00  0.00    -0.744 OA
ENDBRANCH  84  85
ENDBRANCH  58  79
ENDBRANCH  32  33
ENDBRANCH  25  27
ENDBRANCH  24  25
ENDBRANCH   1  24
TORSDOF 16
