REMARK SMILES C/C=C/C[C@@H](C(=O)OCCOC(=O)c1ccc(-c2c3nc(c(-c4ccc(S(=O)(=O)[O-])cc4)c4ccc([nH]4)c(-c4ccc(S(=O)(=O)[O-])cc4)c4nc(c(-c5ccc(S(=O)(=O)[O-])cc5)c5ccc2[nH]5)C=C4)C=C3)cc1)c1cccc(Cl)c1
REMARK SMILES IDX 10 1 9 2 8 3 6 4 7 5 5 6 4 7 3 8 1 9 2 10 74 11 75 12 80 13
REMARK SMILES IDX 76 14 78 15 77 16 79 17 11 18 12 19 13 20 14 21 15 22 73 23
REMARK SMILES IDX 16 24 72 25 17 26 18 27 19 28 66 29 20 30 71 31 65 32 67 33
REMARK SMILES IDX 21 34 70 35 64 36 63 37 22 39 52 40 33 41 51 42 34 43 37 44
REMARK SMILES IDX 50 45 68 46 35 47 36 48 49 50 69 51 38 52 23 53 24 54 32 55
REMARK SMILES IDX 25 56 31 57 26 58 27 59 28 60 29 61 30 62 53 63 54 64 62 65
REMARK SMILES IDX 55 66 61 67 56 68 57 69 58 70 59 71 60 72 39 73 40 74 48 75
REMARK SMILES IDX 41 76 47 77 42 78 43 79 44 80 45 81 46 82
REMARK H PARENT 67 38 37 49
REMARK Flexibility Score: inf
ROOT
ATOM      1  C   UNL     1      -2.685   3.112   4.121  1.00  0.00     0.275 C 
ENDROOT
BRANCH   1   2
ATOM      2  C   UNL     1      -1.155   3.068   4.225  1.00  0.00     0.274 C 
BRANCH   2   3
ATOM      3  O   UNL     1      -0.614   1.755   3.972  1.00  0.00    -0.462 OA
BRANCH   3   4
ATOM      4  C   UNL     1      -0.470   0.942   5.056  1.00  0.00     0.313 C 
ATOM      5  O   UNL     1      -0.741   1.336   6.184  1.00  0.00    -0.252 OA
BRANCH   4   6
ATOM      6  C   UNL     1       0.147  -0.446   4.702  1.00  0.00     0.133 C 
BRANCH   6   7
ATOM      7  C   UNL     1      -0.417  -0.994   3.350  1.00  0.00     0.047 C 
BRANCH   7   8
ATOM      8  C   UNL     1      -0.079  -0.255   2.078  1.00  0.00    -0.030 C 
ATOM      9  C   UNL     1       1.010  -0.008  -0.156  1.00  0.00     0.035 C 
ATOM     10  C   UNL     1       0.749  -0.721   1.130  1.00  0.00    -0.035 C 
ENDBRANCH   7   8
ENDBRANCH   6   7
BRANCH   6  11
ATOM     11  C   UNL     1       0.019  -1.482   5.867  1.00  0.00    -0.032 A 
ATOM     12  C   UNL     1       0.145  -1.090   7.216  1.00  0.00     0.005 A 
ATOM     13  C   UNL     1      -0.194  -2.859   5.648  1.00  0.00     0.025 A 
ATOM     14  C   UNL     1      -0.070  -1.980   8.277  1.00  0.00     0.002 A 
ATOM     15  C   UNL     1      -0.376  -3.756   6.710  1.00  0.00     0.041 A 
ATOM     16  C   UNL     1      -0.345  -3.317   8.025  1.00  0.00     0.020 A 
ATOM     17  Cl  UNL     1      -0.660  -5.421   6.374  1.00  0.00    -0.084 Cl
ENDBRANCH   6  11
ENDBRANCH   4   6
ENDBRANCH   3   4
ENDBRANCH   2   3
ENDBRANCH   1   2
BRANCH   1  18
ATOM     18  O   UNL     1      -3.326   2.324   5.143  1.00  0.00    -0.458 OA
BRANCH  18  19
ATOM     19  C   UNL     1      -3.639   1.061   4.769  1.00  0.00     0.338 C 
ATOM     20  O   UNL     1      -3.511   0.592   3.644  1.00  0.00    -0.246 OA
BRANCH  19  21
ATOM     21  C   UNL     1      -4.003   0.231   5.936  1.00  0.00     0.060 A 
ATOM     22  C   UNL     1      -3.486  -1.068   5.973  1.00  0.00     0.016 A 
ATOM     23  C   UNL     1      -4.863   0.666   6.948  1.00  0.00     0.016 A 
ATOM     24  C   UNL     1      -3.808  -1.931   7.014  1.00  0.00     0.010 A 
ATOM     25  C   UNL     1      -5.217  -0.216   7.981  1.00  0.00     0.010 A 
ATOM     26  C   UNL     1      -4.698  -1.522   8.010  1.00  0.00    -0.014 A 
BRANCH  26  27
ATOM     27  C   UNL     1      -5.176  -2.547   8.967  1.00  0.00     0.031 A 
ATOM     28  C   UNL     1      -6.344  -3.408   8.573  1.00  0.00     0.074 A 
ATOM     29  C   UNL     1      -4.509  -2.792  10.109  1.00  0.00     0.049 A 
ATOM     30  N   UNL     1      -6.864  -4.434   9.195  1.00  0.00    -0.248 NA
ATOM     31  C   UNL     1      -7.002  -3.076   7.298  1.00  0.00     0.031 C 
ATOM     32  C   UNL     1      -3.317  -2.079  10.563  1.00  0.00     0.029 A 
ATOM     33  N   UNL     1      -4.732  -3.731  11.086  1.00  0.00    -0.354 N 
ATOM     34  C   UNL     1      -7.899  -4.881   8.382  1.00  0.00     0.074 A 
ATOM     35  C   UNL     1      -7.949  -4.000   7.235  1.00  0.00     0.031 C 
ATOM     36  C   UNL     1      -2.910  -2.609  11.731  1.00  0.00     0.029 A 
ATOM     37  C   UNL     1      -3.825  -3.682  12.117  1.00  0.00     0.049 A 
ATOM     38  H   UNL     1      -5.473  -4.379  11.050  1.00  0.00     0.167 HD
ATOM     39  C   UNL     1      -8.735  -5.929   8.573  1.00  0.00     0.031 A 
ATOM     40  C   UNL     1      -3.749  -4.416  13.246  1.00  0.00     0.031 A 
ATOM     41  C   UNL     1      -8.719  -6.774   9.737  1.00  0.00     0.049 A 
ATOM     42  C   UNL     1      -4.756  -5.516  13.482  1.00  0.00     0.074 A 
ATOM     43  C   UNL     1      -9.555  -7.834  10.043  1.00  0.00     0.029 A 
ATOM     44  N   UNL     1      -7.829  -6.649  10.793  1.00  0.00    -0.354 N 
ATOM     45  N   UNL     1      -5.730  -5.927  12.704  1.00  0.00    -0.248 NA
ATOM     46  C   UNL     1      -4.642  -6.259  14.745  1.00  0.00     0.031 C 
ATOM     47  C   UNL     1      -9.207  -8.314  11.310  1.00  0.00     0.029 A 
ATOM     48  C   UNL     1      -8.109  -7.598  11.762  1.00  0.00     0.049 A 
ATOM     49  H   UNL     1      -7.105  -5.984  10.847  1.00  0.00     0.167 HD
ATOM     50  C   UNL     1      -6.318  -7.001  13.368  1.00  0.00     0.074 A 
ATOM     51  C   UNL     1      -5.584  -7.181  14.603  1.00  0.00     0.031 C 
ATOM     52  C   UNL     1      -7.368  -7.771  12.987  1.00  0.00     0.031 A 
BRANCH  39  53
ATOM     53  C   UNL     1      -9.778  -6.175   7.518  1.00  0.00    -0.014 A 
ATOM     54  C   UNL     1      -9.435  -6.704   6.261  1.00  0.00     0.010 A 
ATOM     55  C   UNL     1     -11.126  -5.885   7.796  1.00  0.00     0.010 A 
ATOM     56  C   UNL     1     -10.418  -6.903   5.287  1.00  0.00     0.020 A 
ATOM     57  C   UNL     1     -12.114  -6.107   6.834  1.00  0.00     0.020 A 
ATOM     58  C   UNL     1     -11.751  -6.598   5.579  1.00  0.00     0.054 A 
BRANCH  58  59
ATOM     59  S   UNL     1     -13.009  -6.874   4.302  1.00  0.00     0.124 S 
ATOM     60  O   UNL     1     -12.726  -5.793   3.361  1.00  0.00    -0.237 OA
ATOM     61  O   UNL     1     -12.694  -8.219   3.826  1.00  0.00    -0.237 OA
ATOM     62  O   UNL     1     -14.272  -6.753   5.026  1.00  0.00    -0.744 OA
ENDBRANCH  58  59
ENDBRANCH  39  53
BRANCH  40  63
ATOM     63  C   UNL     1      -2.697  -4.127  14.261  1.00  0.00    -0.014 A 
ATOM     64  C   UNL     1      -1.678  -5.057  14.536  1.00  0.00     0.010 A 
ATOM     65  C   UNL     1      -2.735  -2.924  14.991  1.00  0.00     0.010 A 
ATOM     66  C   UNL     1      -0.739  -4.804  15.542  1.00  0.00     0.020 A 
ATOM     67  C   UNL     1      -1.781  -2.654  15.975  1.00  0.00     0.020 A 
ATOM     68  C   UNL     1      -0.798  -3.604  16.256  1.00  0.00     0.054 A 
BRANCH  68  69
ATOM     69  S   UNL     1       0.445  -3.283  17.539  1.00  0.00     0.124 S 
ATOM     70  O   UNL     1       0.014  -4.176  18.610  1.00  0.00    -0.237 OA
ATOM     71  O   UNL     1       1.691  -3.649  16.870  1.00  0.00    -0.237 OA
ATOM     72  O   UNL     1       0.291  -1.856  17.814  1.00  0.00    -0.744 OA
ENDBRANCH  68  69
ENDBRANCH  40  63
BRANCH  52  73
ATOM     73  C   UNL     1      -7.753  -8.920  13.886  1.00  0.00    -0.014 A 
ATOM     74  C   UNL     1      -8.349  -8.710  15.142  1.00  0.00     0.010 A 
ATOM     75  C   UNL     1      -7.542 -10.239  13.443  1.00  0.00     0.010 A 
ATOM     76  C   UNL     1      -8.680  -9.796  15.958  1.00  0.00     0.020 A 
ATOM     77  C   UNL     1      -7.900 -11.328  14.242  1.00  0.00     0.020 A 
ATOM     78  C   UNL     1      -8.447 -11.098  15.505  1.00  0.00     0.054 A 
BRANCH  78  79
ATOM     79  S   UNL     1      -8.897 -12.493  16.575  1.00  0.00     0.124 S 
ATOM     80  O   UNL     1      -7.837 -12.459  17.579  1.00  0.00    -0.237 OA
ATOM     81  O   UNL     1     -10.226 -12.117  17.052  1.00  0.00    -0.237 OA
ATOM     82  O   UNL     1      -8.868 -13.644  15.676  1.00  0.00    -0.744 OA
ENDBRANCH  78  79
ENDBRANCH  52  73
ENDBRANCH  26  27
ENDBRANCH  19  21
ENDBRANCH  18  19
ENDBRANCH   1  18
TORSDOF 17
