REMARK SMILES O=C(OCCOC(=O)c1ccc(-c2c3nc(c(-c4ccc(S(=O)(=O)[O-])cc4)c4ccc([nH]4)c(-c4ccc(S(=O)(=O)[O-])cc4)c4nc(c(-c5ccc(S(=O)(=O)[O-])cc5)c5ccc2[nH]5)C=C4)C=C3)cc1)c1ccc(NC(=O)[C@@H]2CC=CC[C@H]2C(=O)Nc2cccc([N+](=O)[O-])c2)cc1
REMARK SMILES IDX 4 1 3 2 2 3 1 4 69 5 70 6 95 7 71 8 94 9 72 10 73 11 74 12
REMARK SMILES IDX 75 14 76 15 77 16 81 17 78 18 80 19 79 20 82 21 83 22 84 23
REMARK SMILES IDX 85 25 86 26 93 27 87 28 89 29 88 30 90 31 91 32 92 33 5 34
REMARK SMILES IDX 6 35 7 36 8 37 9 38 10 39 68 40 11 41 67 42 12 43 13 44
REMARK SMILES IDX 14 45 61 46 15 47 66 48 60 49 62 50 16 51 65 52 59 53 58 54
REMARK SMILES IDX 17 56 47 57 28 58 46 59 29 60 32 61 45 62 63 63 30 64 31 65
REMARK SMILES IDX 44 67 64 68 33 69 18 70 19 71 27 72 20 73 26 74 21 75 22 76
REMARK SMILES IDX 23 77 24 78 25 79 48 80 49 81 57 82 50 83 56 84 51 85 52 86
REMARK SMILES IDX 53 87 54 88 55 89 34 90 35 91 43 92 36 93 42 94 37 95 38 96
REMARK SMILES IDX 39 97 40 98 41 99
REMARK H PARENT 73 13 84 24 62 55 32 66
REMARK Flexibility Score: inf
ROOT
ATOM      1  C   UNL     1       5.165   9.531   1.021  1.00  0.00     0.275 C 
ENDROOT
BRANCH   1   2
ATOM      2  O   UNL     1       6.409   9.918   1.644  1.00  0.00    -0.458 OA
BRANCH   2   3
ATOM      3  C   UNL     1       7.546   9.225   1.908  1.00  0.00     0.338 C 
ATOM      4  O   UNL     1       8.422   9.788   2.562  1.00  0.00    -0.246 OA
BRANCH   3   5
ATOM      5  C   UNL     1       7.847   7.843   1.400  1.00  0.00     0.060 A 
ATOM      6  C   UNL     1       7.061   7.151   0.501  1.00  0.00     0.018 A 
ATOM      7  C   UNL     1       9.075   7.244   1.735  1.00  0.00     0.018 A 
ATOM      8  C   UNL     1       7.522   6.003  -0.137  1.00  0.00     0.027 A 
ATOM      9  C   UNL     1       9.493   6.025   1.148  1.00  0.00     0.027 A 
ATOM     10  C   UNL     1       8.719   5.398   0.170  1.00  0.00     0.041 A 
BRANCH  10  11
ATOM     11  N   UNL     1       9.208   4.259  -0.501  1.00  0.00    -0.326 N 
ATOM     12  C   UNL     1       8.667   3.364  -1.396  1.00  0.00     0.228 C 
ATOM     13  H   UNL     1      10.146   4.059  -0.281  1.00  0.00     0.169 HD
ATOM     14  O   UNL     1       9.431   2.533  -1.898  1.00  0.00    -0.274 OA
BRANCH  12  15
ATOM     15  C   UNL     1       7.166   3.302  -1.722  1.00  0.00     0.095 C 
ATOM     16  C   UNL     1       6.660   1.866  -1.464  1.00  0.00     0.041 C 
ATOM     17  C   UNL     1       6.844   3.766  -3.170  1.00  0.00     0.095 C 
ATOM     18  C   UNL     1       5.244   1.666  -1.923  1.00  0.00    -0.030 C 
ATOM     19  C   UNL     1       5.659   3.089  -3.898  1.00  0.00     0.041 C 
ATOM     20  C   UNL     1       4.786   2.235  -3.043  1.00  0.00    -0.030 C 
BRANCH  17  21
ATOM     21  C   UNL     1       6.716   5.258  -3.459  1.00  0.00     0.228 C 
ATOM     22  O   UNL     1       7.619   5.803  -4.110  1.00  0.00    -0.274 OA
ATOM     23  N   UNL     1       5.639   6.056  -3.206  1.00  0.00    -0.326 N 
ATOM     24  H   UNL     1       5.673   6.875  -3.752  1.00  0.00     0.169 HD
BRANCH  23  25
ATOM     25  C   UNL     1       4.493   6.045  -2.389  1.00  0.00     0.048 A 
ATOM     26  C   UNL     1       3.565   7.079  -2.590  1.00  0.00     0.026 A 
ATOM     27  C   UNL     1       4.275   5.185  -1.324  1.00  0.00     0.111 A 
ATOM     28  C   UNL     1       2.474   7.262  -1.728  1.00  0.00     0.009 A 
ATOM     29  C   UNL     1       3.247   5.424  -0.400  1.00  0.00     0.271 A 
ATOM     30  C   UNL     1       2.329   6.453  -0.605  1.00  0.00     0.086 A 
BRANCH  29  31
ATOM     31  N   UNL     1       3.204   4.637   0.841  1.00  0.00     0.062 N 
ATOM     32  O   UNL     1       2.231   4.801   1.590  1.00  0.00    -0.258 OA
ATOM     33  O   UNL     1       4.160   3.887   1.080  1.00  0.00    -0.258 OA
ENDBRANCH  29  31
ENDBRANCH  23  25
ENDBRANCH  17  21
ENDBRANCH  12  15
ENDBRANCH  10  11
ENDBRANCH   3   5
ENDBRANCH   2   3
ENDBRANCH   1   2
BRANCH   1  34
ATOM     34  C   UNL     1       5.132   9.881  -0.477  1.00  0.00     0.275 C 
BRANCH  34  35
ATOM     35  O   UNL     1       6.273   9.356  -1.182  1.00  0.00    -0.458 OA
BRANCH  35  36
ATOM     36  C   UNL     1       7.254  10.250  -1.478  1.00  0.00     0.338 C 
ATOM     37  O   UNL     1       7.155  11.464  -1.426  1.00  0.00    -0.246 OA
BRANCH  36  38
ATOM     38  C   UNL     1       8.530   9.535  -1.731  1.00  0.00     0.060 A 
ATOM     39  C   UNL     1       9.704  10.034  -1.162  1.00  0.00     0.016 A 
ATOM     40  C   UNL     1       8.588   8.376  -2.502  1.00  0.00     0.016 A 
ATOM     41  C   UNL     1      10.931   9.393  -1.393  1.00  0.00     0.010 A 
ATOM     42  C   UNL     1       9.807   7.708  -2.690  1.00  0.00     0.010 A 
ATOM     43  C   UNL     1      11.004   8.228  -2.174  1.00  0.00    -0.014 A 
BRANCH  43  44
ATOM     44  C   UNL     1      12.321   7.605  -2.512  1.00  0.00     0.031 A 
ATOM     45  C   UNL     1      12.816   7.599  -3.942  1.00  0.00     0.074 A 
ATOM     46  C   UNL     1      13.091   7.035  -1.560  1.00  0.00     0.049 A 
ATOM     47  N   UNL     1      13.979   7.216  -4.410  1.00  0.00    -0.248 NA
ATOM     48  C   UNL     1      11.890   8.083  -4.977  1.00  0.00     0.031 C 
ATOM     49  C   UNL     1      12.746   6.931  -0.144  1.00  0.00     0.029 A 
ATOM     50  N   UNL     1      14.325   6.431  -1.640  1.00  0.00    -0.354 N 
ATOM     51  C   UNL     1      13.927   7.428  -5.784  1.00  0.00     0.074 A 
ATOM     52  C   UNL     1      12.595   7.902  -6.084  1.00  0.00     0.031 C 
ATOM     53  C   UNL     1      13.731   6.292   0.509  1.00  0.00     0.029 A 
ATOM     54  C   UNL     1      14.793   5.955  -0.436  1.00  0.00     0.049 A 
ATOM     55  H   UNL     1      14.828   6.347  -2.482  1.00  0.00     0.167 HD
ATOM     56  C   UNL     1      14.903   7.279  -6.713  1.00  0.00     0.031 A 
ATOM     57  C   UNL     1      15.951   5.342  -0.115  1.00  0.00     0.031 A 
ATOM     58  C   UNL     1      16.228   6.795  -6.431  1.00  0.00     0.049 A 
ATOM     59  C   UNL     1      17.017   5.161  -1.166  1.00  0.00     0.074 A 
ATOM     60  C   UNL     1      17.304   6.681  -7.295  1.00  0.00     0.029 A 
ATOM     61  N   UNL     1      16.655   6.327  -5.199  1.00  0.00    -0.354 N 
ATOM     62  N   UNL     1      16.991   5.500  -2.432  1.00  0.00    -0.248 NA
ATOM     63  C   UNL     1      18.284   4.553  -0.732  1.00  0.00     0.031 C 
ATOM     64  C   UNL     1      18.362   6.085  -6.601  1.00  0.00     0.029 A 
ATOM     65  C   UNL     1      17.968   5.894  -5.287  1.00  0.00     0.049 A 
ATOM     66  H   UNL     1      16.107   6.305  -4.381  1.00  0.00     0.167 HD
ATOM     67  C   UNL     1      18.252   5.187  -2.934  1.00  0.00     0.074 A 
ATOM     68  C   UNL     1      19.017   4.639  -1.834  1.00  0.00     0.031 C 
ATOM     69  C   UNL     1      18.732   5.351  -4.191  1.00  0.00     0.031 A 
BRANCH  56  70
ATOM     70  C   UNL     1      14.577   7.664  -8.136  1.00  0.00    -0.014 A 
ATOM     71  C   UNL     1      14.364   9.011  -8.487  1.00  0.00     0.010 A 
ATOM     72  C   UNL     1      14.541   6.683  -9.143  1.00  0.00     0.010 A 
ATOM     73  C   UNL     1      14.081   9.363  -9.809  1.00  0.00     0.020 A 
ATOM     74  C   UNL     1      14.289   7.035 -10.473  1.00  0.00     0.020 A 
ATOM     75  C   UNL     1      14.044   8.372 -10.794  1.00  0.00     0.054 A 
BRANCH  75  76
ATOM     76  S   UNL     1      13.701   8.865 -12.506  1.00  0.00     0.124 S 
ATOM     77  O   UNL     1      12.284   9.218 -12.440  1.00  0.00    -0.237 OA
ATOM     78  O   UNL     1      14.617   9.984 -12.706  1.00  0.00    -0.237 OA
ATOM     79  O   UNL     1      14.007   7.666 -13.282  1.00  0.00    -0.744 OA
ENDBRANCH  75  76
ENDBRANCH  56  70
BRANCH  57  80
ATOM     80  C   UNL     1      16.196   4.899   1.288  1.00  0.00    -0.014 A 
ATOM     81  C   UNL     1      17.134   5.564   2.099  1.00  0.00     0.010 A 
ATOM     82  C   UNL     1      15.496   3.800   1.818  1.00  0.00     0.010 A 
ATOM     83  C   UNL     1      17.386   5.124   3.402  1.00  0.00     0.020 A 
ATOM     84  C   UNL     1      15.725   3.373   3.130  1.00  0.00     0.020 A 
ATOM     85  C   UNL     1      16.678   4.032   3.911  1.00  0.00     0.054 A 
BRANCH  85  86
ATOM     86  S   UNL     1      16.989   3.507   5.620  1.00  0.00     0.124 S 
ATOM     87  O   UNL     1      18.315   2.907   5.519  1.00  0.00    -0.237 OA
ATOM     88  O   UNL     1      16.920   4.769   6.353  1.00  0.00    -0.237 OA
ATOM     89  O   UNL     1      15.898   2.575   5.896  1.00  0.00    -0.744 OA
ENDBRANCH  85  86
ENDBRANCH  57  80
BRANCH  69  90
ATOM     90  C   UNL     1      20.169   4.977  -4.454  1.00  0.00    -0.014 A 
ATOM     91  C   UNL     1      20.590   3.636  -4.468  1.00  0.00     0.010 A 
ATOM     92  C   UNL     1      21.101   5.987  -4.758  1.00  0.00     0.010 A 
ATOM     93  C   UNL     1      21.921   3.314  -4.752  1.00  0.00     0.020 A 
ATOM     94  C   UNL     1      22.425   5.668  -5.073  1.00  0.00     0.020 A 
ATOM     95  C   UNL     1      22.830   4.333  -5.054  1.00  0.00     0.054 A 
BRANCH  95  96
ATOM     96  S   UNL     1      24.539   3.885  -5.467  1.00  0.00     0.124 S 
ATOM     97  O   UNL     1      25.071   3.481  -4.169  1.00  0.00    -0.237 OA
ATOM     98  O   UNL     1      24.363   2.807  -6.437  1.00  0.00    -0.237 OA
ATOM     99  O   UNL     1      25.100   5.119  -6.013  1.00  0.00    -0.744 OA
ENDBRANCH  95  96
ENDBRANCH  69  90
ENDBRANCH  43  44
ENDBRANCH  36  38
ENDBRANCH  35  36
ENDBRANCH  34  35
ENDBRANCH   1  34
TORSDOF 19
