REMARK SMILES CCOc1cc(OCC)cc(-c2ccc([C@@H](C)C(=O)OCCOC(=O)c3ccc(-c4c5nc(c(-c6ccc(S(=O)(=O)[O-])cc6)c6ccc([nH]6)c(-c6ccc(S(=O)(=O)[O-])cc6)c6nc(c(-c7ccc(S(=O)(=O)[O-])cc7)c7ccc4[nH]7)C=C6)C=C5)cc3)cc2F)c1
REMARK SMILES IDX 21 1 20 2 18 3 19 4 16 5 17 6 15 7 12 8 13 9 87 10 14 11
REMARK SMILES IDX 86 12 88 13 11 14 4 15 5 16 89 17 6 18 10 19 3 20 2 21 1 22
REMARK SMILES IDX 7 23 8 24 9 25 22 26 23 27 24 28 25 29 26 30 27 31 85 32
REMARK SMILES IDX 28 33 84 34 29 35 30 36 31 37 78 38 32 39 83 40 77 41 79 42
REMARK SMILES IDX 33 43 82 44 76 45 75 46 34 48 64 49 45 50 63 51 46 52 49 53
REMARK SMILES IDX 62 54 80 55 47 56 48 57 61 59 81 60 50 61 35 62 36 63 44 64
REMARK SMILES IDX 37 65 43 66 38 67 39 68 40 69 41 70 42 71 65 72 66 73 74 74
REMARK SMILES IDX 67 75 73 76 68 77 69 78 70 79 71 80 72 81 51 82 52 83 60 84
REMARK SMILES IDX 53 85 59 86 54 87 55 88 56 89 57 90 58 91
REMARK H PARENT 79 47 49 58
REMARK Flexibility Score: inf
ROOT
ATOM      1  C   UNL     1       8.646   4.419  -0.235  1.00  0.00     0.274 C 
ENDROOT
BRANCH   1   2
ATOM      2  O   UNL     1       8.528   3.292   0.654  1.00  0.00    -0.462 OA
BRANCH   2   3
ATOM      3  C   UNL     1       8.751   3.526   1.975  1.00  0.00     0.313 C 
ATOM      4  O   UNL     1       9.119   4.604   2.430  1.00  0.00    -0.252 OA
BRANCH   3   5
ATOM      5  C   UNL     1       8.564   2.294   2.855  1.00  0.00     0.126 C 
ATOM      6  C   UNL     1       9.918   1.641   3.129  1.00  0.00     0.025 C 
BRANCH   5   7
ATOM      7  C   UNL     1       7.529   1.286   2.376  1.00  0.00    -0.031 A 
ATOM      8  C   UNL     1       5.585  -0.617   1.545  1.00  0.00     0.018 A 
ATOM      9  C   UNL     1       6.774  -0.423   0.820  1.00  0.00     0.012 A 
ATOM     10  C   UNL     1       5.382   0.179   2.675  1.00  0.00     0.131 A 
ATOM     11  C   UNL     1       7.732   0.507   1.231  1.00  0.00     0.005 A 
ATOM     12  C   UNL     1       6.337   1.105   3.095  1.00  0.00     0.044 A 
ATOM     13  F   UNL     1       4.273   0.036   3.417  1.00  0.00    -0.206 F 
BRANCH   8  14
ATOM     14  C   UNL     1       4.640  -1.670   1.150  1.00  0.00    -0.008 A 
ATOM     15  C   UNL     1       2.420  -2.445   0.558  1.00  0.00     0.123 A 
ATOM     16  C   UNL     1       2.904  -3.743   0.387  1.00  0.00     0.092 A 
ATOM     17  C   UNL     1       3.276  -1.420   0.960  1.00  0.00     0.055 A 
ATOM     18  C   UNL     1       4.253  -4.022   0.602  1.00  0.00     0.123 A 
ATOM     19  C   UNL     1       5.108  -2.985   0.972  1.00  0.00     0.055 A 
BRANCH  15  20
ATOM     20  O   UNL     1       1.072  -2.248   0.444  1.00  0.00    -0.494 OA
BRANCH  20  21
ATOM     21  C   UNL     1       0.703  -1.391  -0.643  1.00  0.00     0.226 C 
ATOM     22  C   UNL     1       0.482   0.041  -0.184  1.00  0.00     0.049 C 
ENDBRANCH  20  21
ENDBRANCH  15  20
BRANCH  18  23
ATOM     23  O   UNL     1       4.638  -5.321   0.405  1.00  0.00    -0.494 OA
BRANCH  23  24
ATOM     24  C   UNL     1       5.863  -5.742   1.011  1.00  0.00     0.226 C 
ATOM     25  C   UNL     1       7.030  -5.601   0.046  1.00  0.00     0.049 C 
ENDBRANCH  23  24
ENDBRANCH  18  23
ENDBRANCH   8  14
ENDBRANCH   5   7
ENDBRANCH   3   5
ENDBRANCH   2   3
ENDBRANCH   1   2
BRANCH   1  26
ATOM     26  C   UNL     1       7.270   4.937  -0.658  1.00  0.00     0.275 C 
BRANCH  26  27
ATOM     27  O   UNL     1       6.570   5.519   0.457  1.00  0.00    -0.458 OA
BRANCH  27  28
ATOM     28  C   UNL     1       5.667   4.705   1.050  1.00  0.00     0.338 C 
ATOM     29  O   UNL     1       5.352   3.578   0.710  1.00  0.00    -0.246 OA
BRANCH  28  30
ATOM     30  C   UNL     1       5.183   5.327   2.292  1.00  0.00     0.060 A 
ATOM     31  C   UNL     1       5.554   4.735   3.499  1.00  0.00     0.016 A 
ATOM     32  C   UNL     1       4.304   6.410   2.276  1.00  0.00     0.016 A 
ATOM     33  C   UNL     1       5.020   5.191   4.698  1.00  0.00     0.010 A 
ATOM     34  C   UNL     1       3.783   6.885   3.486  1.00  0.00     0.010 A 
ATOM     35  C   UNL     1       4.121   6.264   4.702  1.00  0.00    -0.014 A 
BRANCH  35  36
ATOM     36  C   UNL     1       3.509   6.687   5.985  1.00  0.00     0.031 A 
ATOM     37  C   UNL     1       2.073   6.356   6.279  1.00  0.00     0.074 A 
ATOM     38  C   UNL     1       4.261   7.317   6.908  1.00  0.00     0.049 A 
ATOM     39  N   UNL     1       1.362   6.642   7.340  1.00  0.00    -0.248 NA
ATOM     40  C   UNL     1       1.341   5.605   5.248  1.00  0.00     0.031 C 
ATOM     41  C   UNL     1       5.678   7.656   6.756  1.00  0.00     0.029 A 
ATOM     42  N   UNL     1       3.941   7.771   8.162  1.00  0.00    -0.354 N 
ATOM     43  C   UNL     1       0.095   6.126   7.098  1.00  0.00     0.074 A 
ATOM     44  C   UNL     1       0.130   5.522   5.782  1.00  0.00     0.031 C 
ATOM     45  C   UNL     1       6.108   8.251   7.880  1.00  0.00     0.029 A 
ATOM     46  C   UNL     1       4.992   8.370   8.815  1.00  0.00     0.049 A 
ATOM     47  H   UNL     1       3.044   7.678   8.557  1.00  0.00     0.167 HD
ATOM     48  C   UNL     1      -0.998   6.151   7.898  1.00  0.00     0.031 A 
ATOM     49  C   UNL     1       5.048   8.962  10.023  1.00  0.00     0.031 A 
ATOM     50  C   UNL     1      -1.031   6.746   9.208  1.00  0.00     0.049 A 
ATOM     51  C   UNL     1       3.812   9.006  10.878  1.00  0.00     0.074 A 
ATOM     52  C   UNL     1      -2.090   6.815  10.097  1.00  0.00     0.029 A 
ATOM     53  N   UNL     1       0.045   7.371   9.820  1.00  0.00    -0.354 N 
ATOM     54  N   UNL     1       2.620   8.518  10.629  1.00  0.00    -0.248 NA
ATOM     55  C   UNL     1       3.930   9.679  12.179  1.00  0.00     0.031 C 
ATOM     56  C   UNL     1      -1.665   7.518  11.231  1.00  0.00     0.029 A 
ATOM     57  C   UNL     1      -0.329   7.845  11.067  1.00  0.00     0.049 A 
ATOM     58  H   UNL     1       0.942   7.464   9.427  1.00  0.00     0.167 HD
ATOM     59  C   UNL     1       1.850   8.814  11.747  1.00  0.00     0.074 A 
ATOM     60  C   UNL     1       2.715   9.505  12.682  1.00  0.00     0.031 C 
ATOM     61  C   UNL     1       0.542   8.540  11.979  1.00  0.00     0.031 A 
BRANCH  48  62
ATOM     62  C   UNL     1      -2.265   5.547   7.355  1.00  0.00    -0.014 A 
ATOM     63  C   UNL     1      -2.431   4.154   7.265  1.00  0.00     0.010 A 
ATOM     64  C   UNL     1      -3.318   6.391   6.955  1.00  0.00     0.010 A 
ATOM     65  C   UNL     1      -3.614   3.615   6.749  1.00  0.00     0.020 A 
ATOM     66  C   UNL     1      -4.510   5.855   6.459  1.00  0.00     0.020 A 
ATOM     67  C   UNL     1      -4.643   4.470   6.342  1.00  0.00     0.054 A 
BRANCH  67  68
ATOM     68  S   UNL     1      -6.174   3.750   5.687  1.00  0.00     0.124 S 
ATOM     69  O   UNL     1      -5.769   3.357   4.340  1.00  0.00    -0.237 OA
ATOM     70  O   UNL     1      -6.435   2.648   6.611  1.00  0.00    -0.237 OA
ATOM     71  O   UNL     1      -7.131   4.852   5.753  1.00  0.00    -0.744 OA
ENDBRANCH  67  68
ENDBRANCH  48  62
BRANCH  49  72
ATOM     72  C   UNL     1       6.319   9.579  10.486  1.00  0.00    -0.014 A 
ATOM     73  C   UNL     1       7.072   8.988  11.515  1.00  0.00     0.010 A 
ATOM     74  C   UNL     1       6.790  10.760   9.883  1.00  0.00     0.010 A 
ATOM     75  C   UNL     1       8.268   9.574  11.941  1.00  0.00     0.020 A 
ATOM     76  C   UNL     1       7.997  11.334  10.290  1.00  0.00     0.020 A 
ATOM     77  C   UNL     1       8.723  10.743  11.325  1.00  0.00     0.054 A 
BRANCH  77  78
ATOM     78  S   UNL     1      10.308  11.455  11.847  1.00  0.00     0.124 S 
ATOM     79  O   UNL     1       9.940  12.140  13.082  1.00  0.00    -0.237 OA
ATOM     80  O   UNL     1      11.153  10.274  12.006  1.00  0.00    -0.237 OA
ATOM     81  O   UNL     1      10.674  12.325  10.731  1.00  0.00    -0.744 OA
ENDBRANCH  77  78
ENDBRANCH  49  72
BRANCH  61  82
ATOM     82  C   UNL     1      -0.023   8.973  13.304  1.00  0.00    -0.014 A 
ATOM     83  C   UNL     1      -0.304  10.326  13.564  1.00  0.00     0.010 A 
ATOM     84  C   UNL     1      -0.301   8.011  14.291  1.00  0.00     0.010 A 
ATOM     85  C   UNL     1      -0.819  10.714  14.804  1.00  0.00     0.020 A 
ATOM     86  C   UNL     1      -0.836   8.393  15.524  1.00  0.00     0.020 A 
ATOM     87  C   UNL     1      -1.075   9.745  15.779  1.00  0.00     0.054 A 
BRANCH  87  88
ATOM     88  S   UNL     1      -1.763  10.266  17.375  1.00  0.00     0.124 S 
ATOM     89  O   UNL     1      -0.583  10.786  18.059  1.00  0.00    -0.237 OA
ATOM     90  O   UNL     1      -2.757  11.265  16.989  1.00  0.00    -0.237 OA
ATOM     91  O   UNL     1      -2.314   9.033  17.931  1.00  0.00    -0.744 OA
ENDBRANCH  87  88
ENDBRANCH  61  82
ENDBRANCH  35  36
ENDBRANCH  28  30
ENDBRANCH  27  28
ENDBRANCH  26  27
ENDBRANCH   1  26
TORSDOF 20
