REMARK SMILES Nc1ccc(O)c(C(=O)OCCOC(=O)c2ccc(-c3c4nc(c(-c5ccc(S(=O)(=O)[O-])cc5)c5ccc([nH]5)c(-c5ccc(S(=O)(=O)[O-])cc5)c5nc(c(-c6ccc(S(=O)(=O)[O-])cc6)c6ccc3[nH]6)C=C5)C=C4)cc2)c1
REMARK SMILES IDX 12 1 11 2 10 3 8 4 9 5 7 6 2 7 3 8 76 9 4 10 5 11 1 12 6 15
REMARK SMILES IDX 13 17 14 18 15 19 16 20 17 21 75 22 18 23 74 24 19 25 20 26
REMARK SMILES IDX 21 27 68 28 22 29 73 30 67 31 69 32 23 33 72 34 66 35 65 36
REMARK SMILES IDX 24 38 54 39 35 40 53 41 36 42 39 43 52 44 70 45 37 46 38 47
REMARK SMILES IDX 51 49 71 50 40 51 25 52 26 53 34 54 27 55 33 56 28 57 29 58
REMARK SMILES IDX 30 59 31 60 32 61 55 62 56 63 64 64 57 65 63 66 58 67 59 68
REMARK SMILES IDX 60 69 61 70 62 71 41 72 42 73 50 74 43 75 49 76 44 77 45 78
REMARK SMILES IDX 46 79 47 80 48 81
REMARK H PARENT 1 13 1 14 6 16 69 37 39 48
REMARK Flexibility Score: inf
ROOT
ATOM      1  C   UNL     1       2.204  -4.907  -1.058  1.00  0.00     0.275 C 
ENDROOT
BRANCH   1   2
ATOM      2  C   UNL     1       1.156  -4.627   0.024  1.00  0.00     0.275 C 
BRANCH   2   3
ATOM      3  O   UNL     1       0.390  -3.434  -0.251  1.00  0.00    -0.458 OA
BRANCH   3   4
ATOM      4  C   UNL     1       0.738  -2.339   0.467  1.00  0.00     0.342 C 
ATOM      5  O   UNL     1       1.636  -2.282   1.295  1.00  0.00    -0.246 OA
BRANCH   4   6
ATOM      6  C   UNL     1      -0.127  -1.188   0.137  1.00  0.00     0.103 A 
ATOM      7  C   UNL     1      -2.334  -0.175   0.171  1.00  0.00     0.032 A 
ATOM      8  C   UNL     1      -1.746   1.078  -0.025  1.00  0.00     0.029 A 
ATOM      9  C   UNL     1      -1.512  -1.300   0.310  1.00  0.00     0.045 A 
ATOM     10  C   UNL     1      -0.374   1.195  -0.220  1.00  0.00     0.049 A 
ATOM     11  C   UNL     1       0.419   0.057  -0.185  1.00  0.00     0.130 A 
BRANCH   7  12
ATOM     12  N   UNL     1      -3.703  -0.270   0.378  1.00  0.00    -0.399 N 
ATOM     13  H   UNL     1      -4.272   0.527   0.278  1.00  0.00     0.156 HD
ATOM     14  H   UNL     1      -4.105  -1.134   0.624  1.00  0.00     0.156 HD
ENDBRANCH   7  12
BRANCH  11  15
ATOM     15  O   UNL     1       1.719   0.243  -0.535  1.00  0.00    -0.507 OA
ATOM     16  H   UNL     1       2.030   1.103  -0.741  1.00  0.00     0.293 HD
ENDBRANCH  11  15
ENDBRANCH   4   6
ENDBRANCH   3   4
ENDBRANCH   2   3
ENDBRANCH   1   2
BRANCH   1  17
ATOM     17  O   UNL     1       3.350  -4.041  -0.942  1.00  0.00    -0.458 OA
BRANCH  17  18
ATOM     18  C   UNL     1       3.288  -2.922  -1.695  1.00  0.00     0.338 C 
ATOM     19  O   UNL     1       2.377  -2.570  -2.426  1.00  0.00    -0.246 OA
BRANCH  18  20
ATOM     20  C   UNL     1       4.430  -2.035  -1.437  1.00  0.00     0.060 A 
ATOM     21  C   UNL     1       4.290  -1.125  -0.398  1.00  0.00     0.016 A 
ATOM     22  C   UNL     1       5.443  -1.873  -2.382  1.00  0.00     0.016 A 
ATOM     23  C   UNL     1       5.042   0.042  -0.403  1.00  0.00     0.010 A 
ATOM     24  C   UNL     1       6.303  -0.768  -2.287  1.00  0.00     0.010 A 
ATOM     25  C   UNL     1       6.080   0.235  -1.326  1.00  0.00    -0.014 A 
BRANCH  25  26
ATOM     26  C   UNL     1       6.888   1.492  -1.280  1.00  0.00     0.031 A 
ATOM     27  C   UNL     1       7.044   2.367  -2.502  1.00  0.00     0.074 A 
ATOM     28  C   UNL     1       7.454   1.883  -0.117  1.00  0.00     0.049 A 
ATOM     29  N   UNL     1       7.841   3.391  -2.686  1.00  0.00    -0.248 NA
ATOM     30  C   UNL     1       6.211   2.048  -3.673  1.00  0.00     0.031 C 
ATOM     31  C   UNL     1       7.350   1.173   1.162  1.00  0.00     0.029 A 
ATOM     32  N   UNL     1       8.209   2.990   0.189  1.00  0.00    -0.354 N 
ATOM     33  C   UNL     1       7.657   3.792  -4.006  1.00  0.00     0.074 A 
ATOM     34  C   UNL     1       6.665   2.907  -4.577  1.00  0.00     0.031 C 
ATOM     35  C   UNL     1       7.943   1.894   2.121  1.00  0.00     0.029 A 
ATOM     36  C   UNL     1       8.582   3.052   1.512  1.00  0.00     0.049 A 
ATOM     37  H   UNL     1       8.458   3.673  -0.474  1.00  0.00     0.167 HD
ATOM     38  C   UNL     1       8.266   4.799  -4.679  1.00  0.00     0.031 A 
ATOM     39  C   UNL     1       9.393   3.905   2.166  1.00  0.00     0.031 A 
ATOM     40  C   UNL     1       9.210   5.714  -4.088  1.00  0.00     0.049 A 
ATOM     41  C   UNL     1      10.074   4.995   1.395  1.00  0.00     0.074 A 
ATOM     42  C   UNL     1       9.886   6.763  -4.690  1.00  0.00     0.029 A 
ATOM     43  N   UNL     1       9.592   5.708  -2.755  1.00  0.00    -0.354 N 
ATOM     44  N   UNL     1       9.961   5.295   0.124  1.00  0.00    -0.248 NA
ATOM     45  C   UNL     1      11.014   5.843   2.139  1.00  0.00     0.031 C 
ATOM     46  C   UNL     1      10.704   7.368  -3.729  1.00  0.00     0.029 A 
ATOM     47  C   UNL     1      10.500   6.727  -2.518  1.00  0.00     0.049 A 
ATOM     48  H   UNL     1       9.266   5.072  -2.078  1.00  0.00     0.167 HD
ATOM     49  C   UNL     1      10.819   6.367  -0.086  1.00  0.00     0.074 A 
ATOM     50  C   UNL     1      11.419   6.682   1.195  1.00  0.00     0.031 C 
ATOM     51  C   UNL     1      11.093   7.022  -1.240  1.00  0.00     0.031 A 
BRANCH  38  52
ATOM     52  C   UNL     1       7.972   4.946  -6.151  1.00  0.00    -0.014 A 
ATOM     53  C   UNL     1       6.756   5.476  -6.615  1.00  0.00     0.010 A 
ATOM     54  C   UNL     1       8.969   4.606  -7.087  1.00  0.00     0.010 A 
ATOM     55  C   UNL     1       6.531   5.634  -7.988  1.00  0.00     0.020 A 
ATOM     56  C   UNL     1       8.758   4.785  -8.457  1.00  0.00     0.020 A 
ATOM     57  C   UNL     1       7.532   5.285  -8.900  1.00  0.00     0.054 A 
BRANCH  57  58
ATOM     58  S   UNL     1       7.228   5.528 -10.673  1.00  0.00     0.124 S 
ATOM     59  O   UNL     1       6.316   4.428 -10.976  1.00  0.00    -0.237 OA
ATOM     60  O   UNL     1       6.637   6.863 -10.719  1.00  0.00    -0.237 OA
ATOM     61  O   UNL     1       8.556   5.418 -11.272  1.00  0.00    -0.744 OA
ENDBRANCH  57  58
ENDBRANCH  38  52
BRANCH  39  62
ATOM     62  C   UNL     1       9.667   3.698   3.615  1.00  0.00    -0.014 A 
ATOM     63  C   UNL     1       9.189   4.604   4.576  1.00  0.00     0.010 A 
ATOM     64  C   UNL     1      10.387   2.565   4.041  1.00  0.00     0.010 A 
ATOM     65  C   UNL     1       9.430   4.384   5.936  1.00  0.00     0.020 A 
ATOM     66  C   UNL     1      10.601   2.324   5.399  1.00  0.00     0.020 A 
ATOM     67  C   UNL     1      10.131   3.243   6.338  1.00  0.00     0.054 A 
BRANCH  67  68
ATOM     68  S   UNL     1      10.379   2.936   8.109  1.00  0.00     0.124 S 
ATOM     69  O   UNL     1      11.492   3.828   8.418  1.00  0.00    -0.237 OA
ATOM     70  O   UNL     1       9.089   3.311   8.684  1.00  0.00    -0.237 OA
ATOM     71  O   UNL     1      10.684   1.508   8.166  1.00  0.00    -0.744 OA
ENDBRANCH  67  68
ENDBRANCH  39  62
BRANCH  51  72
ATOM     72  C   UNL     1      12.070   8.161  -1.158  1.00  0.00    -0.014 A 
ATOM     73  C   UNL     1      13.449   7.923  -1.021  1.00  0.00     0.010 A 
ATOM     74  C   UNL     1      11.604   9.485  -1.244  1.00  0.00     0.010 A 
ATOM     75  C   UNL     1      14.344   8.992  -0.938  1.00  0.00     0.020 A 
ATOM     76  C   UNL     1      12.498  10.556  -1.184  1.00  0.00     0.020 A 
ATOM     77  C   UNL     1      13.861  10.303  -1.015  1.00  0.00     0.054 A 
BRANCH  77  78
ATOM     78  S   UNL     1      15.044  11.676  -0.934  1.00  0.00     0.124 S 
ATOM     79  O   UNL     1      15.361  11.720   0.490  1.00  0.00    -0.237 OA
ATOM     80  O   UNL     1      16.125  11.223  -1.806  1.00  0.00    -0.237 OA
ATOM     81  O   UNL     1      14.283  12.817  -1.439  1.00  0.00    -0.744 OA
ENDBRANCH  77  78
ENDBRANCH  51  72
ENDBRANCH  25  26
ENDBRANCH  18  20
ENDBRANCH  17  18
ENDBRANCH   1  17
TORSDOF 16
