REMARK SMILES COc1ccc(Cl)c2c1N[C@@H](c1ccc(C(=O)OCCOC(=O)c3ccc(-c4c5nc(c(-c6ccc(S(=O)(=O)[O-])cc6)c6ccc([nH]6)c(-c6ccc(S(=O)(=O)[O-])cc6)c6nc(c(-c7ccc(S(=O)(=O)[O-])cc7)c7ccc4[nH]7)C=C6)C=C5)cc3)cc1)[C@@H]1CC=C[C@H]21
REMARK SMILES IDX 20 1 19 2 18 3 16 4 17 5 15 6 12 7 13 8 85 9 14 10 84 11
REMARK SMILES IDX 11 12 3 13 4 14 9 15 5 16 8 17 10 18 6 19 90 20 7 22 86 23
REMARK SMILES IDX 89 24 87 25 88 26 2 27 1 28 21 29 22 30 23 31 24 32 25 33
REMARK SMILES IDX 83 34 26 35 82 36 27 37 28 38 29 39 76 40 30 41 81 42 75 43
REMARK SMILES IDX 77 44 31 45 80 46 74 47 73 48 32 50 62 51 43 52 61 53 44 54
REMARK SMILES IDX 47 55 60 56 78 57 45 58 46 59 59 61 79 62 48 63 33 64 34 65
REMARK SMILES IDX 42 66 35 67 41 68 36 69 37 70 38 71 39 72 40 73 63 74 64 75
REMARK SMILES IDX 72 76 65 77 71 78 66 79 67 80 68 81 69 82 70 83 49 84 50 85
REMARK SMILES IDX 58 86 51 87 57 88 52 89 53 90 54 91 55 92 56 93
REMARK H PARENT 10 21 77 49 47 60
REMARK Flexibility Score: inf
ROOT
ATOM      1  C   UNL     1       9.660   1.838  -4.109  1.00  0.00     0.275 C 
ENDROOT
BRANCH   1   2
ATOM      2  C   UNL     1      10.356   1.565  -2.778  1.00  0.00     0.275 C 
BRANCH   2   3
ATOM      3  O   UNL     1       9.460   0.879  -1.884  1.00  0.00    -0.458 OA
BRANCH   3   4
ATOM      4  C   UNL     1       8.930   1.631  -0.886  1.00  0.00     0.338 C 
ATOM      5  O   UNL     1       9.222   2.783  -0.621  1.00  0.00    -0.246 OA
BRANCH   4   6
ATOM      6  C   UNL     1       7.847   0.890  -0.185  1.00  0.00     0.060 A 
ATOM      7  C   UNL     1       5.717  -0.391   1.144  1.00  0.00    -0.025 A 
ATOM      8  C   UNL     1       5.913   0.992   1.276  1.00  0.00     0.007 A 
ATOM      9  C   UNL     1       6.600  -1.121   0.329  1.00  0.00     0.007 A 
ATOM     10  C   UNL     1       6.973   1.624   0.627  1.00  0.00     0.016 A 
ATOM     11  C   UNL     1       7.658  -0.487  -0.330  1.00  0.00     0.016 A 
BRANCH   7  12
ATOM     12  C   UNL     1       4.613  -1.103   1.917  1.00  0.00     0.114 C 
ATOM     13  C   UNL     1       1.019  -0.128   2.260  1.00  0.00     0.142 A 
ATOM     14  C   UNL     1      -0.088  -0.315   3.085  1.00  0.00     0.050 A 
ATOM     15  C   UNL     1       2.292  -0.623   2.605  1.00  0.00     0.083 A 
ATOM     16  C   UNL     1       0.057  -1.034   4.266  1.00  0.00     0.025 A 
ATOM     17  C   UNL     1       2.441  -1.346   3.804  1.00  0.00     0.005 A 
ATOM     18  N   UNL     1       3.383  -0.348   1.795  1.00  0.00    -0.375 N 
ATOM     19  C   UNL     1       1.308  -1.545   4.623  1.00  0.00     0.047 A 
ATOM     20  C   UNL     1       3.811  -1.815   4.228  1.00  0.00     0.051 C 
ATOM     21  H   UNL     1       3.321   0.373   1.127  1.00  0.00     0.161 HD
ATOM     22  Cl  UNL     1       1.404  -2.387   6.135  1.00  0.00    -0.084 Cl
ATOM     23  C   UNL     1       4.993  -1.256   3.404  1.00  0.00     0.031 C 
ATOM     24  C   UNL     1       4.051  -3.300   4.124  1.00  0.00    -0.023 C 
ATOM     25  C   UNL     1       6.103  -2.304   3.613  1.00  0.00     0.034 C 
ATOM     26  C   UNL     1       5.323  -3.566   3.804  1.00  0.00    -0.030 C 
BRANCH  13  27
ATOM     27  O   UNL     1       0.844   0.630   1.128  1.00  0.00    -0.495 OA
ATOM     28  C   UNL     1       0.653  -0.199  -0.019  1.00  0.00     0.278 C 
ENDBRANCH  13  27
ENDBRANCH   7  12
ENDBRANCH   4   6
ENDBRANCH   3   4
ENDBRANCH   2   3
ENDBRANCH   1   2
BRANCH   1  29
ATOM     29  O   UNL     1       8.602   2.798  -3.928  1.00  0.00    -0.458 OA
BRANCH  29  30
ATOM     30  C   UNL     1       7.345   2.305  -3.999  1.00  0.00     0.338 C 
ATOM     31  O   UNL     1       7.005   1.162  -4.251  1.00  0.00    -0.246 OA
BRANCH  30  32
ATOM     32  C   UNL     1       6.390   3.378  -3.689  1.00  0.00     0.060 A 
ATOM     33  C   UNL     1       6.160   3.714  -2.356  1.00  0.00     0.016 A 
ATOM     34  C   UNL     1       5.642   3.970  -4.707  1.00  0.00     0.016 A 
ATOM     35  C   UNL     1       5.138   4.600  -2.024  1.00  0.00     0.010 A 
ATOM     36  C   UNL     1       4.653   4.903  -4.377  1.00  0.00     0.010 A 
ATOM     37  C   UNL     1       4.372   5.201  -3.032  1.00  0.00    -0.014 A 
BRANCH  37  38
ATOM     38  C   UNL     1       3.241   6.096  -2.673  1.00  0.00     0.031 A 
ATOM     39  C   UNL     1       1.826   5.657  -2.935  1.00  0.00     0.074 A 
ATOM     40  C   UNL     1       3.475   7.280  -2.075  1.00  0.00     0.049 A 
ATOM     41  N   UNL     1       0.713   6.329  -2.782  1.00  0.00    -0.248 NA
ATOM     42  C   UNL     1       1.635   4.283  -3.429  1.00  0.00     0.031 C 
ATOM     43  C   UNL     1       4.793   7.790  -1.694  1.00  0.00     0.029 A 
ATOM     44  N   UNL     1       2.606   8.262  -1.667  1.00  0.00    -0.354 N 
ATOM     45  C   UNL     1      -0.305   5.469  -3.174  1.00  0.00     0.074 A 
ATOM     46  C   UNL     1       0.320   4.233  -3.591  1.00  0.00     0.031 C 
ATOM     47  C   UNL     1       4.642   8.974  -1.079  1.00  0.00     0.029 A 
ATOM     48  C   UNL     1       3.228   9.337  -1.079  1.00  0.00     0.049 A 
ATOM     49  H   UNL     1       1.631   8.201  -1.785  1.00  0.00     0.167 HD
ATOM     50  C   UNL     1      -1.641   5.688  -3.181  1.00  0.00     0.031 A 
ATOM     51  C   UNL     1       2.723  10.497  -0.613  1.00  0.00     0.031 A 
ATOM     52  C   UNL     1      -2.265   6.913  -2.758  1.00  0.00     0.049 A 
ATOM     53  C   UNL     1       1.248  10.757  -0.718  1.00  0.00     0.074 A 
ATOM     54  C   UNL     1      -3.611   7.237  -2.759  1.00  0.00     0.029 A 
ATOM     55  N   UNL     1      -1.589   8.009  -2.247  1.00  0.00    -0.354 N 
ATOM     56  N   UNL     1       0.306   9.964  -1.169  1.00  0.00    -0.248 NA
ATOM     57  C   UNL     1       0.768  12.072  -0.271  1.00  0.00     0.031 C 
ATOM     58  C   UNL     1      -3.745   8.544  -2.281  1.00  0.00     0.029 A 
ATOM     59  C   UNL     1      -2.487   9.017  -1.941  1.00  0.00     0.049 A 
ATOM     60  H   UNL     1      -0.614   8.064  -2.120  1.00  0.00     0.167 HD
ATOM     61  C   UNL     1      -0.879  10.679  -1.049  1.00  0.00     0.074 A 
ATOM     62  C   UNL     1      -0.539  11.966  -0.478  1.00  0.00     0.031 C 
ATOM     63  C   UNL     1      -2.136  10.296  -1.381  1.00  0.00     0.031 A 
BRANCH  50  64
ATOM     64  C   UNL     1      -2.526   4.583  -3.687  1.00  0.00    -0.014 A 
ATOM     65  C   UNL     1      -2.807   3.459  -2.892  1.00  0.00     0.010 A 
ATOM     66  C   UNL     1      -3.128   4.699  -4.953  1.00  0.00     0.010 A 
ATOM     67  C   UNL     1      -3.660   2.458  -3.363  1.00  0.00     0.020 A 
ATOM     68  C   UNL     1      -3.997   3.709  -5.420  1.00  0.00     0.020 A 
ATOM     69  C   UNL     1      -4.252   2.591  -4.624  1.00  0.00     0.054 A 
BRANCH  69  70
ATOM     70  S   UNL     1      -5.363   1.278  -5.200  1.00  0.00     0.124 S 
ATOM     71  O   UNL     1      -4.471   0.120  -5.239  1.00  0.00    -0.237 OA
ATOM     72  O   UNL     1      -6.383   1.249  -4.156  1.00  0.00    -0.237 OA
ATOM     73  O   UNL     1      -5.818   1.752  -6.504  1.00  0.00    -0.744 OA
ENDBRANCH  69  70
ENDBRANCH  50  64
BRANCH  51  74
ATOM     74  C   UNL     1       3.644  11.504  -0.022  1.00  0.00    -0.014 A 
ATOM     75  C   UNL     1       3.695  11.689   1.369  1.00  0.00     0.010 A 
ATOM     76  C   UNL     1       4.522  12.233  -0.846  1.00  0.00     0.010 A 
ATOM     77  C   UNL     1       4.623  12.572   1.929  1.00  0.00     0.020 A 
ATOM     78  C   UNL     1       5.463  13.101  -0.288  1.00  0.00     0.020 A 
ATOM     79  C   UNL     1       5.511  13.261   1.098  1.00  0.00     0.054 A 
BRANCH  79  80
ATOM     80  S   UNL     1       6.760  14.335   1.860  1.00  0.00     0.124 S 
ATOM     81  O   UNL     1       5.937  15.330   2.540  1.00  0.00    -0.237 OA
ATOM     82  O   UNL     1       7.475  13.405   2.730  1.00  0.00    -0.237 OA
ATOM     83  O   UNL     1       7.528  14.833   0.722  1.00  0.00    -0.744 OA
ENDBRANCH  79  80
ENDBRANCH  51  74
BRANCH  63  84
ATOM     84  C   UNL     1      -3.256  11.266  -1.128  1.00  0.00    -0.014 A 
ATOM     85  C   UNL     1      -3.497  12.333  -2.011  1.00  0.00     0.010 A 
ATOM     86  C   UNL     1      -4.143  11.040  -0.060  1.00  0.00     0.010 A 
ATOM     87  C   UNL     1      -4.610  13.158  -1.829  1.00  0.00     0.020 A 
ATOM     88  C   UNL     1      -5.266  11.852   0.114  1.00  0.00     0.020 A 
ATOM     89  C   UNL     1      -5.494  12.905  -0.774  1.00  0.00     0.054 A 
BRANCH  89  90
ATOM     90  S   UNL     1      -6.966  13.952  -0.608  1.00  0.00     0.124 S 
ATOM     91  O   UNL     1      -6.382  15.271  -0.375  1.00  0.00    -0.237 OA
ATOM     92  O   UNL     1      -7.623  13.776  -1.900  1.00  0.00    -0.237 OA
ATOM     93  O   UNL     1      -7.676  13.379   0.533  1.00  0.00    -0.744 OA
ENDBRANCH  89  90
ENDBRANCH  63  84
ENDBRANCH  37  38
ENDBRANCH  30  32
ENDBRANCH  29  30
ENDBRANCH   1  29
TORSDOF 16
