REMARK SMILES O=C(OCCOC(=O)c1ccc(-c2c3nc(c(-c4ccc(S(=O)(=O)[O-])cc4)c4ccc([nH]4)c(-c4ccc(S(=O)(=O)[O-])cc4)c4nc(c(-c5ccc(S(=O)(=O)[O-])cc5)c5ccc2[nH]5)C=C4)C=C3)cc1)C1=Cc2c(ccc(Cl)c2-c2ccccc2)O[C@H]1C(F)(F)F
REMARK SMILES IDX 5 1 4 2 3 3 2 4 1 5 69 6 70 7 85 8 71 9 84 10 72 11 77 12
REMARK SMILES IDX 73 13 75 14 74 15 76 16 86 17 87 18 88 19 89 20 78 21 79 22
REMARK SMILES IDX 83 23 80 24 82 25 81 26 6 27 7 28 8 29 9 30 10 31 68 32
REMARK SMILES IDX 11 33 67 34 12 35 13 36 14 37 61 38 15 39 66 40 60 41 62 42
REMARK SMILES IDX 16 43 65 44 59 45 58 46 17 48 47 49 28 50 46 51 29 52 32 53
REMARK SMILES IDX 45 54 63 55 30 56 31 57 44 59 64 60 33 61 18 62 19 63 27 64
REMARK SMILES IDX 20 65 26 66 21 67 22 68 23 69 24 70 25 71 48 72 49 73 57 74
REMARK SMILES IDX 50 75 56 76 51 77 52 78 53 79 54 80 55 81 34 82 35 83 43 84
REMARK SMILES IDX 36 85 42 86 37 87 38 88 39 89 40 90 41 91
REMARK H PARENT 62 47 32 58
REMARK Flexibility Score: inf
ROOT
ATOM      1  C   UNL     1       2.101  -1.851   0.704  1.00  0.00     0.275 C 
ENDROOT
BRANCH   1   2
ATOM      2  C   UNL     1       1.702  -0.387   0.587  1.00  0.00     0.275 C 
BRANCH   2   3
ATOM      3  O   UNL     1       1.643  -0.004  -0.803  1.00  0.00    -0.459 OA
BRANCH   3   4
ATOM      4  C   UNL     1       2.708   0.389  -1.542  1.00  0.00     0.338 C 
ATOM      5  O   UNL     1       2.526   1.032  -2.572  1.00  0.00    -0.246 OA
BRANCH   4   6
ATOM      6  C   UNL     1       4.103   0.044  -1.156  1.00  0.00     0.087 C 
ATOM      7  C   UNL     1       4.491  -0.575  -0.031  1.00  0.00     0.028 C 
ATOM      8  C   UNL     1       5.165   0.542  -2.111  1.00  0.00     0.316 C 
ATOM      9  C   UNL     1       5.517   0.180   0.710  1.00  0.00     0.027 A 
ATOM     10  O   UNL     1       6.449   0.811  -1.456  1.00  0.00    -0.475 OA
ATOM     11  C   UNL     1       6.460   0.855  -0.083  1.00  0.00     0.128 A 
ATOM     12  C   UNL     1       5.536   0.247   2.135  1.00  0.00     0.011 A 
ATOM     13  C   UNL     1       7.467   1.587   0.525  1.00  0.00     0.049 A 
ATOM     14  C   UNL     1       6.568   1.006   2.714  1.00  0.00     0.049 A 
ATOM     15  C   UNL     1       7.518   1.665   1.919  1.00  0.00     0.025 A 
ATOM     16  Cl  UNL     1       6.716   1.181   4.431  1.00  0.00    -0.084 Cl
BRANCH   8  17
ATOM     17  C   UNL     1       5.340  -0.477  -3.258  1.00  0.00     0.430 C 
ATOM     18  F   UNL     1       4.165  -1.032  -3.641  1.00  0.00    -0.167 F 
ATOM     19  F   UNL     1       5.897   0.088  -4.350  1.00  0.00    -0.167 F 
ATOM     20  F   UNL     1       6.139  -1.505  -2.874  1.00  0.00    -0.167 F 
ENDBRANCH   8  17
BRANCH  12  21
ATOM     21  C   UNL     1       4.473  -0.372   2.972  1.00  0.00    -0.016 A 
ATOM     22  C   UNL     1       3.385   0.406   3.415  1.00  0.00     0.009 A 
ATOM     23  C   UNL     1       4.467  -1.742   3.290  1.00  0.00     0.009 A 
ATOM     24  C   UNL     1       2.275  -0.180   4.038  1.00  0.00     0.001 A 
ATOM     25  C   UNL     1       3.359  -2.327   3.927  1.00  0.00     0.001 A 
ATOM     26  C   UNL     1       2.251  -1.551   4.269  1.00  0.00     0.000 A 
ENDBRANCH  12  21
ENDBRANCH   4   6
ENDBRANCH   3   4
ENDBRANCH   2   3
ENDBRANCH   1   2
BRANCH   1  27
ATOM     27  O   UNL     1       1.014  -2.677   1.121  1.00  0.00    -0.458 OA
BRANCH  27  28
ATOM     28  C   UNL     1       0.039  -2.872   0.206  1.00  0.00     0.338 C 
ATOM     29  O   UNL     1      -1.144  -2.743   0.467  1.00  0.00    -0.246 OA
BRANCH  28  30
ATOM     30  C   UNL     1       0.533  -3.268  -1.132  1.00  0.00     0.060 A 
ATOM     31  C   UNL     1      -0.154  -2.777  -2.239  1.00  0.00     0.016 A 
ATOM     32  C   UNL     1       1.648  -4.112  -1.284  1.00  0.00     0.016 A 
ATOM     33  C   UNL     1       0.192  -3.235  -3.499  1.00  0.00     0.010 A 
ATOM     34  C   UNL     1       2.059  -4.488  -2.554  1.00  0.00     0.010 A 
ATOM     35  C   UNL     1       1.249  -4.146  -3.644  1.00  0.00    -0.014 A 
BRANCH  35  36
ATOM     36  C   UNL     1       1.283  -4.987  -4.854  1.00  0.00     0.031 A 
ATOM     37  C   UNL     1       0.804  -6.411  -4.724  1.00  0.00     0.074 A 
ATOM     38  C   UNL     1       1.645  -4.462  -6.034  1.00  0.00     0.049 A 
ATOM     39  N   UNL     1       0.671  -7.329  -5.643  1.00  0.00    -0.248 NA
ATOM     40  C   UNL     1       0.441  -6.872  -3.370  1.00  0.00     0.031 C 
ATOM     41  C   UNL     1       2.111  -3.089  -6.240  1.00  0.00     0.029 A 
ATOM     42  N   UNL     1       1.662  -5.019  -7.282  1.00  0.00    -0.354 N 
ATOM     43  C   UNL     1       0.235  -8.468  -4.972  1.00  0.00     0.074 A 
ATOM     44  C   UNL     1       0.191  -8.153  -3.567  1.00  0.00     0.031 C 
ATOM     45  C   UNL     1       2.357  -2.908  -7.548  1.00  0.00     0.029 A 
ATOM     46  C   UNL     1       2.089  -4.156  -8.259  1.00  0.00     0.049 A 
ATOM     47  H   UNL     1       1.394  -5.949  -7.462  1.00  0.00     0.167 HD
ATOM     48  C   UNL     1      -0.125  -9.666  -5.486  1.00  0.00     0.031 A 
ATOM     49  C   UNL     1       2.247  -4.363  -9.579  1.00  0.00     0.031 A 
ATOM     50  C   UNL     1      -0.086  -9.944  -6.892  1.00  0.00     0.049 A 
ATOM     51  C   UNL     1       1.851  -5.702 -10.140  1.00  0.00     0.074 A 
ATOM     52  C   UNL     1      -0.449 -11.099  -7.556  1.00  0.00     0.029 A 
ATOM     53  N   UNL     1       0.352  -9.040  -7.852  1.00  0.00    -0.354 N 
ATOM     54  N   UNL     1       1.389  -6.755  -9.503  1.00  0.00    -0.248 NA
ATOM     55  C   UNL     1       1.970  -5.878 -11.591  1.00  0.00     0.031 C 
ATOM     56  C   UNL     1      -0.178 -10.912  -8.915  1.00  0.00     0.029 A 
ATOM     57  C   UNL     1       0.292  -9.618  -9.104  1.00  0.00     0.049 A 
ATOM     58  H   UNL     1       0.659  -8.123  -7.667  1.00  0.00     0.167 HD
ATOM     59  C   UNL     1       1.138  -7.712 -10.478  1.00  0.00     0.074 A 
ATOM     60  C   UNL     1       1.494  -7.107 -11.749  1.00  0.00     0.031 C 
ATOM     61  C   UNL     1       0.653  -8.972 -10.343  1.00  0.00     0.031 A 
BRANCH  48  62
ATOM     62  C   UNL     1      -0.535 -10.740  -4.511  1.00  0.00    -0.014 A 
ATOM     63  C   UNL     1      -1.706 -10.628  -3.735  1.00  0.00     0.010 A 
ATOM     64  C   UNL     1       0.299 -11.856  -4.324  1.00  0.00     0.010 A 
ATOM     65  C   UNL     1      -1.989 -11.567  -2.737  1.00  0.00     0.020 A 
ATOM     66  C   UNL     1       0.001 -12.816  -3.351  1.00  0.00     0.020 A 
ATOM     67  C   UNL     1      -1.125 -12.647  -2.542  1.00  0.00     0.054 A 
BRANCH  67  68
ATOM     68  S   UNL     1      -1.487 -13.828  -1.213  1.00  0.00     0.124 S 
ATOM     69  O   UNL     1      -1.124 -13.061  -0.024  1.00  0.00    -0.237 OA
ATOM     70  O   UNL     1      -2.916 -14.079  -1.386  1.00  0.00    -0.237 OA
ATOM     71  O   UNL     1      -0.618 -14.963  -1.511  1.00  0.00    -0.744 OA
ENDBRANCH  67  68
ENDBRANCH  48  62
BRANCH  49  72
ATOM     72  C   UNL     1       2.797  -3.270 -10.424  1.00  0.00    -0.014 A 
ATOM     73  C   UNL     1       1.980  -2.553 -11.314  1.00  0.00     0.010 A 
ATOM     74  C   UNL     1       4.142  -2.881 -10.269  1.00  0.00     0.010 A 
ATOM     75  C   UNL     1       2.497  -1.467 -12.031  1.00  0.00     0.020 A 
ATOM     76  C   UNL     1       4.655  -1.782 -10.963  1.00  0.00     0.020 A 
ATOM     77  C   UNL     1       3.829  -1.083 -11.844  1.00  0.00     0.054 A 
BRANCH  77  78
ATOM     78  S   UNL     1       4.452   0.381 -12.719  1.00  0.00     0.124 S 
ATOM     79  O   UNL     1       4.528  -0.097 -14.095  1.00  0.00    -0.237 OA
ATOM     80  O   UNL     1       3.414   1.373 -12.450  1.00  0.00    -0.237 OA
ATOM     81  O   UNL     1       5.737   0.644 -12.076  1.00  0.00    -0.744 OA
ENDBRANCH  77  78
ENDBRANCH  49  72
BRANCH  61  82
ATOM     82  C   UNL     1       0.444  -9.771 -11.598  1.00  0.00    -0.014 A 
ATOM     83  C   UNL     1       1.530 -10.339 -12.285  1.00  0.00     0.010 A 
ATOM     84  C   UNL     1      -0.869 -10.056 -12.017  1.00  0.00     0.010 A 
ATOM     85  C   UNL     1       1.304 -11.175 -13.380  1.00  0.00     0.020 A 
ATOM     86  C   UNL     1      -1.097 -10.913 -13.093  1.00  0.00     0.020 A 
ATOM     87  C   UNL     1      -0.008 -11.464 -13.771  1.00  0.00     0.054 A 
BRANCH  87  88
ATOM     88  S   UNL     1      -0.273 -12.626 -15.137  1.00  0.00     0.124 S 
ATOM     89  O   UNL     1       0.115 -11.826 -16.295  1.00  0.00    -0.237 OA
ATOM     90  O   UNL     1       0.629 -13.725 -14.801  1.00  0.00    -0.237 OA
ATOM     91  O   UNL     1      -1.696 -12.946 -15.048  1.00  0.00    -0.744 OA
ENDBRANCH  87  88
ENDBRANCH  61  82
ENDBRANCH  35  36
ENDBRANCH  28  30
ENDBRANCH  27  28
ENDBRANCH   1  27
TORSDOF 16
