REMARK SMILES Cc1ccc(-c2ncccc2C(=O)OCCOC(=O)c2ccc(-c3c4nc(c(-c5ccc(S(=O)(=O)[O-])cc5)c5ccc([nH]5)c(-c5ccc(S(=O)(=O)[O-])cc5)c5nc(c(-c6ccc(S(=O)(=O)[O-])cc6)c6ccc3[nH]6)C=C5)C=C4)cc2)c(Cl)c1
REMARK SMILES IDX 16 1 15 2 14 3 12 4 13 5 11 6 6 7 7 8 8 9 10 10 9 11 5 12
REMARK SMILES IDX 1 13 2 14 3 15 82 16 4 17 80 18 81 19 17 20 18 21 19 22
REMARK SMILES IDX 20 23 21 24 79 25 22 26 78 27 23 28 24 29 25 30 72 31 26 32
REMARK SMILES IDX 77 33 71 34 73 35 27 36 76 37 70 38 69 39 28 41 58 42 39 43
REMARK SMILES IDX 57 44 40 45 43 46 56 47 74 48 41 49 42 50 55 52 75 53 44 54
REMARK SMILES IDX 29 55 30 56 38 57 31 58 37 59 32 60 33 61 34 62 35 63 36 64
REMARK SMILES IDX 59 65 60 66 68 67 61 68 67 69 62 70 63 71 64 72 65 73 66 74
REMARK SMILES IDX 45 75 46 76 54 77 47 78 53 79 48 80 49 81 50 82 51 83 52 84
REMARK H PARENT 73 40 43 51
REMARK Flexibility Score: inf
ROOT
ATOM      1  C   UNL     1      -1.464  -4.243  -4.373  1.00  0.00     0.275 C 
ENDROOT
BRANCH   1   2
ATOM      2  C   UNL     1       0.060  -4.289  -4.404  1.00  0.00     0.275 C 
BRANCH   2   3
ATOM      3  O   UNL     1       0.590  -4.484  -3.073  1.00  0.00    -0.458 OA
BRANCH   3   4
ATOM      4  C   UNL     1       1.218  -3.405  -2.539  1.00  0.00     0.340 C 
ATOM      5  O   UNL     1       1.417  -2.346  -3.107  1.00  0.00    -0.246 OA
BRANCH   4   6
ATOM      6  C   UNL     1       1.726  -3.718  -1.188  1.00  0.00     0.086 A 
ATOM      7  C   UNL     1       1.361  -3.003  -0.032  1.00  0.00     0.086 A 
ATOM      8  N   UNL     1       1.968  -3.218   1.163  1.00  0.00    -0.255 NA
ATOM      9  C   UNL     1       2.984  -4.113   1.195  1.00  0.00     0.112 A 
ATOM     10  C   UNL     1       2.754  -4.663  -1.109  1.00  0.00     0.019 A 
ATOM     11  C   UNL     1       3.407  -4.852   0.101  1.00  0.00     0.021 A 
BRANCH   7  12
ATOM     12  C   UNL     1       0.449  -1.855  -0.058  1.00  0.00     0.020 A 
ATOM     13  C   UNL     1      -2.612   2.120  -1.480  1.00  0.00     0.044 C 
ATOM     14  C   UNL     1      -1.786   0.907  -1.199  1.00  0.00    -0.050 A 
ATOM     15  C   UNL     1      -2.522  -0.476  -0.333  1.00  0.00     0.004 A 
ATOM     16  C   UNL     1      -0.051   0.908  -1.438  1.00  0.00     0.024 A 
ATOM     17  C   UNL     1      -1.323  -1.969   0.329  1.00  0.00     0.012 A 
ATOM     18  C   UNL     1       1.012  -0.400  -0.901  1.00  0.00     0.050 A 
ATOM     19  Cl  UNL     1       2.712  -0.173  -1.158  1.00  0.00    -0.084 Cl
ENDBRANCH   7  12
ENDBRANCH   4   6
ENDBRANCH   3   4
ENDBRANCH   2   3
ENDBRANCH   1   2
BRANCH   1  20
ATOM     20  O   UNL     1      -1.883  -3.122  -3.575  1.00  0.00    -0.458 OA
BRANCH  20  21
ATOM     21  C   UNL     1      -2.333  -3.464  -2.353  1.00  0.00     0.338 C 
ATOM     22  O   UNL     1      -2.551  -4.590  -1.933  1.00  0.00    -0.246 OA
BRANCH  21  23
ATOM     23  C   UNL     1      -2.435  -2.299  -1.473  1.00  0.00     0.060 A 
ATOM     24  C   UNL     1      -1.076  -1.131  -1.351  1.00  0.00     0.016 A 
ATOM     25  C   UNL     1      -3.490  -2.491  -0.083  1.00  0.00     0.016 A 
ATOM     26  C   UNL     1      -0.811  -0.165   0.408  1.00  0.00     0.010 A 
ATOM     27  C   UNL     1      -3.292  -1.584   1.430  1.00  0.00     0.010 A 
ATOM     28  C   UNL     1      -1.999  -0.414   1.749  1.00  0.00    -0.014 A 
BRANCH  28  29
ATOM     29  C   UNL     1      -2.056   0.512   2.972  1.00  0.00     0.031 A 
ATOM     30  C   UNL     1      -2.786   0.112   4.255  1.00  0.00     0.074 A 
ATOM     31  C   UNL     1      -1.593   1.789   2.935  1.00  0.00     0.049 A 
ATOM     32  N   UNL     1      -3.208   0.871   5.246  1.00  0.00    -0.248 NA
ATOM     33  C   UNL     1      -3.160  -1.298   4.420  1.00  0.00     0.031 C 
ATOM     34  C   UNL     1      -0.971   2.449   1.799  1.00  0.00     0.029 A 
ATOM     35  N   UNL     1      -1.588   2.800   3.883  1.00  0.00    -0.354 N 
ATOM     36  C   UNL     1      -3.988   0.053   6.064  1.00  0.00     0.074 A 
ATOM     37  C   UNL     1      -4.034  -1.240   5.416  1.00  0.00     0.031 C 
ATOM     38  C   UNL     1      -0.558   3.675   2.108  1.00  0.00     0.029 A 
ATOM     39  C   UNL     1      -1.011   3.977   3.443  1.00  0.00     0.049 A 
ATOM     40  H   UNL     1      -1.962   2.689   4.787  1.00  0.00     0.167 HD
ATOM     41  C   UNL     1      -4.571   0.322   7.264  1.00  0.00     0.031 A 
ATOM     42  C   UNL     1      -0.875   5.205   3.976  1.00  0.00     0.031 A 
ATOM     43  C   UNL     1      -4.377   1.551   7.999  1.00  0.00     0.049 A 
ATOM     44  C   UNL     1      -1.401   5.450   5.343  1.00  0.00     0.074 A 
ATOM     45  C   UNL     1      -4.779   1.853   9.291  1.00  0.00     0.029 A 
ATOM     46  N   UNL     1      -3.690   2.661   7.530  1.00  0.00    -0.354 N 
ATOM     47  N   UNL     1      -2.116   4.647   6.090  1.00  0.00    -0.248 NA
ATOM     48  C   UNL     1      -1.086   6.745   5.952  1.00  0.00     0.031 C 
ATOM     49  C   UNL     1      -4.359   3.154   9.592  1.00  0.00     0.029 A 
ATOM     50  C   UNL     1      -3.654   3.646   8.506  1.00  0.00     0.049 A 
ATOM     51  H   UNL     1      -3.287   2.738   6.635  1.00  0.00     0.167 HD
ATOM     52  C   UNL     1      -2.312   5.327   7.279  1.00  0.00     0.074 A 
ATOM     53  C   UNL     1      -1.633   6.603   7.152  1.00  0.00     0.031 C 
ATOM     54  C   UNL     1      -2.988   4.917   8.377  1.00  0.00     0.031 A 
BRANCH  41  55
ATOM     55  C   UNL     1      -5.451  -0.745   7.891  1.00  0.00    -0.014 A 
ATOM     56  C   UNL     1      -4.935  -1.986   8.308  1.00  0.00     0.010 A 
ATOM     57  C   UNL     1      -6.822  -0.488   8.097  1.00  0.00     0.010 A 
ATOM     58  C   UNL     1      -5.780  -2.977   8.822  1.00  0.00     0.020 A 
ATOM     59  C   UNL     1      -7.664  -1.460   8.653  1.00  0.00     0.020 A 
ATOM     60  C   UNL     1      -7.143  -2.712   8.979  1.00  0.00     0.054 A 
BRANCH  60  61
ATOM     61  S   UNL     1      -8.218  -4.025   9.623  1.00  0.00     0.124 S 
ATOM     62  O   UNL     1      -8.333  -4.912   8.469  1.00  0.00    -0.237 OA
ATOM     63  O   UNL     1      -7.447  -4.554  10.745  1.00  0.00    -0.237 OA
ATOM     64  O   UNL     1      -9.444  -3.321   9.992  1.00  0.00    -0.744 OA
ENDBRANCH  60  61
ENDBRANCH  41  55
BRANCH  42  65
ATOM     65  C   UNL     1      -0.183   6.270   3.189  1.00  0.00    -0.014 A 
ATOM     66  C   UNL     1       1.145   6.622   3.486  1.00  0.00     0.010 A 
ATOM     67  C   UNL     1      -0.799   6.834   2.054  1.00  0.00     0.010 A 
ATOM     68  C   UNL     1       1.845   7.511   2.663  1.00  0.00     0.020 A 
ATOM     69  C   UNL     1      -0.092   7.698   1.211  1.00  0.00     0.020 A 
ATOM     70  C   UNL     1       1.226   8.035   1.524  1.00  0.00     0.054 A 
BRANCH  70  71
ATOM     71  S   UNL     1       2.190   9.105   0.419  1.00  0.00     0.124 S 
ATOM     72  O   UNL     1       2.287  10.336   1.196  1.00  0.00    -0.237 OA
ATOM     73  O   UNL     1       3.435   8.357   0.261  1.00  0.00    -0.237 OA
ATOM     74  O   UNL     1       1.365   9.187  -0.785  1.00  0.00    -0.744 OA
ENDBRANCH  70  71
ENDBRANCH  42  65
BRANCH  54  75
ATOM     75  C   UNL     1      -2.979   5.848   9.553  1.00  0.00    -0.014 A 
ATOM     76  C   UNL     1      -3.719   7.043   9.544  1.00  0.00     0.010 A 
ATOM     77  C   UNL     1      -2.209   5.518  10.683  1.00  0.00     0.010 A 
ATOM     78  C   UNL     1      -3.657   7.914  10.633  1.00  0.00     0.020 A 
ATOM     79  C   UNL     1      -2.168   6.373  11.784  1.00  0.00     0.020 A 
ATOM     80  C   UNL     1      -2.880   7.574  11.745  1.00  0.00     0.054 A 
BRANCH  80  81
ATOM     81  S   UNL     1      -2.838   8.708  13.158  1.00  0.00     0.124 S 
ATOM     82  O   UNL     1      -1.984   9.783  12.659  1.00  0.00    -0.237 OA
ATOM     83  O   UNL     1      -4.247   9.053  13.334  1.00  0.00    -0.237 OA
ATOM     84  O   UNL     1      -2.262   7.901  14.232  1.00  0.00    -0.744 OA
ENDBRANCH  80  81
ENDBRANCH  54  75
ENDBRANCH  28  29
ENDBRANCH  21  23
ENDBRANCH  20  21
ENDBRANCH   1  20
TORSDOF 15
