REMARK SMILES O=C(Cc1csc(Sc2ncnc3c2CCCC3)n1)OCCOC(=O)c1ccc(-c2c3nc(c(-c4ccc(S(=O)(=O)[O-])cc4)c4ccc([nH]4)c(-c4ccc(S(=O)(=O)[O-])cc4)c4nc(c(-c5ccc(S(=O)(=O)[O-])cc5)c5ccc2[nH]5)C=C4)C=C3)cc1
REMARK SMILES IDX 21 1 20 2 2 3 1 4 3 5 4 6 5 7 19 8 6 9 7 10 8 11 9 12 10 13
REMARK SMILES IDX 14 14 11 15 13 16 15 17 12 18 18 19 16 20 17 21 22 22 23 23
REMARK SMILES IDX 24 24 25 25 26 26 27 27 85 28 28 29 84 30 29 31 30 32 31 33
REMARK SMILES IDX 78 34 32 35 83 36 77 37 79 38 33 39 82 40 76 41 75 42 34 44
REMARK SMILES IDX 64 45 45 46 63 47 46 48 49 49 62 50 80 51 47 52 48 53 61 55
REMARK SMILES IDX 81 56 50 57 35 58 36 59 44 60 37 61 43 62 38 63 39 64 40 65
REMARK SMILES IDX 41 66 42 67 65 68 66 69 74 70 67 71 73 72 68 73 69 74 70 75
REMARK SMILES IDX 71 76 72 77 51 78 52 79 60 80 53 81 59 82 54 83 55 84 56 85
REMARK SMILES IDX 57 86 58 87
REMARK H PARENT 79 43 49 54
REMARK Flexibility Score: inf
ROOT
ATOM      1  C   UNL     1       4.512   0.105   0.724  1.00  0.00     0.274 C 
ENDROOT
BRANCH   1   2
ATOM      2  O   UNL     1       3.147   0.560   0.599  1.00  0.00    -0.462 OA
BRANCH   2   3
ATOM      3  C   UNL     1       2.414   0.578  -0.542  1.00  0.00     0.312 C 
ATOM      4  O   UNL     1       1.217   0.862  -0.488  1.00  0.00    -0.252 OA
BRANCH   3   5
ATOM      5  C   UNL     1       3.055   0.176  -1.850  1.00  0.00     0.179 C 
BRANCH   5   6
ATOM      6  C   UNL     1       4.020   1.168  -2.391  1.00  0.00     0.064 A 
ATOM      7  C   UNL     1       5.163   0.883  -3.116  1.00  0.00     0.092 A 
ATOM      8  N   UNL     1       3.796   2.510  -2.181  1.00  0.00    -0.234 NA
ATOM      9  S   UNL     1       5.997   2.333  -3.489  1.00  0.00    -0.116 S 
ATOM     10  C   UNL     1       4.773   3.228  -2.684  1.00  0.00     0.156 A 
BRANCH  10  11
ATOM     11  S   UNL     1       4.835   4.971  -2.550  1.00  0.00    -0.039 SA
BRANCH  11  12
ATOM     12  C   UNL     1       3.331   5.221  -1.614  1.00  0.00     0.110 A 
ATOM     13  N   UNL     1       3.459   5.045  -0.280  1.00  0.00    -0.229 NA
ATOM     14  C   UNL     1       2.151   5.645  -2.219  1.00  0.00     0.006 A 
ATOM     15  C   UNL     1       2.361   5.268   0.445  1.00  0.00     0.223 A 
ATOM     16  C   UNL     1       1.111   5.941  -1.345  1.00  0.00     0.048 A 
ATOM     17  C   UNL     1       2.013   5.837  -3.706  1.00  0.00     0.040 C 
ATOM     18  N   UNL     1       1.197   5.743  -0.013  1.00  0.00    -0.241 NA
ATOM     19  C   UNL     1      -0.202   6.492  -1.837  1.00  0.00     0.056 C 
ATOM     20  C   UNL     1       0.582   6.118  -4.169  1.00  0.00     0.005 C 
ATOM     21  C   UNL     1      -0.099   7.104  -3.231  1.00  0.00     0.007 C 
ENDBRANCH  11  12
ENDBRANCH  10  11
ENDBRANCH   5   6
ENDBRANCH   3   5
ENDBRANCH   2   3
ENDBRANCH   1   2
BRANCH   1  22
ATOM     22  C   UNL     1       4.565  -1.333   1.244  1.00  0.00     0.275 C 
BRANCH  22  23
ATOM     23  O   UNL     1       4.090  -2.227   0.222  1.00  0.00    -0.458 OA
BRANCH  23  24
ATOM     24  C   UNL     1       2.806  -2.643   0.358  1.00  0.00     0.338 C 
ATOM     25  O   UNL     1       2.081  -2.474   1.322  1.00  0.00    -0.246 OA
BRANCH  24  26
ATOM     26  C   UNL     1       2.341  -3.159  -0.948  1.00  0.00     0.060 A 
ATOM     27  C   UNL     1       1.063  -2.788  -1.385  1.00  0.00     0.016 A 
ATOM     28  C   UNL     1       3.160  -3.955  -1.757  1.00  0.00     0.016 A 
ATOM     29  C   UNL     1       0.586  -3.243  -2.615  1.00  0.00     0.010 A 
ATOM     30  C   UNL     1       2.676  -4.420  -2.984  1.00  0.00     0.010 A 
ATOM     31  C   UNL     1       1.376  -4.091  -3.403  1.00  0.00    -0.014 A 
BRANCH  31  32
ATOM     32  C   UNL     1       0.774  -4.804  -4.555  1.00  0.00     0.031 A 
ATOM     33  C   UNL     1       0.181  -6.167  -4.310  1.00  0.00     0.074 A 
ATOM     34  C   UNL     1       0.729  -4.257  -5.783  1.00  0.00     0.049 A 
ATOM     35  N   UNL     1      -0.362  -6.998  -5.160  1.00  0.00    -0.248 NA
ATOM     36  C   UNL     1       0.200  -6.652  -2.918  1.00  0.00     0.031 C 
ATOM     37  C   UNL     1       1.210  -2.923  -6.142  1.00  0.00     0.029 A 
ATOM     38  N   UNL     1       0.242  -4.766  -6.962  1.00  0.00    -0.354 N 
ATOM     39  C   UNL     1      -0.769  -8.092  -4.406  1.00  0.00     0.074 A 
ATOM     40  C   UNL     1      -0.377  -7.838  -3.037  1.00  0.00     0.031 C 
ATOM     41  C   UNL     1       0.992  -2.719  -7.454  1.00  0.00     0.029 A 
ATOM     42  C   UNL     1       0.382  -3.916  -8.033  1.00  0.00     0.049 A 
ATOM     43  H   UNL     1      -0.169  -5.657  -7.033  1.00  0.00     0.167 HD
ATOM     44  C   UNL     1      -1.423  -9.204  -4.810  1.00  0.00     0.031 A 
ATOM     45  C   UNL     1       0.064  -4.092  -9.331  1.00  0.00     0.031 A 
ATOM     46  C   UNL     1      -1.788  -9.481  -6.171  1.00  0.00     0.049 A 
ATOM     47  C   UNL     1      -0.552  -5.396  -9.774  1.00  0.00     0.074 A 
ATOM     48  C   UNL     1      -2.415 -10.604  -6.683  1.00  0.00     0.029 A 
ATOM     49  N   UNL     1      -1.561  -8.627  -7.237  1.00  0.00    -0.354 N 
ATOM     50  N   UNL     1      -0.907  -6.432  -9.051  1.00  0.00    -0.248 NA
ATOM     51  C   UNL     1      -0.807  -5.553 -11.215  1.00  0.00     0.031 C 
ATOM     52  C   UNL     1      -2.532 -10.445  -8.068  1.00  0.00     0.029 A 
ATOM     53  C   UNL     1      -2.021  -9.203  -8.408  1.00  0.00     0.049 A 
ATOM     54  H   UNL     1      -1.135  -7.742  -7.172  1.00  0.00     0.167 HD
ATOM     55  C   UNL     1      -1.450  -7.349  -9.947  1.00  0.00     0.074 A 
ATOM     56  C   UNL     1      -1.392  -6.741 -11.259  1.00  0.00     0.031 C 
ATOM     57  C   UNL     1      -1.952  -8.586  -9.706  1.00  0.00     0.031 A 
BRANCH  44  58
ATOM     58  C   UNL     1      -1.780 -10.216  -3.759  1.00  0.00    -0.014 A 
ATOM     59  C   UNL     1      -2.859  -9.987  -2.887  1.00  0.00     0.010 A 
ATOM     60  C   UNL     1      -1.071 -11.427  -3.678  1.00  0.00     0.010 A 
ATOM     61  C   UNL     1      -3.218 -10.951  -1.942  1.00  0.00     0.020 A 
ATOM     62  C   UNL     1      -1.439 -12.401  -2.746  1.00  0.00     0.020 A 
ATOM     63  C   UNL     1      -2.507 -12.153  -1.881  1.00  0.00     0.054 A 
BRANCH  63  64
ATOM     64  S   UNL     1      -3.032 -13.409  -0.682  1.00  0.00     0.124 S 
ATOM     65  O   UNL     1      -2.622 -12.807   0.584  1.00  0.00    -0.237 OA
ATOM     66  O   UNL     1      -4.473 -13.481  -0.906  1.00  0.00    -0.237 OA
ATOM     67  O   UNL     1      -2.283 -14.600  -1.076  1.00  0.00    -0.744 OA
ENDBRANCH  63  64
ENDBRANCH  44  58
BRANCH  45  68
ATOM     68  C   UNL     1       0.336  -3.026 -10.335  1.00  0.00    -0.014 A 
ATOM     69  C   UNL     1      -0.725  -2.346 -10.959  1.00  0.00     0.010 A 
ATOM     70  C   UNL     1       1.656  -2.737 -10.725  1.00  0.00     0.010 A 
ATOM     71  C   UNL     1      -0.474  -1.425 -11.980  1.00  0.00     0.020 A 
ATOM     72  C   UNL     1       1.912  -1.798 -11.728  1.00  0.00     0.020 A 
ATOM     73  C   UNL     1       0.844  -1.162 -12.363  1.00  0.00     0.054 A 
BRANCH  73  74
ATOM     74  S   UNL     1       1.150   0.039 -13.689  1.00  0.00     0.124 S 
ATOM     75  O   UNL     1       0.772  -0.719 -14.877  1.00  0.00    -0.237 OA
ATOM     76  O   UNL     1       0.261   1.141 -13.329  1.00  0.00    -0.237 OA
ATOM     77  O   UNL     1       2.576   0.332 -13.558  1.00  0.00    -0.744 OA
ENDBRANCH  73  74
ENDBRANCH  45  68
BRANCH  57  78
ATOM     78  C   UNL     1      -2.500  -9.352 -10.880  1.00  0.00    -0.014 A 
ATOM     79  C   UNL     1      -1.644  -9.917 -11.841  1.00  0.00     0.010 A 
ATOM     80  C   UNL     1      -3.889  -9.540 -11.002  1.00  0.00     0.010 A 
ATOM     81  C   UNL     1      -2.169 -10.623 -12.927  1.00  0.00     0.020 A 
ATOM     82  C   UNL     1      -4.417 -10.268 -12.072  1.00  0.00     0.020 A 
ATOM     83  C   UNL     1      -3.553 -10.789 -13.038  1.00  0.00     0.054 A 
BRANCH  83  84
ATOM     84  S   UNL     1      -4.210 -11.729 -14.443  1.00  0.00     0.124 S 
ATOM     85  O   UNL     1      -4.074 -10.772 -15.538  1.00  0.00    -0.237 OA
ATOM     86  O   UNL     1      -3.318 -12.884 -14.504  1.00  0.00    -0.237 OA
ATOM     87  O   UNL     1      -5.584 -12.030 -14.046  1.00  0.00    -0.744 OA
ENDBRANCH  83  84
ENDBRANCH  57  78
ENDBRANCH  31  32
ENDBRANCH  24  26
ENDBRANCH  23  24
ENDBRANCH  22  23
ENDBRANCH   1  22
TORSDOF 17
