REMARK SMILES COc1ccc(/C=C/C(=O)OCCOC(=O)c2ccc(-c3c4nc(c(-c5ccc(S(=O)(=O)[O-])cc5)c5ccc([nH]5)c(-c5ccc(S(=O)(=O)[O-])cc5)c5nc(c(-c6ccc(S(=O)(=O)[O-])cc6)c6ccc3[nH]6)C=C5)C=C4)cc2)cc1S(=O)(=O)Nc1ccc(F)cc1F
REMARK SMILES IDX 12 1 11 2 9 3 10 4 8 5 7 6 6 7 3 8 4 9 78 10 5 11 77 12 2 13
REMARK SMILES IDX 1 14 79 15 80 16 81 17 82 18 83 20 84 21 89 22 85 23 88 24
REMARK SMILES IDX 90 25 86 26 87 27 13 28 14 29 15 30 16 31 17 32 18 33 76 34
REMARK SMILES IDX 19 35 75 36 20 37 21 38 22 39 69 40 23 41 74 42 68 43 70 44
REMARK SMILES IDX 24 45 73 46 67 47 66 48 25 50 55 51 36 52 54 53 37 54 40 55
REMARK SMILES IDX 53 56 71 57 38 58 39 59 52 61 72 62 41 63 26 64 27 65 35 66
REMARK SMILES IDX 28 67 34 68 29 69 30 70 31 71 32 72 33 73 56 74 57 75 65 76
REMARK SMILES IDX 58 77 64 78 59 79 60 80 61 81 62 82 63 83 42 84 43 85 51 86
REMARK SMILES IDX 44 87 50 88 45 89 46 90 47 91 48 92 49 93
REMARK H PARENT 82 19 70 49 40 60
REMARK Flexibility Score: inf
ROOT
ATOM      1  C   UNL     1       3.245   3.040  10.002  1.00  0.00     0.275 C 
ENDROOT
BRANCH   1   2
ATOM      2  O   UNL     1       2.996   2.672   8.632  1.00  0.00    -0.459 OA
BRANCH   2   3
ATOM      3  C   UNL     1       1.818   2.042   8.428  1.00  0.00     0.330 C 
ATOM      4  O   UNL     1       1.012   1.721   9.290  1.00  0.00    -0.247 OA
BRANCH   3   5
ATOM      5  C   UNL     1       1.549   1.738   7.013  1.00  0.00     0.094 C 
ATOM      6  C   UNL     1       2.162   2.206   5.912  1.00  0.00     0.015 C 
BRANCH   6   7
ATOM      7  C   UNL     1       1.694   1.768   4.582  1.00  0.00    -0.024 A 
ATOM      8  C   UNL     1       0.831   0.433   2.278  1.00  0.00     0.139 A 
ATOM      9  C   UNL     1      -0.100   0.877   3.213  1.00  0.00     0.048 A 
ATOM     10  C   UNL     1       2.150   0.866   2.361  1.00  0.00     0.130 A 
ATOM     11  C   UNL     1       0.328   1.562   4.345  1.00  0.00     0.012 A 
ATOM     12  C   UNL     1       2.592   1.504   3.540  1.00  0.00     0.034 A 
BRANCH   8  13
ATOM     13  O   UNL     1       0.344  -0.419   1.332  1.00  0.00    -0.495 OA
ATOM     14  C   UNL     1       0.791  -1.758   1.555  1.00  0.00     0.278 C 
ENDBRANCH   8  13
BRANCH  10  15
ATOM     15  S   UNL     1       3.327   0.724   1.040  1.00  0.00     0.265 S 
ATOM     16  O   UNL     1       4.040   1.981   0.947  1.00  0.00    -0.201 OA
ATOM     17  O   UNL     1       4.059  -0.502   1.299  1.00  0.00    -0.201 OA
BRANCH  15  18
ATOM     18  N   UNL     1       2.581   0.449  -0.443  1.00  0.00    -0.277 N 
ATOM     19  H   UNL     1       3.040  -0.144  -1.081  1.00  0.00     0.180 HD
BRANCH  18  20
ATOM     20  C   UNL     1       1.330   1.012  -0.844  1.00  0.00     0.085 A 
ATOM     21  C   UNL     1       0.513   0.190  -1.638  1.00  0.00     0.033 A 
ATOM     22  C   UNL     1       0.850   2.268  -0.457  1.00  0.00     0.150 A 
ATOM     23  C   UNL     1      -0.803   0.562  -1.917  1.00  0.00     0.041 A 
ATOM     24  C   UNL     1      -0.461   2.647  -0.739  1.00  0.00     0.080 A 
ATOM     25  F   UNL     1       1.610   3.104   0.261  1.00  0.00    -0.205 F 
ATOM     26  C   UNL     1      -1.282   1.778  -1.444  1.00  0.00     0.126 A 
ATOM     27  F   UNL     1      -2.560   2.107  -1.669  1.00  0.00    -0.207 F 
ENDBRANCH  18  20
ENDBRANCH  15  18
ENDBRANCH  10  15
ENDBRANCH   6   7
ENDBRANCH   3   5
ENDBRANCH   2   3
ENDBRANCH   1   2
BRANCH   1  28
ATOM     28  C   UNL     1       2.944   4.520  10.256  1.00  0.00     0.275 C 
BRANCH  28  29
ATOM     29  O   UNL     1       1.547   4.837  10.102  1.00  0.00    -0.458 OA
BRANCH  29  30
ATOM     30  C   UNL     1       1.174   5.191   8.851  1.00  0.00     0.338 C 
ATOM     31  O   UNL     1       1.897   5.266   7.862  1.00  0.00    -0.246 OA
BRANCH  30  32
ATOM     32  C   UNL     1      -0.282   5.394   8.783  1.00  0.00     0.060 A 
ATOM     33  C   UNL     1      -1.000   4.703   7.801  1.00  0.00     0.016 A 
ATOM     34  C   UNL     1      -0.926   6.318   9.610  1.00  0.00     0.016 A 
ATOM     35  C   UNL     1      -2.364   4.944   7.635  1.00  0.00     0.010 A 
ATOM     36  C   UNL     1      -2.295   6.559   9.440  1.00  0.00     0.010 A 
ATOM     37  C   UNL     1      -3.020   5.886   8.442  1.00  0.00    -0.014 A 
BRANCH  37  38
ATOM     38  C   UNL     1      -4.457   6.184   8.214  1.00  0.00     0.031 A 
ATOM     39  C   UNL     1      -4.865   7.457   7.524  1.00  0.00     0.074 A 
ATOM     40  C   UNL     1      -5.396   5.309   8.624  1.00  0.00     0.049 A 
ATOM     41  N   UNL     1      -6.068   7.899   7.256  1.00  0.00    -0.248 NA
ATOM     42  C   UNL     1      -3.783   8.350   7.079  1.00  0.00     0.031 C 
ATOM     43  C   UNL     1      -5.129   4.035   9.294  1.00  0.00     0.029 A 
ATOM     44  N   UNL     1      -6.765   5.363   8.542  1.00  0.00    -0.354 N 
ATOM     45  C   UNL     1      -5.891   9.128   6.631  1.00  0.00     0.074 A 
ATOM     46  C   UNL     1      -4.465   9.368   6.568  1.00  0.00     0.031 C 
ATOM     47  C   UNL     1      -6.298   3.430   9.565  1.00  0.00     0.029 A 
ATOM     48  C   UNL     1      -7.395   4.286   9.120  1.00  0.00     0.049 A 
ATOM     49  H   UNL     1      -7.250   6.103   8.111  1.00  0.00     0.167 HD
ATOM     50  C   UNL     1      -6.831   9.979   6.153  1.00  0.00     0.031 A 
ATOM     51  C   UNL     1      -8.706   4.026   9.291  1.00  0.00     0.031 A 
ATOM     52  C   UNL     1      -8.249   9.735   6.204  1.00  0.00     0.049 A 
ATOM     53  C   UNL     1      -9.728   5.005   8.778  1.00  0.00     0.074 A 
ATOM     54  C   UNL     1      -9.273  10.517   5.695  1.00  0.00     0.029 A 
ATOM     55  N   UNL     1      -8.846   8.639   6.804  1.00  0.00    -0.354 N 
ATOM     56  N   UNL     1      -9.539   6.133   8.137  1.00  0.00    -0.248 NA
ATOM     57  C   UNL     1     -11.142   4.671   9.008  1.00  0.00     0.031 C 
ATOM     58  C   UNL     1     -10.491   9.919   6.032  1.00  0.00     0.029 A 
ATOM     59  C   UNL     1     -10.224   8.738   6.707  1.00  0.00     0.049 A 
ATOM     60  H   UNL     1      -8.362   7.898   7.236  1.00  0.00     0.167 HD
ATOM     61  C   UNL     1     -10.809   6.631   7.867  1.00  0.00     0.074 A 
ATOM     62  C   UNL     1     -11.758   5.675   8.398  1.00  0.00     0.031 C 
ATOM     63  C   UNL     1     -11.158   7.778   7.234  1.00  0.00     0.031 A 
BRANCH  50  64
ATOM     64  C   UNL     1      -6.367  11.278   5.553  1.00  0.00    -0.014 A 
ATOM     65  C   UNL     1      -5.791  11.325   4.271  1.00  0.00     0.010 A 
ATOM     66  C   UNL     1      -6.590  12.480   6.250  1.00  0.00     0.010 A 
ATOM     67  C   UNL     1      -5.428  12.552   3.706  1.00  0.00     0.020 A 
ATOM     68  C   UNL     1      -6.248  13.709   5.679  1.00  0.00     0.020 A 
ATOM     69  C   UNL     1      -5.659  13.736   4.414  1.00  0.00     0.054 A 
BRANCH  69  70
ATOM     70  S   UNL     1      -5.226  15.317   3.637  1.00  0.00     0.124 S 
ATOM     71  O   UNL     1      -3.769  15.316   3.744  1.00  0.00    -0.237 OA
ATOM     72  O   UNL     1      -5.756  15.167   2.284  1.00  0.00    -0.237 OA
ATOM     73  O   UNL     1      -5.910  16.309   4.463  1.00  0.00    -0.744 OA
ENDBRANCH  69  70
ENDBRANCH  50  64
BRANCH  51  74
ATOM     74  C   UNL     1      -9.136   2.797  10.013  1.00  0.00    -0.014 A 
ATOM     75  C   UNL     1      -9.781   1.750   9.332  1.00  0.00     0.010 A 
ATOM     76  C   UNL     1      -8.921   2.683  11.399  1.00  0.00     0.010 A 
ATOM     77  C   UNL     1     -10.232   0.625  10.028  1.00  0.00     0.020 A 
ATOM     78  C   UNL     1      -9.346   1.548  12.094  1.00  0.00     0.020 A 
ATOM     79  C   UNL     1     -10.015   0.533  11.406  1.00  0.00     0.054 A 
BRANCH  79  80
ATOM     80  S   UNL     1     -10.585  -0.944  12.291  1.00  0.00     0.124 S 
ATOM     81  O   UNL     1     -12.016  -0.687  12.419  1.00  0.00    -0.237 OA
ATOM     82  O   UNL     1     -10.215  -2.025  11.380  1.00  0.00    -0.237 OA
ATOM     83  O   UNL     1      -9.826  -0.906  13.540  1.00  0.00    -0.744 OA
ENDBRANCH  79  80
ENDBRANCH  51  74
BRANCH  63  84
ATOM     84  C   UNL     1     -12.627   8.050   7.049  1.00  0.00    -0.014 A 
ATOM     85  C   UNL     1     -13.435   8.451   8.127  1.00  0.00     0.010 A 
ATOM     86  C   UNL     1     -13.195   7.950   5.765  1.00  0.00     0.010 A 
ATOM     87  C   UNL     1     -14.792   8.719   7.930  1.00  0.00     0.020 A 
ATOM     88  C   UNL     1     -14.546   8.241   5.560  1.00  0.00     0.020 A 
ATOM     89  C   UNL     1     -15.340   8.610   6.648  1.00  0.00     0.054 A 
BRANCH  89  90
ATOM     90  S   UNL     1     -17.095   9.004   6.407  1.00  0.00     0.124 S 
ATOM     91  O   UNL     1     -17.749   7.811   6.936  1.00  0.00    -0.237 OA
ATOM     92  O   UNL     1     -17.266  10.219   7.201  1.00  0.00    -0.237 OA
ATOM     93  O   UNL     1     -17.212   9.191   4.963  1.00  0.00    -0.744 OA
ENDBRANCH  89  90
ENDBRANCH  63  84
ENDBRANCH  37  38
ENDBRANCH  30  32
ENDBRANCH  29  30
ENDBRANCH  28  29
ENDBRANCH   1  28
TORSDOF 19
