REMARK SMILES Cc1ccc2c(=O)c3cccc(CC(=O)OCCOC(=O)c4ccc(-c5c6nc(c(-c7ccc(S(=O)(=O)[O-])cc7)c7ccc([nH]7)c(-c7ccc(S(=O)(=O)[O-])cc7)c7nc(c(-c8ccc(S(=O)(=O)[O-])cc8)c8ccc5[nH]8)C=C7)C=C6)cc4)c3oc2c1C
REMARK SMILES IDX 18 1 17 2 16 3 14 4 15 5 13 6 12 7 1 8 2 9 3 10 85 11 4 12
REMARK SMILES IDX 84 13 86 14 5 15 83 16 6 17 82 18 7 19 8 20 9 21 11 22 10 23
REMARK SMILES IDX 19 24 20 25 21 26 22 27 23 28 81 29 24 30 80 31 25 32 26 33
REMARK SMILES IDX 27 34 74 35 28 36 79 37 73 38 75 39 29 40 78 41 72 42 71 43
REMARK SMILES IDX 30 45 60 46 41 47 59 48 42 49 45 50 58 51 76 52 43 53 44 54
REMARK SMILES IDX 57 56 77 57 46 58 31 59 32 60 40 61 33 62 39 63 34 64 35 65
REMARK SMILES IDX 36 66 37 67 38 68 61 69 62 70 70 71 63 72 69 73 64 74 65 75
REMARK SMILES IDX 66 76 67 77 68 78 47 79 48 80 56 81 49 82 55 83 50 84 51 85
REMARK SMILES IDX 52 86 53 87 54 88
REMARK H PARENT 75 44 45 55
REMARK Flexibility Score: inf
ROOT
ATOM      1  C   UNL     1       1.976   3.470   5.954  1.00  0.00     0.275 C 
ENDROOT
BRANCH   1   2
ATOM      2  C   UNL     1       1.291   3.031   7.252  1.00  0.00     0.274 C 
BRANCH   2   3
ATOM      3  O   UNL     1       0.337   1.971   7.026  1.00  0.00    -0.462 OA
BRANCH   3   4
ATOM      4  C   UNL     1      -0.967   2.347   6.977  1.00  0.00     0.310 C 
ATOM      5  O   UNL     1      -1.362   3.492   7.183  1.00  0.00    -0.252 OA
BRANCH   4   6
ATOM      6  C   UNL     1      -1.915   1.258   6.531  1.00  0.00     0.162 C 
BRANCH   6   7
ATOM      7  C   UNL     1      -1.549  -0.170   6.844  1.00  0.00     0.007 A 
ATOM      8  C   UNL     1       0.844  -1.069  -0.015  1.00  0.00     0.045 C 
ATOM      9  C   UNL     1       0.465  -1.625   1.335  1.00  0.00    -0.044 A 
ATOM     10  C   UNL     1       0.824  -2.950   1.620  1.00  0.00     0.005 A 
ATOM     11  C   UNL     1      -0.249  -0.878   2.302  1.00  0.00    -0.005 A 
ATOM     12  C   UNL     1       0.523  -3.516   2.856  1.00  0.00     0.016 A 
ATOM     13  C   UNL     1      -0.470  -1.424   3.585  1.00  0.00     0.141 A 
ATOM     14  C   UNL     1      -0.767   0.484   1.945  1.00  0.00     0.049 C 
ATOM     15  C   UNL     1      -0.102  -2.744   3.836  1.00  0.00     0.066 A 
ATOM     16  O   UNL     1      -1.040  -0.616   4.548  1.00  0.00    -0.455 OA
ATOM     17  C   UNL     1      -0.376  -3.317   5.159  1.00  0.00     0.200 A 
ATOM     18  C   UNL     1      -1.128  -1.072   5.846  1.00  0.00     0.142 A 
ATOM     19  O   UNL     1      -0.183  -4.502   5.402  1.00  0.00    -0.288 OA
ATOM     20  C   UNL     1      -0.860  -2.395   6.193  1.00  0.00     0.066 A 
ATOM     21  C   UNL     1      -1.029  -2.845   7.507  1.00  0.00     0.016 A 
ATOM     22  C   UNL     1      -1.693  -0.626   8.168  1.00  0.00     0.008 A 
ATOM     23  C   UNL     1      -1.445  -1.958   8.495  1.00  0.00     0.001 A 
ENDBRANCH   6   7
ENDBRANCH   4   6
ENDBRANCH   3   4
ENDBRANCH   2   3
ENDBRANCH   1   2
BRANCH   1  24
ATOM     24  O   UNL     1       1.040   4.028   5.011  1.00  0.00    -0.458 OA
BRANCH  24  25
ATOM     25  C   UNL     1       0.530   3.113   4.160  1.00  0.00     0.338 C 
ATOM     26  O   UNL     1       0.796   1.918   4.136  1.00  0.00    -0.246 OA
BRANCH  25  27
ATOM     27  C   UNL     1      -0.458   3.698   3.245  1.00  0.00     0.060 A 
ATOM     28  C   UNL     1      -0.062   4.082   1.962  1.00  0.00     0.016 A 
ATOM     29  C   UNL     1      -1.813   3.601   3.569  1.00  0.00     0.016 A 
ATOM     30  C   UNL     1      -1.035   4.351   0.995  1.00  0.00     0.010 A 
ATOM     31  C   UNL     1      -2.780   3.817   2.591  1.00  0.00     0.010 A 
ATOM     32  C   UNL     1      -2.398   4.199   1.298  1.00  0.00    -0.014 A 
BRANCH  32  33
ATOM     33  C   UNL     1      -3.440   4.519   0.296  1.00  0.00     0.031 A 
ATOM     34  C   UNL     1      -4.158   5.830   0.398  1.00  0.00     0.074 A 
ATOM     35  C   UNL     1      -3.757   3.646  -0.679  1.00  0.00     0.049 A 
ATOM     36  N   UNL     1      -5.017   6.359  -0.431  1.00  0.00    -0.248 NA
ATOM     37  C   UNL     1      -3.869   6.654   1.583  1.00  0.00     0.031 C 
ATOM     38  C   UNL     1      -3.160   2.324  -0.853  1.00  0.00     0.029 A 
ATOM     39  N   UNL     1      -4.661   3.741  -1.708  1.00  0.00    -0.354 N 
ATOM     40  C   UNL     1      -5.327   7.601   0.103  1.00  0.00     0.074 A 
ATOM     41  C   UNL     1      -4.637   7.711   1.369  1.00  0.00     0.031 C 
ATOM     42  C   UNL     1      -3.710   1.729  -1.926  1.00  0.00     0.029 A 
ATOM     43  C   UNL     1      -4.692   2.632  -2.522  1.00  0.00     0.049 A 
ATOM     44  H   UNL     1      -5.235   4.528  -1.850  1.00  0.00     0.167 HD
ATOM     45  C   UNL     1      -6.082   8.584  -0.436  1.00  0.00     0.031 A 
ATOM     46  C   UNL     1      -5.412   2.381  -3.634  1.00  0.00     0.031 A 
ATOM     47  C   UNL     1      -6.808   8.452  -1.666  1.00  0.00     0.049 A 
ATOM     48  C   UNL     1      -6.319   3.452  -4.176  1.00  0.00     0.074 A 
ATOM     49  C   UNL     1      -7.604   9.389  -2.297  1.00  0.00     0.029 A 
ATOM     50  N   UNL     1      -6.840   7.303  -2.441  1.00  0.00    -0.354 N 
ATOM     51  N   UNL     1      -6.528   4.660  -3.709  1.00  0.00    -0.248 NA
ATOM     52  C   UNL     1      -7.069   3.141  -5.401  1.00  0.00     0.031 C 
ATOM     53  C   UNL     1      -8.154   8.789  -3.434  1.00  0.00     0.029 A 
ATOM     54  C   UNL     1      -7.663   7.496  -3.534  1.00  0.00     0.049 A 
ATOM     55  H   UNL     1      -6.349   6.472  -2.241  1.00  0.00     0.167 HD
ATOM     56  C   UNL     1      -7.417   5.261  -4.592  1.00  0.00     0.074 A 
ATOM     57  C   UNL     1      -7.705   4.286  -5.625  1.00  0.00     0.031 C 
ATOM     58  C   UNL     1      -7.940   6.511  -4.551  1.00  0.00     0.031 A 
BRANCH  45  59
ATOM     59  C   UNL     1      -6.119   9.891   0.300  1.00  0.00    -0.014 A 
ATOM     60  C   UNL     1      -7.274  10.295   0.988  1.00  0.00     0.010 A 
ATOM     61  C   UNL     1      -4.987  10.729   0.298  1.00  0.00     0.010 A 
ATOM     62  C   UNL     1      -7.295  11.514   1.671  1.00  0.00     0.020 A 
ATOM     63  C   UNL     1      -4.998  11.937   0.996  1.00  0.00     0.020 A 
ATOM     64  C   UNL     1      -6.157  12.327   1.671  1.00  0.00     0.054 A 
BRANCH  64  65
ATOM     65  S   UNL     1      -6.177  13.880   2.607  1.00  0.00     0.124 S 
ATOM     66  O   UNL     1      -6.857  14.786   1.686  1.00  0.00    -0.237 OA
ATOM     67  O   UNL     1      -6.925  13.523   3.811  1.00  0.00    -0.237 OA
ATOM     68  O   UNL     1      -4.759  14.159   2.830  1.00  0.00    -0.744 OA
ENDBRANCH  64  65
ENDBRANCH  45  59
BRANCH  46  69
ATOM     69  C   UNL     1      -5.239   1.080  -4.335  1.00  0.00    -0.014 A 
ATOM     70  C   UNL     1      -5.779  -0.101  -3.793  1.00  0.00     0.010 A 
ATOM     71  C   UNL     1      -4.465   1.003  -5.506  1.00  0.00     0.010 A 
ATOM     72  C   UNL     1      -5.515  -1.340  -4.386  1.00  0.00     0.020 A 
ATOM     73  C   UNL     1      -4.212  -0.233  -6.111  1.00  0.00     0.020 A 
ATOM     74  C   UNL     1      -4.717  -1.399  -5.531  1.00  0.00     0.054 A 
BRANCH  74  75
ATOM     75  S   UNL     1      -4.338  -3.020  -6.255  1.00  0.00     0.124 S 
ATOM     76  O   UNL     1      -3.292  -3.509  -5.361  1.00  0.00    -0.237 OA
ATOM     77  O   UNL     1      -5.618  -3.719  -6.169  1.00  0.00    -0.237 OA
ATOM     78  O   UNL     1      -3.901  -2.694  -7.610  1.00  0.00    -0.744 OA
ENDBRANCH  74  75
ENDBRANCH  46  69
BRANCH  58  79
ATOM     79  C   UNL     1      -8.892   6.923  -5.639  1.00  0.00    -0.014 A 
ATOM     80  C   UNL     1      -8.483   7.872  -6.595  1.00  0.00     0.010 A 
ATOM     81  C   UNL     1     -10.235   6.513  -5.602  1.00  0.00     0.010 A 
ATOM     82  C   UNL     1      -9.415   8.443  -7.464  1.00  0.00     0.020 A 
ATOM     83  C   UNL     1     -11.165   7.068  -6.485  1.00  0.00     0.020 A 
ATOM     84  C   UNL     1     -10.754   8.053  -7.388  1.00  0.00     0.054 A 
BRANCH  84  85
ATOM     85  S   UNL     1     -11.967   8.861  -8.468  1.00  0.00     0.124 S 
ATOM     86  O   UNL     1     -12.215  10.116  -7.765  1.00  0.00    -0.237 OA
ATOM     87  O   UNL     1     -11.247   8.980  -9.734  1.00  0.00    -0.237 OA
ATOM     88  O   UNL     1     -13.087   7.921  -8.484  1.00  0.00    -0.744 OA
ENDBRANCH  84  85
ENDBRANCH  58  79
ENDBRANCH  32  33
ENDBRANCH  25  27
ENDBRANCH  24  25
ENDBRANCH   1  24
TORSDOF 15
