REMARK SMILES O=C(OCCOC(=O)c1cccnc1C[N@@H+]1CCC[C@H]1c1ccccn1)c1ccc(-c2c3nc(c(-c4ccc(S(=O)(=O)[O-])cc4)c4ccc([nH]4)c(-c4ccc(S(=O)(=O)[O-])cc4)c4nc(c(-c5ccc(S(=O)(=O)[O-])cc5)c5ccc2[nH]5)C=C4)C=C3)cc1
REMARK SMILES IDX 4 1 3 2 2 3 1 4 27 5 28 6 86 7 29 8 85 9 30 10 31 11 32 12
REMARK SMILES IDX 79 13 33 14 84 15 78 16 80 17 34 18 83 19 77 20 76 21 35 23
REMARK SMILES IDX 65 24 46 25 64 26 47 27 50 28 63 29 81 30 48 31 49 32 62 34
REMARK SMILES IDX 82 35 51 36 36 37 37 38 45 39 38 40 44 41 39 42 40 43 41 44
REMARK SMILES IDX 42 45 43 46 66 47 67 48 75 49 68 50 74 51 69 52 70 53 71 54
REMARK SMILES IDX 72 55 73 56 52 57 53 58 61 59 54 60 60 61 55 62 56 63 57 64
REMARK SMILES IDX 58 65 59 66 5 67 6 68 7 69 8 70 9 71 10 72 14 73 11 74 13 75
REMARK SMILES IDX 12 76 15 77 16 78 17 79 20 80 18 82 19 83 21 84 22 85 26 86
REMARK SMILES IDX 23 87 25 88 24 89
REMARK H PARENT 80 22 50 33 16 81
REMARK Flexibility Score: inf
ROOT
ATOM      1  C   UNL     1       4.554   1.572  -1.155  1.00  0.00     0.275 C 
ENDROOT
BRANCH   1   2
ATOM      2  O   UNL     1       4.032   0.299  -1.573  1.00  0.00    -0.458 OA
BRANCH   2   3
ATOM      3  C   UNL     1       4.020  -0.879  -0.911  1.00  0.00     0.338 C 
ATOM      4  O   UNL     1       3.509  -1.861  -1.443  1.00  0.00    -0.246 OA
BRANCH   3   5
ATOM      5  C   UNL     1       4.521  -1.019   0.486  1.00  0.00     0.060 A 
ATOM      6  C   UNL     1       5.716  -0.495   0.978  1.00  0.00     0.016 A 
ATOM      7  C   UNL     1       3.753  -1.823   1.336  1.00  0.00     0.016 A 
ATOM      8  C   UNL     1       6.104  -0.732   2.306  1.00  0.00     0.010 A 
ATOM      9  C   UNL     1       4.118  -2.034   2.671  1.00  0.00     0.010 A 
ATOM     10  C   UNL     1       5.318  -1.518   3.160  1.00  0.00    -0.014 A 
BRANCH  10  11
ATOM     11  C   UNL     1       5.834  -1.920   4.496  1.00  0.00     0.031 A 
ATOM     12  C   UNL     1       6.304  -3.337   4.711  1.00  0.00     0.074 A 
ATOM     13  C   UNL     1       5.932  -1.026   5.499  1.00  0.00     0.049 A 
ATOM     14  N   UNL     1       6.981  -3.834   5.716  1.00  0.00    -0.248 NA
ATOM     15  C   UNL     1       5.982  -4.320   3.663  1.00  0.00     0.031 C 
ATOM     16  C   UNL     1       5.473   0.361   5.442  1.00  0.00     0.029 A 
ATOM     17  N   UNL     1       6.455  -1.147   6.763  1.00  0.00    -0.354 N 
ATOM     18  C   UNL     1       7.215  -5.165   5.389  1.00  0.00     0.074 A 
ATOM     19  C   UNL     1       6.521  -5.427   4.150  1.00  0.00     0.031 C 
ATOM     20  C   UNL     1       5.724   0.961   6.619  1.00  0.00     0.029 A 
ATOM     21  C   UNL     1       6.390   0.009   7.504  1.00  0.00     0.049 A 
ATOM     22  H   UNL     1       6.842  -1.985   7.106  1.00  0.00     0.167 HD
ATOM     23  C   UNL     1       7.987  -6.075   6.029  1.00  0.00     0.031 A 
ATOM     24  C   UNL     1       6.846   0.283   8.743  1.00  0.00     0.031 A 
ATOM     25  C   UNL     1       8.646  -5.830   7.281  1.00  0.00     0.049 A 
ATOM     26  C   UNL     1       7.657  -0.759   9.469  1.00  0.00     0.074 A 
ATOM     27  C   UNL     1       9.467  -6.674   8.007  1.00  0.00     0.029 A 
ATOM     28  N   UNL     1       8.545  -4.649   8.000  1.00  0.00    -0.354 N 
ATOM     29  N   UNL     1       7.975  -1.972   9.081  1.00  0.00    -0.248 NA
ATOM     30  C   UNL     1       8.213  -0.379  10.775  1.00  0.00     0.031 C 
ATOM     31  C   UNL     1       9.836  -6.012   9.184  1.00  0.00     0.029 A 
ATOM     32  C   UNL     1       9.279  -4.743   9.168  1.00  0.00     0.049 A 
ATOM     33  H   UNL     1       8.028  -3.859   7.719  1.00  0.00     0.167 HD
ATOM     34  C   UNL     1       8.805  -2.481  10.074  1.00  0.00     0.074 A 
ATOM     35  C   UNL     1       8.943  -1.444  11.076  1.00  0.00     0.031 C 
ATOM     36  C   UNL     1       9.408  -3.694  10.147  1.00  0.00     0.031 A 
BRANCH  23  37
ATOM     37  C   UNL     1       8.181  -7.401   5.344  1.00  0.00    -0.014 A 
ATOM     38  C   UNL     1       8.959  -7.481   4.172  1.00  0.00     0.010 A 
ATOM     39  C   UNL     1       7.594  -8.570   5.856  1.00  0.00     0.010 A 
ATOM     40  C   UNL     1       9.104  -8.695   3.497  1.00  0.00     0.020 A 
ATOM     41  C   UNL     1       7.757  -9.793   5.196  1.00  0.00     0.020 A 
ATOM     42  C   UNL     1       8.494  -9.843   4.009  1.00  0.00     0.054 A 
BRANCH  42  43
ATOM     43  S   UNL     1       8.699 -11.406   3.112  1.00  0.00     0.124 S 
ATOM     44  O   UNL     1       7.822 -11.210   1.960  1.00  0.00    -0.237 OA
ATOM     45  O   UNL     1      10.130 -11.421   2.815  1.00  0.00    -0.237 OA
ATOM     46  O   UNL     1       8.255 -12.416   4.069  1.00  0.00    -0.744 OA
ENDBRANCH  42  43
ENDBRANCH  23  37
BRANCH  24  47
ATOM     47  C   UNL     1       6.596   1.616   9.358  1.00  0.00    -0.014 A 
ATOM     48  C   UNL     1       7.638   2.547   9.521  1.00  0.00     0.010 A 
ATOM     49  C   UNL     1       5.305   1.953   9.804  1.00  0.00     0.010 A 
ATOM     50  C   UNL     1       7.401   3.775  10.148  1.00  0.00     0.020 A 
ATOM     51  C   UNL     1       5.059   3.189  10.410  1.00  0.00     0.020 A 
ATOM     52  C   UNL     1       6.113   4.087  10.592  1.00  0.00     0.054 A 
BRANCH  52  53
ATOM     53  S   UNL     1       5.821   5.697  11.378  1.00  0.00     0.124 S 
ATOM     54  O   UNL     1       6.427   5.508  12.692  1.00  0.00    -0.237 OA
ATOM     55  O   UNL     1       6.520   6.616  10.483  1.00  0.00    -0.237 OA
ATOM     56  O   UNL     1       4.365   5.819  11.369  1.00  0.00    -0.744 OA
ENDBRANCH  52  53
ENDBRANCH  24  47
BRANCH  36  57
ATOM     57  C   UNL     1      10.303  -3.950  11.328  1.00  0.00    -0.014 A 
ATOM     58  C   UNL     1       9.771  -4.174  12.610  1.00  0.00     0.010 A 
ATOM     59  C   UNL     1      11.695  -4.018  11.139  1.00  0.00     0.010 A 
ATOM     60  C   UNL     1      10.620  -4.429  13.689  1.00  0.00     0.020 A 
ATOM     61  C   UNL     1      12.545  -4.298  12.211  1.00  0.00     0.020 A 
ATOM     62  C   UNL     1      12.002  -4.487  13.483  1.00  0.00     0.054 A 
BRANCH  62  63
ATOM     63  S   UNL     1      13.082  -4.861  14.891  1.00  0.00     0.124 S 
ATOM     64  O   UNL     1      13.111  -3.584  15.598  1.00  0.00    -0.237 OA
ATOM     65  O   UNL     1      12.367  -5.939  15.570  1.00  0.00    -0.237 OA
ATOM     66  O   UNL     1      14.342  -5.256  14.264  1.00  0.00    -0.744 OA
ENDBRANCH  62  63
ENDBRANCH  36  57
ENDBRANCH  10  11
ENDBRANCH   3   5
ENDBRANCH   2   3
ENDBRANCH   1   2
BRANCH   1  67
ATOM     67  C   UNL     1       3.605   2.380  -0.281  1.00  0.00     0.275 C 
BRANCH  67  68
ATOM     68  O   UNL     1       3.319   1.745   0.977  1.00  0.00    -0.458 OA
BRANCH  68  69
ATOM     69  C   UNL     1       2.081   1.220   1.141  1.00  0.00     0.340 C 
ATOM     70  O   UNL     1       1.238   1.060   0.262  1.00  0.00    -0.246 OA
BRANCH  69  71
ATOM     71  C   UNL     1       1.853   0.930   2.573  1.00  0.00     0.087 A 
ATOM     72  C   UNL     1       2.446   1.809   3.509  1.00  0.00     0.019 A 
ATOM     73  C   UNL     1       1.011  -0.093   3.043  1.00  0.00     0.109 A 
ATOM     74  C   UNL     1       2.196   1.669   4.866  1.00  0.00     0.021 A 
ATOM     75  N   UNL     1       0.761  -0.186   4.376  1.00  0.00    -0.254 NA
ATOM     76  C   UNL     1       1.352   0.657   5.249  1.00  0.00     0.111 A 
BRANCH  73  77
ATOM     77  C   UNL     1       0.228  -1.043   2.114  1.00  0.00     0.321 C 
BRANCH  77  78
ATOM     78  N   UNL     1      -0.342  -2.341   2.599  1.00  0.00    -0.322 N 
ATOM     79  C   UNL     1      -0.982  -2.329   3.915  1.00  0.00     0.263 C 
ATOM     80  C   UNL     1       0.575  -3.503   2.577  1.00  0.00     0.234 C 
ATOM     81  H   UNL     1      -1.060  -2.457   1.884  1.00  0.00     0.349 HD
ATOM     82  C   UNL     1      -0.008  -3.006   4.869  1.00  0.00     0.068 C 
ATOM     83  C   UNL     1       0.678  -4.042   4.011  1.00  0.00     0.078 C 
BRANCH  80  84
ATOM     84  C   UNL     1       0.165  -4.668   1.674  1.00  0.00     0.098 A 
ATOM     85  C   UNL     1      -1.154  -5.125   1.625  1.00  0.00     0.030 A 
ATOM     86  N   UNL     1       1.180  -5.364   1.096  1.00  0.00    -0.255 NA
ATOM     87  C   UNL     1      -1.433  -6.341   1.002  1.00  0.00     0.004 A 
ATOM     88  C   UNL     1       0.879  -6.534   0.488  1.00  0.00     0.111 A 
ATOM     89  C   UNL     1      -0.397  -7.066   0.429  1.00  0.00     0.020 A 
ENDBRANCH  80  84
ENDBRANCH  77  78
ENDBRANCH  73  77
ENDBRANCH  69  71
ENDBRANCH  68  69
ENDBRANCH  67  68
ENDBRANCH   1  67
TORSDOF 17
