REMARK SMILES O=C(OCCOC(=O)c1ccccc1C1SCCS1)c1ccc(-c2c3nc(c(-c4ccc(S(=O)(=O)[O-])cc4)c4ccc([nH]4)c(-c4ccc(S(=O)(=O)[O-])cc4)c4nc(c(-c5ccc(S(=O)(=O)[O-])cc5)c5ccc2[nH]5)C=C4)C=C3)cc1
REMARK SMILES IDX 4 1 3 2 2 3 1 4 20 5 21 6 79 7 22 8 78 9 23 10 24 11 25 12
REMARK SMILES IDX 72 13 26 14 77 15 71 16 73 17 27 18 76 19 70 20 69 21 28 23
REMARK SMILES IDX 58 24 39 25 57 26 40 27 43 28 56 29 74 30 41 31 42 32 55 34
REMARK SMILES IDX 75 35 44 36 29 37 30 38 38 39 31 40 37 41 32 42 33 43 34 44
REMARK SMILES IDX 35 45 36 46 59 47 60 48 68 49 61 50 67 51 62 52 63 53 64 54
REMARK SMILES IDX 65 55 66 56 45 57 46 58 54 59 47 60 53 61 48 62 49 63 50 64
REMARK SMILES IDX 51 65 52 66 5 67 6 68 7 69 8 70 9 71 10 72 14 73 11 74 13 75
REMARK SMILES IDX 12 76 15 77 16 78 19 79 17 80 18 81
REMARK H PARENT 73 22 43 33
REMARK Flexibility Score: inf
ROOT
ATOM      1  C   UNL     1       4.208   0.133   1.537  1.00  0.00     0.275 C 
ENDROOT
BRANCH   1   2
ATOM      2  O   UNL     1       3.048   0.824   1.043  1.00  0.00    -0.458 OA
BRANCH   2   3
ATOM      3  C   UNL     1       2.702   1.226  -0.202  1.00  0.00     0.338 C 
ATOM      4  O   UNL     1       1.649   1.858  -0.315  1.00  0.00    -0.246 OA
BRANCH   3   5
ATOM      5  C   UNL     1       3.453   0.917  -1.470  1.00  0.00     0.060 A 
ATOM      6  C   UNL     1       4.735   0.375  -1.576  1.00  0.00     0.016 A 
ATOM      7  C   UNL     1       2.768   1.184  -2.676  1.00  0.00     0.016 A 
ATOM      8  C   UNL     1       5.296   0.071  -2.823  1.00  0.00     0.010 A 
ATOM      9  C   UNL     1       3.318   0.873  -3.927  1.00  0.00     0.010 A 
ATOM     10  C   UNL     1       4.592   0.311  -4.005  1.00  0.00    -0.014 A 
BRANCH  10  11
ATOM     11  C   UNL     1       5.271   0.097  -5.306  1.00  0.00     0.031 A 
ATOM     12  C   UNL     1       5.976   1.251  -5.922  1.00  0.00     0.074 A 
ATOM     13  C   UNL     1       5.341  -1.121  -5.874  1.00  0.00     0.049 A 
ATOM     14  N   UNL     1       6.713   1.271  -6.996  1.00  0.00    -0.248 NA
ATOM     15  C   UNL     1       5.843   2.547  -5.239  1.00  0.00     0.031 C 
ATOM     16  C   UNL     1       4.721  -2.295  -5.300  1.00  0.00     0.029 A 
ATOM     17  N   UNL     1       5.966  -1.607  -6.993  1.00  0.00    -0.354 N 
ATOM     18  C   UNL     1       7.137   2.581  -7.120  1.00  0.00     0.074 A 
ATOM     19  C   UNL     1       6.554   3.333  -6.030  1.00  0.00     0.031 C 
ATOM     20  C   UNL     1       5.040  -3.387  -6.008  1.00  0.00     0.029 A 
ATOM     21  C   UNL     1       5.841  -2.975  -7.147  1.00  0.00     0.049 A 
ATOM     22  H   UNL     1       6.458  -1.036  -7.626  1.00  0.00     0.167 HD
ATOM     23  C   UNL     1       7.940   3.102  -8.072  1.00  0.00     0.031 A 
ATOM     24  C   UNL     1       6.317  -3.802  -8.099  1.00  0.00     0.031 A 
ATOM     25  C   UNL     1       8.446   2.342  -9.181  1.00  0.00     0.049 A 
ATOM     26  C   UNL     1       7.125  -3.173  -9.198  1.00  0.00     0.074 A 
ATOM     27  C   UNL     1       9.202   2.782 -10.250  1.00  0.00     0.029 A 
ATOM     28  N   UNL     1       8.229   0.982  -9.371  1.00  0.00    -0.354 N 
ATOM     29  N   UNL     1       7.506  -1.922  -9.313  1.00  0.00    -0.248 NA
ATOM     30  C   UNL     1       7.557  -4.044 -10.296  1.00  0.00     0.031 C 
ATOM     31  C   UNL     1       9.392   1.701 -11.116  1.00  0.00     0.029 A 
ATOM     32  C   UNL     1       8.818   0.570 -10.553  1.00  0.00     0.049 A 
ATOM     33  H   UNL     1       7.730   0.398  -8.755  1.00  0.00     0.167 HD
ATOM     34  C   UNL     1       8.235  -1.855 -10.489  1.00  0.00     0.074 A 
ATOM     35  C   UNL     1       8.265  -3.200 -11.035  1.00  0.00     0.031 C 
ATOM     36  C   UNL     1       8.821  -0.779 -11.068  1.00  0.00     0.031 A 
BRANCH  23  37
ATOM     37  C   UNL     1       8.225   4.570  -7.967  1.00  0.00    -0.014 A 
ATOM     38  C   UNL     1       9.043   5.080  -6.942  1.00  0.00     0.010 A 
ATOM     39  C   UNL     1       7.613   5.457  -8.868  1.00  0.00     0.010 A 
ATOM     40  C   UNL     1       9.209   6.458  -6.796  1.00  0.00     0.020 A 
ATOM     41  C   UNL     1       7.800   6.834  -8.742  1.00  0.00     0.020 A 
ATOM     42  C   UNL     1       8.583   7.326  -7.696  1.00  0.00     0.054 A 
BRANCH  42  43
ATOM     43  S   UNL     1       8.822   9.110  -7.486  1.00  0.00     0.124 S 
ATOM     44  O   UNL     1       8.038   9.380  -6.283  1.00  0.00    -0.237 OA
ATOM     45  O   UNL     1      10.270   9.221  -7.330  1.00  0.00    -0.237 OA
ATOM     46  O   UNL     1       8.284   9.679  -8.719  1.00  0.00    -0.744 OA
ENDBRANCH  42  43
ENDBRANCH  23  37
BRANCH  24  47
ATOM     47  C   UNL     1       6.025  -5.269  -8.080  1.00  0.00    -0.014 A 
ATOM     48  C   UNL     1       7.058  -6.218  -7.966  1.00  0.00     0.010 A 
ATOM     49  C   UNL     1       4.700  -5.734  -8.194  1.00  0.00     0.010 A 
ATOM     50  C   UNL     1       6.777  -7.591  -7.990  1.00  0.00     0.020 A 
ATOM     51  C   UNL     1       4.410  -7.104  -8.186  1.00  0.00     0.020 A 
ATOM     52  C   UNL     1       5.454  -8.026  -8.100  1.00  0.00     0.054 A 
BRANCH  52  53
ATOM     53  S   UNL     1       5.109  -9.809  -8.106  1.00  0.00     0.124 S 
ATOM     54  O   UNL     1       5.642 -10.219  -9.401  1.00  0.00    -0.237 OA
ATOM     55  O   UNL     1       5.853 -10.276  -6.938  1.00  0.00    -0.237 OA
ATOM     56  O   UNL     1       3.655  -9.877  -7.977  1.00  0.00    -0.744 OA
ENDBRANCH  52  53
ENDBRANCH  24  47
BRANCH  36  57
ATOM     57  C   UNL     1       9.570  -1.025 -12.346  1.00  0.00    -0.014 A 
ATOM     58  C   UNL     1       8.893  -1.302 -13.546  1.00  0.00     0.010 A 
ATOM     59  C   UNL     1      10.971  -0.912 -12.349  1.00  0.00     0.010 A 
ATOM     60  C   UNL     1       9.612  -1.489 -14.727  1.00  0.00     0.020 A 
ATOM     61  C   UNL     1      11.690  -1.065 -13.534  1.00  0.00     0.020 A 
ATOM     62  C   UNL     1      11.005  -1.363 -14.714  1.00  0.00     0.054 A 
BRANCH  62  63
ATOM     63  S   UNL     1      11.910  -1.548 -16.273  1.00  0.00     0.124 S 
ATOM     64  O   UNL     1      11.815  -2.985 -16.510  1.00  0.00    -0.237 OA
ATOM     65  O   UNL     1      11.142  -0.707 -17.188  1.00  0.00    -0.237 OA
ATOM     66  O   UNL     1      13.248  -1.054 -15.957  1.00  0.00    -0.744 OA
ENDBRANCH  62  63
ENDBRANCH  36  57
ENDBRANCH  10  11
ENDBRANCH   3   5
ENDBRANCH   2   3
ENDBRANCH   1   2
BRANCH   1  67
ATOM     67  C   UNL     1       4.086  -1.386   1.443  1.00  0.00     0.275 C 
BRANCH  67  68
ATOM     68  O   UNL     1       3.724  -1.809   0.122  1.00  0.00    -0.458 OA
BRANCH  68  69
ATOM     69  C   UNL     1       2.451  -2.249  -0.015  1.00  0.00     0.338 C 
ATOM     70  O   UNL     1       1.602  -2.314   0.863  1.00  0.00    -0.246 OA
BRANCH  69  71
ATOM     71  C   UNL     1       2.141  -2.485  -1.437  1.00  0.00     0.065 A 
ATOM     72  C   UNL     1       1.105  -1.665  -1.936  1.00  0.00     0.016 A 
ATOM     73  C   UNL     1       2.754  -3.455  -2.253  1.00  0.00    -0.010 A 
ATOM     74  C   UNL     1       0.693  -1.752  -3.261  1.00  0.00     0.001 A 
ATOM     75  C   UNL     1       2.239  -3.578  -3.570  1.00  0.00     0.006 A 
ATOM     76  C   UNL     1       1.256  -2.717  -4.079  1.00  0.00     0.000 A 
BRANCH  73  77
ATOM     77  C   UNL     1       3.950  -4.334  -1.895  1.00  0.00     0.134 C 
ATOM     78  S   UNL     1       5.547  -3.572  -2.350  1.00  0.00    -0.142 SA
ATOM     79  S   UNL     1       4.042  -4.982  -0.206  1.00  0.00    -0.142 SA
ATOM     80  C   UNL     1       6.323  -3.586  -0.735  1.00  0.00     0.082 C 
ATOM     81  C   UNL     1       5.839  -4.817  -0.003  1.00  0.00     0.082 C 
ENDBRANCH  73  77
ENDBRANCH  69  71
ENDBRANCH  68  69
ENDBRANCH  67  68
ENDBRANCH   1  67
TORSDOF 15
