REMARK SMILES CC(C)(C)OC(=O)N1CCC[C@](Cc2ccccc2)(C(=O)OCCOC(=O)c2ccc(-c3c4nc(c(-c5ccc(S(=O)(=O)[O-])cc5)c5ccc([nH]5)c(-c5ccc(S(=O)(=O)[O-])cc5)c5nc(c(-c6ccc(S(=O)(=O)[O-])cc6)c6ccc3[nH]6)C=C5)C=C4)cc2)C1
REMARK SMILES IDX 23 1 22 2 20 3 21 4 12 5 8 6 9 7 88 8 10 9 11 10 6 11 7 12
REMARK SMILES IDX 5 13 2 14 1 15 3 16 4 17 13 18 14 19 15 20 19 21 16 22 18 23
REMARK SMILES IDX 17 24 24 25 25 26 26 27 27 28 28 29 29 30 87 31 30 32 86 33
REMARK SMILES IDX 31 34 32 35 33 36 80 37 34 38 85 39 79 40 81 41 35 42 84 43
REMARK SMILES IDX 78 44 77 45 36 47 66 48 47 49 65 50 48 51 51 52 64 53 82 54
REMARK SMILES IDX 49 55 50 56 63 58 83 59 52 60 37 61 38 62 46 63 39 64 45 65
REMARK SMILES IDX 40 66 41 67 42 68 43 69 44 70 67 71 68 72 76 73 69 74 75 75
REMARK SMILES IDX 70 76 71 77 72 78 73 79 74 80 53 81 54 82 62 83 55 84 61 85
REMARK SMILES IDX 56 86 57 87 58 88 59 89 60 90
REMARK H PARENT 81 46 51 57
REMARK Flexibility Score: inf
ROOT
ATOM      1  C   UNL     1       4.384   5.057   4.037  1.00  0.00     0.274 C 
ENDROOT
BRANCH   1   2
ATOM      2  O   UNL     1       4.107   3.678   4.379  1.00  0.00    -0.462 OA
BRANCH   2   3
ATOM      3  C   UNL     1       3.460   3.453   5.561  1.00  0.00     0.314 C 
ATOM      4  O   UNL     1       3.081   4.353   6.302  1.00  0.00    -0.252 OA
BRANCH   3   5
ATOM      5  C   UNL     1       3.373   1.954   5.917  1.00  0.00     0.090 C 
ATOM      6  N   UNL     1       1.215   1.162   4.793  1.00  0.00    -0.307 N 
ATOM      7  C   UNL     1       0.568   0.961   6.084  1.00  0.00     0.123 C 
ATOM      8  C   UNL     1       2.677   1.182   4.766  1.00  0.00     0.142 C 
ATOM      9  C   UNL     1       1.106   1.882   7.165  1.00  0.00     0.023 C 
ATOM     10  C   UNL     1       2.617   1.784   7.269  1.00  0.00     0.023 C 
BRANCH   6  11
ATOM     11  C   UNL     1       0.449   0.904   3.648  1.00  0.00     0.410 C 
ATOM     12  O   UNL     1      -0.746   0.646   3.716  1.00  0.00    -0.224 OA
BRANCH  11  13
ATOM     13  O   UNL     1       1.155   0.948   2.488  1.00  0.00    -0.444 OA
BRANCH  13  14
ATOM     14  C   UNL     1       0.580   0.787   1.149  1.00  0.00     0.106 C 
ATOM     15  C   UNL     1       1.184  -0.493   0.565  1.00  0.00     0.056 C 
ATOM     16  C   UNL     1       1.060   1.970   0.292  1.00  0.00     0.056 C 
ATOM     17  C   UNL     1      -0.949   0.735   1.047  1.00  0.00     0.056 C 
ENDBRANCH  13  14
ENDBRANCH  11  13
ENDBRANCH   6  11
BRANCH   5  18
ATOM     18  C   UNL     1       4.864   1.489   6.090  1.00  0.00     0.056 C 
BRANCH  18  19
ATOM     19  C   UNL     1       5.075   0.214   6.889  1.00  0.00    -0.047 A 
ATOM     20  C   UNL     1       5.401   0.287   8.254  1.00  0.00     0.004 A 
ATOM     21  C   UNL     1       4.841  -1.045   6.322  1.00  0.00     0.004 A 
ATOM     22  C   UNL     1       5.426  -0.866   9.042  1.00  0.00     0.000 A 
ATOM     23  C   UNL     1       4.853  -2.194   7.115  1.00  0.00     0.000 A 
ATOM     24  C   UNL     1       5.135  -2.104   8.476  1.00  0.00     0.000 A 
ENDBRANCH  18  19
ENDBRANCH   5  18
ENDBRANCH   3   5
ENDBRANCH   2   3
ENDBRANCH   1   2
BRANCH   1  25
ATOM     25  C   UNL     1       3.500   5.587   2.904  1.00  0.00     0.275 C 
BRANCH  25  26
ATOM     26  O   UNL     1       2.123   5.690   3.314  1.00  0.00    -0.458 OA
BRANCH  26  27
ATOM     27  C   UNL     1       1.416   4.579   3.013  1.00  0.00     0.338 C 
ATOM     28  O   UNL     1       1.865   3.602   2.442  1.00  0.00    -0.246 OA
BRANCH  27  29
ATOM     29  C   UNL     1       0.051   4.598   3.552  1.00  0.00     0.060 A 
ATOM     30  C   UNL     1      -0.098   4.384   4.914  1.00  0.00     0.016 A 
ATOM     31  C   UNL     1      -1.062   4.544   2.712  1.00  0.00     0.016 A 
ATOM     32  C   UNL     1      -1.335   4.001   5.428  1.00  0.00     0.010 A 
ATOM     33  C   UNL     1      -2.328   4.271   3.253  1.00  0.00     0.010 A 
ATOM     34  C   UNL     1      -2.477   3.961   4.616  1.00  0.00    -0.014 A 
BRANCH  34  35
ATOM     35  C   UNL     1      -3.812   3.621   5.193  1.00  0.00     0.031 A 
ATOM     36  C   UNL     1      -4.644   2.495   4.628  1.00  0.00     0.074 A 
ATOM     37  C   UNL     1      -4.296   4.329   6.235  1.00  0.00     0.049 A 
ATOM     38  N   UNL     1      -5.911   2.221   4.821  1.00  0.00    -0.248 NA
ATOM     39  C   UNL     1      -3.962   1.549   3.737  1.00  0.00     0.031 C 
ATOM     40  C   UNL     1      -3.578   5.379   6.962  1.00  0.00     0.029 A 
ATOM     41  N   UNL     1      -5.521   4.281   6.858  1.00  0.00    -0.354 N 
ATOM     42  C   UNL     1      -6.182   1.097   4.043  1.00  0.00     0.074 A 
ATOM     43  C   UNL     1      -4.947   0.733   3.386  1.00  0.00     0.031 C 
ATOM     44  C   UNL     1      -4.364   5.863   7.933  1.00  0.00     0.029 A 
ATOM     45  C   UNL     1      -5.681   5.254   7.816  1.00  0.00     0.049 A 
ATOM     46  H   UNL     1      -6.214   3.616   6.639  1.00  0.00     0.167 HD
ATOM     47  C   UNL     1      -7.359   0.444   3.878  1.00  0.00     0.031 A 
ATOM     48  C   UNL     1      -6.777   5.684   8.470  1.00  0.00     0.031 A 
ATOM     49  C   UNL     1      -8.585   0.819   4.536  1.00  0.00     0.049 A 
ATOM     50  C   UNL     1      -8.101   5.049   8.171  1.00  0.00     0.074 A 
ATOM     51  C   UNL     1      -9.841   0.252   4.408  1.00  0.00     0.029 A 
ATOM     52  N   UNL     1      -8.706   1.857   5.447  1.00  0.00    -0.354 N 
ATOM     53  N   UNL     1      -8.369   4.053   7.362  1.00  0.00    -0.248 NA
ATOM     54  C   UNL     1      -9.274   5.607   8.856  1.00  0.00     0.031 C 
ATOM     55  C   UNL     1     -10.733   0.983   5.200  1.00  0.00     0.029 A 
ATOM     56  C   UNL     1     -10.020   1.964   5.870  1.00  0.00     0.049 A 
ATOM     57  H   UNL     1      -7.967   2.433   5.748  1.00  0.00     0.167 HD
ATOM     58  C   UNL     1      -9.740   3.849   7.457  1.00  0.00     0.074 A 
ATOM     59  C   UNL     1     -10.244   4.823   8.404  1.00  0.00     0.031 C 
ATOM     60  C   UNL     1     -10.507   2.932   6.820  1.00  0.00     0.031 A 
BRANCH  47  61
ATOM     61  C   UNL     1      -7.404  -0.694   2.889  1.00  0.00    -0.014 A 
ATOM     62  C   UNL     1      -6.838  -1.949   3.171  1.00  0.00     0.010 A 
ATOM     63  C   UNL     1      -8.078  -0.510   1.665  1.00  0.00     0.010 A 
ATOM     64  C   UNL     1      -6.915  -2.987   2.235  1.00  0.00     0.020 A 
ATOM     65  C   UNL     1      -8.177  -1.551   0.737  1.00  0.00     0.020 A 
ATOM     66  C   UNL     1      -7.579  -2.780   1.021  1.00  0.00     0.054 A 
BRANCH  66  67
ATOM     67  S   UNL     1      -7.677  -4.144  -0.173  1.00  0.00     0.124 S 
ATOM     68  O   UNL     1      -6.310  -4.194  -0.687  1.00  0.00    -0.237 OA
ATOM     69  O   UNL     1      -8.075  -5.275   0.660  1.00  0.00    -0.237 OA
ATOM     70  O   UNL     1      -8.685  -3.696  -1.132  1.00  0.00    -0.744 OA
ENDBRANCH  66  67
ENDBRANCH  47  61
BRANCH  48  71
ATOM     71  C   UNL     1      -6.663   6.849   9.389  1.00  0.00    -0.014 A 
ATOM     72  C   UNL     1      -6.791   6.688  10.777  1.00  0.00     0.010 A 
ATOM     73  C   UNL     1      -6.360   8.125   8.872  1.00  0.00     0.010 A 
ATOM     74  C   UNL     1      -6.611   7.780  11.633  1.00  0.00     0.020 A 
ATOM     75  C   UNL     1      -6.147   9.210   9.725  1.00  0.00     0.020 A 
ATOM     76  C   UNL     1      -6.282   9.031  11.101  1.00  0.00     0.054 A 
BRANCH  76  77
ATOM     77  S   UNL     1      -5.967  10.413  12.234  1.00  0.00     0.124 S 
ATOM     78  O   UNL     1      -7.317  10.778  12.649  1.00  0.00    -0.237 OA
ATOM     79  O   UNL     1      -5.133   9.797  13.263  1.00  0.00    -0.237 OA
ATOM     80  O   UNL     1      -5.282  11.393  11.394  1.00  0.00    -0.744 OA
ENDBRANCH  76  77
ENDBRANCH  48  71
BRANCH  60  81
ATOM     81  C   UNL     1     -11.969   2.891   7.166  1.00  0.00    -0.014 A 
ATOM     82  C   UNL     1     -12.865   3.853   6.671  1.00  0.00     0.010 A 
ATOM     83  C   UNL     1     -12.459   1.824   7.940  1.00  0.00     0.010 A 
ATOM     84  C   UNL     1     -14.229   3.754   6.957  1.00  0.00     0.020 A 
ATOM     85  C   UNL     1     -13.824   1.709   8.208  1.00  0.00     0.020 A 
ATOM     86  C   UNL     1     -14.701   2.680   7.721  1.00  0.00     0.054 A 
BRANCH  86  87
ATOM     87  S   UNL     1     -16.484   2.534   8.018  1.00  0.00     0.124 S 
ATOM     88  O   UNL     1     -16.712   3.575   9.017  1.00  0.00    -0.237 OA
ATOM     89  O   UNL     1     -17.053   2.795   6.698  1.00  0.00    -0.237 OA
ATOM     90  O   UNL     1     -16.644   1.163   8.498  1.00  0.00    -0.744 OA
ENDBRANCH  86  87
ENDBRANCH  60  81
ENDBRANCH  34  35
ENDBRANCH  27  29
ENDBRANCH  26  27
ENDBRANCH  25  26
ENDBRANCH   1  25
TORSDOF 19
