REMARK SMILES O=C(OCCOC(=O)c1cc(F)ccc1NS(=O)(=O)c1ccc(Cl)s1)c1ccc(-c2c3nc(c(-c4ccc(S(=O)(=O)[O-])cc4)c4ccc([nH]4)c(-c4ccc(S(=O)(=O)[O-])cc4)c4nc(c(-c5ccc(S(=O)(=O)[O-])cc5)c5ccc2[nH]5)C=C4)C=C3)cc1
REMARK SMILES IDX 4 1 3 2 2 3 1 4 26 5 27 6 85 7 28 8 84 9 29 10 30 11 31 12
REMARK SMILES IDX 78 13 32 14 83 15 77 16 79 17 33 18 82 19 76 20 75 21 34 23
REMARK SMILES IDX 64 24 45 25 63 26 46 27 49 28 62 29 80 30 47 31 48 32 61 34
REMARK SMILES IDX 81 35 50 36 35 37 36 38 44 39 37 40 43 41 38 42 39 43 40 44
REMARK SMILES IDX 41 45 42 46 65 47 66 48 74 49 67 50 73 51 68 52 69 53 70 54
REMARK SMILES IDX 71 55 72 56 51 57 52 58 60 59 53 60 59 61 54 62 55 63 56 64
REMARK SMILES IDX 57 65 58 66 5 67 6 68 7 69 8 70 9 71 10 72 15 73 11 74 14 75
REMARK SMILES IDX 12 76 13 77 16 78 17 80 18 81 19 82 20 83 21 84 25 85 22 86
REMARK SMILES IDX 23 87 24 88
REMARK H PARENT 79 22 49 33 16 79
REMARK Flexibility Score: inf
ROOT
ATOM      1  C   UNL     1       4.139   0.463  -1.631  1.00  0.00     0.275 C 
ENDROOT
BRANCH   1   2
ATOM      2  O   UNL     1       3.278  -0.575  -1.138  1.00  0.00    -0.458 OA
BRANCH   2   3
ATOM      3  C   UNL     1       3.074  -1.049   0.111  1.00  0.00     0.338 C 
ATOM      4  O   UNL     1       2.183  -1.884   0.264  1.00  0.00    -0.246 OA
BRANCH   3   5
ATOM      5  C   UNL     1       3.799  -0.568   1.334  1.00  0.00     0.060 A 
ATOM      6  C   UNL     1       5.041   0.066   1.375  1.00  0.00     0.016 A 
ATOM      7  C   UNL     1       3.163  -0.807   2.564  1.00  0.00     0.016 A 
ATOM      8  C   UNL     1       5.590   0.509   2.586  1.00  0.00     0.010 A 
ATOM      9  C   UNL     1       3.684  -0.340   3.773  1.00  0.00     0.010 A 
ATOM     10  C   UNL     1       4.915   0.317   3.792  1.00  0.00    -0.014 A 
BRANCH  10  11
ATOM     11  C   UNL     1       5.563   0.674   5.076  1.00  0.00     0.031 A 
ATOM     12  C   UNL     1       6.073  -0.428   5.958  1.00  0.00     0.074 A 
ATOM     13  C   UNL     1       5.722   1.963   5.433  1.00  0.00     0.049 A 
ATOM     14  N   UNL     1       6.731  -0.340   7.083  1.00  0.00    -0.248 NA
ATOM     15  C   UNL     1       5.829  -1.809   5.507  1.00  0.00     0.031 C 
ATOM     16  C   UNL     1       5.311   3.114   4.633  1.00  0.00     0.029 A 
ATOM     17  N   UNL     1       6.263   2.526   6.561  1.00  0.00    -0.354 N 
ATOM     18  C   UNL     1       7.016  -1.649   7.450  1.00  0.00     0.074 A 
ATOM     19  C   UNL     1       6.385  -2.514   6.479  1.00  0.00     0.031 C 
ATOM     20  C   UNL     1       5.563   4.244   5.314  1.00  0.00     0.029 A 
ATOM     21  C   UNL     1       6.181   3.900   6.587  1.00  0.00     0.049 A 
ATOM     22  H   UNL     1       6.673   1.997   7.283  1.00  0.00     0.167 HD
ATOM     23  C   UNL     1       7.776  -2.091   8.478  1.00  0.00     0.031 A 
ATOM     24  C   UNL     1       6.573   4.782   7.527  1.00  0.00     0.031 A 
ATOM     25  C   UNL     1       8.377  -1.226   9.452  1.00  0.00     0.049 A 
ATOM     26  C   UNL     1       7.316   4.262   8.727  1.00  0.00     0.074 A 
ATOM     27  C   UNL     1       9.170  -1.562  10.533  1.00  0.00     0.029 A 
ATOM     28  N   UNL     1       8.238   0.155   9.466  1.00  0.00    -0.354 N 
ATOM     29  N   UNL     1       7.635   3.022   9.019  1.00  0.00    -0.248 NA
ATOM     30  C   UNL     1       7.791   5.255   9.698  1.00  0.00     0.031 C 
ATOM     31  C   UNL     1       9.474  -0.385  11.228  1.00  0.00     0.029 A 
ATOM     32  C   UNL     1       8.910   0.686  10.551  1.00  0.00     0.049 A 
ATOM     33  H   UNL     1       7.734   0.679   8.802  1.00  0.00     0.167 HD
ATOM     34  C   UNL     1       8.393   3.091  10.181  1.00  0.00     0.074 A 
ATOM     35  C   UNL     1       8.478   4.494  10.540  1.00  0.00     0.031 C 
ATOM     36  C   UNL     1       8.982   2.088  10.878  1.00  0.00     0.031 A 
BRANCH  23  37
ATOM     37  C   UNL     1       7.979  -3.577   8.575  1.00  0.00    -0.014 A 
ATOM     38  C   UNL     1       8.785  -4.253   7.638  1.00  0.00     0.010 A 
ATOM     39  C   UNL     1       7.333  -4.313   9.582  1.00  0.00     0.010 A 
ATOM     40  C   UNL     1       8.894  -5.644   7.672  1.00  0.00     0.020 A 
ATOM     41  C   UNL     1       7.460  -5.704   9.634  1.00  0.00     0.020 A 
ATOM     42  C   UNL     1       8.220  -6.362   8.664  1.00  0.00     0.054 A 
BRANCH  42  43
ATOM     43  S   UNL     1       8.360  -8.170   8.674  1.00  0.00     0.124 S 
ATOM     44  O   UNL     1       7.506  -8.543   7.549  1.00  0.00    -0.237 OA
ATOM     45  O   UNL     1       9.791  -8.383   8.472  1.00  0.00    -0.237 OA
ATOM     46  O   UNL     1       7.856  -8.549   9.991  1.00  0.00    -0.744 OA
ENDBRANCH  42  43
ENDBRANCH  23  37
BRANCH  24  47
ATOM     47  C   UNL     1       6.307   6.238   7.353  1.00  0.00    -0.014 A 
ATOM     48  C   UNL     1       7.352   7.137   7.074  1.00  0.00     0.010 A 
ATOM     49  C   UNL     1       4.995   6.736   7.468  1.00  0.00     0.010 A 
ATOM     50  C   UNL     1       7.095   8.506   6.941  1.00  0.00     0.020 A 
ATOM     51  C   UNL     1       4.731   8.101   7.315  1.00  0.00     0.020 A 
ATOM     52  C   UNL     1       5.785   8.980   7.064  1.00  0.00     0.054 A 
BRANCH  52  53
ATOM     53  S   UNL     1       5.475  10.757   6.858  1.00  0.00     0.124 S 
ATOM     54  O   UNL     1       6.059  11.312   8.075  1.00  0.00    -0.237 OA
ATOM     55  O   UNL     1       6.188  11.059   5.619  1.00  0.00    -0.237 OA
ATOM     56  O   UNL     1       4.019  10.843   6.766  1.00  0.00    -0.744 OA
ENDBRANCH  52  53
ENDBRANCH  24  47
BRANCH  36  57
ATOM     57  C   UNL     1       9.807   2.476  12.073  1.00  0.00    -0.014 A 
ATOM     58  C   UNL     1       9.202   2.891  13.271  1.00  0.00     0.010 A 
ATOM     59  C   UNL     1      11.207   2.357  12.009  1.00  0.00     0.010 A 
ATOM     60  C   UNL     1       9.989   3.206  14.381  1.00  0.00     0.020 A 
ATOM     61  C   UNL     1      11.994   2.645  13.124  1.00  0.00     0.020 A 
ATOM     62  C   UNL     1      11.380   3.080  14.300  1.00  0.00     0.054 A 
BRANCH  62  63
ATOM     63  S   UNL     1      12.377   3.437  15.772  1.00  0.00     0.124 S 
ATOM     64  O   UNL     1      12.372   4.897  15.793  1.00  0.00    -0.237 OA
ATOM     65  O   UNL     1      11.618   2.789  16.840  1.00  0.00    -0.237 OA
ATOM     66  O   UNL     1      13.668   2.821  15.472  1.00  0.00    -0.744 OA
ENDBRANCH  62  63
ENDBRANCH  36  57
ENDBRANCH  10  11
ENDBRANCH   3   5
ENDBRANCH   2   3
ENDBRANCH   1   2
BRANCH   1  67
ATOM     67  C   UNL     1       3.596   1.879  -1.446  1.00  0.00     0.275 C 
BRANCH  67  68
ATOM     68  O   UNL     1       3.194   2.181  -0.102  1.00  0.00    -0.458 OA
BRANCH  68  69
ATOM     69  C   UNL     1       1.865   2.076   0.173  1.00  0.00     0.340 C 
ATOM     70  O   UNL     1       0.990   1.674  -0.574  1.00  0.00    -0.246 OA
BRANCH  69  71
ATOM     71  C   UNL     1       1.653   2.401   1.599  1.00  0.00     0.087 A 
ATOM     72  C   UNL     1       2.308   3.526   2.121  1.00  0.00     0.057 A 
ATOM     73  C   UNL     1       0.865   1.565   2.424  1.00  0.00     0.064 A 
ATOM     74  C   UNL     1       2.225   3.790   3.476  1.00  0.00     0.124 A 
ATOM     75  C   UNL     1       0.937   1.788   3.803  1.00  0.00     0.030 A 
ATOM     76  F   UNL     1       2.798   4.893   3.969  1.00  0.00    -0.207 F 
ATOM     77  C   UNL     1       1.604   2.897   4.330  1.00  0.00     0.041 A 
BRANCH  73  78
ATOM     78  N   UNL     1      -0.170   0.756   1.828  1.00  0.00    -0.278 N 
ATOM     79  H   UNL     1      -0.428   0.990   0.907  1.00  0.00     0.180 HD
BRANCH  78  80
ATOM     80  S   UNL     1      -0.987  -0.536   2.520  1.00  0.00     0.271 S 
ATOM     81  O   UNL     1      -2.180  -0.761   1.732  1.00  0.00    -0.200 OA
ATOM     82  O   UNL     1      -0.043  -1.605   2.755  1.00  0.00    -0.200 OA
BRANCH  80  83
ATOM     83  C   UNL     1      -1.587  -0.180   4.154  1.00  0.00     0.141 A 
ATOM     84  C   UNL     1      -1.440  -0.885   5.340  1.00  0.00     0.036 A 
ATOM     85  S   UNL     1      -2.430   1.290   4.397  1.00  0.00    -0.110 S 
ATOM     86  C   UNL     1      -1.863  -0.128   6.469  1.00  0.00     0.034 A 
ATOM     87  C   UNL     1      -2.365   1.087   6.080  1.00  0.00     0.094 A 
ATOM     88  Cl  UNL     1      -2.890   2.351   7.115  1.00  0.00    -0.072 Cl
ENDBRANCH  80  83
ENDBRANCH  78  80
ENDBRANCH  73  78
ENDBRANCH  69  71
ENDBRANCH  68  69
ENDBRANCH  67  68
ENDBRANCH   1  67
TORSDOF 17
