REMARK SMILES O=C(OCCOC(=O)c1ccc(S(=O)(=O)NCc2ccn[nH]2)c(F)c1)c1ccc(-c2c3nc(c(-c4ccc(S(=O)(=O)[O-])cc4)c4ccc([nH]4)c(-c4ccc(S(=O)(=O)[O-])cc4)c4nc(c(-c5ccc(S(=O)(=O)[O-])cc5)c5ccc2[nH]5)C=C4)C=C3)cc1
REMARK SMILES IDX 5 1 4 2 3 3 2 4 1 5 26 6 27 7 85 8 28 9 84 10 29 11 30 12
REMARK SMILES IDX 31 13 78 14 32 15 83 16 77 17 79 18 33 19 82 20 76 21 75 22
REMARK SMILES IDX 34 24 64 25 45 26 63 27 46 28 49 29 62 30 80 31 47 32 48 33
REMARK SMILES IDX 61 35 81 36 50 37 35 38 36 39 44 40 37 41 43 42 38 43 39 44
REMARK SMILES IDX 40 45 41 46 42 47 65 48 66 49 74 50 67 51 73 52 68 53 69 54
REMARK SMILES IDX 70 55 71 56 72 57 51 58 52 59 60 60 53 61 59 62 54 63 55 64
REMARK SMILES IDX 56 65 57 66 58 67 6 68 7 69 8 70 9 71 10 72 25 73 11 74
REMARK SMILES IDX 23 75 12 76 24 77 13 78 14 79 15 80 16 81 17 83 18 84 19 85
REMARK SMILES IDX 22 86 20 87 21 88
REMARK H PARENT 79 23 49 34 16 82 22 89
REMARK Flexibility Score: inf
ROOT
ATOM      1  C   UNL     1       3.841   1.882   1.155  1.00  0.00     0.275 C 
ENDROOT
BRANCH   1   2
ATOM      2  C   UNL     1       3.912   1.518  -0.331  1.00  0.00     0.275 C 
BRANCH   2   3
ATOM      3  O   UNL     1       2.822   0.715  -0.820  1.00  0.00    -0.458 OA
BRANCH   3   4
ATOM      4  C   UNL     1       2.614  -0.621  -0.776  1.00  0.00     0.338 C 
ATOM      5  O   UNL     1       1.619  -1.075  -1.341  1.00  0.00    -0.246 OA
BRANCH   4   6
ATOM      6  C   UNL     1       3.453  -1.582   0.012  1.00  0.00     0.060 A 
ATOM      7  C   UNL     1       4.779  -1.385   0.395  1.00  0.00     0.016 A 
ATOM      8  C   UNL     1       2.836  -2.794   0.389  1.00  0.00     0.016 A 
ATOM      9  C   UNL     1       5.445  -2.316   1.192  1.00  0.00     0.010 A 
ATOM     10  C   UNL     1       3.500  -3.733   1.186  1.00  0.00     0.010 A 
ATOM     11  C   UNL     1       4.809  -3.488   1.601  1.00  0.00    -0.014 A 
BRANCH  11  12
ATOM     12  C   UNL     1       5.584  -4.470   2.387  1.00  0.00     0.031 A 
ATOM     13  C   UNL     1       6.183  -5.648   1.685  1.00  0.00     0.074 A 
ATOM     14  C   UNL     1       5.844  -4.229   3.686  1.00  0.00     0.049 A 
ATOM     15  N   UNL     1       7.024  -6.531   2.147  1.00  0.00    -0.248 NA
ATOM     16  C   UNL     1       5.831  -5.827   0.266  1.00  0.00     0.031 C 
ATOM     17  C   UNL     1       5.390  -3.053   4.427  1.00  0.00     0.029 A 
ATOM     18  N   UNL     1       6.562  -4.941   4.609  1.00  0.00    -0.354 N 
ATOM     19  C   UNL     1       7.338  -7.346   1.069  1.00  0.00     0.074 A 
ATOM     20  C   UNL     1       6.558  -6.886  -0.059  1.00  0.00     0.031 C 
ATOM     21  C   UNL     1       5.798  -3.144   5.703  1.00  0.00     0.029 A 
ATOM     22  C   UNL     1       6.557  -4.378   5.865  1.00  0.00     0.049 A 
ATOM     23  H   UNL     1       7.037  -5.776   4.395  1.00  0.00     0.167 HD
ATOM     24  C   UNL     1       8.225  -8.365   1.020  1.00  0.00     0.031 A 
ATOM     25  C   UNL     1       7.110  -4.808   7.014  1.00  0.00     0.031 A 
ATOM     26  C   UNL     1       8.948  -8.846   2.165  1.00  0.00     0.049 A 
ATOM     27  C   UNL     1       7.973  -6.039   6.964  1.00  0.00     0.074 A 
ATOM     28  C   UNL     1       9.841  -9.899   2.242  1.00  0.00     0.029 A 
ATOM     29  N   UNL     1       8.840  -8.315   3.443  1.00  0.00    -0.354 N 
ATOM     30  N   UNL     1       8.298  -6.770   5.922  1.00  0.00    -0.248 NA
ATOM     31  C   UNL     1       8.576  -6.481   8.226  1.00  0.00     0.031 C 
ATOM     32  C   UNL     1      10.236 -10.034   3.577  1.00  0.00     0.029 A 
ATOM     33  C   UNL     1       9.637  -9.028   4.321  1.00  0.00     0.049 A 
ATOM     34  H   UNL     1       8.280  -7.543   3.689  1.00  0.00     0.167 HD
ATOM     35  C   UNL     1       9.168  -7.741   6.399  1.00  0.00     0.074 A 
ATOM     36  C   UNL     1       9.338  -7.486   7.817  1.00  0.00     0.031 C 
ATOM     37  C   UNL     1       9.777  -8.751   5.729  1.00  0.00     0.031 A 
BRANCH  24  38
ATOM     38  C   UNL     1       8.435  -9.025  -0.314  1.00  0.00    -0.014 A 
ATOM     39  C   UNL     1       9.146  -8.368  -1.335  1.00  0.00     0.010 A 
ATOM     40  C   UNL     1       7.931 -10.316  -0.549  1.00  0.00     0.010 A 
ATOM     41  C   UNL     1       9.326  -8.980  -2.578  1.00  0.00     0.020 A 
ATOM     42  C   UNL     1       8.128 -10.940  -1.784  1.00  0.00     0.020 A 
ATOM     43  C   UNL     1       8.815 -10.263  -2.795  1.00  0.00     0.054 A 
BRANCH  43  44
ATOM     44  S   UNL     1       9.087 -11.043  -4.410  1.00  0.00     0.124 S 
ATOM     45  O   UNL     1       8.207 -10.260  -5.275  1.00  0.00    -0.237 OA
ATOM     46  O   UNL     1      10.518 -10.842  -4.624  1.00  0.00    -0.237 OA
ATOM     47  O   UNL     1       8.679 -12.430  -4.200  1.00  0.00    -0.744 OA
ENDBRANCH  43  44
ENDBRANCH  24  38
BRANCH  25  48
ATOM     48  C   UNL     1       6.862  -4.085   8.294  1.00  0.00    -0.014 A 
ATOM     49  C   UNL     1       7.900  -3.429   8.980  1.00  0.00     0.010 A 
ATOM     50  C   UNL     1       5.570  -4.082   8.855  1.00  0.00     0.010 A 
ATOM     51  C   UNL     1       7.660  -2.823  10.219  1.00  0.00     0.020 A 
ATOM     52  C   UNL     1       5.320  -3.454  10.079  1.00  0.00     0.020 A 
ATOM     53  C   UNL     1       6.372  -2.844  10.763  1.00  0.00     0.054 A 
BRANCH  53  54
ATOM     54  S   UNL     1       6.086  -2.050  12.370  1.00  0.00     0.124 S 
ATOM     55  O   UNL     1       6.749  -2.970  13.288  1.00  0.00    -0.237 OA
ATOM     56  O   UNL     1       6.733  -0.751  12.198  1.00  0.00    -0.237 OA
ATOM     57  O   UNL     1       4.629  -2.001  12.474  1.00  0.00    -0.744 OA
ENDBRANCH  53  54
ENDBRANCH  25  48
BRANCH  37  58
ATOM     58  C   UNL     1      10.703  -9.630   6.524  1.00  0.00    -0.014 A 
ATOM     59  C   UNL     1      10.206 -10.534   7.479  1.00  0.00     0.010 A 
ATOM     60  C   UNL     1      12.089  -9.567   6.289  1.00  0.00     0.010 A 
ATOM     61  C   UNL     1      11.084 -11.326   8.221  1.00  0.00     0.020 A 
ATOM     62  C   UNL     1      12.967 -10.383   7.004  1.00  0.00     0.020 A 
ATOM     63  C   UNL     1      12.460 -11.243   7.980  1.00  0.00     0.054 A 
BRANCH  63  64
ATOM     64  S   UNL     1      13.578 -12.300   8.938  1.00  0.00     0.124 S 
ATOM     65  O   UNL     1      13.588 -11.632  10.237  1.00  0.00    -0.237 OA
ATOM     66  O   UNL     1      12.906 -13.596   8.902  1.00  0.00    -0.237 OA
ATOM     67  O   UNL     1      14.835 -12.236   8.195  1.00  0.00    -0.744 OA
ENDBRANCH  63  64
ENDBRANCH  37  58
ENDBRANCH  11  12
ENDBRANCH   4   6
ENDBRANCH   3   4
ENDBRANCH   2   3
ENDBRANCH   1   2
BRANCH   1  68
ATOM     68  O   UNL     1       3.393   0.812   2.000  1.00  0.00    -0.458 OA
BRANCH  68  69
ATOM     69  C   UNL     1       2.054   0.783   2.231  1.00  0.00     0.338 C 
ATOM     70  O   UNL     1       1.220   1.562   1.805  1.00  0.00    -0.246 OA
BRANCH  69  71
ATOM     71  C   UNL     1       1.713  -0.436   2.993  1.00  0.00     0.063 A 
ATOM     72  C   UNL     1       2.432  -0.798   4.133  1.00  0.00     0.017 A 
ATOM     73  C   UNL     1       0.656  -1.238   2.543  1.00  0.00     0.056 A 
ATOM     74  C   UNL     1       2.110  -1.985   4.796  1.00  0.00     0.026 A 
ATOM     75  C   UNL     1       0.357  -2.434   3.201  1.00  0.00     0.144 A 
ATOM     76  C   UNL     1       1.087  -2.817   4.314  1.00  0.00     0.118 A 
ATOM     77  F   UNL     1      -0.626  -3.192   2.701  1.00  0.00    -0.205 F 
BRANCH  76  78
ATOM     78  S   UNL     1       0.881  -4.360   5.139  1.00  0.00     0.243 S 
ATOM     79  O   UNL     1       2.187  -4.978   5.151  1.00  0.00    -0.207 OA
ATOM     80  O   UNL     1       0.159  -4.071   6.359  1.00  0.00    -0.207 OA
BRANCH  78  81
ATOM     81  N   UNL     1      -0.124  -5.342   4.249  1.00  0.00    -0.205 NA
ATOM     82  H   UNL     1      -0.932  -4.771   4.001  1.00  0.00     0.141 HD
BRANCH  81  83
ATOM     83  C   UNL     1       0.303  -5.987   3.023  1.00  0.00     0.154 C 
BRANCH  83  84
ATOM     84  C   UNL     1       1.038  -7.243   3.290  1.00  0.00     0.050 A 
ATOM     85  C   UNL     1       0.683  -8.573   3.193  1.00  0.00     0.046 A 
ATOM     86  N   UNL     1       2.360  -7.250   3.667  1.00  0.00    -0.281 N 
ATOM     87  C   UNL     1       1.872  -9.285   3.437  1.00  0.00     0.135 A 
ATOM     88  N   UNL     1       2.897  -8.478   3.698  1.00  0.00    -0.184 NA
ATOM     89  H   UNL     1       2.863  -6.434   3.891  1.00  0.00     0.190 HD
ENDBRANCH  83  84
ENDBRANCH  81  83
ENDBRANCH  78  81
ENDBRANCH  76  78
ENDBRANCH  69  71
ENDBRANCH  68  69
ENDBRANCH   1  68
TORSDOF 18
