REMARK SMILES N#Cc1cccnc1N1CC[NH+]([C@@H](C(=O)OCCOC(=O)c2ccc(-c3c4nc(c(-c5ccc(S(=O)(=O)[O-])cc5)c5ccc([nH]5)c(-c5ccc(S(=O)(=O)[O-])cc5)c5nc(c(-c6ccc(S(=O)(=O)[O-])cc6)c6ccc3[nH]6)C=C5)C=C4)cc2)c2c[nH]c3cc(CO)ccc23)CC1
REMARK SMILES IDX 17 1 16 2 14 3 15 4 13 5 12 6 9 7 10 8 94 9 11 10 93 11 8 13
REMARK SMILES IDX 3 14 4 15 5 16 7 17 6 18 2 19 1 20 82 21 83 22 92 23 84 24
REMARK SMILES IDX 85 25 91 26 86 28 90 29 87 30 88 31 89 32 18 34 19 35 20 36
REMARK SMILES IDX 21 37 22 38 23 39 81 40 24 41 80 42 25 43 26 44 27 45 74 46
REMARK SMILES IDX 28 47 79 48 73 49 75 50 29 51 78 52 72 53 71 54 30 56 60 57
REMARK SMILES IDX 41 58 59 59 42 60 45 61 58 62 76 63 43 64 44 65 57 67 77 68
REMARK SMILES IDX 46 69 31 70 32 71 40 72 33 73 39 74 34 75 35 76 36 77 37 78
REMARK SMILES IDX 38 79 61 80 62 81 70 82 63 83 69 84 64 85 65 86 66 87 67 88
REMARK SMILES IDX 68 89 47 90 48 91 56 92 49 93 55 94 50 95 51 96 52 97 53 98
REMARK SMILES IDX 54 99
REMARK H PARENT 12 12 84 27 89 33 75 55 45 66
REMARK Flexibility Score: inf
ROOT
ATOM      1  C   UNL     1      -0.986  -4.191   2.623  1.00  0.00     0.274 C 
ENDROOT
BRANCH   1   2
ATOM      2  O   UNL     1      -0.302  -4.259   1.348  1.00  0.00    -0.457 OA
BRANCH   2   3
ATOM      3  C   UNL     1       0.084  -5.466   0.868  1.00  0.00     0.370 C 
ATOM      4  O   UNL     1      -0.068  -6.506   1.508  1.00  0.00    -0.245 OA
BRANCH   3   5
ATOM      5  C   UNL     1       0.859  -5.406  -0.467  1.00  0.00     0.328 C 
BRANCH   5   6
ATOM      6  N   UNL     1       1.974  -4.382  -0.584  1.00  0.00    -0.316 N 
ATOM      7  N   UNL     1       0.958  -1.680  -0.036  1.00  0.00    -0.344 N 
ATOM      8  C   UNL     1       0.620  -2.419  -1.242  1.00  0.00     0.179 C 
ATOM      9  C   UNL     1       1.728  -2.315   1.041  1.00  0.00     0.179 C 
ATOM     10  C   UNL     1       1.807  -3.311  -1.565  1.00  0.00     0.285 C 
ATOM     11  C   UNL     1       2.374  -3.711   0.676  1.00  0.00     0.285 C 
ATOM     12  H   UNL     1       2.700  -5.022  -0.905  1.00  0.00     0.349 HD
BRANCH   7  13
ATOM     13  C   UNL     1       0.174  -0.562   0.162  1.00  0.00     0.146 A 
ATOM     14  C   UNL     1       0.743   0.711   0.208  1.00  0.00     0.095 A 
ATOM     15  C   UNL     1      -0.094   1.831   0.171  1.00  0.00     0.025 A 
ATOM     16  C   UNL     1      -1.471   1.660   0.080  1.00  0.00     0.022 A 
ATOM     17  N   UNL     1      -1.171  -0.723   0.099  1.00  0.00    -0.238 NA
ATOM     18  C   UNL     1      -1.960   0.370   0.048  1.00  0.00     0.113 A 
BRANCH  14  19
ATOM     19  C   UNL     1       2.160   0.882   0.177  1.00  0.00     0.103 C 
ATOM     20  N   UNL     1       3.316   1.038   0.163  1.00  0.00    -0.192 NA
ENDBRANCH  14  19
ENDBRANCH   7  13
ENDBRANCH   5   6
BRANCH   5  21
ATOM     21  C   UNL     1       0.158  -5.857  -1.812  1.00  0.00     0.046 A 
ATOM     22  C   UNL     1       0.864  -6.625  -2.749  1.00  0.00     0.094 A 
ATOM     23  C   UNL     1      -0.710  -5.158  -2.741  1.00  0.00     0.009 A 
ATOM     24  N   UNL     1       1.213  -5.629  -3.670  1.00  0.00    -0.361 N 
ATOM     25  C   UNL     1       0.118  -4.799  -3.805  1.00  0.00     0.046 A 
ATOM     26  C   UNL     1      -2.058  -4.812  -2.908  1.00  0.00     0.011 A 
ATOM     27  H   UNL     1       2.077  -5.538  -4.133  1.00  0.00     0.166 HD
ATOM     28  C   UNL     1      -0.202  -3.751  -4.687  1.00  0.00     0.032 A 
ATOM     29  C   UNL     1      -2.474  -3.933  -3.906  1.00  0.00     0.007 A 
ATOM     30  C   UNL     1      -1.527  -3.280  -4.683  1.00  0.00    -0.021 A 
BRANCH  30  31
ATOM     31  C   UNL     1      -1.956  -2.056  -5.447  1.00  0.00     0.191 C 
BRANCH  31  32
ATOM     32  O   UNL     1      -2.254  -0.995  -4.534  1.00  0.00    -0.392 OA
ATOM     33  H   UNL     1      -2.972  -1.270  -3.942  1.00  0.00     0.211 HD
ENDBRANCH  31  32
ENDBRANCH  30  31
ENDBRANCH   5  21
ENDBRANCH   3   5
ENDBRANCH   2   3
ENDBRANCH   1   2
BRANCH   1  34
ATOM     34  C   UNL     1      -2.408  -3.703   2.377  1.00  0.00     0.275 C 
BRANCH  34  35
ATOM     35  O   UNL     1      -3.169  -4.805   1.839  1.00  0.00    -0.458 OA
BRANCH  35  36
ATOM     36  C   UNL     1      -3.097  -4.855   0.496  1.00  0.00     0.338 C 
ATOM     37  O   UNL     1      -2.633  -3.989  -0.229  1.00  0.00    -0.246 OA
BRANCH  36  38
ATOM     38  C   UNL     1      -3.570  -6.122  -0.083  1.00  0.00     0.060 A 
ATOM     39  C   UNL     1      -2.646  -7.161  -0.240  1.00  0.00     0.016 A 
ATOM     40  C   UNL     1      -4.685  -6.042  -0.920  1.00  0.00     0.016 A 
ATOM     41  C   UNL     1      -2.736  -8.017  -1.334  1.00  0.00     0.010 A 
ATOM     42  C   UNL     1      -4.822  -6.957  -1.968  1.00  0.00     0.010 A 
ATOM     43  C   UNL     1      -3.824  -7.919  -2.211  1.00  0.00    -0.014 A 
BRANCH  43  44
ATOM     44  C   UNL     1      -4.060  -8.960  -3.230  1.00  0.00     0.031 A 
ATOM     45  C   UNL     1      -4.012  -8.689  -4.705  1.00  0.00     0.074 A 
ATOM     46  C   UNL     1      -4.479 -10.141  -2.745  1.00  0.00     0.049 A 
ATOM     47  N   UNL     1      -4.640  -9.309  -5.670  1.00  0.00    -0.248 NA
ATOM     48  C   UNL     1      -3.148  -7.593  -5.166  1.00  0.00     0.031 C 
ATOM     49  C   UNL     1      -4.475 -10.518  -1.325  1.00  0.00     0.029 A 
ATOM     50  N   UNL     1      -5.051 -11.210  -3.375  1.00  0.00    -0.354 N 
ATOM     51  C   UNL     1      -4.307  -8.638  -6.845  1.00  0.00     0.074 A 
ATOM     52  C   UNL     1      -3.396  -7.576  -6.474  1.00  0.00     0.031 C 
ATOM     53  C   UNL     1      -5.070 -11.705  -1.185  1.00  0.00     0.029 A 
ATOM     54  C   UNL     1      -5.584 -12.108  -2.482  1.00  0.00     0.049 A 
ATOM     55  H   UNL     1      -5.079 -11.323  -4.353  1.00  0.00     0.167 HD
ATOM     56  C   UNL     1      -4.740  -8.908  -8.103  1.00  0.00     0.031 A 
ATOM     57  C   UNL     1      -6.483 -13.086  -2.664  1.00  0.00     0.031 A 
ATOM     58  C   UNL     1      -5.569 -10.050  -8.417  1.00  0.00     0.049 A 
ATOM     59  C   UNL     1      -6.997 -13.326  -4.046  1.00  0.00     0.074 A 
ATOM     60  C   UNL     1      -6.010 -10.480  -9.657  1.00  0.00     0.029 A 
ATOM     61  N   UNL     1      -6.057 -10.957  -7.486  1.00  0.00    -0.354 N 
ATOM     62  N   UNL     1      -6.736 -12.657  -5.143  1.00  0.00    -0.248 NA
ATOM     63  C   UNL     1      -7.908 -14.459  -4.220  1.00  0.00     0.031 C 
ATOM     64  C   UNL     1      -6.813 -11.607  -9.469  1.00  0.00     0.029 A 
ATOM     65  C   UNL     1      -6.807 -11.931  -8.122  1.00  0.00     0.049 A 
ATOM     66  H   UNL     1      -5.895 -10.913  -6.516  1.00  0.00     0.167 HD
ATOM     67  C   UNL     1      -7.407 -13.327  -6.154  1.00  0.00     0.074 A 
ATOM     68  C   UNL     1      -8.087 -14.447  -5.533  1.00  0.00     0.031 C 
ATOM     69  C   UNL     1      -7.448 -13.049  -7.478  1.00  0.00     0.031 A 
BRANCH  56  70
ATOM     70  C   UNL     1      -4.382  -7.984  -9.249  1.00  0.00    -0.014 A 
ATOM     71  C   UNL     1      -3.085  -7.913  -9.783  1.00  0.00     0.010 A 
ATOM     72  C   UNL     1      -5.421  -7.300  -9.917  1.00  0.00     0.010 A 
ATOM     73  C   UNL     1      -2.834  -7.177 -10.951  1.00  0.00     0.020 A 
ATOM     74  C   UNL     1      -5.182  -6.588 -11.098  1.00  0.00     0.020 A 
ATOM     75  C   UNL     1      -3.886  -6.527 -11.606  1.00  0.00     0.054 A 
BRANCH  75  76
ATOM     76  S   UNL     1      -3.544  -5.647 -13.159  1.00  0.00     0.124 S 
ATOM     77  O   UNL     1      -2.739  -4.518 -12.697  1.00  0.00    -0.237 OA
ATOM     78  O   UNL     1      -2.826  -6.649 -13.943  1.00  0.00    -0.237 OA
ATOM     79  O   UNL     1      -4.870  -5.298 -13.664  1.00  0.00    -0.744 OA
ENDBRANCH  75  76
ENDBRANCH  56  70
BRANCH  57  80
ATOM     80  C   UNL     1      -6.969 -13.851  -1.492  1.00  0.00    -0.014 A 
ATOM     81  C   UNL     1      -6.616 -15.199  -1.336  1.00  0.00     0.010 A 
ATOM     82  C   UNL     1      -7.743 -13.218  -0.499  1.00  0.00     0.010 A 
ATOM     83  C   UNL     1      -7.067 -15.917  -0.229  1.00  0.00     0.020 A 
ATOM     84  C   UNL     1      -8.160 -13.922   0.631  1.00  0.00     0.020 A 
ATOM     85  C   UNL     1      -7.839 -15.275   0.744  1.00  0.00     0.054 A 
BRANCH  85  86
ATOM     86  S   UNL     1      -8.415 -16.237   2.166  1.00  0.00     0.124 S 
ATOM     87  O   UNL     1      -9.418 -17.103   1.553  1.00  0.00    -0.237 OA
ATOM     88  O   UNL     1      -7.193 -16.900   2.612  1.00  0.00    -0.237 OA
ATOM     89  O   UNL     1      -8.936 -15.223   3.079  1.00  0.00    -0.744 OA
ENDBRANCH  85  86
ENDBRANCH  57  80
BRANCH  69  90
ATOM     90  C   UNL     1      -8.178 -14.025  -8.355  1.00  0.00    -0.014 A 
ATOM     91  C   UNL     1      -9.579 -14.115  -8.347  1.00  0.00     0.010 A 
ATOM     92  C   UNL     1      -7.437 -14.822  -9.248  1.00  0.00     0.010 A 
ATOM     93  C   UNL     1     -10.228 -15.001  -9.208  1.00  0.00     0.020 A 
ATOM     94  C   UNL     1      -8.084 -15.681 -10.135  1.00  0.00     0.020 A 
ATOM     95  C   UNL     1      -9.477 -15.769 -10.104  1.00  0.00     0.054 A 
BRANCH  95  96
ATOM     96  S   UNL     1     -10.352 -16.845 -11.268  1.00  0.00     0.124 S 
ATOM     97  O   UNL     1     -10.877 -17.885 -10.388  1.00  0.00    -0.237 OA
ATOM     98  O   UNL     1     -11.349 -15.945 -11.843  1.00  0.00    -0.237 OA
ATOM     99  O   UNL     1      -9.308 -17.281 -12.193  1.00  0.00    -0.744 OA
ENDBRANCH  95  96
ENDBRANCH  69  90
ENDBRANCH  43  44
ENDBRANCH  36  38
ENDBRANCH  35  36
ENDBRANCH  34  35
ENDBRANCH   1  34
TORSDOF 20
