REMARK SMILES [NH3+]C[C@H]1CC[C@@H](C(=O)N[C@H](C(=O)OCCOC(=O)c2ccc(-c3c4nc(c(-c5ccc(S(=O)(=O)[O-])cc5)c5ccc([nH]5)c(-c5ccc(S(=O)(=O)[O-])cc5)c5nc(c(-c6ccc(S(=O)(=O)[O-])cc6)c6ccc3[nH]6)C=C5)C=C4)cc2)C2CCCCC2)O1
REMARK SMILES IDX 14 1 13 2 11 3 12 4 10 5 9 6 7 7 8 8 6 10 3 11 4 12 85 13
REMARK SMILES IDX 5 14 2 15 1 16 79 20 80 21 84 22 81 23 83 24 82 25 15 26
REMARK SMILES IDX 16 27 17 28 18 29 19 30 20 31 78 32 21 33 77 34 22 35 23 36
REMARK SMILES IDX 24 37 71 38 25 39 76 40 70 41 72 42 26 43 75 44 69 45 68 46
REMARK SMILES IDX 27 48 57 49 38 50 56 51 39 52 42 53 55 54 73 55 40 56 41 57
REMARK SMILES IDX 54 59 74 60 43 61 28 62 29 63 37 64 30 65 36 66 31 67 32 68
REMARK SMILES IDX 33 69 34 70 35 71 58 72 59 73 67 74 60 75 66 76 61 77 62 78
REMARK SMILES IDX 63 79 64 80 65 81 44 82 45 83 53 84 46 85 52 86 47 87 48 88
REMARK SMILES IDX 49 89 50 90 51 91
REMARK H PARENT 9 9 1 17 1 18 1 19 72 47 42 58
REMARK Flexibility Score: inf
ROOT
ATOM      1  C   UNL     1       8.501  -0.211   0.932  1.00  0.00     0.274 C 
ENDROOT
BRANCH   1   2
ATOM      2  O   UNL     1       7.939   1.046   0.516  1.00  0.00    -0.461 OA
BRANCH   2   3
ATOM      3  C   UNL     1       8.478   1.638  -0.580  1.00  0.00     0.329 C 
ATOM      4  O   UNL     1       9.510   1.256  -1.121  1.00  0.00    -0.250 OA
BRANCH   3   5
ATOM      5  C   UNL     1       7.590   2.782  -1.134  1.00  0.00     0.195 C 
BRANCH   5   6
ATOM      6  N   UNL     1       7.257   2.549  -2.570  1.00  0.00    -0.340 N 
ATOM      7  C   UNL     1       6.518   1.669  -3.310  1.00  0.00     0.249 C 
ATOM      8  O   UNL     1       6.461   1.934  -4.518  1.00  0.00    -0.272 OA
ATOM      9  H   UNL     1       7.692   3.217  -3.147  1.00  0.00     0.164 HD
BRANCH   7  10
ATOM     10  C   UNL     1       5.755   0.447  -2.732  1.00  0.00     0.207 C 
ATOM     11  C   UNL     1       5.074  -1.763  -3.019  1.00  0.00     0.174 C 
ATOM     12  C   UNL     1       6.047  -1.807  -1.869  1.00  0.00     0.041 C 
ATOM     13  O   UNL     1       5.294  -0.511  -3.700  1.00  0.00    -0.359 OA
ATOM     14  C   UNL     1       6.576  -0.399  -1.799  1.00  0.00     0.045 C 
BRANCH  11  15
ATOM     15  C   UNL     1       5.110  -2.967  -3.971  1.00  0.00     0.291 C 
BRANCH  15  16
ATOM     16  N   UNL     1       6.424  -3.215  -4.569  1.00  0.00    -0.355 N 
ATOM     17  H   UNL     1       6.370  -4.026  -5.186  1.00  0.00     0.344 HD
ATOM     18  H   UNL     1       7.104  -3.395  -3.830  1.00  0.00     0.344 HD
ATOM     19  H   UNL     1       6.713  -2.398  -5.106  1.00  0.00     0.344 HD
ENDBRANCH  15  16
ENDBRANCH  11  15
ENDBRANCH   7  10
ENDBRANCH   5   6
BRANCH   5  20
ATOM     20  C   UNL     1       6.391   3.305  -0.294  1.00  0.00     0.023 C 
ATOM     21  C   UNL     1       6.703   3.531   1.206  1.00  0.00     0.006 C 
ATOM     22  C   UNL     1       5.859   4.651  -0.851  1.00  0.00     0.006 C 
ATOM     23  C   UNL     1       5.484   4.010   1.993  1.00  0.00     0.000 C 
ATOM     24  C   UNL     1       4.646   5.172  -0.074  1.00  0.00     0.000 C 
ATOM     25  C   UNL     1       4.913   5.295   1.422  1.00  0.00     0.000 C 
ENDBRANCH   5  20
ENDBRANCH   3   5
ENDBRANCH   2   3
ENDBRANCH   1   2
BRANCH   1  26
ATOM     26  C   UNL     1       7.576  -0.854   1.978  1.00  0.00     0.275 C 
BRANCH  26  27
ATOM     27  O   UNL     1       6.248  -1.083   1.447  1.00  0.00    -0.458 OA
BRANCH  27  28
ATOM     28  C   UNL     1       5.279  -0.215   1.857  1.00  0.00     0.338 C 
ATOM     29  O   UNL     1       5.400   0.668   2.675  1.00  0.00    -0.246 OA
BRANCH  28  30
ATOM     30  C   UNL     1       4.069  -0.380   1.009  1.00  0.00     0.060 A 
ATOM     31  C   UNL     1       3.585   0.747   0.335  1.00  0.00     0.016 A 
ATOM     32  C   UNL     1       3.406  -1.597   0.868  1.00  0.00     0.016 A 
ATOM     33  C   UNL     1       2.504   0.659  -0.544  1.00  0.00     0.010 A 
ATOM     34  C   UNL     1       2.279  -1.676   0.032  1.00  0.00     0.010 A 
ATOM     35  C   UNL     1       1.827  -0.551  -0.688  1.00  0.00    -0.014 A 
BRANCH  35  36
ATOM     36  C   UNL     1       0.545  -0.617  -1.434  1.00  0.00     0.031 A 
ATOM     37  C   UNL     1      -0.718  -0.229  -0.728  1.00  0.00     0.074 A 
ATOM     38  C   UNL     1       0.483  -1.028  -2.714  1.00  0.00     0.049 A 
ATOM     39  N   UNL     1      -1.954  -0.362  -1.127  1.00  0.00    -0.248 NA
ATOM     40  C   UNL     1      -0.566   0.447   0.571  1.00  0.00     0.031 C 
ATOM     41  C   UNL     1       1.620  -1.196  -3.606  1.00  0.00     0.029 A 
ATOM     42  N   UNL     1      -0.588  -1.418  -3.480  1.00  0.00    -0.354 N 
ATOM     43  C   UNL     1      -2.726   0.256  -0.155  1.00  0.00     0.074 A 
ATOM     44  C   UNL     1      -1.824   0.734   0.870  1.00  0.00     0.031 C 
ATOM     45  C   UNL     1       1.223  -1.813  -4.731  1.00  0.00     0.029 A 
ATOM     46  C   UNL     1      -0.214  -2.040  -4.651  1.00  0.00     0.049 A 
ATOM     47  H   UNL     1      -1.525  -1.269  -3.219  1.00  0.00     0.167 HD
ATOM     48  C   UNL     1      -4.068   0.417  -0.127  1.00  0.00     0.031 A 
ATOM     49  C   UNL     1      -0.945  -2.735  -5.543  1.00  0.00     0.031 A 
ATOM     50  C   UNL     1      -4.962  -0.136  -1.104  1.00  0.00     0.049 A 
ATOM     51  C   UNL     1      -2.435  -2.795  -5.353  1.00  0.00     0.074 A 
ATOM     52  C   UNL     1      -6.344  -0.102  -1.127  1.00  0.00     0.029 A 
ATOM     53  N   UNL     1      -4.556  -0.853  -2.220  1.00  0.00    -0.354 N 
ATOM     54  N   UNL     1      -3.161  -2.227  -4.419  1.00  0.00    -0.248 NA
ATOM     55  C   UNL     1      -3.209  -3.555  -6.343  1.00  0.00     0.031 C 
ATOM     56  C   UNL     1      -6.775  -0.848  -2.231  1.00  0.00     0.029 A 
ATOM     57  C   UNL     1      -5.661  -1.301  -2.921  1.00  0.00     0.049 A 
ATOM     58  H   UNL     1      -3.620  -1.018  -2.476  1.00  0.00     0.167 HD
ATOM     59  C   UNL     1      -4.482  -2.505  -4.747  1.00  0.00     0.074 A 
ATOM     60  C   UNL     1      -4.454  -3.317  -5.947  1.00  0.00     0.031 C 
ATOM     61  C   UNL     1      -5.613  -2.098  -4.122  1.00  0.00     0.031 A 
BRANCH  48  62
ATOM     62  C   UNL     1      -4.624   1.172   1.043  1.00  0.00    -0.014 A 
ATOM     63  C   UNL     1      -4.510   2.573   1.116  1.00  0.00     0.010 A 
ATOM     64  C   UNL     1      -5.217   0.471   2.107  1.00  0.00     0.010 A 
ATOM     65  C   UNL     1      -4.934   3.254   2.259  1.00  0.00     0.020 A 
ATOM     66  C   UNL     1      -5.657   1.151   3.244  1.00  0.00     0.020 A 
ATOM     67  C   UNL     1      -5.490   2.536   3.322  1.00  0.00     0.054 A 
BRANCH  67  68
ATOM     68  S   UNL     1      -5.992   3.436   4.815  1.00  0.00     0.124 S 
ATOM     69  O   UNL     1      -4.703   3.712   5.445  1.00  0.00    -0.237 OA
ATOM     70  O   UNL     1      -6.688   4.599   4.272  1.00  0.00    -0.237 OA
ATOM     71  O   UNL     1      -6.840   2.481   5.524  1.00  0.00    -0.744 OA
ENDBRANCH  67  68
ENDBRANCH  48  62
BRANCH  49  72
ATOM     72  C   UNL     1      -0.284  -3.453  -6.667  1.00  0.00    -0.014 A 
ATOM     73  C   UNL     1      -0.422  -3.010  -7.993  1.00  0.00     0.010 A 
ATOM     74  C   UNL     1       0.473  -4.612  -6.411  1.00  0.00     0.010 A 
ATOM     75  C   UNL     1       0.155  -3.730  -9.045  1.00  0.00     0.020 A 
ATOM     76  C   UNL     1       1.068  -5.325  -7.458  1.00  0.00     0.020 A 
ATOM     77  C   UNL     1       0.890  -4.888  -8.771  1.00  0.00     0.054 A 
BRANCH  77  78
ATOM     78  S   UNL     1       1.621  -5.810 -10.155  1.00  0.00     0.124 S 
ATOM     79  O   UNL     1       0.443  -6.402 -10.780  1.00  0.00    -0.237 OA
ATOM     80  O   UNL     1       2.282  -4.758 -10.922  1.00  0.00    -0.237 OA
ATOM     81  O   UNL     1       2.522  -6.756  -9.500  1.00  0.00    -0.744 OA
ENDBRANCH  77  78
ENDBRANCH  49  72
BRANCH  61  82
ATOM     82  C   UNL     1      -6.925  -2.470  -4.751  1.00  0.00    -0.014 A 
ATOM     83  C   UNL     1      -7.450  -3.766  -4.627  1.00  0.00     0.010 A 
ATOM     84  C   UNL     1      -7.683  -1.473  -5.393  1.00  0.00     0.010 A 
ATOM     85  C   UNL     1      -8.717  -4.060  -5.137  1.00  0.00     0.020 A 
ATOM     86  C   UNL     1      -8.957  -1.758  -5.884  1.00  0.00     0.020 A 
ATOM     87  C   UNL     1      -9.465  -3.053  -5.756  1.00  0.00     0.054 A 
BRANCH  87  88
ATOM     88  S   UNL     1     -11.147  -3.432  -6.321  1.00  0.00     0.124 S 
ATOM     89  O   UNL     1     -10.894  -4.166  -7.557  1.00  0.00    -0.237 OA
ATOM     90  O   UNL     1     -11.686  -4.224  -5.218  1.00  0.00    -0.237 OA
ATOM     91  O   UNL     1     -11.759  -2.116  -6.490  1.00  0.00    -0.744 OA
ENDBRANCH  87  88
ENDBRANCH  61  82
ENDBRANCH  35  36
ENDBRANCH  28  30
ENDBRANCH  27  28
ENDBRANCH  26  27
ENDBRANCH   1  26
TORSDOF 19
