REMARK SMILES C[C@H]1CC[C@H]([NH2+]Cc2c(C(=O)OCCOC(=O)c3ccc(-c4c5nc(c(-c6ccc(S(=O)(=O)[O-])cc6)c6ccc([nH]6)c(-c6ccc(S(=O)(=O)[O-])cc6)c6nc(c(-c7ccc(S(=O)(=O)[O-])cc7)c7ccc4[nH]7)C=C6)C=C5)cc3)n(Cc3ccccc3F)c3ccccc23)CC1
REMARK SMILES IDX 13 1 12 2 10 3 11 4 9 5 8 6 92 7 78 8 87 9 91 10 88 11 90 12
REMARK SMILES IDX 89 13 7 14 6 15 5 18 1 19 2 20 3 21 94 22 4 23 93 24 79 25
REMARK SMILES IDX 80 26 81 27 85 28 82 29 84 30 86 31 83 32 14 33 15 34 16 35
REMARK SMILES IDX 17 36 18 37 19 38 77 39 20 40 76 41 21 42 22 43 23 44 70 45
REMARK SMILES IDX 24 46 75 47 69 48 71 49 25 50 74 51 68 52 67 53 26 55 56 56
REMARK SMILES IDX 37 57 55 58 38 59 41 60 54 61 72 62 39 63 40 64 53 66 73 67
REMARK SMILES IDX 42 68 27 69 28 70 36 71 29 72 35 73 30 74 31 75 32 76 33 77
REMARK SMILES IDX 34 78 57 79 58 80 66 81 59 82 65 83 60 84 61 85 62 86 63 87
REMARK SMILES IDX 64 88 43 89 44 90 52 91 45 92 51 93 46 94 47 95 48 96 49 97
REMARK SMILES IDX 50 98
REMARK H PARENT 6 16 6 17 71 54 41 65
REMARK Flexibility Score: inf
ROOT
ATOM      1  C   UNL     1      -2.031   0.757   2.894  1.00  0.00     0.275 C 
ENDROOT
BRANCH   1   2
ATOM      2  O   UNL     1      -2.991  -0.221   2.388  1.00  0.00    -0.457 OA
BRANCH   2   3
ATOM      3  C   UNL     1      -2.539  -1.489   2.208  1.00  0.00     0.355 C 
ATOM      4  O   UNL     1      -1.511  -1.890   2.730  1.00  0.00    -0.244 OA
BRANCH   3   5
ATOM      5  C   UNL     1      -3.336  -2.298   1.299  1.00  0.00     0.137 A 
ATOM      6  C   UNL     1      -4.012  -1.936   0.117  1.00  0.00     0.047 A 
ATOM      7  C   UNL     1      -4.568  -3.157  -0.428  1.00  0.00     0.009 A 
ATOM      8  N   UNL     1      -3.374  -3.711   1.381  1.00  0.00    -0.330 N 
ATOM      9  C   UNL     1      -4.056  -4.230   0.291  1.00  0.00     0.050 A 
ATOM     10  C   UNL     1      -5.373  -3.436  -1.560  1.00  0.00     0.011 A 
ATOM     11  C   UNL     1      -4.210  -5.553  -0.166  1.00  0.00     0.027 A 
ATOM     12  C   UNL     1      -5.599  -4.756  -1.965  1.00  0.00     0.001 A 
ATOM     13  C   UNL     1      -4.998  -5.803  -1.288  1.00  0.00     0.002 A 
BRANCH   6  14
ATOM     14  C   UNL     1      -4.168  -0.632  -0.661  1.00  0.00     0.300 C 
BRANCH  14  15
ATOM     15  N   UNL     1      -3.321   0.501  -0.299  1.00  0.00    -0.340 N 
ATOM     16  H   UNL     1      -3.870   1.349  -0.437  1.00  0.00     0.346 HD
ATOM     17  H   UNL     1      -3.037   0.313   0.663  1.00  0.00     0.346 HD
BRANCH  15  18
ATOM     18  C   UNL     1      -2.051   0.674  -1.034  1.00  0.00     0.182 C 
ATOM     19  C   UNL     1       2.373   1.134  -0.664  1.00  0.00     0.007 C 
ATOM     20  C   UNL     1       0.868   0.975  -0.470  1.00  0.00    -0.014 C 
ATOM     21  C   UNL     1       0.343  -0.249  -1.215  1.00  0.00     0.009 C 
ATOM     22  C   UNL     1       0.072   2.186  -0.958  1.00  0.00     0.009 C 
ATOM     23  C   UNL     1      -1.104  -0.502  -0.821  1.00  0.00     0.065 C 
ATOM     24  C   UNL     1      -1.426   2.038  -0.650  1.00  0.00     0.065 C 
ENDBRANCH  15  18
ENDBRANCH  14  15
ENDBRANCH   6  14
BRANCH   8  25
ATOM     25  C   UNL     1      -2.508  -4.561   2.218  1.00  0.00     0.161 C 
BRANCH  25  26
ATOM     26  C   UNL     1      -3.089  -5.386   3.348  1.00  0.00     0.008 A 
ATOM     27  C   UNL     1      -3.558  -6.696   3.149  1.00  0.00     0.008 A 
ATOM     28  C   UNL     1      -2.920  -4.969   4.675  1.00  0.00     0.128 A 
ATOM     29  C   UNL     1      -3.800  -7.559   4.225  1.00  0.00     0.001 A 
ATOM     30  C   UNL     1      -3.145  -5.829   5.754  1.00  0.00     0.039 A 
ATOM     31  F   UNL     1      -2.446  -3.744   4.937  1.00  0.00    -0.207 F 
ATOM     32  C   UNL     1      -3.575  -7.133   5.529  1.00  0.00     0.003 A 
ENDBRANCH  25  26
ENDBRANCH   8  25
ENDBRANCH   3   5
ENDBRANCH   2   3
ENDBRANCH   1   2
BRANCH   1  33
ATOM     33  C   UNL     1      -1.202   0.436   4.152  1.00  0.00     0.275 C 
BRANCH  33  34
ATOM     34  O   UNL     1       0.094  -0.044   3.726  1.00  0.00    -0.458 OA
BRANCH  34  35
ATOM     35  C   UNL     1       0.632  -1.032   4.491  1.00  0.00     0.338 C 
ATOM     36  O   UNL     1       0.476  -1.168   5.693  1.00  0.00    -0.246 OA
BRANCH  35  37
ATOM     37  C   UNL     1       1.144  -2.083   3.569  1.00  0.00     0.060 A 
ATOM     38  C   UNL     1       1.663  -1.778   2.307  1.00  0.00     0.016 A 
ATOM     39  C   UNL     1       0.802  -3.402   3.875  1.00  0.00     0.016 A 
ATOM     40  C   UNL     1       1.667  -2.755   1.304  1.00  0.00     0.010 A 
ATOM     41  C   UNL     1       0.808  -4.367   2.867  1.00  0.00     0.010 A 
ATOM     42  C   UNL     1       1.133  -4.027   1.544  1.00  0.00    -0.014 A 
BRANCH  42  43
ATOM     43  C   UNL     1       1.012  -5.015   0.456  1.00  0.00     0.031 A 
ATOM     44  C   UNL     1       1.395  -6.407   0.742  1.00  0.00     0.074 A 
ATOM     45  C   UNL     1       0.474  -4.888  -0.775  1.00  0.00     0.049 A 
ATOM     46  N   UNL     1       2.574  -6.906   0.615  1.00  0.00    -0.248 NA
ATOM     47  C   UNL     1       0.379  -7.341   1.241  1.00  0.00     0.031 C 
ATOM     48  C   UNL     1      -0.454  -3.884  -1.257  1.00  0.00     0.029 A 
ATOM     49  N   UNL     1       0.626  -5.717  -1.857  1.00  0.00    -0.354 N 
ATOM     50  C   UNL     1       2.438  -8.257   0.873  1.00  0.00     0.074 A 
ATOM     51  C   UNL     1       1.111  -8.443   1.414  1.00  0.00     0.031 C 
ATOM     52  C   UNL     1      -0.869  -4.197  -2.509  1.00  0.00     0.029 A 
ATOM     53  C   UNL     1      -0.127  -5.361  -2.967  1.00  0.00     0.049 A 
ATOM     54  H   UNL     1       1.221  -6.502  -1.847  1.00  0.00     0.167 HD
ATOM     55  C   UNL     1       3.363  -9.158   0.453  1.00  0.00     0.031 A 
ATOM     56  C   UNL     1      -0.123  -5.967  -4.179  1.00  0.00     0.031 A 
ATOM     57  C   UNL     1       4.468  -8.530  -0.227  1.00  0.00     0.049 A 
ATOM     58  C   UNL     1       1.180  -6.659  -4.342  1.00  0.00     0.074 A 
ATOM     59  C   UNL     1       5.482  -7.671   0.137  1.00  0.00     0.029 A 
ATOM     60  N   UNL     1       4.364  -8.463  -1.598  1.00  0.00    -0.354 N 
ATOM     61  N   UNL     1       2.324  -6.035  -4.393  1.00  0.00    -0.248 NA
ATOM     62  C   UNL     1       1.276  -8.107  -4.208  1.00  0.00     0.031 C 
ATOM     63  C   UNL     1       5.734  -6.858  -1.009  1.00  0.00     0.029 A 
ATOM     64  C   UNL     1       4.865  -7.254  -2.028  1.00  0.00     0.049 A 
ATOM     65  H   UNL     1       3.991  -9.166  -2.178  1.00  0.00     0.167 HD
ATOM     66  C   UNL     1       3.242  -6.933  -3.882  1.00  0.00     0.074 A 
ATOM     67  C   UNL     1       2.586  -8.228  -3.969  1.00  0.00     0.031 C 
ATOM     68  C   UNL     1       4.316  -6.508  -3.155  1.00  0.00     0.031 A 
BRANCH  55  69
ATOM     69  C   UNL     1       3.147 -10.636   0.417  1.00  0.00    -0.014 A 
ATOM     70  C   UNL     1       1.882 -11.225   0.226  1.00  0.00     0.010 A 
ATOM     71  C   UNL     1       4.268 -11.485   0.436  1.00  0.00     0.010 A 
ATOM     72  C   UNL     1       1.727 -12.610   0.150  1.00  0.00     0.020 A 
ATOM     73  C   UNL     1       4.127 -12.872   0.315  1.00  0.00     0.020 A 
ATOM     74  C   UNL     1       2.853 -13.427   0.198  1.00  0.00     0.054 A 
BRANCH  74  75
ATOM     75  S   UNL     1       2.635 -15.215   0.025  1.00  0.00     0.124 S 
ATOM     76  O   UNL     1       2.196 -15.593   1.365  1.00  0.00    -0.237 OA
ATOM     77  O   UNL     1       1.622 -15.314  -1.022  1.00  0.00    -0.237 OA
ATOM     78  O   UNL     1       3.965 -15.685  -0.355  1.00  0.00    -0.744 OA
ENDBRANCH  74  75
ENDBRANCH  55  69
BRANCH  56  79
ATOM     79  C   UNL     1      -1.213  -6.099  -5.176  1.00  0.00    -0.014 A 
ATOM     80  C   UNL     1      -2.552  -6.148  -4.743  1.00  0.00     0.010 A 
ATOM     81  C   UNL     1      -0.936  -6.469  -6.507  1.00  0.00     0.010 A 
ATOM     82  C   UNL     1      -3.566  -6.633  -5.578  1.00  0.00     0.020 A 
ATOM     83  C   UNL     1      -1.947  -6.960  -7.349  1.00  0.00     0.020 A 
ATOM     84  C   UNL     1      -3.249  -7.076  -6.863  1.00  0.00     0.054 A 
BRANCH  84  85
ATOM     85  S   UNL     1      -4.546  -7.890  -7.839  1.00  0.00     0.124 S 
ATOM     86  O   UNL     1      -4.756  -9.127  -7.091  1.00  0.00    -0.237 OA
ATOM     87  O   UNL     1      -5.643  -6.927  -7.776  1.00  0.00    -0.237 OA
ATOM     88  O   UNL     1      -3.939  -8.053  -9.158  1.00  0.00    -0.744 OA
ENDBRANCH  84  85
ENDBRANCH  56  79
BRANCH  68  89
ATOM     89  C   UNL     1       4.770  -5.070  -3.317  1.00  0.00    -0.014 A 
ATOM     90  C   UNL     1       6.124  -4.831  -3.620  1.00  0.00     0.010 A 
ATOM     91  C   UNL     1       3.945  -3.960  -3.050  1.00  0.00     0.010 A 
ATOM     92  C   UNL     1       6.647  -3.533  -3.618  1.00  0.00     0.020 A 
ATOM     93  C   UNL     1       4.455  -2.654  -3.074  1.00  0.00     0.020 A 
ATOM     94  C   UNL     1       5.811  -2.452  -3.329  1.00  0.00     0.054 A 
BRANCH  94  95
ATOM     95  S   UNL     1       6.528  -0.786  -3.275  1.00  0.00     0.124 S 
ATOM     96  O   UNL     1       7.244  -0.799  -2.002  1.00  0.00    -0.237 OA
ATOM     97  O   UNL     1       7.374  -0.755  -4.466  1.00  0.00    -0.237 OA
ATOM     98  O   UNL     1       5.366   0.099  -3.322  1.00  0.00    -0.744 OA
ENDBRANCH  94  95
ENDBRANCH  68  89
ENDBRANCH  42  43
ENDBRANCH  35  37
ENDBRANCH  34  35
ENDBRANCH  33  34
ENDBRANCH   1  33
TORSDOF 19
