REMARK SMILES C[C@]([NH2+]Cc1nc(-c2ccsc2)no1)(C(=O)OCCOC(=O)c1ccc(-c2c3nc(c(-c4ccc(S(=O)(=O)[O-])cc4)c4ccc([nH]4)c(-c4ccc(S(=O)(=O)[O-])cc4)c4nc(c(-c5ccc(S(=O)(=O)[O-])cc5)c5ccc2[nH]5)C=C4)C=C3)cc1)C(F)(F)F
REMARK SMILES IDX 18 1 17 2 15 3 16 4 2 5 1 6 83 7 84 8 85 9 86 10 3 11 4 14
REMARK SMILES IDX 5 15 6 16 14 17 7 18 13 19 8 20 9 21 12 22 10 23 11 24 19 25
REMARK SMILES IDX 20 26 21 27 22 28 23 29 24 30 82 31 25 32 81 33 26 34 27 35
REMARK SMILES IDX 28 36 75 37 29 38 80 39 74 40 76 41 30 42 79 43 73 44 72 45
REMARK SMILES IDX 31 47 61 48 42 49 60 50 43 51 46 52 59 53 77 54 44 55 45 56
REMARK SMILES IDX 58 58 78 59 47 60 32 61 33 62 41 63 34 64 40 65 35 66 36 67
REMARK SMILES IDX 37 68 38 69 39 70 62 71 63 72 71 73 64 74 70 75 65 76 66 77
REMARK SMILES IDX 67 78 68 79 69 80 48 81 49 82 57 83 50 84 56 85 51 86 52 87
REMARK SMILES IDX 53 88 54 89 55 90
REMARK H PARENT 3 12 3 13 76 46 46 57
REMARK Flexibility Score: inf
ROOT
ATOM      1  C   UNL     1      -2.865   1.189  -0.144  1.00  0.00     0.274 C 
ENDROOT
BRANCH   1   2
ATOM      2  O   UNL     1      -1.436   0.980  -0.220  1.00  0.00    -0.457 OA
BRANCH   2   3
ATOM      3  C   UNL     1      -0.655   1.756   0.586  1.00  0.00     0.377 C 
ATOM      4  O   UNL     1      -1.124   2.557   1.386  1.00  0.00    -0.244 OA
BRANCH   3   5
ATOM      5  C   UNL     1       0.847   1.633   0.286  1.00  0.00     0.287 C 
ATOM      6  C   UNL     1       1.272   2.922  -0.434  1.00  0.00     0.103 C 
BRANCH   5   7
ATOM      7  C   UNL     1       1.566   1.598   1.661  1.00  0.00     0.455 C 
ATOM      8  F   UNL     1       1.338   0.424   2.297  1.00  0.00    -0.164 F 
ATOM      9  F   UNL     1       2.912   1.692   1.501  1.00  0.00    -0.164 F 
ATOM     10  F   UNL     1       1.210   2.596   2.493  1.00  0.00    -0.164 F 
ENDBRANCH   5   7
BRANCH   5  11
ATOM     11  N   UNL     1       1.213   0.403  -0.478  1.00  0.00    -0.317 N 
ATOM     12  H   UNL     1       0.742  -0.375  -0.018  1.00  0.00     0.347 HD
ATOM     13  H   UNL     1       2.233   0.426  -0.464  1.00  0.00     0.347 HD
BRANCH  11  14
ATOM     14  C   UNL     1       0.916   0.286  -1.898  1.00  0.00     0.363 C 
BRANCH  14  15
ATOM     15  C   UNL     1       1.770  -0.781  -2.510  1.00  0.00     0.282 A 
ATOM     16  N   UNL     1       2.454  -1.748  -1.936  1.00  0.00    -0.186 NA
ATOM     17  O   UNL     1       1.972  -0.704  -3.859  1.00  0.00    -0.333 OA
ATOM     18  C   UNL     1       3.188  -2.238  -2.980  1.00  0.00     0.203 A 
ATOM     19  N   UNL     1       2.927  -1.676  -4.170  1.00  0.00    -0.057 NA
BRANCH  18  20
ATOM     20  C   UNL     1       4.239  -3.230  -2.745  1.00  0.00     0.033 A 
ATOM     21  C   UNL     1       4.287  -4.051  -1.577  1.00  0.00     0.024 A 
ATOM     22  C   UNL     1       5.312  -3.462  -3.579  1.00  0.00     0.077 A 
ATOM     23  C   UNL     1       5.391  -4.877  -1.569  1.00  0.00     0.065 A 
ATOM     24  S   UNL     1       6.369  -4.657  -2.958  1.00  0.00    -0.152 S 
ENDBRANCH  18  20
ENDBRANCH  14  15
ENDBRANCH  11  14
ENDBRANCH   5  11
ENDBRANCH   3   5
ENDBRANCH   2   3
ENDBRANCH   1   2
BRANCH   1  25
ATOM     25  C   UNL     1      -3.584  -0.016   0.462  1.00  0.00     0.275 C 
BRANCH  25  26
ATOM     26  O   UNL     1      -3.272  -0.145   1.859  1.00  0.00    -0.458 OA
BRANCH  26  27
ATOM     27  C   UNL     1      -2.280  -1.017   2.139  1.00  0.00     0.338 C 
ATOM     28  O   UNL     1      -1.659  -1.710   1.345  1.00  0.00    -0.246 OA
BRANCH  27  29
ATOM     29  C   UNL     1      -1.934  -0.926   3.561  1.00  0.00     0.060 A 
ATOM     30  C   UNL     1      -0.986   0.023   3.930  1.00  0.00     0.016 A 
ATOM     31  C   UNL     1      -2.401  -1.856   4.488  1.00  0.00     0.016 A 
ATOM     32  C   UNL     1      -0.405  -0.026   5.190  1.00  0.00     0.010 A 
ATOM     33  C   UNL     1      -1.885  -1.837   5.792  1.00  0.00     0.010 A 
ATOM     34  C   UNL     1      -0.849  -0.952   6.143  1.00  0.00    -0.014 A 
BRANCH  34  35
ATOM     35  C   UNL     1      -0.182  -1.017   7.474  1.00  0.00     0.031 A 
ATOM     36  C   UNL     1       0.512  -2.281   7.915  1.00  0.00     0.074 A 
ATOM     37  C   UNL     1      -0.142   0.071   8.269  1.00  0.00     0.049 A 
ATOM     38  N   UNL     1       1.029  -2.573   9.082  1.00  0.00    -0.248 NA
ATOM     39  C   UNL     1       0.632  -3.360   6.921  1.00  0.00     0.031 C 
ATOM     40  C   UNL     1      -0.717   1.381   7.949  1.00  0.00     0.029 A 
ATOM     41  N   UNL     1       0.431   0.258   9.503  1.00  0.00    -0.354 N 
ATOM     42  C   UNL     1       1.477  -3.886   8.982  1.00  0.00     0.074 A 
ATOM     43  C   UNL     1       1.178  -4.332   7.638  1.00  0.00     0.031 C 
ATOM     44  C   UNL     1      -0.415   2.246   8.929  1.00  0.00     0.029 A 
ATOM     45  C   UNL     1       0.297   1.538   9.986  1.00  0.00     0.049 A 
ATOM     46  H   UNL     1       0.894  -0.458   9.995  1.00  0.00     0.167 HD
ATOM     47  C   UNL     1       2.076  -4.652   9.925  1.00  0.00     0.031 A 
ATOM     48  C   UNL     1       0.675   2.080  11.159  1.00  0.00     0.031 A 
ATOM     49  C   UNL     1       2.420  -4.194  11.245  1.00  0.00     0.049 A 
ATOM     50  C   UNL     1       1.337   1.213  12.190  1.00  0.00     0.074 A 
ATOM     51  C   UNL     1       3.006  -4.903  12.280  1.00  0.00     0.029 A 
ATOM     52  N   UNL     1       2.237  -2.898  11.702  1.00  0.00    -0.354 N 
ATOM     53  N   UNL     1       1.660  -0.055  12.111  1.00  0.00    -0.248 NA
ATOM     54  C   UNL     1       1.662   1.844  13.476  1.00  0.00     0.031 C 
ATOM     55  C   UNL     1       3.159  -4.039  13.371  1.00  0.00     0.029 A 
ATOM     56  C   UNL     1       2.698  -2.786  13.003  1.00  0.00     0.049 A 
ATOM     57  H   UNL     1       1.837  -2.166  11.179  1.00  0.00     0.167 HD
ATOM     58  C   UNL     1       2.220  -0.377  13.341  1.00  0.00     0.074 A 
ATOM     59  C   UNL     1       2.219   0.836  14.134  1.00  0.00     0.031 C 
ATOM     60  C   UNL     1       2.681  -1.573  13.779  1.00  0.00     0.031 A 
BRANCH  47  61
ATOM     61  C   UNL     1       2.351  -6.089   9.574  1.00  0.00    -0.014 A 
ATOM     62  C   UNL     1       3.425  -6.449   8.741  1.00  0.00     0.010 A 
ATOM     63  C   UNL     1       1.526  -7.097  10.107  1.00  0.00     0.010 A 
ATOM     64  C   UNL     1       3.644  -7.791   8.414  1.00  0.00     0.020 A 
ATOM     65  C   UNL     1       1.754  -8.440   9.798  1.00  0.00     0.020 A 
ATOM     66  C   UNL     1       2.800  -8.777   8.937  1.00  0.00     0.054 A 
BRANCH  66  67
ATOM     67  S   UNL     1       3.102 -10.514   8.506  1.00  0.00     0.124 S 
ATOM     68  O   UNL     1       2.507 -10.599   7.174  1.00  0.00    -0.237 OA
ATOM     69  O   UNL     1       4.558 -10.614   8.550  1.00  0.00    -0.237 OA
ATOM     70  O   UNL     1       2.400 -11.255   9.551  1.00  0.00    -0.744 OA
ENDBRANCH  66  67
ENDBRANCH  47  61
BRANCH  48  71
ATOM     71  C   UNL     1       0.387   3.513  11.435  1.00  0.00    -0.014 A 
ATOM     72  C   UNL     1       1.423   4.462  11.445  1.00  0.00     0.010 A 
ATOM     73  C   UNL     1      -0.936   3.938  11.659  1.00  0.00     0.010 A 
ATOM     74  C   UNL     1       1.142   5.812  11.676  1.00  0.00     0.020 A 
ATOM     75  C   UNL     1      -1.223   5.288  11.866  1.00  0.00     0.020 A 
ATOM     76  C   UNL     1      -0.180   6.217  11.883  1.00  0.00     0.054 A 
BRANCH  76  77
ATOM     77  S   UNL     1      -0.545   7.981  12.104  1.00  0.00     0.124 S 
ATOM     78  O   UNL     1      -0.284   8.168  13.527  1.00  0.00    -0.237 OA
ATOM     79  O   UNL     1       0.402   8.624  11.196  1.00  0.00    -0.237 OA
ATOM     80  O   UNL     1      -1.946   8.087  11.702  1.00  0.00    -0.744 OA
ENDBRANCH  76  77
ENDBRANCH  48  71
BRANCH  60  81
ATOM     81  C   UNL     1       3.229  -1.622  15.176  1.00  0.00    -0.014 A 
ATOM     82  C   UNL     1       2.365  -1.659  16.284  1.00  0.00     0.010 A 
ATOM     83  C   UNL     1       4.619  -1.663  15.382  1.00  0.00     0.010 A 
ATOM     84  C   UNL     1       2.884  -1.708  17.580  1.00  0.00     0.020 A 
ATOM     85  C   UNL     1       5.140  -1.729  16.676  1.00  0.00     0.020 A 
ATOM     86  C   UNL     1       4.269  -1.736  17.768  1.00  0.00     0.054 A 
BRANCH  86  87
ATOM     87  S   UNL     1       4.925  -1.833  19.457  1.00  0.00     0.124 S 
ATOM     88  O   UNL     1       4.828  -0.445  19.899  1.00  0.00    -0.237 OA
ATOM     89  O   UNL     1       4.010  -2.766  20.110  1.00  0.00    -0.237 OA
ATOM     90  O   UNL     1       6.285  -2.335  19.269  1.00  0.00    -0.744 OA
ENDBRANCH  86  87
ENDBRANCH  60  81
ENDBRANCH  34  35
ENDBRANCH  27  29
ENDBRANCH  26  27
ENDBRANCH  25  26
ENDBRANCH   1  25
TORSDOF 19
