REMARK SMILES O=C(CC1(NC(=O)c2ccc3cc[nH]c3c2)CCC1)OCCOC(=O)c1ccc(-c2c3nc(c(-c4ccc(S(=O)(=O)[O-])cc4)c4ccc([nH]4)c(-c4ccc(S(=O)(=O)[O-])cc4)c4nc(c(-c5ccc(S(=O)(=O)[O-])cc5)c5ccc2[nH]5)C=C4)C=C3)cc1
REMARK SMILES IDX 21 1 20 2 2 3 1 4 3 5 4 6 17 7 19 8 18 9 5 10 6 11 7 13 8 14
REMARK SMILES IDX 9 15 16 16 10 17 15 18 11 19 14 20 12 21 13 22 22 24 23 25
REMARK SMILES IDX 24 26 25 27 26 28 27 29 85 30 28 31 84 32 29 33 30 34 31 35
REMARK SMILES IDX 78 36 32 37 83 38 77 39 79 40 33 41 82 42 76 43 75 44 34 46
REMARK SMILES IDX 64 47 45 48 63 49 46 50 49 51 62 52 80 53 47 54 48 55 61 57
REMARK SMILES IDX 81 58 50 59 35 60 36 61 44 62 37 63 43 64 38 65 39 66 40 67
REMARK SMILES IDX 41 68 42 69 65 70 66 71 74 72 67 73 73 74 68 75 69 76 70 77
REMARK SMILES IDX 71 78 72 79 51 80 52 81 60 82 53 83 59 84 54 85 55 86 56 87
REMARK SMILES IDX 57 88 58 89
REMARK H PARENT 5 12 14 23 79 45 49 56
REMARK Flexibility Score: inf
ROOT
ATOM      1  C   UNL     1       3.552  -1.572   0.319  1.00  0.00     0.274 C 
ENDROOT
BRANCH   1   2
ATOM      2  O   UNL     1       3.163  -1.150   1.630  1.00  0.00    -0.462 OA
BRANCH   2   3
ATOM      3  C   UNL     1       2.434  -0.023   1.703  1.00  0.00     0.308 C 
ATOM      4  O   UNL     1       1.266  -0.059   2.080  1.00  0.00    -0.252 OA
BRANCH   3   5
ATOM      5  C   UNL     1       3.111   1.273   1.351  1.00  0.00     0.151 C 
BRANCH   5   6
ATOM      6  C   UNL     1       4.627   1.488   1.314  1.00  0.00     0.051 C 
ATOM      7  C   UNL     1       4.933   2.952   1.796  1.00  0.00     0.029 C 
ATOM      8  C   UNL     1       5.256   1.018   2.679  1.00  0.00     0.029 C 
ATOM      9  C   UNL     1       5.054   2.430   3.241  1.00  0.00     0.005 C 
BRANCH   6  10
ATOM     10  N   UNL     1       5.585   1.126   0.190  1.00  0.00    -0.346 N 
ATOM     11  C   UNL     1       5.861   1.016  -1.163  1.00  0.00     0.251 C 
ATOM     12  H   UNL     1       6.405   0.823   0.642  1.00  0.00     0.164 HD
ATOM     13  O   UNL     1       7.057   0.840  -1.434  1.00  0.00    -0.269 OA
BRANCH  11  14
ATOM     14  C   UNL     1       4.967   0.957  -2.329  1.00  0.00     0.041 A 
ATOM     15  C   UNL     1       4.624   2.092  -3.067  1.00  0.00     0.014 A 
ATOM     16  C   UNL     1       4.685  -0.308  -2.870  1.00  0.00     0.040 A 
ATOM     17  C   UNL     1       3.700   2.006  -4.131  1.00  0.00     0.011 A 
ATOM     18  C   UNL     1       3.724  -0.385  -3.892  1.00  0.00     0.046 A 
ATOM     19  C   UNL     1       3.162   0.750  -4.473  1.00  0.00    -0.001 A 
ATOM     20  N   UNL     1       3.107  -1.476  -4.465  1.00  0.00    -0.361 N 
ATOM     21  C   UNL     1       2.079   0.309  -5.284  1.00  0.00     0.028 A 
ATOM     22  C   UNL     1       2.036  -1.066  -5.214  1.00  0.00     0.083 A 
ATOM     23  H   UNL     1       3.393  -2.412  -4.353  1.00  0.00     0.166 HD
ENDBRANCH  11  14
ENDBRANCH   6  10
ENDBRANCH   5   6
ENDBRANCH   3   5
ENDBRANCH   2   3
ENDBRANCH   1   2
BRANCH   1  24
ATOM     24  C   UNL     1       2.487  -1.349  -0.768  1.00  0.00     0.275 C 
BRANCH  24  25
ATOM     25  O   UNL     1       2.335   0.066  -1.051  1.00  0.00    -0.458 OA
BRANCH  25  26
ATOM     26  C   UNL     1       1.105   0.479  -1.468  1.00  0.00     0.338 C 
ATOM     27  O   UNL     1       0.180  -0.256  -1.717  1.00  0.00    -0.246 OA
BRANCH  26  28
ATOM     28  C   UNL     1       0.994   1.991  -1.523  1.00  0.00     0.060 A 
ATOM     29  C   UNL     1      -0.273   2.562  -1.603  1.00  0.00     0.016 A 
ATOM     30  C   UNL     1       2.088   2.862  -1.478  1.00  0.00     0.016 A 
ATOM     31  C   UNL     1      -0.426   3.957  -1.692  1.00  0.00     0.010 A 
ATOM     32  C   UNL     1       1.957   4.247  -1.612  1.00  0.00     0.010 A 
ATOM     33  C   UNL     1       0.690   4.807  -1.733  1.00  0.00    -0.014 A 
BRANCH  33  34
ATOM     34  C   UNL     1       0.533   6.268  -1.920  1.00  0.00     0.031 A 
ATOM     35  C   UNL     1       0.207   6.814  -3.281  1.00  0.00     0.074 A 
ATOM     36  C   UNL     1       0.724   7.112  -0.888  1.00  0.00     0.049 A 
ATOM     37  N   UNL     1      -0.192   8.014  -3.614  1.00  0.00    -0.248 NA
ATOM     38  C   UNL     1       0.365   5.892  -4.418  1.00  0.00     0.031 C 
ATOM     39  C   UNL     1       1.145   6.722   0.459  1.00  0.00     0.029 A 
ATOM     40  N   UNL     1       0.590   8.475  -0.815  1.00  0.00    -0.354 N 
ATOM     41  C   UNL     1      -0.389   7.980  -4.989  1.00  0.00     0.074 A 
ATOM     42  C   UNL     1      -0.002   6.658  -5.438  1.00  0.00     0.031 C 
ATOM     43  C   UNL     1       1.241   7.824   1.223  1.00  0.00     0.029 A 
ATOM     44  C   UNL     1       0.854   8.989   0.432  1.00  0.00     0.049 A 
ATOM     45  H   UNL     1       0.330   9.033  -1.584  1.00  0.00     0.167 HD
ATOM     46  C   UNL     1      -0.868   8.958  -5.795  1.00  0.00     0.031 A 
ATOM     47  C   UNL     1       0.755  10.250   0.897  1.00  0.00     0.031 A 
ATOM     48  C   UNL     1      -1.187  10.287  -5.337  1.00  0.00     0.049 A 
ATOM     49  C   UNL     1       0.198  11.319  -0.003  1.00  0.00     0.074 A 
ATOM     50  C   UNL     1      -1.755  11.332  -6.045  1.00  0.00     0.029 A 
ATOM     51  N   UNL     1      -0.936  10.763  -4.058  1.00  0.00    -0.354 N 
ATOM     52  N   UNL     1      -0.172  11.228  -1.259  1.00  0.00    -0.248 NA
ATOM     53  C   UNL     1      -0.001  12.649   0.591  1.00  0.00     0.031 C 
ATOM     54  C   UNL     1      -1.796  12.455  -5.210  1.00  0.00     0.029 A 
ATOM     55  C   UNL     1      -1.308  12.093  -3.965  1.00  0.00     0.049 A 
ATOM     56  H   UNL     1      -0.550  10.232  -3.324  1.00  0.00     0.167 HD
ATOM     57  C   UNL     1      -0.680  12.478  -1.595  1.00  0.00     0.074 A 
ATOM     58  C   UNL     1      -0.579  13.303  -0.408  1.00  0.00     0.031 C 
ATOM     59  C   UNL     1      -1.192  12.903  -2.778  1.00  0.00     0.031 A 
BRANCH  46  60
ATOM     60  C   UNL     1      -1.098   8.630  -7.248  1.00  0.00    -0.014 A 
ATOM     61  C   UNL     1      -2.132   7.753  -7.628  1.00  0.00     0.010 A 
ATOM     62  C   UNL     1      -0.340   9.262  -8.250  1.00  0.00     0.010 A 
ATOM     63  C   UNL     1      -2.386   7.495  -8.978  1.00  0.00     0.020 A 
ATOM     64  C   UNL     1      -0.606   9.025  -9.604  1.00  0.00     0.020 A 
ATOM     65  C   UNL     1      -1.621   8.133  -9.959  1.00  0.00     0.054 A 
BRANCH  65  66
ATOM     66  S   UNL     1      -2.001   7.809 -11.703  1.00  0.00     0.124 S 
ATOM     67  O   UNL     1      -1.513   6.443 -11.870  1.00  0.00    -0.237 OA
ATOM     68  O   UNL     1      -3.453   7.966 -11.749  1.00  0.00    -0.237 OA
ATOM     69  O   UNL     1      -1.244   8.832 -12.420  1.00  0.00    -0.744 OA
ENDBRANCH  65  66
ENDBRANCH  46  60
BRANCH  47  70
ATOM     70  C   UNL     1       1.121  10.545   2.308  1.00  0.00    -0.014 A 
ATOM     71  C   UNL     1       0.128  10.797   3.270  1.00  0.00     0.010 A 
ATOM     72  C   UNL     1       2.472  10.549   2.702  1.00  0.00     0.010 A 
ATOM     73  C   UNL     1       0.478  11.067   4.597  1.00  0.00     0.020 A 
ATOM     74  C   UNL     1       2.824  10.794   4.033  1.00  0.00     0.020 A 
ATOM     75  C   UNL     1       1.825  11.062   4.970  1.00  0.00     0.054 A 
BRANCH  75  76
ATOM     76  S   UNL     1       2.253  11.360   6.708  1.00  0.00     0.124 S 
ATOM     77  O   UNL     1       2.030  12.796   6.835  1.00  0.00    -0.237 OA
ATOM     78  O   UNL     1       1.303  10.506   7.418  1.00  0.00    -0.237 OA
ATOM     79  O   UNL     1       3.647  10.931   6.794  1.00  0.00    -0.744 OA
ENDBRANCH  75  76
ENDBRANCH  47  70
BRANCH  59  80
ATOM     80  C   UNL     1      -1.701  14.318  -2.841  1.00  0.00    -0.014 A 
ATOM     81  C   UNL     1      -0.817  15.412  -2.843  1.00  0.00     0.010 A 
ATOM     82  C   UNL     1      -3.084  14.554  -2.948  1.00  0.00     0.010 A 
ATOM     83  C   UNL     1      -1.309  16.718  -2.914  1.00  0.00     0.020 A 
ATOM     84  C   UNL     1      -3.578  15.858  -3.046  1.00  0.00     0.020 A 
ATOM     85  C   UNL     1      -2.688  16.932  -3.013  1.00  0.00     0.054 A 
BRANCH  85  86
ATOM     86  S   UNL     1      -3.300  18.635  -3.142  1.00  0.00     0.124 S 
ATOM     87  O   UNL     1      -3.145  19.117  -1.772  1.00  0.00    -0.237 OA
ATOM     88  O   UNL     1      -2.394  19.229  -4.123  1.00  0.00    -0.237 OA
ATOM     89  O   UNL     1      -4.679  18.474  -3.594  1.00  0.00    -0.744 OA
ENDBRANCH  85  86
ENDBRANCH  59  80
ENDBRANCH  33  34
ENDBRANCH  26  28
ENDBRANCH  25  26
ENDBRANCH  24  25
ENDBRANCH   1  24
TORSDOF 17
