REMARK SMILES O=C1N=C(O)/C(=C\c2cc(Cl)c(OCC(=O)OCCOC(=O)c3ccc(-c4c5nc(c(-c6ccc(S(=O)(=O)[O-])cc6)c6ccc([nH]6)c(-c6ccc(S(=O)(=O)[O-])cc6)c6nc(c(-c7ccc(S(=O)(=O)[O-])cc7)c7ccc4[nH]7)C=C6)C=C5)cc3)c(Cl)c2)C(=O)N1
REMARK SMILES IDX 18 1 17 2 15 3 16 4 14 5 13 6 12 7 8 8 9 9 85 10 10 11 83 12
REMARK SMILES IDX 11 13 84 14 7 15 1 16 2 17 3 18 88 19 4 20 86 21 6 23 87 24
REMARK SMILES IDX 5 25 19 27 20 28 21 29 22 30 23 31 24 32 82 33 25 34 81 35
REMARK SMILES IDX 26 36 27 37 28 38 75 39 29 40 80 41 74 42 76 43 30 44 79 45
REMARK SMILES IDX 73 46 72 47 31 49 61 50 42 51 60 52 43 53 46 54 59 55 77 56
REMARK SMILES IDX 44 57 45 58 58 60 78 61 47 62 32 63 33 64 41 65 34 66 40 67
REMARK SMILES IDX 35 68 36 69 37 70 38 71 39 72 62 73 63 74 71 75 64 76 70 77
REMARK SMILES IDX 65 78 66 79 67 80 68 81 69 82 48 83 49 84 57 85 50 86 56 87
REMARK SMILES IDX 51 88 52 89 53 90 54 91 55 92
REMARK H PARENT 88 22 5 26 76 48 46 59
REMARK Flexibility Score: inf
ROOT
ATOM      1  C   UNL     1       6.191   7.240  -0.021  1.00  0.00     0.274 C 
ENDROOT
BRANCH   1   2
ATOM      2  O   UNL     1       7.362   6.434  -0.302  1.00  0.00    -0.460 OA
BRANCH   2   3
ATOM      3  C   UNL     1       8.352   6.510   0.624  1.00  0.00     0.344 C 
ATOM      4  O   UNL     1       8.300   7.234   1.616  1.00  0.00    -0.248 OA
BRANCH   3   5
ATOM      5  C   UNL     1       9.600   5.657   0.327  1.00  0.00     0.352 C 
BRANCH   5   6
ATOM      6  O   UNL     1       9.722   4.635  -0.644  1.00  0.00    -0.479 OA
BRANCH   6   7
ATOM      7  C   UNL     1       9.082   3.437  -0.464  1.00  0.00     0.157 A 
ATOM      8  C   UNL     1       7.499   1.084  -0.325  1.00  0.00    -0.021 A 
ATOM      9  C   UNL     1       8.180   1.551   0.801  1.00  0.00     0.032 A 
ATOM     10  C   UNL     1       7.751   1.695  -1.554  1.00  0.00     0.032 A 
ATOM     11  C   UNL     1       9.022   2.676   0.709  1.00  0.00     0.085 A 
ATOM     12  C   UNL     1       8.521   2.863  -1.616  1.00  0.00     0.085 A 
ATOM     13  Cl  UNL     1      10.138   2.894   2.011  1.00  0.00    -0.080 Cl
ATOM     14  Cl  UNL     1       8.806   3.548  -3.183  1.00  0.00    -0.080 Cl
BRANCH   8  15
ATOM     15  C   UNL     1       6.577  -0.057  -0.239  1.00  0.00     0.027 C 
ATOM     16  O   UNL     1       1.189  -0.047   0.032  1.00  0.00    -0.246 OA
ATOM     17  C   UNL     1       2.415   0.008  -0.043  1.00  0.00     0.351 C 
ATOM     18  N   UNL     1       3.075   1.196  -0.171  1.00  0.00    -0.157 NA
ATOM     19  N   UNL     1       3.134  -1.158  -0.030  1.00  0.00    -0.272 N 
ATOM     20  C   UNL     1       4.351   1.162  -0.274  1.00  0.00     0.228 C 
ATOM     21  C   UNL     1       4.489  -1.296  -0.148  1.00  0.00     0.264 C 
ATOM     22  H   UNL     1       2.617  -1.990   0.076  1.00  0.00     0.175 HD
ATOM     23  C   UNL     1       5.227  -0.013  -0.233  1.00  0.00     0.102 C 
ATOM     24  O   UNL     1       5.025  -2.395  -0.206  1.00  0.00    -0.269 OA
BRANCH  20  25
ATOM     25  O   UNL     1       4.967   2.321  -0.468  1.00  0.00    -0.493 OA
ATOM     26  H   UNL     1       4.471   3.115  -0.505  1.00  0.00     0.295 HD
ENDBRANCH  20  25
ENDBRANCH   8  15
ENDBRANCH   6   7
ENDBRANCH   5   6
ENDBRANCH   3   5
ENDBRANCH   2   3
ENDBRANCH   1   2
BRANCH   1  27
ATOM     27  C   UNL     1       5.035   6.428   0.580  1.00  0.00     0.275 C 
BRANCH  27  28
ATOM     28  O   UNL     1       5.331   5.933   1.904  1.00  0.00    -0.458 OA
BRANCH  28  29
ATOM     29  C   UNL     1       5.960   4.740   1.888  1.00  0.00     0.338 C 
ATOM     30  O   UNL     1       6.265   4.112   0.889  1.00  0.00    -0.246 OA
BRANCH  29  31
ATOM     31  C   UNL     1       6.364   4.254   3.209  1.00  0.00     0.060 A 
ATOM     32  C   UNL     1       7.661   4.539   3.619  1.00  0.00     0.016 A 
ATOM     33  C   UNL     1       5.621   3.268   3.861  1.00  0.00     0.016 A 
ATOM     34  C   UNL     1       8.250   3.770   4.617  1.00  0.00     0.010 A 
ATOM     35  C   UNL     1       6.191   2.565   4.935  1.00  0.00     0.010 A 
ATOM     36  C   UNL     1       7.530   2.779   5.303  1.00  0.00    -0.014 A 
BRANCH  36  37
ATOM     37  C   UNL     1       8.204   2.015   6.398  1.00  0.00     0.031 A 
ATOM     38  C   UNL     1       8.301   0.505   6.384  1.00  0.00     0.074 A 
ATOM     39  C   UNL     1       8.776   2.700   7.412  1.00  0.00     0.049 A 
ATOM     40  N   UNL     1       8.814  -0.295   7.288  1.00  0.00    -0.248 NA
ATOM     41  C   UNL     1       7.747  -0.203   5.219  1.00  0.00     0.031 C 
ATOM     42  C   UNL     1       8.774   4.161   7.553  1.00  0.00     0.029 A 
ATOM     43  N   UNL     1       9.487   2.271   8.506  1.00  0.00    -0.354 N 
ATOM     44  C   UNL     1       8.599  -1.593   6.832  1.00  0.00     0.074 A 
ATOM     45  C   UNL     1       7.908  -1.476   5.565  1.00  0.00     0.031 C 
ATOM     46  C   UNL     1       9.502   4.505   8.623  1.00  0.00     0.029 A 
ATOM     47  C   UNL     1       9.930   3.296   9.311  1.00  0.00     0.049 A 
ATOM     48  H   UNL     1       9.664   1.321   8.695  1.00  0.00     0.167 HD
ATOM     49  C   UNL     1       8.937  -2.769   7.418  1.00  0.00     0.031 A 
ATOM     50  C   UNL     1      10.569   3.281  10.495  1.00  0.00     0.031 A 
ATOM     51  C   UNL     1       9.659  -2.883   8.663  1.00  0.00     0.049 A 
ATOM     52  C   UNL     1      10.910   1.963  11.125  1.00  0.00     0.074 A 
ATOM     53  C   UNL     1      10.092  -4.035   9.301  1.00  0.00     0.029 A 
ATOM     54  N   UNL     1      10.055  -1.820   9.460  1.00  0.00    -0.354 N 
ATOM     55  N   UNL     1      10.705   0.752  10.665  1.00  0.00    -0.248 NA
ATOM     56  C   UNL     1      11.566   2.011  12.437  1.00  0.00     0.031 C 
ATOM     57  C   UNL     1      10.681  -3.674  10.517  1.00  0.00     0.029 A 
ATOM     58  C   UNL     1      10.690  -2.292  10.601  1.00  0.00     0.049 A 
ATOM     59  H   UNL     1       9.907  -0.870   9.249  1.00  0.00     0.167 HD
ATOM     60  C   UNL     1      11.228  -0.106  11.626  1.00  0.00     0.074 A 
ATOM     61  C   UNL     1      11.789   0.726  12.670  1.00  0.00     0.031 C 
ATOM     62  C   UNL     1      11.235  -1.462  11.644  1.00  0.00     0.031 A 
BRANCH  49  63
ATOM     63  C   UNL     1       8.496  -4.057   6.761  1.00  0.00    -0.014 A 
ATOM     64  C   UNL     1       9.091  -4.535   5.580  1.00  0.00     0.010 A 
ATOM     65  C   UNL     1       7.539  -4.862   7.412  1.00  0.00     0.010 A 
ATOM     66  C   UNL     1       8.727  -5.782   5.057  1.00  0.00     0.020 A 
ATOM     67  C   UNL     1       7.193  -6.119   6.909  1.00  0.00     0.020 A 
ATOM     68  C   UNL     1       7.784  -6.568   5.728  1.00  0.00     0.054 A 
BRANCH  68  69
ATOM     69  S   UNL     1       7.379  -8.208   5.062  1.00  0.00     0.124 S 
ATOM     70  O   UNL     1       6.631  -7.867   3.855  1.00  0.00    -0.237 OA
ATOM     71  O   UNL     1       8.697  -8.797   4.839  1.00  0.00    -0.237 OA
ATOM     72  O   UNL     1       6.593  -8.831   6.124  1.00  0.00    -0.744 OA
ENDBRANCH  68  69
ENDBRANCH  49  63
BRANCH  50  73
ATOM     73  C   UNL     1      10.869   4.562  11.197  1.00  0.00    -0.014 A 
ATOM     74  C   UNL     1      12.194   4.968  11.428  1.00  0.00     0.010 A 
ATOM     75  C   UNL     1       9.815   5.375  11.656  1.00  0.00     0.010 A 
ATOM     76  C   UNL     1      12.459   6.144  12.137  1.00  0.00     0.020 A 
ATOM     77  C   UNL     1      10.075   6.572  12.325  1.00  0.00     0.020 A 
ATOM     78  C   UNL     1      11.397   6.937  12.582  1.00  0.00     0.054 A 
BRANCH  78  79
ATOM     79  S   UNL     1      11.761   8.466  13.486  1.00  0.00     0.124 S 
ATOM     80  O   UNL     1      12.197   7.954  14.781  1.00  0.00    -0.237 OA
ATOM     81  O   UNL     1      12.800   9.079  12.663  1.00  0.00    -0.237 OA
ATOM     82  O   UNL     1      10.482   9.172  13.490  1.00  0.00    -0.744 OA
ENDBRANCH  78  79
ENDBRANCH  50  73
BRANCH  62  83
ATOM     83  C   UNL     1      11.912  -2.123  12.818  1.00  0.00    -0.014 A 
ATOM     84  C   UNL     1      11.381  -2.036  14.118  1.00  0.00     0.010 A 
ATOM     85  C   UNL     1      13.113  -2.828  12.617  1.00  0.00     0.010 A 
ATOM     86  C   UNL     1      12.075  -2.578  15.203  1.00  0.00     0.020 A 
ATOM     87  C   UNL     1      13.790  -3.406  13.694  1.00  0.00     0.020 A 
ATOM     88  C   UNL     1      13.280  -3.252  14.985  1.00  0.00     0.054 A 
BRANCH  88  89
ATOM     89  S   UNL     1      14.171  -3.933  16.410  1.00  0.00     0.124 S 
ATOM     90  O   UNL     1      14.702  -2.727  17.040  1.00  0.00    -0.237 OA
ATOM     91  O   UNL     1      13.115  -4.617  17.152  1.00  0.00    -0.237 OA
ATOM     92  O   UNL     1      15.171  -4.812  15.807  1.00  0.00    -0.744 OA
ENDBRANCH  88  89
ENDBRANCH  62  83
ENDBRANCH  36  37
ENDBRANCH  29  31
ENDBRANCH  28  29
ENDBRANCH  27  28
ENDBRANCH   1  27
TORSDOF 18
