REMARK SMILES C[C@H]1[C@H]([NH+]2CCC(CC(=O)OCCOC(=O)c3ccc(-c4c5nc(c(-c6ccc(S(=O)(=O)[O-])cc6)c6ccc([nH]6)c(-c6ccc(S(=O)(=O)[O-])cc6)c6nc(c(-c7ccc(S(=O)(=O)[O-])cc7)c7ccc4[nH]7)C=C6)C=C5)cc3)CC2)CCC[C@@H]1C
REMARK SMILES IDX 13 1 12 2 11 3 9 4 10 5 8 6 7 7 4 8 5 9 78 10 6 12 77 13
REMARK SMILES IDX 3 14 1 15 2 16 82 17 79 18 81 19 83 20 80 21 14 22 15 23
REMARK SMILES IDX 16 24 17 25 18 26 76 27 19 28 75 29 20 30 21 31 22 32 69 33
REMARK SMILES IDX 23 34 74 35 68 36 70 37 24 38 73 39 67 40 66 41 25 43 55 44
REMARK SMILES IDX 36 45 54 46 37 47 40 48 53 49 71 50 38 51 39 52 52 54 72 55
REMARK SMILES IDX 41 56 26 57 27 58 35 59 28 60 34 61 29 62 30 63 31 64 32 65
REMARK SMILES IDX 33 66 56 67 57 68 65 69 58 70 64 71 59 72 60 73 61 74 62 75
REMARK SMILES IDX 63 76 42 77 43 78 51 79 44 80 50 81 45 82 46 83 47 84 48 85
REMARK SMILES IDX 49 86
REMARK H PARENT 4 11 70 42 40 53
REMARK Flexibility Score: inf
ROOT
ATOM      1  C   UNL     1       0.259  -1.469   6.527  1.00  0.00     0.275 C 
ENDROOT
BRANCH   1   2
ATOM      2  C   UNL     1       0.239  -0.616   5.264  1.00  0.00     0.274 C 
BRANCH   2   3
ATOM      3  O   UNL     1       0.767  -1.401   4.179  1.00  0.00    -0.462 OA
BRANCH   3   4
ATOM      4  C   UNL     1       1.970  -1.023   3.694  1.00  0.00     0.306 C 
ATOM      5  O   UNL     1       2.558   0.004   4.015  1.00  0.00    -0.252 OA
BRANCH   4   6
ATOM      6  C   UNL     1       2.607  -2.039   2.769  1.00  0.00     0.126 C 
BRANCH   6   7
ATOM      7  C   UNL     1       1.802  -3.197   2.153  1.00  0.00     0.011 C 
ATOM      8  N   UNL     1       0.528  -3.398  -0.527  1.00  0.00    -0.332 N 
ATOM      9  C   UNL     1       1.940  -3.719  -0.461  1.00  0.00     0.262 C 
ATOM     10  C   UNL     1      -0.180  -3.768   0.699  1.00  0.00     0.262 C 
ATOM     11  H   UNL     1       0.238  -4.010  -1.289  1.00  0.00     0.348 HD
ATOM     12  C   UNL     1       2.578  -3.797   0.945  1.00  0.00     0.066 C 
ATOM     13  C   UNL     1       0.319  -2.940   1.870  1.00  0.00     0.066 C 
BRANCH   8  14
ATOM     14  C   UNL     1       0.081  -2.123  -1.105  1.00  0.00     0.187 C 
ATOM     15  C   UNL     1       1.861  -0.480   0.015  1.00  0.00     0.014 C 
ATOM     16  C   UNL     1       0.890  -0.781  -1.100  1.00  0.00     0.047 C 
ATOM     17  C   UNL     1      -0.198   0.318  -1.263  1.00  0.00    -0.006 C 
ATOM     18  C   UNL     1      -0.287  -2.337  -2.597  1.00  0.00     0.065 C 
ATOM     19  C   UNL     1      -0.666   0.262  -2.723  1.00  0.00     0.004 C 
ATOM     20  C   UNL     1       0.196   1.728  -0.828  1.00  0.00     0.008 C 
ATOM     21  C   UNL     1      -1.088  -1.150  -3.174  1.00  0.00     0.006 C 
ENDBRANCH   8  14
ENDBRANCH   6   7
ENDBRANCH   4   6
ENDBRANCH   3   4
ENDBRANCH   2   3
ENDBRANCH   1   2
BRANCH   1  22
ATOM     22  O   UNL     1       1.617  -1.857   6.809  1.00  0.00    -0.458 OA
BRANCH  22  23
ATOM     23  C   UNL     1       1.916  -3.153   6.572  1.00  0.00     0.338 C 
ATOM     24  O   UNL     1       1.143  -4.048   6.255  1.00  0.00    -0.246 OA
BRANCH  23  25
ATOM     25  C   UNL     1       3.364  -3.364   6.711  1.00  0.00     0.060 A 
ATOM     26  C   UNL     1       4.249  -2.671   5.887  1.00  0.00     0.016 A 
ATOM     27  C   UNL     1       3.840  -4.347   7.575  1.00  0.00     0.016 A 
ATOM     28  C   UNL     1       5.590  -3.038   5.834  1.00  0.00     0.010 A 
ATOM     29  C   UNL     1       5.211  -4.616   7.620  1.00  0.00     0.010 A 
ATOM     30  C   UNL     1       6.100  -3.988   6.728  1.00  0.00    -0.014 A 
BRANCH  30  31
ATOM     31  C   UNL     1       7.551  -4.324   6.740  1.00  0.00     0.031 A 
ATOM     32  C   UNL     1       7.998  -5.755   6.583  1.00  0.00     0.074 A 
ATOM     33  C   UNL     1       8.473  -3.354   6.915  1.00  0.00     0.049 A 
ATOM     34  N   UNL     1       9.173  -6.282   6.811  1.00  0.00    -0.248 NA
ATOM     35  C   UNL     1       6.984  -6.722   6.129  1.00  0.00     0.031 C 
ATOM     36  C   UNL     1       8.194  -1.919   7.027  1.00  0.00     0.029 A 
ATOM     37  N   UNL     1       9.839  -3.430   7.032  1.00  0.00    -0.354 N 
ATOM     38  C   UNL     1       9.024  -7.648   6.597  1.00  0.00     0.074 A 
ATOM     39  C   UNL     1       7.647  -7.867   6.212  1.00  0.00     0.031 C 
ATOM     40  C   UNL     1       9.349  -1.251   7.156  1.00  0.00     0.029 A 
ATOM     41  C   UNL     1      10.441  -2.212   7.242  1.00  0.00     0.049 A 
ATOM     42  H   UNL     1      10.340  -4.276   6.970  1.00  0.00     0.167 HD
ATOM     43  C   UNL     1       9.950  -8.629   6.723  1.00  0.00     0.031 A 
ATOM     44  C   UNL     1      11.718  -1.896   7.530  1.00  0.00     0.031 A 
ATOM     45  C   UNL     1      11.329  -8.397   7.065  1.00  0.00     0.049 A 
ATOM     46  C   UNL     1      12.721  -3.000   7.694  1.00  0.00     0.074 A 
ATOM     47  C   UNL     1      12.347  -9.321   7.220  1.00  0.00     0.029 A 
ATOM     48  N   UNL     1      11.887  -7.147   7.287  1.00  0.00    -0.354 N 
ATOM     49  N   UNL     1      12.546  -4.294   7.566  1.00  0.00    -0.248 NA
ATOM     50  C   UNL     1      14.086  -2.604   8.063  1.00  0.00     0.031 C 
ATOM     51  C   UNL     1      13.515  -8.631   7.565  1.00  0.00     0.029 A 
ATOM     52  C   UNL     1      13.232  -7.275   7.584  1.00  0.00     0.049 A 
ATOM     53  H   UNL     1      11.397  -6.294   7.240  1.00  0.00     0.167 HD
ATOM     54  C   UNL     1      13.782  -4.868   7.834  1.00  0.00     0.074 A 
ATOM     55  C   UNL     1      14.699  -3.780   8.110  1.00  0.00     0.031 C 
ATOM     56  C   UNL     1      14.126  -6.178   7.857  1.00  0.00     0.031 A 
BRANCH  43  57
ATOM     57  C   UNL     1       9.486 -10.049   6.539  1.00  0.00    -0.014 A 
ATOM     58  C   UNL     1       9.197 -10.571   5.266  1.00  0.00     0.010 A 
ATOM     59  C   UNL     1       9.359 -10.883   7.666  1.00  0.00     0.010 A 
ATOM     60  C   UNL     1       8.746 -11.888   5.129  1.00  0.00     0.020 A 
ATOM     61  C   UNL     1       8.931 -12.206   7.531  1.00  0.00     0.020 A 
ATOM     62  C   UNL     1       8.607 -12.695   6.263  1.00  0.00     0.054 A 
BRANCH  62  63
ATOM     63  S   UNL     1       8.025 -14.402   6.061  1.00  0.00     0.124 S 
ATOM     64  O   UNL     1       6.592 -14.207   5.858  1.00  0.00    -0.237 OA
ATOM     65  O   UNL     1       8.768 -14.861   4.891  1.00  0.00    -0.237 OA
ATOM     66  O   UNL     1       8.395 -15.044   7.320  1.00  0.00    -0.744 OA
ENDBRANCH  62  63
ENDBRANCH  43  57
BRANCH  44  67
ATOM     67  C   UNL     1      12.098  -0.474   7.745  1.00  0.00    -0.014 A 
ATOM     68  C   UNL     1      12.881   0.206   6.798  1.00  0.00     0.010 A 
ATOM     69  C   UNL     1      11.645   0.218   8.885  1.00  0.00     0.010 A 
ATOM     70  C   UNL     1      13.209   1.552   6.988  1.00  0.00     0.020 A 
ATOM     71  C   UNL     1      11.948   1.570   9.064  1.00  0.00     0.020 A 
ATOM     72  C   UNL     1      12.738   2.226   8.118  1.00  0.00     0.054 A 
BRANCH  72  73
ATOM     73  S   UNL     1      13.113   3.991   8.313  1.00  0.00     0.124 S 
ATOM     74  O   UNL     1      14.486   3.955   8.807  1.00  0.00    -0.237 OA
ATOM     75  O   UNL     1      12.941   4.507   6.957  1.00  0.00    -0.237 OA
ATOM     76  O   UNL     1      12.111   4.447   9.275  1.00  0.00    -0.744 OA
ENDBRANCH  72  73
ENDBRANCH  44  67
BRANCH  56  77
ATOM     77  C   UNL     1      15.560  -6.501   8.162  1.00  0.00    -0.014 A 
ATOM     78  C   UNL     1      16.053  -6.432   9.477  1.00  0.00     0.010 A 
ATOM     79  C   UNL     1      16.414  -6.916   7.125  1.00  0.00     0.010 A 
ATOM     80  C   UNL     1      17.387  -6.748   9.745  1.00  0.00     0.020 A 
ATOM     81  C   UNL     1      17.742  -7.252   7.393  1.00  0.00     0.020 A 
ATOM     82  C   UNL     1      18.224  -7.153   8.701  1.00  0.00     0.054 A 
BRANCH  82  83
ATOM     83  S   UNL     1      19.942  -7.598   9.076  1.00  0.00     0.124 S 
ATOM     84  O   UNL     1      20.571  -6.288   9.214  1.00  0.00    -0.237 OA
ATOM     85  O   UNL     1      19.814  -8.367  10.312  1.00  0.00    -0.237 OA
ATOM     86  O   UNL     1      20.359  -8.372   7.909  1.00  0.00    -0.744 OA
ENDBRANCH  82  83
ENDBRANCH  56  77
ENDBRANCH  30  31
ENDBRANCH  23  25
ENDBRANCH  22  23
ENDBRANCH   1  22
TORSDOF 16
