REMARK SMILES CCC(CC)[C@@H](C)[NH2+][C@@H](C)[C@@H](C)C(=O)OCCOC(=O)c1ccc(-c2c3nc(c(-c4ccc(S(=O)(=O)[O-])cc4)c4ccc([nH]4)c(-c4ccc(S(=O)(=O)[O-])cc4)c4nc(c(-c5ccc(S(=O)(=O)[O-])cc5)c5ccc2[nH]5)C=C4)C=C3)cc1
REMARK SMILES IDX 16 1 15 2 13 3 14 4 11 5 12 6 9 7 10 8 8 9 6 12 7 13 3 14
REMARK SMILES IDX 2 15 1 16 4 17 5 18 17 19 18 20 19 21 20 22 21 23 22 24
REMARK SMILES IDX 80 25 23 26 79 27 24 28 25 29 26 30 73 31 27 32 78 33 72 34
REMARK SMILES IDX 74 35 28 36 77 37 71 38 70 39 29 41 59 42 40 43 58 44 41 45
REMARK SMILES IDX 44 46 57 47 75 48 42 49 43 50 56 52 76 53 45 54 30 55 31 56
REMARK SMILES IDX 39 57 32 58 38 59 33 60 34 61 35 62 36 63 37 64 60 65 61 66
REMARK SMILES IDX 69 67 62 68 68 69 63 70 64 71 65 72 66 73 67 74 46 75 47 76
REMARK SMILES IDX 55 77 48 78 54 79 49 80 50 81 51 82 52 83 53 84
REMARK H PARENT 8 10 8 11 74 40 44 51
REMARK Flexibility Score: inf
ROOT
ATOM      1  C   UNL     1      -1.290  -8.516   5.194  1.00  0.00     0.274 C 
ENDROOT
BRANCH   1   2
ATOM      2  O   UNL     1      -0.911  -7.233   4.651  1.00  0.00    -0.462 OA
BRANCH   2   3
ATOM      3  C   UNL     1       0.164  -6.659   5.253  1.00  0.00     0.314 C 
ATOM      4  O   UNL     1       0.704  -7.098   6.264  1.00  0.00    -0.252 OA
BRANCH   3   5
ATOM      5  C   UNL     1       0.638  -5.373   4.592  1.00  0.00     0.154 C 
ATOM      6  C   UNL     1       0.134  -4.229   5.478  1.00  0.00     0.026 C 
BRANCH   5   7
ATOM      7  C   UNL     1       0.285  -5.179   3.087  1.00  0.00     0.193 C 
ATOM      8  C   UNL     1       0.768  -6.366   2.245  1.00  0.00     0.076 C 
BRANCH   7   9
ATOM      9  N   UNL     1       0.926  -3.923   2.647  1.00  0.00    -0.341 N 
ATOM     10  H   UNL     1       0.760  -3.233   3.380  1.00  0.00     0.346 HD
ATOM     11  H   UNL     1       1.894  -4.195   2.478  1.00  0.00     0.346 HD
BRANCH   9  12
ATOM     12  C   UNL     1       0.516  -3.304   1.376  1.00  0.00     0.182 C 
ATOM     13  C   UNL     1       1.208  -3.998   0.191  1.00  0.00     0.075 C 
BRANCH  12  14
ATOM     14  C   UNL     1       0.907  -1.776   1.430  1.00  0.00     0.046 C 
BRANCH  14  15
ATOM     15  C   UNL     1       0.472  -1.011   0.150  1.00  0.00     0.006 C 
ATOM     16  C   UNL     1       0.931   0.443   0.103  1.00  0.00     0.004 C 
ENDBRANCH  14  15
BRANCH  14  17
ATOM     17  C   UNL     1       0.401  -1.061   2.713  1.00  0.00     0.006 C 
ATOM     18  C   UNL     1      -1.112  -1.010   2.871  1.00  0.00     0.004 C 
ENDBRANCH  14  17
ENDBRANCH  12  14
ENDBRANCH   9  12
ENDBRANCH   7   9
ENDBRANCH   5   7
ENDBRANCH   3   5
ENDBRANCH   2   3
ENDBRANCH   1   2
BRANCH   1  19
ATOM     19  C   UNL     1      -0.591  -9.656   4.450  1.00  0.00     0.275 C 
BRANCH  19  20
ATOM     20  O   UNL     1       0.834  -9.468   4.486  1.00  0.00    -0.458 OA
BRANCH  20  21
ATOM     21  C   UNL     1       1.504  -9.866   3.382  1.00  0.00     0.338 C 
ATOM     22  O   UNL     1       1.023 -10.435   2.407  1.00  0.00    -0.246 OA
BRANCH  21  23
ATOM     23  C   UNL     1       2.939  -9.528   3.494  1.00  0.00     0.060 A 
ATOM     24  C   UNL     1       3.378  -8.350   4.108  1.00  0.00     0.016 A 
ATOM     25  C   UNL     1       3.869 -10.394   2.914  1.00  0.00     0.016 A 
ATOM     26  C   UNL     1       4.737  -8.024   4.117  1.00  0.00     0.010 A 
ATOM     27  C   UNL     1       5.232 -10.098   2.979  1.00  0.00     0.010 A 
ATOM     28  C   UNL     1       5.680  -8.905   3.570  1.00  0.00    -0.014 A 
BRANCH  28  29
ATOM     29  C   UNL     1       7.139  -8.620   3.621  1.00  0.00     0.031 A 
ATOM     30  C   UNL     1       7.922  -8.447   2.347  1.00  0.00     0.074 A 
ATOM     31  C   UNL     1       7.776  -8.594   4.809  1.00  0.00     0.049 A 
ATOM     32  N   UNL     1       9.218  -8.405   2.173  1.00  0.00    -0.248 NA
ATOM     33  C   UNL     1       7.144  -8.318   1.105  1.00  0.00     0.031 C 
ATOM     34  C   UNL     1       7.135  -8.723   6.119  1.00  0.00     0.029 A 
ATOM     35  N   UNL     1       9.112  -8.476   5.103  1.00  0.00    -0.354 N 
ATOM     36  C   UNL     1       9.414  -8.284   0.802  1.00  0.00     0.074 A 
ATOM     37  C   UNL     1       8.102  -8.264   0.189  1.00  0.00     0.031 C 
ATOM     38  C   UNL     1       8.076  -8.678   7.075  1.00  0.00     0.029 A 
ATOM     39  C   UNL     1       9.389  -8.585   6.445  1.00  0.00     0.049 A 
ATOM     40  H   UNL     1       9.804  -8.328   4.419  1.00  0.00     0.167 HD
ATOM     41  C   UNL     1      10.581  -8.202   0.117  1.00  0.00     0.031 A 
ATOM     42  C   UNL     1      10.565  -8.650   7.098  1.00  0.00     0.031 A 
ATOM     43  C   UNL     1      11.883  -8.213   0.731  1.00  0.00     0.049 A 
ATOM     44  C   UNL     1      11.846  -8.606   6.314  1.00  0.00     0.074 A 
ATOM     45  C   UNL     1      13.123  -8.113   0.123  1.00  0.00     0.029 A 
ATOM     46  N   UNL     1      12.116  -8.328   2.093  1.00  0.00    -0.354 N 
ATOM     47  N   UNL     1      12.014  -8.504   5.017  1.00  0.00    -0.248 NA
ATOM     48  C   UNL     1      13.096  -8.693   7.081  1.00  0.00     0.031 C 
ATOM     49  C   UNL     1      14.106  -8.210   1.113  1.00  0.00     0.029 A 
ATOM     50  C   UNL     1      13.478  -8.320   2.343  1.00  0.00     0.049 A 
ATOM     51  H   UNL     1      11.416  -8.404   2.781  1.00  0.00     0.167 HD
ATOM     52  C   UNL     1      13.389  -8.496   4.814  1.00  0.00     0.074 A 
ATOM     53  C   UNL     1      14.006  -8.590   6.122  1.00  0.00     0.031 C 
ATOM     54  C   UNL     1      14.078  -8.418   3.649  1.00  0.00     0.031 A 
BRANCH  41  55
ATOM     55  C   UNL     1      10.505  -8.129  -1.385  1.00  0.00    -0.014 A 
ATOM     56  C   UNL     1      10.095  -6.954  -2.039  1.00  0.00     0.010 A 
ATOM     57  C   UNL     1      10.899  -9.239  -2.155  1.00  0.00     0.010 A 
ATOM     58  C   UNL     1      10.047  -6.902  -3.435  1.00  0.00     0.020 A 
ATOM     59  C   UNL     1      10.875  -9.183  -3.551  1.00  0.00     0.020 A 
ATOM     60  C   UNL     1      10.433  -8.019  -4.183  1.00  0.00     0.054 A 
BRANCH  60  61
ATOM     61  S   UNL     1      10.383  -7.918  -5.994  1.00  0.00     0.124 S 
ATOM     62  O   UNL     1       8.950  -8.019  -6.261  1.00  0.00    -0.237 OA
ATOM     63  O   UNL     1      10.980  -6.612  -6.261  1.00  0.00    -0.237 OA
ATOM     64  O   UNL     1      11.179  -9.064  -6.427  1.00  0.00    -0.744 OA
ENDBRANCH  60  61
ENDBRANCH  41  55
BRANCH  42  65
ATOM     65  C   UNL     1      10.580  -8.801   8.577  1.00  0.00    -0.014 A 
ATOM     66  C   UNL     1      10.968  -7.729   9.399  1.00  0.00     0.010 A 
ATOM     67  C   UNL     1      10.182 -10.012   9.172  1.00  0.00     0.010 A 
ATOM     68  C   UNL     1      10.966  -7.868  10.789  1.00  0.00     0.020 A 
ATOM     69  C   UNL     1      10.154 -10.146  10.563  1.00  0.00     0.020 A 
ATOM     70  C   UNL     1      10.556  -9.075  11.363  1.00  0.00     0.054 A 
BRANCH  70  71
ATOM     71  S   UNL     1      10.499  -9.214  13.171  1.00  0.00     0.124 S 
ATOM     72  O   UNL     1      11.907  -9.399  13.505  1.00  0.00    -0.237 OA
ATOM     73  O   UNL     1       9.916  -7.935  13.570  1.00  0.00    -0.237 OA
ATOM     74  O   UNL     1       9.642 -10.376  13.396  1.00  0.00    -0.744 OA
ENDBRANCH  70  71
ENDBRANCH  42  65
BRANCH  54  75
ATOM     75  C   UNL     1      15.579  -8.396   3.739  1.00  0.00    -0.014 A 
ATOM     76  C   UNL     1      16.308  -9.563   4.025  1.00  0.00     0.010 A 
ATOM     77  C   UNL     1      16.270  -7.195   3.495  1.00  0.00     0.010 A 
ATOM     78  C   UNL     1      17.703  -9.524   4.095  1.00  0.00     0.020 A 
ATOM     79  C   UNL     1      17.665  -7.157   3.541  1.00  0.00     0.020 A 
ATOM     80  C   UNL     1      18.373  -8.319   3.856  1.00  0.00     0.054 A 
BRANCH  80  81
ATOM     81  S   UNL     1      20.186  -8.298   3.915  1.00  0.00     0.124 S 
ATOM     82  O   UNL     1      20.443  -8.310   5.352  1.00  0.00    -0.237 OA
ATOM     83  O   UNL     1      20.547  -9.521   3.201  1.00  0.00    -0.237 OA
ATOM     84  O   UNL     1      20.539  -7.057   3.228  1.00  0.00    -0.744 OA
ENDBRANCH  80  81
ENDBRANCH  54  75
ENDBRANCH  28  29
ENDBRANCH  21  23
ENDBRANCH  20  21
ENDBRANCH  19  20
ENDBRANCH   1  19
TORSDOF 20
