REMARK SMILES Cc1nc(CSCC(=O)N2CCCC[C@@H]2C(=O)OCCOC(=O)c2ccc(-c3c4nc(c(-c5ccc(S(=O)(=O)[O-])cc5)c5ccc([nH]5)c(-c5ccc(S(=O)(=O)[O-])cc5)c5nc(c(-c6ccc(S(=O)(=O)[O-])cc6)c6ccc3[nH]6)C=C5)C=C4)cc2)cs1
REMARK SMILES IDX 19 1 18 2 16 3 17 4 15 5 10 6 11 7 12 8 14 9 13 10 8 11 9 12
REMARK SMILES IDX 7 13 6 14 5 15 4 16 1 17 2 18 3 19 85 20 84 21 20 22 21 23
REMARK SMILES IDX 22 24 23 25 24 26 25 27 83 28 26 29 82 30 27 31 28 32 29 33
REMARK SMILES IDX 76 34 30 35 81 36 75 37 77 38 31 39 80 40 74 41 73 42 32 44
REMARK SMILES IDX 62 45 43 46 61 47 44 48 47 49 60 50 78 51 45 52 46 53 59 55
REMARK SMILES IDX 79 56 48 57 33 58 34 59 42 60 35 61 41 62 36 63 37 64 38 65
REMARK SMILES IDX 39 66 40 67 63 68 64 69 72 70 65 71 71 72 66 73 67 74 68 75
REMARK SMILES IDX 69 76 70 77 49 78 50 79 58 80 51 81 57 82 52 83 53 84 54 85
REMARK SMILES IDX 55 86 56 87
REMARK H PARENT 77 43 47 54
REMARK Flexibility Score: inf
ROOT
ATOM      1  C   UNL     1       2.301  -3.452   1.349  1.00  0.00     0.274 C 
ENDROOT
BRANCH   1   2
ATOM      2  O   UNL     1       2.244  -4.541   0.406  1.00  0.00    -0.461 OA
BRANCH   2   3
ATOM      3  C   UNL     1       2.740  -4.277  -0.830  1.00  0.00     0.328 C 
ATOM      4  O   UNL     1       3.251  -3.208  -1.158  1.00  0.00    -0.250 OA
BRANCH   3   5
ATOM      5  C   UNL     1       2.585  -5.435  -1.826  1.00  0.00     0.195 C 
ATOM      6  N   UNL     1       1.841  -5.079  -3.041  1.00  0.00    -0.328 N 
ATOM      7  C   UNL     1       1.741  -6.080  -4.090  1.00  0.00     0.120 C 
ATOM      8  C   UNL     1       1.396  -7.467  -3.535  1.00  0.00     0.022 C 
ATOM      9  C   UNL     1       2.194  -6.791  -1.253  1.00  0.00     0.037 C 
ATOM     10  C   UNL     1       2.291  -7.848  -2.356  1.00  0.00     0.005 C 
BRANCH   6  11
ATOM     11  C   UNL     1       0.961  -4.005  -3.033  1.00  0.00     0.233 C 
ATOM     12  O   UNL     1      -0.046  -4.005  -2.334  1.00  0.00    -0.274 OA
BRANCH  11  13
ATOM     13  C   UNL     1       1.467  -2.847  -3.899  1.00  0.00     0.170 C 
BRANCH  13  14
ATOM     14  S   UNL     1       0.755  -1.225  -3.476  1.00  0.00    -0.146 SA
BRANCH  14  15
ATOM     15  C   UNL     1       1.285  -1.105  -1.736  1.00  0.00     0.127 C 
BRANCH  15  16
ATOM     16  C   UNL     1       0.465  -0.124  -0.964  1.00  0.00     0.061 A 
ATOM     17  C   UNL     1      -2.893   0.536   0.284  1.00  0.00     0.079 C 
ATOM     18  C   UNL     1      -1.446   0.531  -0.048  1.00  0.00     0.090 A 
ATOM     19  N   UNL     1      -0.872  -0.422  -0.741  1.00  0.00    -0.246 NA
ATOM     20  S   UNL     1      -0.408   1.803   0.452  1.00  0.00    -0.127 S 
ATOM     21  C   UNL     1       0.899   1.038  -0.354  1.00  0.00     0.091 A 
ENDBRANCH  15  16
ENDBRANCH  14  15
ENDBRANCH  13  14
ENDBRANCH  11  13
ENDBRANCH   6  11
ENDBRANCH   3   5
ENDBRANCH   2   3
ENDBRANCH   1   2
BRANCH   1  22
ATOM     22  C   UNL     1       3.582  -3.451   2.193  1.00  0.00     0.275 C 
BRANCH  22  23
ATOM     23  O   UNL     1       4.761  -3.150   1.422  1.00  0.00    -0.458 OA
BRANCH  23  24
ATOM     24  C   UNL     1       5.337  -4.222   0.834  1.00  0.00     0.338 C 
ATOM     25  O   UNL     1       4.972  -5.391   0.929  1.00  0.00    -0.246 OA
BRANCH  24  26
ATOM     26  C   UNL     1       6.388  -3.811  -0.110  1.00  0.00     0.060 A 
ATOM     27  C   UNL     1       6.329  -4.346  -1.402  1.00  0.00     0.016 A 
ATOM     28  C   UNL     1       7.470  -3.021   0.276  1.00  0.00     0.016 A 
ATOM     29  C   UNL     1       7.355  -4.128  -2.308  1.00  0.00     0.010 A 
ATOM     30  C   UNL     1       8.518  -2.817  -0.629  1.00  0.00     0.010 A 
ATOM     31  C   UNL     1       8.476  -3.397  -1.910  1.00  0.00    -0.014 A 
BRANCH  31  32
ATOM     32  C   UNL     1       9.668  -3.405  -2.785  1.00  0.00     0.031 A 
ATOM     33  C   UNL     1      10.781  -4.364  -2.475  1.00  0.00     0.074 A 
ATOM     34  C   UNL     1       9.712  -2.638  -3.888  1.00  0.00     0.049 A 
ATOM     35  N   UNL     1      11.934  -4.518  -3.072  1.00  0.00    -0.248 NA
ATOM     36  C   UNL     1      10.559  -5.281  -1.344  1.00  0.00     0.031 C 
ATOM     37  C   UNL     1       8.637  -1.761  -4.351  1.00  0.00     0.029 A 
ATOM     38  N   UNL     1      10.698  -2.490  -4.827  1.00  0.00    -0.354 N 
ATOM     39  C   UNL     1      12.585  -5.530  -2.377  1.00  0.00     0.074 A 
ATOM     40  C   UNL     1      11.704  -5.947  -1.308  1.00  0.00     0.031 C 
ATOM     41  C   UNL     1       9.021  -1.171  -5.495  1.00  0.00     0.029 A 
ATOM     42  C   UNL     1      10.384  -1.589  -5.814  1.00  0.00     0.049 A 
ATOM     43  H   UNL     1      11.550  -2.983  -4.796  1.00  0.00     0.167 HD
ATOM     44  C   UNL     1      13.810  -6.060  -2.607  1.00  0.00     0.031 A 
ATOM     45  C   UNL     1      11.127  -1.136  -6.842  1.00  0.00     0.031 A 
ATOM     46  C   UNL     1      14.684  -5.624  -3.661  1.00  0.00     0.049 A 
ATOM     47  C   UNL     1      12.530  -1.650  -7.008  1.00  0.00     0.074 A 
ATOM     48  C   UNL     1      15.960  -6.064  -3.965  1.00  0.00     0.029 A 
ATOM     49  N   UNL     1      14.369  -4.637  -4.585  1.00  0.00    -0.354 N 
ATOM     50  N   UNL     1      13.160  -2.568  -6.312  1.00  0.00    -0.248 NA
ATOM     51  C   UNL     1      13.328  -1.059  -8.090  1.00  0.00     0.031 C 
ATOM     52  C   UNL     1      16.434  -5.309  -5.046  1.00  0.00     0.029 A 
ATOM     53  C   UNL     1      15.434  -4.436  -5.447  1.00  0.00     0.049 A 
ATOM     54  H   UNL     1      13.514  -4.151  -4.622  1.00  0.00     0.167 HD
ATOM     55  C   UNL     1      14.422  -2.679  -6.885  1.00  0.00     0.074 A 
ATOM     56  C   UNL     1      14.462  -1.740  -7.989  1.00  0.00     0.031 C 
ATOM     57  C   UNL     1      15.453  -3.488  -6.532  1.00  0.00     0.031 A 
BRANCH  44  58
ATOM     58  C   UNL     1      14.285  -7.114  -1.644  1.00  0.00    -0.014 A 
ATOM     59  C   UNL     1      13.729  -8.407  -1.637  1.00  0.00     0.010 A 
ATOM     60  C   UNL     1      15.274  -6.790  -0.698  1.00  0.00     0.010 A 
ATOM     61  C   UNL     1      14.107  -9.333  -0.661  1.00  0.00     0.020 A 
ATOM     62  C   UNL     1      15.674  -7.721   0.263  1.00  0.00     0.020 A 
ATOM     63  C   UNL     1      15.066  -8.978   0.293  1.00  0.00     0.054 A 
BRANCH  63  64
ATOM     64  S   UNL     1      15.510 -10.178   1.579  1.00  0.00     0.124 S 
ATOM     65  O   UNL     1      14.364 -10.087   2.482  1.00  0.00    -0.237 OA
ATOM     66  O   UNL     1      15.621 -11.428   0.832  1.00  0.00    -0.237 OA
ATOM     67  O   UNL     1      16.767  -9.663   2.114  1.00  0.00    -0.744 OA
ENDBRANCH  63  64
ENDBRANCH  44  58
BRANCH  45  68
ATOM     68  C   UNL     1      10.558  -0.127  -7.775  1.00  0.00    -0.014 A 
ATOM     69  C   UNL     1      10.222  -0.484  -9.091  1.00  0.00     0.010 A 
ATOM     70  C   UNL     1      10.316   1.189  -7.339  1.00  0.00     0.010 A 
ATOM     71  C   UNL     1       9.648   0.455  -9.954  1.00  0.00     0.020 A 
ATOM     72  C   UNL     1       9.721   2.124  -8.191  1.00  0.00     0.020 A 
ATOM     73  C   UNL     1       9.395   1.751  -9.496  1.00  0.00     0.054 A 
BRANCH  73  74
ATOM     74  S   UNL     1       8.574   2.928 -10.607  1.00  0.00     0.124 S 
ATOM     75  O   UNL     1       9.647   3.267 -11.536  1.00  0.00    -0.237 OA
ATOM     76  O   UNL     1       7.484   2.129 -11.162  1.00  0.00    -0.237 OA
ATOM     77  O   UNL     1       8.155   4.005  -9.713  1.00  0.00    -0.744 OA
ENDBRANCH  73  74
ENDBRANCH  45  68
BRANCH  57  78
ATOM     78  C   UNL     1      16.701  -3.411  -7.368  1.00  0.00    -0.014 A 
ATOM     79  C   UNL     1      17.588  -2.327  -7.252  1.00  0.00     0.010 A 
ATOM     80  C   UNL     1      17.013  -4.467  -8.244  1.00  0.00     0.010 A 
ATOM     81  C   UNL     1      18.755  -2.287  -8.019  1.00  0.00     0.020 A 
ATOM     82  C   UNL     1      18.191  -4.441  -8.995  1.00  0.00     0.020 A 
ATOM     83  C   UNL     1      19.048  -3.344  -8.887  1.00  0.00     0.054 A 
BRANCH  83  84
ATOM     84  S   UNL     1      20.591  -3.294  -9.840  1.00  0.00     0.124 S 
ATOM     85  O   UNL     1      20.268  -2.332 -10.889  1.00  0.00    -0.237 OA
ATOM     86  O   UNL     1      21.566  -2.841  -8.850  1.00  0.00    -0.237 OA
ATOM     87  O   UNL     1      20.764  -4.673 -10.289  1.00  0.00    -0.744 OA
ENDBRANCH  83  84
ENDBRANCH  57  78
ENDBRANCH  31  32
ENDBRANCH  24  26
ENDBRANCH  23  24
ENDBRANCH  22  23
ENDBRANCH   1  22
TORSDOF 19
