REMARK SMILES CCCCCCCNC(=O)Oc1cccc(-c2ccc([C@@H](C)C(=O)OCCOC(=O)c3ccc(-c4c5nc(c(-c6ccc(S(=O)(=O)[O-])cc6)c6ccc([nH]6)c(-c6ccc(S(=O)(=O)[O-])cc6)c6nc(c(-c7ccc(S(=O)(=O)[O-])cc7)c7ccc4[nH]7)C=C6)C=C5)cc3)cc2F)c1
REMARK SMILES IDX 21 1 22 2 20 3 17 4 18 5 92 6 19 7 91 8 93 9 16 10 12 11
REMARK SMILES IDX 13 12 94 13 14 14 15 15 11 16 9 17 8 18 10 20 7 21 6 22 5 23
REMARK SMILES IDX 4 24 3 25 2 26 1 27 23 28 24 29 25 30 26 31 27 32 28 33
REMARK SMILES IDX 29 34 30 35 31 36 32 37 90 38 33 39 89 40 34 41 35 42 36 43
REMARK SMILES IDX 83 44 37 45 88 46 82 47 84 48 38 49 87 50 81 51 80 52 39 54
REMARK SMILES IDX 69 55 50 56 68 57 51 58 54 59 67 60 85 61 52 62 53 63 66 65
REMARK SMILES IDX 86 66 55 67 40 68 41 69 49 70 42 71 48 72 43 73 44 74 45 75
REMARK SMILES IDX 46 76 47 77 70 78 71 79 79 80 72 81 78 82 73 83 74 84 75 85
REMARK SMILES IDX 76 86 77 87 56 88 57 89 65 90 58 91 64 92 59 93 60 94 61 95
REMARK SMILES IDX 62 96 63 97
REMARK H PARENT 8 19 84 53 54 64
REMARK Flexibility Score: inf
ROOT
ATOM      1  C   UNL     1     -10.633  -8.320   6.399  1.00  0.00     0.126 C 
ATOM      2  C   UNL     1     -11.437  -9.619   6.413  1.00  0.00     0.025 C 
ENDROOT
BRANCH   1   3
ATOM      3  C   UNL     1      -9.290  -8.478   5.704  1.00  0.00    -0.031 A 
ATOM      4  C   UNL     1      -6.809  -8.778   4.334  1.00  0.00     0.018 A 
ATOM      5  C   UNL     1      -7.122  -9.562   5.457  1.00  0.00     0.012 A 
ATOM      6  C   UNL     1      -7.756  -7.828   3.932  1.00  0.00     0.131 A 
ATOM      7  C   UNL     1      -8.343  -9.420   6.127  1.00  0.00     0.005 A 
ATOM      8  C   UNL     1      -8.974  -7.676   4.597  1.00  0.00     0.044 A 
ATOM      9  F   UNL     1      -7.527  -7.056   2.857  1.00  0.00    -0.206 F 
BRANCH   4  10
ATOM     10  C   UNL     1      -5.549  -8.987   3.601  1.00  0.00    -0.012 A 
ATOM     11  C   UNL     1      -3.511  -8.155   2.579  1.00  0.00     0.133 A 
ATOM     12  C   UNL     1      -3.160  -9.437   2.161  1.00  0.00     0.047 A 
ATOM     13  C   UNL     1      -4.696  -7.919   3.280  1.00  0.00     0.056 A 
ATOM     14  C   UNL     1      -3.994 -10.505   2.471  1.00  0.00     0.004 A 
ATOM     15  C   UNL     1      -5.176 -10.280   3.183  1.00  0.00     0.009 A 
BRANCH  11  16
ATOM     16  O   UNL     1      -2.689  -7.102   2.151  1.00  0.00    -0.410 OA
BRANCH  16  17
ATOM     17  C   UNL     1      -2.160  -6.265   3.121  1.00  0.00     0.412 C 
ATOM     18  N   UNL     1      -1.399  -5.255   2.598  1.00  0.00    -0.321 N 
ATOM     19  H   UNL     1      -1.018  -4.613   3.240  1.00  0.00     0.167 HD
ATOM     20  O   UNL     1      -2.299  -6.383   4.333  1.00  0.00    -0.224 OA
BRANCH  18  21
ATOM     21  C   UNL     1      -1.093  -5.030   1.198  1.00  0.00     0.119 C 
BRANCH  21  22
ATOM     22  C   UNL     1      -1.593  -3.674   0.702  1.00  0.00     0.021 C 
BRANCH  22  23
ATOM     23  C   UNL     1      -0.977  -2.459   1.407  1.00  0.00     0.002 C 
BRANCH  23  24
ATOM     24  C   UNL     1       0.551  -2.360   1.343  1.00  0.00     0.000 C 
BRANCH  24  25
ATOM     25  C   UNL     1       1.145  -2.269  -0.067  1.00  0.00    -0.000 C 
BRANCH  25  26
ATOM     26  C   UNL     1       0.694  -1.061  -0.892  1.00  0.00    -0.003 C 
ATOM     27  C   UNL     1       1.064   0.274  -0.263  1.00  0.00     0.004 C 
ENDBRANCH  25  26
ENDBRANCH  24  25
ENDBRANCH  23  24
ENDBRANCH  22  23
ENDBRANCH  21  22
ENDBRANCH  18  21
ENDBRANCH  16  17
ENDBRANCH  11  16
ENDBRANCH   4  10
ENDBRANCH   1   3
BRANCH   1  28
ATOM     28  C   UNL     1     -10.597  -7.718   7.800  1.00  0.00     0.313 C 
ATOM     29  O   UNL     1     -11.572  -7.163   8.295  1.00  0.00    -0.252 OA
BRANCH  28  30
ATOM     30  O   UNL     1      -9.411  -7.890   8.439  1.00  0.00    -0.462 OA
BRANCH  30  31
ATOM     31  C   UNL     1      -9.270  -7.267   9.729  1.00  0.00     0.274 C 
BRANCH  31  32
ATOM     32  C   UNL     1      -8.417  -6.001   9.632  1.00  0.00     0.275 C 
BRANCH  32  33
ATOM     33  O   UNL     1      -9.101  -4.974   8.893  1.00  0.00    -0.458 OA
BRANCH  33  34
ATOM     34  C   UNL     1      -8.737  -4.851   7.595  1.00  0.00     0.338 C 
ATOM     35  O   UNL     1      -7.876  -5.473   7.001  1.00  0.00    -0.246 OA
BRANCH  34  36
ATOM     36  C   UNL     1      -9.642  -3.898   6.938  1.00  0.00     0.060 A 
ATOM     37  C   UNL     1     -10.660  -4.403   6.128  1.00  0.00     0.016 A 
ATOM     38  C   UNL     1      -9.460  -2.523   7.079  1.00  0.00     0.016 A 
ATOM     39  C   UNL     1     -11.511  -3.534   5.453  1.00  0.00     0.010 A 
ATOM     40  C   UNL     1     -10.328  -1.650   6.416  1.00  0.00     0.010 A 
ATOM     41  C   UNL     1     -11.359  -2.150   5.601  1.00  0.00    -0.014 A 
BRANCH  41  42
ATOM     42  C   UNL     1     -12.299  -1.228   4.918  1.00  0.00     0.031 A 
ATOM     43  C   UNL     1     -11.838  -0.402   3.752  1.00  0.00     0.074 A 
ATOM     44  C   UNL     1     -13.569  -1.140   5.356  1.00  0.00     0.049 A 
ATOM     45  N   UNL     1     -12.486   0.524   3.094  1.00  0.00    -0.248 NA
ATOM     46  C   UNL     1     -10.473  -0.649   3.262  1.00  0.00     0.031 C 
ATOM     47  C   UNL     1     -14.142  -1.925   6.453  1.00  0.00     0.029 A 
ATOM     48  N   UNL     1     -14.608  -0.349   4.936  1.00  0.00    -0.354 N 
ATOM     49  C   UNL     1     -11.603   0.988   2.127  1.00  0.00     0.074 A 
ATOM     50  C   UNL     1     -10.370   0.248   2.290  1.00  0.00     0.031 C 
ATOM     51  C   UNL     1     -15.428  -1.577   6.617  1.00  0.00     0.029 A 
ATOM     52  C   UNL     1     -15.754  -0.508   5.678  1.00  0.00     0.049 A 
ATOM     53  H   UNL     1     -14.539   0.274   4.176  1.00  0.00     0.167 HD
ATOM     54  C   UNL     1     -11.805   1.947   1.192  1.00  0.00     0.031 A 
ATOM     55  C   UNL     1     -16.925   0.156   5.634  1.00  0.00     0.031 A 
ATOM     56  C   UNL     1     -13.035   2.680   1.038  1.00  0.00     0.049 A 
ATOM     57  C   UNL     1     -17.097   1.266   4.635  1.00  0.00     0.074 A 
ATOM     58  C   UNL     1     -13.344   3.659   0.110  1.00  0.00     0.029 A 
ATOM     59  N   UNL     1     -14.158   2.519   1.836  1.00  0.00    -0.354 N 
ATOM     60  N   UNL     1     -16.253   1.693   3.726  1.00  0.00    -0.248 NA
ATOM     61  C   UNL     1     -18.375   1.990   4.662  1.00  0.00     0.031 C 
ATOM     62  C   UNL     1     -14.636   4.125   0.379  1.00  0.00     0.029 A 
ATOM     63  C   UNL     1     -15.150   3.402   1.442  1.00  0.00     0.049 A 
ATOM     64  H   UNL     1     -14.238   1.872   2.574  1.00  0.00     0.167 HD
ATOM     65  C   UNL     1     -16.901   2.731   3.068  1.00  0.00     0.074 A 
ATOM     66  C   UNL     1     -18.214   2.853   3.667  1.00  0.00     0.031 C 
ATOM     67  C   UNL     1     -16.447   3.517   2.060  1.00  0.00     0.031 A 
BRANCH  54  68
ATOM     68  C   UNL     1     -10.654   2.290   0.285  1.00  0.00    -0.014 A 
ATOM     69  C   UNL     1     -10.264   1.432  -0.758  1.00  0.00     0.010 A 
ATOM     70  C   UNL     1      -9.982   3.515   0.452  1.00  0.00     0.010 A 
ATOM     71  C   UNL     1      -9.202   1.778  -1.598  1.00  0.00     0.020 A 
ATOM     72  C   UNL     1      -8.933   3.874  -0.399  1.00  0.00     0.020 A 
ATOM     73  C   UNL     1      -8.539   2.996  -1.410  1.00  0.00     0.054 A 
BRANCH  73  74
ATOM     74  S   UNL     1      -7.178   3.432  -2.528  1.00  0.00     0.124 S 
ATOM     75  O   UNL     1      -6.108   2.557  -2.056  1.00  0.00    -0.237 OA
ATOM     76  O   UNL     1      -7.723   3.103  -3.843  1.00  0.00    -0.237 OA
ATOM     77  O   UNL     1      -6.970   4.857  -2.283  1.00  0.00    -0.744 OA
ENDBRANCH  73  74
ENDBRANCH  54  68
BRANCH  55  78
ATOM     78  C   UNL     1     -18.003  -0.178   6.603  1.00  0.00    -0.014 A 
ATOM     79  C   UNL     1     -19.181  -0.814   6.176  1.00  0.00     0.010 A 
ATOM     80  C   UNL     1     -17.846   0.129   7.967  1.00  0.00     0.010 A 
ATOM     81  C   UNL     1     -20.187  -1.127   7.095  1.00  0.00     0.020 A 
ATOM     82  C   UNL     1     -18.838  -0.206   8.892  1.00  0.00     0.020 A 
ATOM     83  C   UNL     1     -20.008  -0.823   8.447  1.00  0.00     0.054 A 
BRANCH  83  84
ATOM     84  S   UNL     1     -21.301  -1.288   9.633  1.00  0.00     0.124 S 
ATOM     85  O   UNL     1     -22.309  -0.259   9.401  1.00  0.00    -0.237 OA
ATOM     86  O   UNL     1     -21.661  -2.636   9.198  1.00  0.00    -0.237 OA
ATOM     87  O   UNL     1     -20.620  -1.221  10.924  1.00  0.00    -0.744 OA
ENDBRANCH  83  84
ENDBRANCH  55  78
BRANCH  67  88
ATOM     88  C   UNL     1     -17.383   4.572   1.538  1.00  0.00    -0.014 A 
ATOM     89  C   UNL     1     -17.634   5.743   2.275  1.00  0.00     0.010 A 
ATOM     90  C   UNL     1     -17.983   4.411   0.276  1.00  0.00     0.010 A 
ATOM     91  C   UNL     1     -18.490   6.724   1.770  1.00  0.00     0.020 A 
ATOM     92  C   UNL     1     -18.820   5.401  -0.242  1.00  0.00     0.020 A 
ATOM     93  C   UNL     1     -19.079   6.546   0.514  1.00  0.00     0.054 A 
BRANCH  93  94
ATOM     94  S   UNL     1     -20.152   7.854  -0.141  1.00  0.00     0.124 S 
ATOM     95  O   UNL     1     -21.376   7.658   0.630  1.00  0.00    -0.237 OA
ATOM     96  O   UNL     1     -19.403   9.070   0.167  1.00  0.00    -0.237 OA
ATOM     97  O   UNL     1     -20.253   7.537  -1.564  1.00  0.00    -0.744 OA
ENDBRANCH  93  94
ENDBRANCH  67  88
ENDBRANCH  41  42
ENDBRANCH  34  36
ENDBRANCH  33  34
ENDBRANCH  32  33
ENDBRANCH  31  32
ENDBRANCH  30  31
ENDBRANCH  28  30
ENDBRANCH   1  28
TORSDOF 24
