REMARK SMILES Cc1cccc2c1N=CN1C2=[NH+]NC(=O)[C@@H]1CC(=O)OCCOC(=O)c1ccc(-c2c3nc(c(-c4ccc(S(=O)(=O)[O-])cc4)c4ccc([nH]4)c(-c4ccc(S(=O)(=O)[O-])cc4)c4nc(c(-c5ccc(S(=O)(=O)[O-])cc5)c5ccc2[nH]5)C=C4)C=C3)cc1
REMARK SMILES IDX 22 1 21 2 20 3 18 4 19 5 17 6 16 7 1 8 2 9 3 10 7 11 4 12
REMARK SMILES IDX 6 13 8 14 5 15 11 16 9 17 10 18 12 19 13 20 14 22 15 24
REMARK SMILES IDX 23 25 24 26 25 27 26 28 27 29 85 30 28 31 84 32 29 33 30 34
REMARK SMILES IDX 31 35 78 36 32 37 83 38 77 39 79 40 33 41 82 42 76 43 75 44
REMARK SMILES IDX 34 46 64 47 45 48 63 49 46 50 49 51 62 52 80 53 47 54 48 55
REMARK SMILES IDX 61 57 81 58 50 59 35 60 36 61 44 62 37 63 43 64 38 65 39 66
REMARK SMILES IDX 40 67 41 68 42 69 65 70 66 71 74 72 67 73 73 74 68 75 69 76
REMARK SMILES IDX 70 77 71 78 72 79 51 80 52 81 60 82 53 83 59 84 54 85 55 86
REMARK SMILES IDX 56 87 57 88 58 89
REMARK H PARENT 12 21 13 23 79 45 49 56
REMARK Flexibility Score: inf
ROOT
ATOM      1  C   UNL     1      -5.461  -1.746   4.117  1.00  0.00     0.275 C 
ENDROOT
BRANCH   1   2
ATOM      2  C   UNL     1      -4.739  -0.891   3.081  1.00  0.00     0.274 C 
BRANCH   2   3
ATOM      3  O   UNL     1      -3.554  -0.330   3.693  1.00  0.00    -0.462 OA
BRANCH   3   4
ATOM      4  C   UNL     1      -3.729   0.902   4.225  1.00  0.00     0.310 C 
ATOM      5  O   UNL     1      -4.689   1.632   3.995  1.00  0.00    -0.252 OA
BRANCH   4   6
ATOM      6  C   UNL     1      -2.666   1.325   5.202  1.00  0.00     0.183 C 
BRANCH   6   7
ATOM      7  C   UNL     1      -1.444   0.442   5.426  1.00  0.00     0.286 C 
ATOM      8  C   UNL     1       1.109   0.283  -0.482  1.00  0.00     0.047 C 
ATOM      9  C   UNL     1       1.128  -0.706   0.649  1.00  0.00    -0.024 A 
ATOM     10  C   UNL     1       1.501  -2.037   0.379  1.00  0.00     0.006 A 
ATOM     11  C   UNL     1       0.769  -0.337   1.955  1.00  0.00     0.085 A 
ATOM     12  C   UNL     1       1.543  -2.995   1.392  1.00  0.00     0.001 A 
ATOM     13  C   UNL     1       0.787  -1.330   2.954  1.00  0.00     0.092 A 
ATOM     14  N   UNL     1       0.320   0.981   2.212  1.00  0.00    -0.215 NA
ATOM     15  C   UNL     1       1.200  -2.641   2.688  1.00  0.00     0.019 A 
ATOM     16  C   UNL     1       0.084  -1.025   4.228  1.00  0.00     0.309 C 
ATOM     17  C   UNL     1      -0.341   1.152   3.311  1.00  0.00     0.317 C 
ATOM     18  N   UNL     1      -0.593   0.189   4.259  1.00  0.00    -0.202 N 
ATOM     19  N   UNL     1       0.080  -1.941   5.153  1.00  0.00    -0.169 N 
ATOM     20  N   UNL     1      -0.825  -1.803   6.155  1.00  0.00    -0.193 N 
ATOM     21  H   UNL     1       0.707  -2.700   5.127  1.00  0.00     0.340 HD
ATOM     22  C   UNL     1      -1.820  -0.855   6.136  1.00  0.00     0.300 C 
ATOM     23  H   UNL     1      -0.765  -2.408   6.930  1.00  0.00     0.216 HD
ATOM     24  O   UNL     1      -2.875  -1.019   6.741  1.00  0.00    -0.267 OA
ENDBRANCH   6   7
ENDBRANCH   4   6
ENDBRANCH   3   4
ENDBRANCH   2   3
ENDBRANCH   1   2
BRANCH   1  25
ATOM     25  O   UNL     1      -5.830  -0.919   5.233  1.00  0.00    -0.458 OA
BRANCH  25  26
ATOM     26  C   UNL     1      -5.787  -1.534   6.433  1.00  0.00     0.338 C 
ATOM     27  O   UNL     1      -5.539  -2.727   6.621  1.00  0.00    -0.246 OA
BRANCH  26  28
ATOM     28  C   UNL     1      -6.202  -0.614   7.514  1.00  0.00     0.060 A 
ATOM     29  C   UNL     1      -6.092   0.782   7.432  1.00  0.00     0.016 A 
ATOM     30  C   UNL     1      -6.760  -1.202   8.652  1.00  0.00     0.016 A 
ATOM     31  C   UNL     1      -6.557   1.582   8.484  1.00  0.00     0.010 A 
ATOM     32  C   UNL     1      -7.266  -0.407   9.673  1.00  0.00     0.010 A 
ATOM     33  C   UNL     1      -7.174   0.989   9.596  1.00  0.00    -0.014 A 
BRANCH  33  34
ATOM     34  C   UNL     1      -7.810   1.787  10.670  1.00  0.00     0.031 A 
ATOM     35  C   UNL     1      -7.238   1.769  12.058  1.00  0.00     0.074 A 
ATOM     36  C   UNL     1      -8.975   2.410  10.410  1.00  0.00     0.049 A 
ATOM     37  N   UNL     1      -7.739   2.264  13.158  1.00  0.00    -0.248 NA
ATOM     38  C   UNL     1      -5.942   1.091  12.237  1.00  0.00     0.031 C 
ATOM     39  C   UNL     1      -9.630   2.461   9.099  1.00  0.00     0.029 A 
ATOM     40  N   UNL     1      -9.831   3.095  11.234  1.00  0.00    -0.354 N 
ATOM     41  C   UNL     1      -6.831   1.948  14.162  1.00  0.00     0.074 A 
ATOM     42  C   UNL     1      -5.757   1.200  13.546  1.00  0.00     0.031 C 
ATOM     43  C   UNL     1     -10.779   3.146   9.207  1.00  0.00     0.029 A 
ATOM     44  C   UNL     1     -10.965   3.544  10.598  1.00  0.00     0.049 A 
ATOM     45  H   UNL     1      -9.651   3.251  12.189  1.00  0.00     0.167 HD
ATOM     46  C   UNL     1      -6.892   2.263  15.476  1.00  0.00     0.031 A 
ATOM     47  C   UNL     1     -12.045   4.185  11.084  1.00  0.00     0.031 A 
ATOM     48  C   UNL     1      -7.970   3.006  16.070  1.00  0.00     0.049 A 
ATOM     49  C   UNL     1     -12.100   4.503  12.550  1.00  0.00     0.074 A 
ATOM     50  C   UNL     1      -8.110   3.411  17.386  1.00  0.00     0.029 A 
ATOM     51  N   UNL     1      -9.091   3.453  15.388  1.00  0.00    -0.354 N 
ATOM     52  N   UNL     1     -11.216   4.225  13.478  1.00  0.00    -0.248 NA
ATOM     53  C   UNL     1     -13.289   5.214  13.038  1.00  0.00     0.031 C 
ATOM     54  C   UNL     1      -9.334   4.073  17.507  1.00  0.00     0.029 A 
ATOM     55  C   UNL     1      -9.935   4.118  16.258  1.00  0.00     0.049 A 
ATOM     56  H   UNL     1      -9.260   3.318  14.428  1.00  0.00     0.167 HD
ATOM     57  C   UNL     1     -11.731   4.745  14.658  1.00  0.00     0.074 A 
ATOM     58  C   UNL     1     -13.004   5.354  14.328  1.00  0.00     0.031 C 
ATOM     59  C   UNL     1     -11.194   4.721  15.900  1.00  0.00     0.031 A 
BRANCH  46  60
ATOM     60  C   UNL     1      -5.766   1.816  16.367  1.00  0.00    -0.014 A 
ATOM     61  C   UNL     1      -4.528   2.482  16.346  1.00  0.00     0.010 A 
ATOM     62  C   UNL     1      -5.976   0.785  17.302  1.00  0.00     0.010 A 
ATOM     63  C   UNL     1      -3.516   2.119  17.238  1.00  0.00     0.020 A 
ATOM     64  C   UNL     1      -4.971   0.431  18.208  1.00  0.00     0.020 A 
ATOM     65  C   UNL     1      -3.746   1.101  18.169  1.00  0.00     0.054 A 
BRANCH  65  66
ATOM     66  S   UNL     1      -2.424   0.688  19.340  1.00  0.00     0.124 S 
ATOM     67  O   UNL     1      -1.348   0.261  18.449  1.00  0.00    -0.237 OA
ATOM     68  O   UNL     1      -2.203   1.958  20.026  1.00  0.00    -0.237 OA
ATOM     69  O   UNL     1      -3.003  -0.372  20.162  1.00  0.00    -0.744 OA
ENDBRANCH  65  66
ENDBRANCH  46  60
BRANCH  47  70
ATOM     70  C   UNL     1     -13.139   4.576  10.156  1.00  0.00    -0.014 A 
ATOM     71  C   UNL     1     -13.261   5.910   9.732  1.00  0.00     0.010 A 
ATOM     72  C   UNL     1     -14.009   3.605   9.626  1.00  0.00     0.010 A 
ATOM     73  C   UNL     1     -14.228   6.266   8.787  1.00  0.00     0.020 A 
ATOM     74  C   UNL     1     -14.965   3.954   8.666  1.00  0.00     0.020 A 
ATOM     75  C   UNL     1     -15.066   5.283   8.251  1.00  0.00     0.054 A 
BRANCH  75  76
ATOM     76  S   UNL     1     -16.262   5.766   6.974  1.00  0.00     0.124 S 
ATOM     77  O   UNL     1     -17.106   6.719   7.688  1.00  0.00    -0.237 OA
ATOM     78  O   UNL     1     -15.398   6.335   5.943  1.00  0.00    -0.237 OA
ATOM     79  O   UNL     1     -16.909   4.507   6.614  1.00  0.00    -0.744 OA
ENDBRANCH  75  76
ENDBRANCH  47  70
BRANCH  59  80
ATOM     80  C   UNL     1     -11.956   5.390  17.008  1.00  0.00    -0.014 A 
ATOM     81  C   UNL     1     -13.014   4.727  17.649  1.00  0.00     0.010 A 
ATOM     82  C   UNL     1     -11.502   6.624  17.508  1.00  0.00     0.010 A 
ATOM     83  C   UNL     1     -13.598   5.282  18.789  1.00  0.00     0.020 A 
ATOM     84  C   UNL     1     -12.073   7.173  18.657  1.00  0.00     0.020 A 
ATOM     85  C   UNL     1     -13.113   6.493  19.295  1.00  0.00     0.054 A 
BRANCH  85  86
ATOM     86  S   UNL     1     -13.824   7.133  20.835  1.00  0.00     0.124 S 
ATOM     87  O   UNL     1     -15.219   7.352  20.463  1.00  0.00    -0.237 OA
ATOM     88  O   UNL     1     -13.588   6.035  21.769  1.00  0.00    -0.237 OA
ATOM     89  O   UNL     1     -13.054   8.347  21.097  1.00  0.00    -0.744 OA
ENDBRANCH  85  86
ENDBRANCH  59  80
ENDBRANCH  33  34
ENDBRANCH  26  28
ENDBRANCH  25  26
ENDBRANCH   1  25
TORSDOF 15
