REMARK SMILES COc1ccc2c(c1)c(CC(=O)OCCOC(=O)c1ccc(-c3c4nc(c(-c5ccc(S(=O)(=O)[O-])cc5)c5ccc([nH]5)c(-c5ccc(S(=O)(=O)[O-])cc5)c5nc(c(-c6ccc(S(=O)(=O)[O-])cc6)c6ccc3[nH]6)C=C5)C=C4)cc1)c(C)n2C(=O)c1ccc(Cl)cc1
REMARK SMILES IDX 14 1 13 2 11 3 12 4 10 5 9 6 3 7 4 8 8 9 5 10 7 11 6 12
REMARK SMILES IDX 81 13 79 14 80 15 2 16 1 17 82 18 83 19 84 20 85 21 90 22
REMARK SMILES IDX 86 23 89 24 87 25 88 26 15 27 16 28 17 29 18 30 19 31 20 32
REMARK SMILES IDX 78 33 21 34 77 35 22 36 23 37 24 38 71 39 25 40 76 41 70 42
REMARK SMILES IDX 72 43 26 44 75 45 69 46 68 47 27 49 57 50 38 51 56 52 39 53
REMARK SMILES IDX 42 54 55 55 73 56 40 57 41 58 54 60 74 61 43 62 28 63 29 64
REMARK SMILES IDX 37 65 30 66 36 67 31 68 32 69 33 70 34 71 35 72 58 73 59 74
REMARK SMILES IDX 67 75 60 76 66 77 61 78 62 79 63 80 64 81 65 82 44 83 45 84
REMARK SMILES IDX 53 85 46 86 52 87 47 88 48 89 49 90 50 91 51 92
REMARK H PARENT 72 48 42 59
REMARK Flexibility Score: inf
ROOT
ATOM      1  C   UNL     1      -1.919  -6.180   2.937  1.00  0.00     0.274 C 
ENDROOT
BRANCH   1   2
ATOM      2  O   UNL     1      -1.403  -6.143   1.586  1.00  0.00    -0.462 OA
BRANCH   2   3
ATOM      3  C   UNL     1      -2.260  -6.547   0.616  1.00  0.00     0.310 C 
ATOM      4  O   UNL     1      -3.412  -6.917   0.828  1.00  0.00    -0.252 OA
BRANCH   3   5
ATOM      5  C   UNL     1      -1.703  -6.529  -0.782  1.00  0.00     0.160 C 
BRANCH   5   6
ATOM      6  C   UNL     1      -0.256  -6.200  -1.030  1.00  0.00    -0.008 A 
ATOM      7  C   UNL     1       0.950  -2.618  -0.290  1.00  0.00     0.119 A 
ATOM      8  C   UNL     1       2.172  -2.742  -0.923  1.00  0.00     0.048 A 
ATOM      9  C   UNL     1       0.108  -3.735  -0.201  1.00  0.00     0.057 A 
ATOM     10  C   UNL     1       2.557  -3.961  -1.485  1.00  0.00     0.031 A 
ATOM     11  C   UNL     1       0.444  -4.971  -0.803  1.00  0.00     0.008 A 
ATOM     12  C   UNL     1       1.701  -5.084  -1.407  1.00  0.00     0.057 A 
ATOM     13  N   UNL     1       1.853  -6.414  -1.834  1.00  0.00    -0.280 N 
ATOM     14  C   UNL     1       0.594  -7.011  -1.775  1.00  0.00     0.028 A 
ATOM     15  C   UNL     1       0.234  -8.309  -2.431  1.00  0.00     0.065 C 
BRANCH   7  16
ATOM     16  O   UNL     1       0.482  -1.468   0.286  1.00  0.00    -0.497 OA
ATOM     17  C   UNL     1       1.017  -0.247  -0.214  1.00  0.00     0.278 C 
ENDBRANCH   7  16
BRANCH  13  18
ATOM     18  C   UNL     1       3.061  -7.030  -2.255  1.00  0.00     0.262 C 
ATOM     19  O   UNL     1       3.053  -8.199  -2.636  1.00  0.00    -0.268 OA
BRANCH  18  20
ATOM     20  C   UNL     1       4.377  -6.380  -2.235  1.00  0.00     0.040 A 
ATOM     21  C   UNL     1       4.993  -6.092  -1.013  1.00  0.00     0.015 A 
ATOM     22  C   UNL     1       4.967  -6.020  -3.450  1.00  0.00     0.015 A 
ATOM     23  C   UNL     1       6.193  -5.382  -1.010  1.00  0.00     0.021 A 
ATOM     24  C   UNL     1       6.168  -5.312  -3.438  1.00  0.00     0.021 A 
ATOM     25  C   UNL     1       6.769  -4.987  -2.220  1.00  0.00     0.041 A 
ATOM     26  Cl  UNL     1       8.227  -4.074  -2.208  1.00  0.00    -0.084 Cl
ENDBRANCH  18  20
ENDBRANCH  13  18
ENDBRANCH   5   6
ENDBRANCH   3   5
ENDBRANCH   2   3
ENDBRANCH   1   2
BRANCH   1  27
ATOM     27  C   UNL     1      -2.199  -4.762   3.444  1.00  0.00     0.275 C 
BRANCH  27  28
ATOM     28  O   UNL     1      -3.377  -4.273   2.800  1.00  0.00    -0.458 OA
BRANCH  28  29
ATOM     29  C   UNL     1      -3.220  -3.235   1.928  1.00  0.00     0.338 C 
ATOM     30  O   UNL     1      -2.334  -2.418   1.911  1.00  0.00    -0.246 OA
BRANCH  29  31
ATOM     31  C   UNL     1      -4.143  -3.537   0.817  1.00  0.00     0.060 A 
ATOM     32  C   UNL     1      -5.432  -4.002   1.075  1.00  0.00     0.016 A 
ATOM     33  C   UNL     1      -3.606  -3.588  -0.472  1.00  0.00     0.016 A 
ATOM     34  C   UNL     1      -6.132  -4.645   0.065  1.00  0.00     0.010 A 
ATOM     35  C   UNL     1      -4.290  -4.269  -1.472  1.00  0.00     0.010 A 
ATOM     36  C   UNL     1      -5.531  -4.836  -1.187  1.00  0.00    -0.014 A 
BRANCH  36  37
ATOM     37  C   UNL     1      -6.348  -5.386  -2.255  1.00  0.00     0.031 A 
ATOM     38  C   UNL     1      -7.092  -4.351  -3.003  1.00  0.00     0.074 A 
ATOM     39  C   UNL     1      -6.484  -6.665  -2.643  1.00  0.00     0.049 A 
ATOM     40  N   UNL     1      -8.326  -4.022  -2.833  1.00  0.00    -0.248 NA
ATOM     41  C   UNL     1      -6.351  -3.496  -3.936  1.00  0.00     0.031 C 
ATOM     42  C   UNL     1      -5.661  -7.833  -2.344  1.00  0.00     0.029 A 
ATOM     43  N   UNL     1      -7.429  -7.154  -3.497  1.00  0.00    -0.354 N 
ATOM     44  C   UNL     1      -8.577  -3.005  -3.740  1.00  0.00     0.074 A 
ATOM     45  C   UNL     1      -7.294  -2.618  -4.275  1.00  0.00     0.031 C 
ATOM     46  C   UNL     1      -6.026  -8.848  -3.169  1.00  0.00     0.029 A 
ATOM     47  C   UNL     1      -7.203  -8.447  -3.931  1.00  0.00     0.049 A 
ATOM     48  H   UNL     1      -8.210  -6.627  -3.783  1.00  0.00     0.167 HD
ATOM     49  C   UNL     1      -9.842  -2.666  -4.107  1.00  0.00     0.031 A 
ATOM     50  C   UNL     1      -7.914  -9.091  -4.890  1.00  0.00     0.031 A 
ATOM     51  C   UNL     1     -10.832  -3.280  -3.258  1.00  0.00     0.049 A 
ATOM     52  C   UNL     1      -9.249  -8.441  -4.982  1.00  0.00     0.074 A 
ATOM     53  C   UNL     1     -11.083  -3.254  -1.900  1.00  0.00     0.029 A 
ATOM     54  N   UNL     1     -11.503  -4.378  -3.747  1.00  0.00    -0.354 N 
ATOM     55  N   UNL     1     -10.165  -8.517  -4.057  1.00  0.00    -0.248 NA
ATOM     56  C   UNL     1      -9.446  -7.384  -5.963  1.00  0.00     0.031 C 
ATOM     57  C   UNL     1     -11.485  -4.580  -1.572  1.00  0.00     0.029 A 
ATOM     58  C   UNL     1     -11.509  -5.325  -2.753  1.00  0.00     0.049 A 
ATOM     59  H   UNL     1     -11.904  -4.468  -4.642  1.00  0.00     0.167 HD
ATOM     60  C   UNL     1     -10.811  -7.289  -4.088  1.00  0.00     0.074 A 
ATOM     61  C   UNL     1     -10.400  -6.681  -5.349  1.00  0.00     0.031 C 
ATOM     62  C   UNL     1     -11.402  -6.757  -2.976  1.00  0.00     0.031 A 
BRANCH  49  63
ATOM     63  C   UNL     1     -10.190  -2.006  -5.411  1.00  0.00    -0.014 A 
ATOM     64  C   UNL     1      -9.314  -1.971  -6.514  1.00  0.00     0.010 A 
ATOM     65  C   UNL     1     -11.517  -1.589  -5.633  1.00  0.00     0.010 A 
ATOM     66  C   UNL     1      -9.722  -1.519  -7.768  1.00  0.00     0.020 A 
ATOM     67  C   UNL     1     -11.952  -1.184  -6.902  1.00  0.00     0.020 A 
ATOM     68  C   UNL     1     -11.046  -1.146  -7.960  1.00  0.00     0.054 A 
BRANCH  68  69
ATOM     69  S   UNL     1     -11.570  -0.711  -9.634  1.00  0.00     0.124 S 
ATOM     70  O   UNL     1     -10.940   0.594  -9.816  1.00  0.00    -0.237 OA
ATOM     71  O   UNL     1     -11.009  -1.798 -10.431  1.00  0.00    -0.237 OA
ATOM     72  O   UNL     1     -13.028  -0.697  -9.542  1.00  0.00    -0.744 OA
ENDBRANCH  68  69
ENDBRANCH  49  63
BRANCH  50  73
ATOM     73  C   UNL     1      -7.402  -9.986  -5.960  1.00  0.00    -0.014 A 
ATOM     74  C   UNL     1      -6.045  -9.942  -6.334  1.00  0.00     0.010 A 
ATOM     75  C   UNL     1      -8.300 -10.647  -6.822  1.00  0.00     0.010 A 
ATOM     76  C   UNL     1      -5.614 -10.451  -7.563  1.00  0.00     0.020 A 
ATOM     77  C   UNL     1      -7.876 -11.152  -8.062  1.00  0.00     0.020 A 
ATOM     78  C   UNL     1      -6.540 -11.012  -8.440  1.00  0.00     0.054 A 
BRANCH  78  79
ATOM     79  S   UNL     1      -5.982 -11.452 -10.110  1.00  0.00     0.124 S 
ATOM     80  O   UNL     1      -5.679 -10.143 -10.682  1.00  0.00    -0.237 OA
ATOM     81  O   UNL     1      -4.823 -12.300  -9.842  1.00  0.00    -0.237 OA
ATOM     82  O   UNL     1      -7.132 -12.139 -10.692  1.00  0.00    -0.744 OA
ENDBRANCH  78  79
ENDBRANCH  50  73
BRANCH  62  83
ATOM     83  C   UNL     1     -11.689  -7.637  -1.774  1.00  0.00    -0.014 A 
ATOM     84  C   UNL     1     -12.941  -7.482  -1.142  1.00  0.00     0.010 A 
ATOM     85  C   UNL     1     -10.729  -8.453  -1.146  1.00  0.00     0.010 A 
ATOM     86  C   UNL     1     -13.214  -8.085   0.088  1.00  0.00     0.020 A 
ATOM     87  C   UNL     1     -11.008  -9.089   0.075  1.00  0.00     0.020 A 
ATOM     88  C   UNL     1     -12.240  -8.877   0.697  1.00  0.00     0.054 A 
BRANCH  88  89
ATOM     89  S   UNL     1     -12.609  -9.599   2.319  1.00  0.00     0.124 S 
ATOM     90  O   UNL     1     -12.523  -8.437   3.202  1.00  0.00    -0.237 OA
ATOM     91  O   UNL     1     -13.954 -10.141   2.135  1.00  0.00    -0.237 OA
ATOM     92  O   UNL     1     -11.563 -10.601   2.508  1.00  0.00    -0.744 OA
ENDBRANCH  88  89
ENDBRANCH  62  83
ENDBRANCH  36  37
ENDBRANCH  29  31
ENDBRANCH  28  29
ENDBRANCH  27  28
ENDBRANCH   1  27
TORSDOF 18
