REMARK SMILES C[C@@H]1C[N@@H+]([C@@H](C)CC(=O)OCCOC(=O)c2ccc(-c3c4nc(c(-c5ccc(S(=O)(=O)[O-])cc5)c5ccc([nH]5)c(-c5ccc(S(=O)(=O)[O-])cc5)c5nc(c(-c6ccc(S(=O)(=O)[O-])cc6)c6ccc3[nH]6)C=C5)C=C4)cc2)C[C@H](C)O1
REMARK SMILES IDX 12 1 11 2 10 3 8 4 9 5 7 6 5 7 6 8 4 9 1 10 2 11 3 12 79 13
REMARK SMILES IDX 77 14 76 15 78 17 13 18 14 19 15 20 16 21 17 22 75 23 18 24
REMARK SMILES IDX 74 25 19 26 20 27 21 28 68 29 22 30 73 31 67 32 69 33 23 34
REMARK SMILES IDX 72 35 66 36 65 37 24 39 54 40 35 41 53 42 36 43 39 44 52 45
REMARK SMILES IDX 70 46 37 47 38 48 51 50 71 51 40 52 25 53 26 54 34 55 27 56
REMARK SMILES IDX 33 57 28 58 29 59 30 60 31 61 32 62 55 63 56 64 64 65 57 66
REMARK SMILES IDX 63 67 58 68 59 69 60 70 61 71 62 72 41 73 42 74 50 75 43 76
REMARK SMILES IDX 49 77 44 78 45 79 46 80 47 81 48 82
REMARK H PARENT 4 16 69 38 39 49
REMARK Flexibility Score: inf
ROOT
ATOM      1  C   UNL     1       2.577  -1.179  -4.734  1.00  0.00     0.275 C 
ENDROOT
BRANCH   1   2
ATOM      2  C   UNL     1       1.088  -0.860  -4.612  1.00  0.00     0.274 C 
BRANCH   2   3
ATOM      3  O   UNL     1       0.465  -1.716  -3.638  1.00  0.00    -0.462 OA
BRANCH   3   4
ATOM      4  C   UNL     1      -0.368  -2.676  -4.102  1.00  0.00     0.311 C 
ATOM      5  O   UNL     1      -0.655  -2.835  -5.284  1.00  0.00    -0.252 OA
BRANCH   4   6
ATOM      6  C   UNL     1      -0.968  -3.549  -3.020  1.00  0.00     0.187 C 
BRANCH   6   7
ATOM      7  C   UNL     1      -0.246  -3.569  -1.656  1.00  0.00     0.192 C 
ATOM      8  C   UNL     1      -0.713  -4.797  -0.857  1.00  0.00     0.076 C 
BRANCH   7   9
ATOM      9  N   UNL     1      -0.357  -2.296  -0.921  1.00  0.00    -0.328 N 
ATOM     10  C   UNL     1       1.499   0.082   0.248  1.00  0.00     0.045 C 
ATOM     11  C   UNL     1       0.485  -0.832   0.930  1.00  0.00     0.170 C 
ATOM     12  C   UNL     1       0.442  -2.251   0.317  1.00  0.00     0.294 C 
ATOM     13  O   UNL     1      -0.809  -0.210   1.030  1.00  0.00    -0.364 OA
ATOM     14  C   UNL     1      -1.665  -0.370  -0.112  1.00  0.00     0.170 C 
ATOM     15  C   UNL     1      -1.712  -1.828  -0.610  1.00  0.00     0.294 C 
ATOM     16  H   UNL     1       0.027  -1.653  -1.613  1.00  0.00     0.348 HD
ATOM     17  C   UNL     1      -1.333   0.622  -1.227  1.00  0.00     0.045 C 
ENDBRANCH   7   9
ENDBRANCH   6   7
ENDBRANCH   4   6
ENDBRANCH   3   4
ENDBRANCH   2   3
ENDBRANCH   1   2
BRANCH   1  18
ATOM     18  O   UNL     1       2.773  -2.493  -5.286  1.00  0.00    -0.458 OA
BRANCH  18  19
ATOM     19  C   UNL     1       3.018  -3.470  -4.385  1.00  0.00     0.338 C 
ATOM     20  O   UNL     1       3.166  -3.357  -3.178  1.00  0.00    -0.246 OA
BRANCH  19  21
ATOM     21  C   UNL     1       2.958  -4.768  -5.066  1.00  0.00     0.060 A 
ATOM     22  C   UNL     1       1.821  -5.557  -4.881  1.00  0.00     0.016 A 
ATOM     23  C   UNL     1       4.032  -5.232  -5.826  1.00  0.00     0.016 A 
ATOM     24  C   UNL     1       1.748  -6.821  -5.456  1.00  0.00     0.010 A 
ATOM     25  C   UNL     1       3.955  -6.500  -6.410  1.00  0.00     0.010 A 
ATOM     26  C   UNL     1       2.817  -7.304  -6.222  1.00  0.00    -0.014 A 
BRANCH  26  27
ATOM     27  C   UNL     1       2.754  -8.669  -6.795  1.00  0.00     0.031 A 
ATOM     28  C   UNL     1       3.584  -9.768  -6.198  1.00  0.00     0.074 A 
ATOM     29  C   UNL     1       1.940  -8.921  -7.837  1.00  0.00     0.049 A 
ATOM     30  N   UNL     1       3.738 -11.000  -6.608  1.00  0.00    -0.248 NA
ATOM     31  C   UNL     1       4.337  -9.438  -4.978  1.00  0.00     0.031 C 
ATOM     32  C   UNL     1       1.043  -7.948  -8.464  1.00  0.00     0.029 A 
ATOM     33  N   UNL     1       1.736 -10.074  -8.550  1.00  0.00    -0.354 N 
ATOM     34  C   UNL     1       4.625 -11.587  -5.713  1.00  0.00     0.074 A 
ATOM     35  C   UNL     1       4.980 -10.573  -4.744  1.00  0.00     0.031 C 
ATOM     36  C   UNL     1       0.379  -8.549  -9.465  1.00  0.00     0.029 A 
ATOM     37  C   UNL     1       0.841  -9.929  -9.583  1.00  0.00     0.049 A 
ATOM     38  H   UNL     1       2.187 -10.924  -8.343  1.00  0.00     0.167 HD
ATOM     39  C   UNL     1       5.101 -12.855  -5.705  1.00  0.00     0.031 A 
ATOM     40  C   UNL     1       0.460 -10.800 -10.537  1.00  0.00     0.031 A 
ATOM     41  C   UNL     1       4.747 -13.858  -6.675  1.00  0.00     0.049 A 
ATOM     42  C   UNL     1       1.060 -12.178 -10.552  1.00  0.00     0.074 A 
ATOM     43  C   UNL     1       5.176 -15.171  -6.754  1.00  0.00     0.029 A 
ATOM     44  N   UNL     1       3.879 -13.656  -7.737  1.00  0.00    -0.354 N 
ATOM     45  N   UNL     1       1.916 -12.712  -9.714  1.00  0.00    -0.248 NA
ATOM     46  C   UNL     1       0.652 -13.066 -11.650  1.00  0.00     0.031 C 
ATOM     47  C   UNL     1       4.600 -15.751  -7.891  1.00  0.00     0.029 A 
ATOM     48  C   UNL     1       3.778 -14.812  -8.493  1.00  0.00     0.049 A 
ATOM     49  H   UNL     1       3.405 -12.814  -7.927  1.00  0.00     0.167 HD
ATOM     50  C   UNL     1       2.146 -14.001 -10.179  1.00  0.00     0.074 A 
ATOM     51  C   UNL     1       1.325 -14.173 -11.361  1.00  0.00     0.031 C 
ATOM     52  C   UNL     1       2.966 -14.956  -9.675  1.00  0.00     0.031 A 
BRANCH  39  53
ATOM     53  C   UNL     1       6.097 -13.207  -4.633  1.00  0.00    -0.014 A 
ATOM     54  C   UNL     1       5.697 -13.396  -3.299  1.00  0.00     0.010 A 
ATOM     55  C   UNL     1       7.455 -13.353  -4.971  1.00  0.00     0.010 A 
ATOM     56  C   UNL     1       6.645 -13.679  -2.311  1.00  0.00     0.020 A 
ATOM     57  C   UNL     1       8.403 -13.656  -3.990  1.00  0.00     0.020 A 
ATOM     58  C   UNL     1       7.994 -13.796  -2.662  1.00  0.00     0.054 A 
BRANCH  58  59
ATOM     59  S   UNL     1       9.209 -14.154  -1.362  1.00  0.00     0.124 S 
ATOM     60  O   UNL     1       9.345 -12.852  -0.713  1.00  0.00    -0.237 OA
ATOM     61  O   UNL     1       8.542 -15.184  -0.570  1.00  0.00    -0.237 OA
ATOM     62  O   UNL     1      10.384 -14.607  -2.103  1.00  0.00    -0.744 OA
ENDBRANCH  58  59
ENDBRANCH  39  53
BRANCH  40  63
ATOM     63  C   UNL     1      -0.514 -10.374 -11.577  1.00  0.00    -0.014 A 
ATOM     64  C   UNL     1      -1.830 -10.864 -11.568  1.00  0.00     0.010 A 
ATOM     65  C   UNL     1      -0.133  -9.448 -12.566  1.00  0.00     0.010 A 
ATOM     66  C   UNL     1      -2.750 -10.436 -12.529  1.00  0.00     0.020 A 
ATOM     67  C   UNL     1      -1.056  -9.001 -13.515  1.00  0.00     0.020 A 
ATOM     68  C   UNL     1      -2.358  -9.504 -13.495  1.00  0.00     0.054 A 
BRANCH  68  69
ATOM     69  S   UNL     1      -3.587  -8.902 -14.687  1.00  0.00     0.124 S 
ATOM     70  O   UNL     1      -3.661 -10.012 -15.632  1.00  0.00    -0.237 OA
ATOM     71  O   UNL     1      -4.769  -8.701 -13.853  1.00  0.00    -0.237 OA
ATOM     72  O   UNL     1      -2.986  -7.675 -15.205  1.00  0.00    -0.744 OA
ENDBRANCH  68  69
ENDBRANCH  40  63
BRANCH  52  73
ATOM     73  C   UNL     1       3.007 -16.274 -10.398  1.00  0.00    -0.014 A 
ATOM     74  C   UNL     1       3.708 -16.411 -11.609  1.00  0.00     0.010 A 
ATOM     75  C   UNL     1       2.375 -17.398  -9.836  1.00  0.00     0.010 A 
ATOM     76  C   UNL     1       3.755 -17.646 -12.260  1.00  0.00     0.020 A 
ATOM     77  C   UNL     1       2.437 -18.639 -10.475  1.00  0.00     0.020 A 
ATOM     78  C   UNL     1       3.116 -18.752 -11.691  1.00  0.00     0.054 A 
BRANCH  78  79
ATOM     79  S   UNL     1       3.224 -20.356 -12.531  1.00  0.00     0.124 S 
ATOM     80  O   UNL     1       2.249 -20.201 -13.606  1.00  0.00    -0.237 OA
ATOM     81  O   UNL     1       4.622 -20.406 -12.953  1.00  0.00    -0.237 OA
ATOM     82  O   UNL     1       2.860 -21.315 -11.491  1.00  0.00    -0.744 OA
ENDBRANCH  78  79
ENDBRANCH  52  73
ENDBRANCH  26  27
ENDBRANCH  19  21
ENDBRANCH  18  19
ENDBRANCH   1  18
TORSDOF 16
