REMARK SMILES Cc1c(C(=O)Nc2ccc(C(=O)Nc3ccccc3C(=O)OCCOC(=O)c3ccc(-c4c5nc(c(-c6ccc(S(=O)(=O)[O-])cc6)c6ccc([nH]6)c(-c6ccc(S(=O)(=O)[O-])cc6)c6nc(c(-c7ccc(S(=O)(=O)[O-])cc7)c7ccc4[nH]7)C=C6)C=C5)cc3)cc2)cccc1[N+](=O)[O-]
REMARK SMILES IDX 23 1 22 2 20 3 21 4 19 5 14 6 15 7 16 8 18 9 17 10 13 11
REMARK SMILES IDX 11 12 12 13 10 15 7 16 8 17 89 18 9 19 88 20 6 21 4 22 5 23
REMARK SMILES IDX 3 25 1 26 2 27 93 28 90 29 92 30 91 31 94 32 95 33 96 34
REMARK SMILES IDX 24 35 25 36 26 37 27 38 28 39 29 40 87 41 30 42 86 43 31 44
REMARK SMILES IDX 32 45 33 46 80 47 34 48 85 49 79 50 81 51 35 52 84 53 78 54
REMARK SMILES IDX 77 55 36 57 66 58 47 59 65 60 48 61 51 62 64 63 82 64 49 65
REMARK SMILES IDX 50 66 63 68 83 69 52 70 37 71 38 72 46 73 39 74 45 75 40 76
REMARK SMILES IDX 41 77 42 78 43 79 44 80 67 81 68 82 76 83 69 84 75 85 70 86
REMARK SMILES IDX 71 87 72 88 73 89 74 90 53 91 54 92 62 93 55 94 61 95 56 96
REMARK SMILES IDX 57 97 58 98 59 99 60 100
REMARK H PARENT 13 14 6 24 81 56 51 67
REMARK Flexibility Score: inf
ROOT
ATOM      1  C   UNL     1       4.428  -1.357   2.770  1.00  0.00     0.275 C 
ENDROOT
BRANCH   1   2
ATOM      2  O   UNL     1       4.141   0.000   2.380  1.00  0.00    -0.458 OA
BRANCH   2   3
ATOM      3  C   UNL     1       3.392   0.654   3.307  1.00  0.00     0.340 C 
ATOM      4  O   UNL     1       3.100   0.117   4.377  1.00  0.00    -0.246 OA
BRANCH   3   5
ATOM      5  C   UNL     1       2.787   2.007   2.979  1.00  0.00     0.083 A 
ATOM      6  C   UNL     1       3.046   2.968   1.966  1.00  0.00     0.056 A 
ATOM      7  C   UNL     1       2.348   4.205   2.028  1.00  0.00     0.027 A 
ATOM      8  C   UNL     1       1.340   4.462   2.958  1.00  0.00     0.002 A 
ATOM      9  C   UNL     1       1.741   2.309   3.904  1.00  0.00     0.018 A 
ATOM     10  C   UNL     1       1.015   3.497   3.886  1.00  0.00     0.001 A 
BRANCH   6  11
ATOM     11  N   UNL     1       3.854   2.912   0.797  1.00  0.00    -0.321 N 
ATOM     12  C   UNL     1       3.740   2.119  -0.328  1.00  0.00     0.255 C 
ATOM     13  O   UNL     1       3.937   2.573  -1.454  1.00  0.00    -0.269 OA
ATOM     14  H   UNL     1       4.615   3.536   0.788  1.00  0.00     0.170 HD
BRANCH  12  15
ATOM     15  C   UNL     1       3.346   0.722  -0.275  1.00  0.00     0.040 A 
ATOM     16  C   UNL     1       2.440  -1.862  -0.379  1.00  0.00     0.041 A 
ATOM     17  C   UNL     1       1.927  -0.999   0.576  1.00  0.00     0.027 A 
ATOM     18  C   UNL     1       3.573  -1.527  -1.124  1.00  0.00     0.027 A 
ATOM     19  C   UNL     1       2.266   0.330   0.495  1.00  0.00     0.016 A 
ATOM     20  C   UNL     1       4.026  -0.209  -1.072  1.00  0.00     0.016 A 
BRANCH  16  21
ATOM     21  N   UNL     1       1.627  -2.910  -0.815  1.00  0.00    -0.322 N 
ATOM     22  C   UNL     1       0.239  -2.852  -0.949  1.00  0.00     0.256 C 
ATOM     23  O   UNL     1      -0.386  -3.881  -1.200  1.00  0.00    -0.269 OA
ATOM     24  H   UNL     1       2.068  -3.759  -1.047  1.00  0.00     0.170 HD
BRANCH  22  25
ATOM     25  C   UNL     1      -0.543  -1.559  -0.755  1.00  0.00     0.049 A 
ATOM     26  C   UNL     1       0.661  -0.213  -2.539  1.00  0.00     0.053 C 
ATOM     27  C   UNL     1      -0.226  -0.280  -1.319  1.00  0.00     0.039 A 
ATOM     28  C   UNL     1      -0.871   0.861  -0.754  1.00  0.00     0.273 A 
ATOM     29  C   UNL     1      -1.618  -1.679   0.146  1.00  0.00     0.014 A 
ATOM     30  C   UNL     1      -1.949   0.699   0.139  1.00  0.00     0.086 A 
ATOM     31  C   UNL     1      -2.349  -0.566   0.547  1.00  0.00     0.008 A 
BRANCH  28  32
ATOM     32  N   UNL     1      -0.405   2.267  -0.921  1.00  0.00     0.063 N 
ATOM     33  O   UNL     1      -0.802   3.092  -0.081  1.00  0.00    -0.258 OA
ATOM     34  O   UNL     1       0.333   2.558  -1.862  1.00  0.00    -0.258 OA
ENDBRANCH  28  32
ENDBRANCH  22  25
ENDBRANCH  16  21
ENDBRANCH  12  15
ENDBRANCH   6  11
ENDBRANCH   3   5
ENDBRANCH   2   3
ENDBRANCH   1   2
BRANCH   1  35
ATOM     35  C   UNL     1       5.236  -2.248   1.797  1.00  0.00     0.275 C 
BRANCH  35  36
ATOM     36  O   UNL     1       5.933  -1.734   0.629  1.00  0.00    -0.458 OA
BRANCH  36  37
ATOM     37  C   UNL     1       6.785  -0.688   0.496  1.00  0.00     0.338 C 
ATOM     38  O   UNL     1       7.381  -0.446  -0.544  1.00  0.00    -0.246 OA
BRANCH  37  39
ATOM     39  C   UNL     1       6.954   0.109   1.693  1.00  0.00     0.060 A 
ATOM     40  C   UNL     1       6.549   1.454   1.729  1.00  0.00     0.016 A 
ATOM     41  C   UNL     1       7.341  -0.601   2.822  1.00  0.00     0.016 A 
ATOM     42  C   UNL     1       6.455   2.093   2.953  1.00  0.00     0.010 A 
ATOM     43  C   UNL     1       7.099  -0.037   4.035  1.00  0.00     0.010 A 
ATOM     44  C   UNL     1       6.770   1.335   4.078  1.00  0.00    -0.014 A 
BRANCH  44  45
ATOM     45  C   UNL     1       7.378   1.926   5.253  1.00  0.00     0.031 A 
ATOM     46  C   UNL     1       6.595   1.999   6.496  1.00  0.00     0.074 A 
ATOM     47  C   UNL     1       8.720   1.809   5.061  1.00  0.00     0.049 A 
ATOM     48  N   UNL     1       6.972   2.587   7.573  1.00  0.00    -0.248 NA
ATOM     49  C   UNL     1       5.243   1.438   6.630  1.00  0.00     0.031 C 
ATOM     50  C   UNL     1       9.808   1.500   5.967  1.00  0.00     0.029 A 
ATOM     51  N   UNL     1       9.392   1.901   3.823  1.00  0.00    -0.354 N 
ATOM     52  C   UNL     1       6.211   2.023   8.585  1.00  0.00     0.074 A 
ATOM     53  C   UNL     1       5.019   1.540   7.946  1.00  0.00     0.031 C 
ATOM     54  C   UNL     1      10.972   1.809   5.352  1.00  0.00     0.029 A 
ATOM     55  C   UNL     1      10.640   2.447   4.079  1.00  0.00     0.049 A 
ATOM     56  H   UNL     1       9.041   1.630   2.944  1.00  0.00     0.167 HD
ATOM     57  C   UNL     1       6.818   1.735   9.772  1.00  0.00     0.031 A 
ATOM     58  C   UNL     1      10.839   3.762   3.759  1.00  0.00     0.031 A 
ATOM     59  C   UNL     1       8.225   2.140   9.704  1.00  0.00     0.049 A 
ATOM     60  C   UNL     1      10.875   4.573   5.038  1.00  0.00     0.074 A 
ATOM     61  C   UNL     1       9.387   1.414   9.502  1.00  0.00     0.029 A 
ATOM     62  N   UNL     1       8.534   3.466   9.424  1.00  0.00    -0.354 N 
ATOM     63  N   UNL     1      10.226   4.262   6.129  1.00  0.00    -0.248 NA
ATOM     64  C   UNL     1      11.732   5.738   5.202  1.00  0.00     0.031 C 
ATOM     65  C   UNL     1      10.375   2.312   9.005  1.00  0.00     0.029 A 
ATOM     66  C   UNL     1       9.799   3.566   8.873  1.00  0.00     0.049 A 
ATOM     67  H   UNL     1       7.936   4.228   9.595  1.00  0.00     0.167 HD
ATOM     68  C   UNL     1      10.664   5.049   7.155  1.00  0.00     0.074 A 
ATOM     69  C   UNL     1      11.579   5.984   6.514  1.00  0.00     0.031 C 
ATOM     70  C   UNL     1      10.302   4.870   8.461  1.00  0.00     0.031 A 
BRANCH  57  71
ATOM     71  C   UNL     1       6.292   0.805  10.850  1.00  0.00    -0.014 A 
ATOM     72  C   UNL     1       7.209   0.289  11.793  1.00  0.00     0.010 A 
ATOM     73  C   UNL     1       4.952   0.402  11.012  1.00  0.00     0.010 A 
ATOM     74  C   UNL     1       6.831  -0.593  12.813  1.00  0.00     0.020 A 
ATOM     75  C   UNL     1       4.557  -0.492  12.030  1.00  0.00     0.020 A 
ATOM     76  C   UNL     1       5.503  -0.981  12.928  1.00  0.00     0.054 A 
BRANCH  76  77
ATOM     77  S   UNL     1       5.040  -2.083  14.291  1.00  0.00     0.124 S 
ATOM     78  O   UNL     1       5.838  -3.275  14.016  1.00  0.00    -0.237 OA
ATOM     79  O   UNL     1       5.442  -1.314  15.466  1.00  0.00    -0.237 OA
ATOM     80  O   UNL     1       3.598  -2.253  14.126  1.00  0.00    -0.744 OA
ENDBRANCH  76  77
ENDBRANCH  57  71
BRANCH  58  81
ATOM     81  C   UNL     1      10.179   4.206   2.481  1.00  0.00    -0.014 A 
ATOM     82  C   UNL     1      10.620   3.635   1.261  1.00  0.00     0.010 A 
ATOM     83  C   UNL     1       8.946   4.882   2.483  1.00  0.00     0.010 A 
ATOM     84  C   UNL     1       9.821   3.659   0.106  1.00  0.00     0.020 A 
ATOM     85  C   UNL     1       8.151   4.921   1.326  1.00  0.00     0.020 A 
ATOM     86  C   UNL     1       8.582   4.294   0.152  1.00  0.00     0.054 A 
BRANCH  86  87
ATOM     87  S   UNL     1       7.427   4.144  -1.249  1.00  0.00     0.124 S 
ATOM     88  O   UNL     1       7.851   5.243  -2.111  1.00  0.00    -0.237 OA
ATOM     89  O   UNL     1       7.705   2.803  -1.750  1.00  0.00    -0.237 OA
ATOM     90  O   UNL     1       6.133   4.317  -0.586  1.00  0.00    -0.744 OA
ENDBRANCH  86  87
ENDBRANCH  58  81
BRANCH  70  91
ATOM     91  C   UNL     1      10.469   5.913   9.531  1.00  0.00    -0.014 A 
ATOM     92  C   UNL     1      10.670   7.270   9.253  1.00  0.00     0.010 A 
ATOM     93  C   UNL     1      10.276   5.552  10.887  1.00  0.00     0.010 A 
ATOM     94  C   UNL     1      10.806   8.203  10.281  1.00  0.00     0.020 A 
ATOM     95  C   UNL     1      10.323   6.488  11.916  1.00  0.00     0.020 A 
ATOM     96  C   UNL     1      10.642   7.802  11.605  1.00  0.00     0.054 A 
BRANCH  96  97
ATOM     97  S   UNL     1      10.834   9.021  12.917  1.00  0.00     0.124 S 
ATOM     98  O   UNL     1      12.287   9.076  13.055  1.00  0.00    -0.237 OA
ATOM     99  O   UNL     1      10.212  10.213  12.343  1.00  0.00    -0.237 OA
ATOM    100  O   UNL     1      10.117   8.432  14.044  1.00  0.00    -0.744 OA
ENDBRANCH  96  97
ENDBRANCH  70  91
ENDBRANCH  44  45
ENDBRANCH  37  39
ENDBRANCH  36  37
ENDBRANCH  35  36
ENDBRANCH   1  35
TORSDOF 19
