REMARK SMILES C[C@@H](C(=O)OCCOC(=O)c1ccc(-c2c3nc(c(-c4ccc(S(=O)(=O)[O-])cc4)c4ccc([nH]4)c(-c4ccc(S(=O)(=O)[O-])cc4)c4nc(c(-c5ccc(S(=O)(=O)[O-])cc5)c5ccc2[nH]5)C=C4)C=C3)cc1)c1cccn(C(F)F)c1=O
REMARK SMILES IDX 7 1 6 2 5 3 3 4 4 5 2 6 1 7 71 8 72 9 79 10 73 11 75 12
REMARK SMILES IDX 80 13 74 14 76 15 77 16 78 17 8 18 9 19 10 20 11 21 12 22
REMARK SMILES IDX 70 23 13 24 69 25 14 26 15 27 16 28 63 29 17 30 68 31 62 32
REMARK SMILES IDX 64 33 18 34 67 35 61 36 60 37 19 39 49 40 30 41 48 42 31 43
REMARK SMILES IDX 34 44 47 45 65 46 32 47 33 48 46 50 66 51 35 52 20 53 21 54
REMARK SMILES IDX 29 55 22 56 28 57 23 58 24 59 25 60 26 61 27 62 50 63 51 64
REMARK SMILES IDX 59 65 52 66 58 67 53 68 54 69 55 70 56 71 57 72 36 73 37 74
REMARK SMILES IDX 45 75 38 76 44 77 39 78 40 79 41 80 42 81 43 82
REMARK H PARENT 64 38 34 49
REMARK Flexibility Score: inf
ROOT
ATOM      1  C   UNL     1       2.258  -4.372   0.499  1.00  0.00     0.275 C 
ENDROOT
BRANCH   1   2
ATOM      2  C   UNL     1       2.696  -3.656  -0.782  1.00  0.00     0.274 C 
BRANCH   2   3
ATOM      3  O   UNL     1       2.194  -2.305  -0.830  1.00  0.00    -0.462 OA
BRANCH   3   4
ATOM      4  C   UNL     1       1.122  -2.083  -1.646  1.00  0.00     0.313 C 
ATOM      5  O   UNL     1       0.675  -2.959  -2.376  1.00  0.00    -0.252 OA
BRANCH   4   6
ATOM      6  C   UNL     1       0.632  -0.602  -1.617  1.00  0.00     0.132 C 
ATOM      7  C   UNL     1       1.091   0.069  -0.301  1.00  0.00     0.025 C 
BRANCH   6   8
ATOM      8  C   UNL     1      -0.873  -0.427  -1.931  1.00  0.00     0.032 A 
ATOM      9  C   UNL     1      -1.653  -1.327  -2.568  1.00  0.00     0.012 A 
ATOM     10  C   UNL     1      -1.570   0.866  -1.533  1.00  0.00     0.259 A 
ATOM     11  C   UNL     1      -3.073  -1.168  -2.741  1.00  0.00     0.019 A 
ATOM     12  N   UNL     1      -2.949   0.915  -1.665  1.00  0.00    -0.258 N 
ATOM     13  O   UNL     1      -0.924   1.827  -1.122  1.00  0.00    -0.269 OA
ATOM     14  C   UNL     1      -3.683  -0.089  -2.255  1.00  0.00     0.095 A 
BRANCH  12  15
ATOM     15  C   UNL     1      -3.638   2.070  -1.144  1.00  0.00     0.451 C 
ATOM     16  F   UNL     1      -4.612   2.468  -2.005  1.00  0.00    -0.185 F 
ATOM     17  F   UNL     1      -4.263   1.730   0.013  1.00  0.00    -0.185 F 
ENDBRANCH  12  15
ENDBRANCH   6   8
ENDBRANCH   4   6
ENDBRANCH   3   4
ENDBRANCH   2   3
ENDBRANCH   1   2
BRANCH   1  18
ATOM     18  O   UNL     1       0.825  -4.487   0.590  1.00  0.00    -0.458 OA
BRANCH  18  19
ATOM     19  C   UNL     1       0.222  -3.521   1.328  1.00  0.00     0.338 C 
ATOM     20  O   UNL     1       0.774  -2.620   1.935  1.00  0.00    -0.246 OA
BRANCH  19  21
ATOM     21  C   UNL     1      -1.245  -3.591   1.163  1.00  0.00     0.060 A 
ATOM     22  C   UNL     1      -1.902  -2.407   0.821  1.00  0.00     0.016 A 
ATOM     23  C   UNL     1      -1.980  -4.760   1.373  1.00  0.00     0.016 A 
ATOM     24  C   UNL     1      -3.280  -2.392   0.635  1.00  0.00     0.010 A 
ATOM     25  C   UNL     1      -3.376  -4.738   1.216  1.00  0.00     0.010 A 
ATOM     26  C   UNL     1      -4.031  -3.555   0.831  1.00  0.00    -0.014 A 
BRANCH  26  27
ATOM     27  C   UNL     1      -5.505  -3.472   0.699  1.00  0.00     0.031 A 
ATOM     28  C   UNL     1      -6.324  -3.009   1.869  1.00  0.00     0.074 A 
ATOM     29  C   UNL     1      -6.101  -3.700  -0.487  1.00  0.00     0.049 A 
ATOM     30  N   UNL     1      -7.618  -2.844   1.956  1.00  0.00    -0.248 NA
ATOM     31  C   UNL     1      -5.584  -2.672   3.094  1.00  0.00     0.031 C 
ATOM     32  C   UNL     1      -5.407  -4.044  -1.727  1.00  0.00     0.029 A 
ATOM     33  N   UNL     1      -7.425  -3.651  -0.847  1.00  0.00    -0.354 N 
ATOM     34  C   UNL     1      -7.852  -2.392   3.249  1.00  0.00     0.074 A 
ATOM     35  C   UNL     1      -6.565  -2.307   3.907  1.00  0.00     0.031 C 
ATOM     36  C   UNL     1      -6.311  -4.160  -2.715  1.00  0.00     0.029 A 
ATOM     37  C   UNL     1      -7.653  -3.954  -2.169  1.00  0.00     0.049 A 
ATOM     38  H   UNL     1      -8.146  -3.421  -0.216  1.00  0.00     0.167 HD
ATOM     39  C   UNL     1      -9.033  -2.092   3.840  1.00  0.00     0.031 A 
ATOM     40  C   UNL     1      -8.810  -4.079  -2.852  1.00  0.00     0.031 A 
ATOM     41  C   UNL     1     -10.317  -2.220   3.202  1.00  0.00     0.049 A 
ATOM     42  C   UNL     1     -10.119  -3.868  -2.131  1.00  0.00     0.074 A 
ATOM     43  C   UNL     1     -11.570  -1.987   3.741  1.00  0.00     0.029 A 
ATOM     44  N   UNL     1     -10.515  -2.630   1.893  1.00  0.00    -0.354 N 
ATOM     45  N   UNL     1     -10.330  -3.470  -0.899  1.00  0.00    -0.248 NA
ATOM     46  C   UNL     1     -11.349  -4.136  -2.892  1.00  0.00     0.031 C 
ATOM     47  C   UNL     1     -12.528  -2.324   2.779  1.00  0.00     0.029 A 
ATOM     48  C   UNL     1     -11.871  -2.692   1.616  1.00  0.00     0.049 A 
ATOM     49  H   UNL     1      -9.798  -2.845   1.253  1.00  0.00     0.167 HD
ATOM     50  C   UNL     1     -11.713  -3.417  -0.746  1.00  0.00     0.074 A 
ATOM     51  C   UNL     1     -12.289  -3.806  -2.016  1.00  0.00     0.031 C 
ATOM     52  C   UNL     1     -12.439  -3.079   0.348  1.00  0.00     0.031 A 
BRANCH  39  53
ATOM     53  C   UNL     1      -8.991  -1.686   5.288  1.00  0.00    -0.014 A 
ATOM     54  C   UNL     1      -8.501  -0.430   5.689  1.00  0.00     0.010 A 
ATOM     55  C   UNL     1      -9.463  -2.583   6.264  1.00  0.00     0.010 A 
ATOM     56  C   UNL     1      -8.445  -0.097   7.046  1.00  0.00     0.020 A 
ATOM     57  C   UNL     1      -9.435  -2.242   7.618  1.00  0.00     0.020 A 
ATOM     58  C   UNL     1      -8.907  -1.008   8.001  1.00  0.00     0.054 A 
BRANCH  58  59
ATOM     59  S   UNL     1      -8.823  -0.553   9.754  1.00  0.00     0.124 S 
ATOM     60  O   UNL     1      -7.387  -0.619  10.014  1.00  0.00    -0.237 OA
ATOM     61  O   UNL     1      -9.402   0.788   9.765  1.00  0.00    -0.237 OA
ATOM     62  O   UNL     1      -9.623  -1.579  10.419  1.00  0.00    -0.744 OA
ENDBRANCH  58  59
ENDBRANCH  39  53
BRANCH  40  63
ATOM     63  C   UNL     1      -8.800  -4.481  -4.289  1.00  0.00    -0.014 A 
ATOM     64  C   UNL     1      -9.281  -3.614  -5.286  1.00  0.00     0.010 A 
ATOM     65  C   UNL     1      -8.343  -5.758  -4.663  1.00  0.00     0.010 A 
ATOM     66  C   UNL     1      -9.325  -4.024  -6.623  1.00  0.00     0.020 A 
ATOM     67  C   UNL     1      -8.354  -6.160  -6.001  1.00  0.00     0.020 A 
ATOM     68  C   UNL     1      -8.858  -5.295  -6.972  1.00  0.00     0.054 A 
BRANCH  68  69
ATOM     69  S   UNL     1      -8.889  -5.794  -8.717  1.00  0.00     0.124 S 
ATOM     70  O   UNL     1     -10.315  -5.995  -8.950  1.00  0.00    -0.237 OA
ATOM     71  O   UNL     1      -8.294  -4.639  -9.384  1.00  0.00    -0.237 OA
ATOM     72  O   UNL     1      -8.073  -7.006  -8.739  1.00  0.00    -0.744 OA
ENDBRANCH  68  69
ENDBRANCH  40  63
BRANCH  52  73
ATOM     73  C   UNL     1     -13.943  -3.072   0.223  1.00  0.00    -0.014 A 
ATOM     74  C   UNL     1     -14.678  -4.267   0.111  1.00  0.00     0.010 A 
ATOM     75  C   UNL     1     -14.638  -1.850   0.291  1.00  0.00     0.010 A 
ATOM     76  C   UNL     1     -16.075  -4.236   0.042  1.00  0.00     0.020 A 
ATOM     77  C   UNL     1     -16.035  -1.816   0.254  1.00  0.00     0.020 A 
ATOM     78  C   UNL     1     -16.744  -3.010   0.117  1.00  0.00     0.054 A 
BRANCH  78  79
ATOM     79  S   UNL     1     -18.559  -3.002   0.080  1.00  0.00     0.124 S 
ATOM     80  O   UNL     1     -18.837  -3.336  -1.314  1.00  0.00    -0.237 OA
ATOM     81  O   UNL     1     -18.904  -4.033   1.055  1.00  0.00    -0.237 OA
ATOM     82  O   UNL     1     -18.908  -1.639   0.475  1.00  0.00    -0.744 OA
ENDBRANCH  78  79
ENDBRANCH  52  73
ENDBRANCH  26  27
ENDBRANCH  19  21
ENDBRANCH  18  19
ENDBRANCH   1  18
TORSDOF 16
