REMARK SMILES O=C(COc1ccc(C(=O)/C=C/c2ccc(Cl)c([N+](=O)[O-])c2)cc1)OCCOC(=O)c1ccc(-c2c3nc(c(-c4ccc(S(=O)(=O)[O-])cc4)c4ccc([nH]4)c(-c4ccc(S(=O)(=O)[O-])cc4)c4nc(c(-c5ccc(S(=O)(=O)[O-])cc5)c5ccc2[nH]5)C=C4)C=C3)cc1
REMARK SMILES IDX 25 1 2 2 1 3 3 4 4 5 5 6 6 7 24 8 7 9 23 10 8 11 9 12 10 13
REMARK SMILES IDX 11 14 12 15 13 16 14 17 22 18 15 19 18 20 16 21 17 22 19 23
REMARK SMILES IDX 20 24 21 25 26 26 27 27 28 28 29 29 30 30 31 31 32 32 90 33
REMARK SMILES IDX 33 34 89 35 34 36 35 37 36 38 83 39 37 40 88 41 82 42 84 43
REMARK SMILES IDX 38 44 87 45 81 46 80 47 39 49 69 50 50 51 68 52 51 53 54 54
REMARK SMILES IDX 67 55 85 56 52 57 53 58 66 60 86 61 55 62 40 63 41 64 49 65
REMARK SMILES IDX 42 66 48 67 43 68 44 69 45 70 46 71 47 72 70 73 71 74 79 75
REMARK SMILES IDX 72 76 78 77 73 78 74 79 75 80 76 81 77 82 56 83 57 84 65 85
REMARK SMILES IDX 58 86 64 87 59 88 60 89 61 90 62 91 63 92
REMARK H PARENT 84 48 54 59
REMARK Flexibility Score: inf
ROOT
ATOM      1  O   UNL     1       3.185   0.239   0.889  1.00  0.00    -0.460 OA
ENDROOT
BRANCH   1   2
ATOM      2  C   UNL     1       2.557   0.418  -0.300  1.00  0.00     0.344 C 
ATOM      3  O   UNL     1       1.350   0.653  -0.331  1.00  0.00    -0.248 OA
BRANCH   2   4
ATOM      4  C   UNL     1       3.393   0.383  -1.577  1.00  0.00     0.351 C 
BRANCH   4   5
ATOM      5  O   UNL     1       4.357   1.430  -1.685  1.00  0.00    -0.482 OA
BRANCH   5   6
ATOM      6  C   UNL     1       3.737   2.576  -2.102  1.00  0.00     0.120 A 
ATOM      7  C   UNL     1       3.658   2.862  -3.463  1.00  0.00     0.047 A 
ATOM      8  C   UNL     1       3.204   3.442  -1.152  1.00  0.00     0.047 A 
ATOM      9  C   UNL     1       2.954   3.991  -3.885  1.00  0.00     0.016 A 
ATOM     10  C   UNL     1       2.507   4.571  -1.573  1.00  0.00     0.016 A 
ATOM     11  C   UNL     1       2.339   4.825  -2.942  1.00  0.00     0.022 A 
BRANCH  11  12
ATOM     12  C   UNL     1       1.552   5.991  -3.420  1.00  0.00     0.185 C 
ATOM     13  O   UNL     1       1.889   6.594  -4.433  1.00  0.00    -0.289 OA
BRANCH  12  14
ATOM     14  C   UNL     1       0.375   6.474  -2.645  1.00  0.00     0.053 C 
ATOM     15  C   UNL     1      -0.420   5.686  -1.904  1.00  0.00     0.012 C 
BRANCH  15  16
ATOM     16  C   UNL     1      -1.496   6.239  -1.084  1.00  0.00    -0.019 A 
ATOM     17  C   UNL     1      -1.335   6.274   0.304  1.00  0.00     0.010 A 
ATOM     18  C   UNL     1      -2.671   6.734  -1.654  1.00  0.00     0.095 A 
ATOM     19  C   UNL     1      -2.332   6.819   1.118  1.00  0.00     0.028 A 
ATOM     20  C   UNL     1      -3.680   7.272  -0.830  1.00  0.00     0.288 A 
ATOM     21  C   UNL     1      -3.509   7.332   0.559  1.00  0.00     0.118 A 
ATOM     22  Cl  UNL     1      -4.619   8.053   1.670  1.00  0.00    -0.077 Cl
BRANCH  20  23
ATOM     23  N   UNL     1      -4.891   7.763  -1.487  1.00  0.00     0.064 N 
ATOM     24  O   UNL     1      -5.969   7.669  -0.889  1.00  0.00    -0.258 OA
ATOM     25  O   UNL     1      -4.766   8.213  -2.635  1.00  0.00    -0.258 OA
ENDBRANCH  20  23
ENDBRANCH  15  16
ENDBRANCH  12  14
ENDBRANCH  11  12
ENDBRANCH   5   6
ENDBRANCH   4   5
ENDBRANCH   2   4
ENDBRANCH   1   2
BRANCH   1  26
ATOM     26  C   UNL     1       4.518  -0.298   1.030  1.00  0.00     0.274 C 
BRANCH  26  27
ATOM     27  C   UNL     1       4.473  -1.813   1.237  1.00  0.00     0.275 C 
BRANCH  27  28
ATOM     28  O   UNL     1       4.059  -2.455   0.019  1.00  0.00    -0.458 OA
BRANCH  28  29
ATOM     29  C   UNL     1       2.750  -2.807  -0.057  1.00  0.00     0.338 C 
ATOM     30  O   UNL     1       1.929  -2.759   0.841  1.00  0.00    -0.246 OA
BRANCH  29  31
ATOM     31  C   UNL     1       2.421  -3.050  -1.480  1.00  0.00     0.060 A 
ATOM     32  C   UNL     1       1.203  -2.564  -1.975  1.00  0.00     0.016 A 
ATOM     33  C   UNL     1       3.321  -3.695  -2.333  1.00  0.00     0.016 A 
ATOM     34  C   UNL     1       0.875  -2.741  -3.322  1.00  0.00     0.010 A 
ATOM     35  C   UNL     1       2.989  -3.875  -3.677  1.00  0.00     0.010 A 
ATOM     36  C   UNL     1       1.756  -3.419  -4.173  1.00  0.00    -0.014 A 
BRANCH  36  37
ATOM     37  C   UNL     1       1.350  -3.804  -5.545  1.00  0.00     0.031 A 
ATOM     38  C   UNL     1       0.810  -5.188  -5.769  1.00  0.00     0.074 A 
ATOM     39  C   UNL     1       1.521  -2.969  -6.585  1.00  0.00     0.049 A 
ATOM     40  N   UNL     1       0.496  -5.782  -6.890  1.00  0.00    -0.248 NA
ATOM     41  C   UNL     1       0.612  -6.013  -4.566  1.00  0.00     0.031 C 
ATOM     42  C   UNL     1       2.024  -1.599  -6.501  1.00  0.00     0.029 A 
ATOM     43  N   UNL     1       1.316  -3.172  -7.928  1.00  0.00    -0.354 N 
ATOM     44  C   UNL     1       0.076  -7.057  -6.531  1.00  0.00     0.074 A 
ATOM     45  C   UNL     1       0.196  -7.155  -5.092  1.00  0.00     0.031 C 
ATOM     46  C   UNL     1       2.118  -1.094  -7.744  1.00  0.00     0.029 A 
ATOM     47  C   UNL     1       1.710  -2.114  -8.710  1.00  0.00     0.049 A 
ATOM     48  H   UNL     1       0.924  -3.998  -8.294  1.00  0.00     0.167 HD
ATOM     49  C   UNL     1      -0.368  -8.058  -7.326  1.00  0.00     0.031 A 
ATOM     50  C   UNL     1       1.767  -1.993 -10.052  1.00  0.00     0.031 A 
ATOM     51  C   UNL     1      -0.463  -7.973  -8.757  1.00  0.00     0.049 A 
ATOM     52  C   UNL     1       1.321  -3.137 -10.925  1.00  0.00     0.074 A 
ATOM     53  C   UNL     1      -0.930  -8.925  -9.646  1.00  0.00     0.029 A 
ATOM     54  N   UNL     1      -0.064  -6.880  -9.510  1.00  0.00    -0.354 N 
ATOM     55  N   UNL     1       0.868  -4.316 -10.570  1.00  0.00    -0.248 NA
ATOM     56  C   UNL     1       1.388  -2.933 -12.380  1.00  0.00     0.031 C 
ATOM     57  C   UNL     1      -0.763  -8.427 -10.942  1.00  0.00     0.029 A 
ATOM     58  C   UNL     1      -0.243  -7.145 -10.857  1.00  0.00     0.049 A 
ATOM     59  H   UNL     1       0.294  -6.040  -9.142  1.00  0.00     0.167 HD
ATOM     60  C   UNL     1       0.574  -4.984 -11.755  1.00  0.00     0.074 A 
ATOM     61  C   UNL     1       0.896  -4.078 -12.838  1.00  0.00     0.031 C 
ATOM     62  C   UNL     1       0.076  -6.233 -11.927  1.00  0.00     0.031 A 
BRANCH  49  63
ATOM     63  C   UNL     1      -0.738  -9.350  -6.652  1.00  0.00    -0.014 A 
ATOM     64  C   UNL     1      -1.901  -9.454  -5.868  1.00  0.00     0.010 A 
ATOM     65  C   UNL     1       0.099 -10.470  -6.794  1.00  0.00     0.010 A 
ATOM     66  C   UNL     1      -2.190 -10.641  -5.190  1.00  0.00     0.020 A 
ATOM     67  C   UNL     1      -0.200 -11.667  -6.138  1.00  0.00     0.020 A 
ATOM     68  C   UNL     1      -1.329 -11.736  -5.320  1.00  0.00     0.054 A 
BRANCH  68  69
ATOM     69  S   UNL     1      -1.710 -13.258  -4.411  1.00  0.00     0.124 S 
ATOM     70  O   UNL     1      -1.312 -12.901  -3.051  1.00  0.00    -0.237 OA
ATOM     71  O   UNL     1      -3.147 -13.411  -4.624  1.00  0.00    -0.237 OA
ATOM     72  O   UNL     1      -0.876 -14.266  -5.060  1.00  0.00    -0.744 OA
ENDBRANCH  68  69
ENDBRANCH  49  63
BRANCH  50  73
ATOM     73  C   UNL     1       2.297  -0.740 -10.653  1.00  0.00    -0.014 A 
ATOM     74  C   UNL     1       1.436   0.180 -11.274  1.00  0.00     0.010 A 
ATOM     75  C   UNL     1       3.673  -0.451 -10.582  1.00  0.00     0.010 A 
ATOM     76  C   UNL     1       1.941   1.365 -11.818  1.00  0.00     0.020 A 
ATOM     77  C   UNL     1       4.178   0.742 -11.105  1.00  0.00     0.020 A 
ATOM     78  C   UNL     1       3.309   1.640 -11.726  1.00  0.00     0.054 A 
BRANCH  78  79
ATOM     79  S   UNL     1       3.934   3.216 -12.373  1.00  0.00     0.124 S 
ATOM     80  O   UNL     1       3.935   2.974 -13.812  1.00  0.00    -0.237 OA
ATOM     81  O   UNL     1       2.941   4.172 -11.891  1.00  0.00    -0.237 OA
ATOM     82  O   UNL     1       5.254   3.336 -11.756  1.00  0.00    -0.744 OA
ENDBRANCH  78  79
ENDBRANCH  50  73
BRANCH  62  83
ATOM     83  C   UNL     1      -0.190  -6.702 -13.333  1.00  0.00    -0.014 A 
ATOM     84  C   UNL     1       0.859  -7.110 -14.174  1.00  0.00     0.010 A 
ATOM     85  C   UNL     1      -1.519  -6.843 -13.774  1.00  0.00     0.010 A 
ATOM     86  C   UNL     1       0.584  -7.647 -15.436  1.00  0.00     0.020 A 
ATOM     87  C   UNL     1      -1.799  -7.398 -15.025  1.00  0.00     0.020 A 
ATOM     88  C   UNL     1      -0.744  -7.793 -15.851  1.00  0.00     0.054 A 
BRANCH  88  89
ATOM     89  S   UNL     1      -1.080  -8.576 -17.453  1.00  0.00     0.124 S 
ATOM     90  O   UNL     1      -0.736  -7.511 -18.391  1.00  0.00    -0.237 OA
ATOM     91  O   UNL     1      -0.176  -9.724 -17.447  1.00  0.00    -0.237 OA
ATOM     92  O   UNL     1      -2.501  -8.911 -17.384  1.00  0.00    -0.744 OA
ENDBRANCH  88  89
ENDBRANCH  62  83
ENDBRANCH  36  37
ENDBRANCH  29  31
ENDBRANCH  28  29
ENDBRANCH  27  28
ENDBRANCH  26  27
ENDBRANCH   1  26
TORSDOF 20
