REMARK SMILES Cn1c(=O)c(=O)n(C)c2cc(S(=O)(=O)N3CCC[C@H]3C(=O)OCCOC(=O)c3ccc(-c4c5nc(c(-c6ccc(S(=O)(=O)[O-])cc6)c6ccc([nH]6)c(-c6ccc(S(=O)(=O)[O-])cc6)c6nc(c(-c7ccc(S(=O)(=O)[O-])cc7)c7ccc4[nH]7)C=C6)C=C5)cc3)ccc21
REMARK SMILES IDX 24 1 23 2 22 3 20 4 21 5 19 6 15 7 16 8 17 9 18 10 12 11
REMARK SMILES IDX 13 12 14 13 11 14 1 15 2 16 3 17 90 18 4 19 5 20 9 21 89 22
REMARK SMILES IDX 6 23 7 24 10 25 88 26 8 27 25 28 26 29 27 30 28 31 29 32
REMARK SMILES IDX 87 33 30 34 86 35 31 36 32 37 33 38 80 39 34 40 85 41 79 42
REMARK SMILES IDX 81 43 35 44 84 45 78 46 77 47 36 49 66 50 47 51 65 52 48 53
REMARK SMILES IDX 51 54 64 55 82 56 49 57 50 58 63 60 83 61 52 62 37 63 38 64
REMARK SMILES IDX 46 65 39 66 45 67 40 68 41 69 42 70 43 71 44 72 67 73 68 74
REMARK SMILES IDX 76 75 69 76 75 77 70 78 71 79 72 80 73 81 74 82 53 83 54 84
REMARK SMILES IDX 62 85 55 86 61 87 56 88 57 89 58 90 59 91 60 92
REMARK H PARENT 81 48 51 59
REMARK Flexibility Score: inf
ROOT
ATOM      1  C   UNL     1      -6.774   3.008  -8.820  1.00  0.00     0.275 C 
ENDROOT
BRANCH   1   2
ATOM      2  C   UNL     1      -6.787   1.896  -7.768  1.00  0.00     0.274 C 
BRANCH   2   3
ATOM      3  O   UNL     1      -6.096   2.273  -6.559  1.00  0.00    -0.461 OA
BRANCH   3   4
ATOM      4  C   UNL     1      -4.767   1.953  -6.535  1.00  0.00     0.324 C 
ATOM      5  O   UNL     1      -4.187   1.418  -7.469  1.00  0.00    -0.250 OA
BRANCH   4   6
ATOM      6  C   UNL     1      -4.128   2.349  -5.202  1.00  0.00     0.183 C 
ATOM      7  N   UNL     1      -2.648   2.216  -5.111  1.00  0.00    -0.184 NA
ATOM      8  C   UNL     1      -2.018   3.539  -5.177  1.00  0.00     0.103 C 
ATOM      9  C   UNL     1      -3.019   4.378  -4.407  1.00  0.00     0.019 C 
ATOM     10  C   UNL     1      -4.361   3.844  -4.898  1.00  0.00     0.034 C 
BRANCH   7  11
ATOM     11  S   UNL     1      -1.868   0.824  -5.607  1.00  0.00     0.243 S 
ATOM     12  O   UNL     1      -0.915   1.169  -6.636  1.00  0.00    -0.207 OA
ATOM     13  O   UNL     1      -2.860  -0.220  -5.747  1.00  0.00    -0.207 OA
BRANCH  11  14
ATOM     14  C   UNL     1      -0.924   0.320  -4.178  1.00  0.00     0.084 A 
ATOM     15  C   UNL     1       1.246  -0.250   0.437  1.00  0.00     0.154 C 
ATOM     16  N   UNL     1       0.886  -1.150  -0.648  1.00  0.00    -0.305 N 
ATOM     17  C   UNL     1       1.185  -2.500  -0.478  1.00  0.00     0.316 A 
ATOM     18  C   UNL     1       0.308  -0.660  -1.849  1.00  0.00     0.068 A 
ATOM     19  O   UNL     1       1.724  -2.950   0.531  1.00  0.00    -0.263 OA
ATOM     20  C   UNL     1       0.809  -3.470  -1.605  1.00  0.00     0.316 A 
ATOM     21  C   UNL     1      -0.005  -1.545  -2.899  1.00  0.00     0.069 A 
ATOM     22  C   UNL     1       0.021   0.707  -2.003  1.00  0.00     0.030 A 
ATOM     23  O   UNL     1       0.995  -4.671  -1.425  1.00  0.00    -0.263 OA
ATOM     24  N   UNL     1       0.261  -2.936  -2.767  1.00  0.00    -0.305 N 
ATOM     25  C   UNL     1      -0.611  -1.039  -4.061  1.00  0.00     0.050 A 
ATOM     26  C   UNL     1      -0.613   1.191  -3.145  1.00  0.00     0.024 A 
ATOM     27  C   UNL     1      -0.055  -3.852  -3.855  1.00  0.00     0.154 C 
ENDBRANCH  11  14
ENDBRANCH   7  11
ENDBRANCH   4   6
ENDBRANCH   3   4
ENDBRANCH   2   3
ENDBRANCH   1   2
BRANCH   1  28
ATOM     28  O   UNL     1      -5.447   3.253  -9.322  1.00  0.00    -0.458 OA
BRANCH  28  29
ATOM     29  C   UNL     1      -4.884   4.428  -8.958  1.00  0.00     0.338 C 
ATOM     30  O   UNL     1      -5.385   5.304  -8.272  1.00  0.00    -0.246 OA
BRANCH  29  31
ATOM     31  C   UNL     1      -3.504   4.508  -9.464  1.00  0.00     0.060 A 
ATOM     32  C   UNL     1      -3.174   5.377 -10.500  1.00  0.00     0.016 A 
ATOM     33  C   UNL     1      -2.500   3.816  -8.793  1.00  0.00     0.016 A 
ATOM     34  C   UNL     1      -1.829   5.528 -10.867  1.00  0.00     0.010 A 
ATOM     35  C   UNL     1      -1.159   4.043  -9.091  1.00  0.00     0.010 A 
ATOM     36  C   UNL     1      -0.802   4.883 -10.149  1.00  0.00    -0.014 A 
BRANCH  36  37
ATOM     37  C   UNL     1       0.636   5.079 -10.487  1.00  0.00     0.031 A 
ATOM     38  C   UNL     1       1.505   3.904 -10.870  1.00  0.00     0.074 A 
ATOM     39  C   UNL     1       1.183   6.310 -10.406  1.00  0.00     0.049 A 
ATOM     40  N   UNL     1       2.768   3.898 -11.217  1.00  0.00    -0.248 NA
ATOM     41  C   UNL     1       0.893   2.564 -10.835  1.00  0.00     0.031 C 
ATOM     42  C   UNL     1       0.480   7.518  -9.970  1.00  0.00     0.029 A 
ATOM     43  N   UNL     1       2.450   6.755 -10.699  1.00  0.00    -0.354 N 
ATOM     44  C   UNL     1       3.098   2.563 -11.428  1.00  0.00     0.074 A 
ATOM     45  C   UNL     1       1.927   1.782 -11.108  1.00  0.00     0.031 C 
ATOM     46  C   UNL     1       1.302   8.573 -10.087  1.00  0.00     0.029 A 
ATOM     47  C   UNL     1       2.603   8.116 -10.571  1.00  0.00     0.049 A 
ATOM     48  H   UNL     1       3.181   6.155 -10.975  1.00  0.00     0.167 HD
ATOM     49  C   UNL     1       4.258   2.035 -11.885  1.00  0.00     0.031 A 
ATOM     50  C   UNL     1       3.657   8.918 -10.830  1.00  0.00     0.031 A 
ATOM     51  C   UNL     1       5.412   2.815 -12.242  1.00  0.00     0.049 A 
ATOM     52  C   UNL     1       4.926   8.319 -11.369  1.00  0.00     0.074 A 
ATOM     53  C   UNL     1       6.606   2.375 -12.784  1.00  0.00     0.029 A 
ATOM     54  N   UNL     1       5.514   4.190 -12.104  1.00  0.00    -0.354 N 
ATOM     55  N   UNL     1       5.187   7.063 -11.639  1.00  0.00    -0.248 NA
ATOM     56  C   UNL     1       6.038   9.239 -11.651  1.00  0.00     0.031 C 
ATOM     57  C   UNL     1       7.449   3.477 -12.931  1.00  0.00     0.029 A 
ATOM     58  C   UNL     1       6.759   4.613 -12.536  1.00  0.00     0.049 A 
ATOM     59  H   UNL     1       4.807   4.778 -11.753  1.00  0.00     0.167 HD
ATOM     60  C   UNL     1       6.484   7.043 -12.138  1.00  0.00     0.074 A 
ATOM     61  C   UNL     1       6.953   8.413 -12.145  1.00  0.00     0.031 C 
ATOM     62  C   UNL     1       7.216   5.980 -12.550  1.00  0.00     0.031 A 
BRANCH  49  63
ATOM     63  C   UNL     1       4.334   0.542 -12.080  1.00  0.00    -0.014 A 
ATOM     64  C   UNL     1       5.216  -0.229 -11.301  1.00  0.00     0.010 A 
ATOM     65  C   UNL     1       3.612  -0.082 -13.114  1.00  0.00     0.010 A 
ATOM     66  C   UNL     1       5.392  -1.591 -11.566  1.00  0.00     0.020 A 
ATOM     67  C   UNL     1       3.762  -1.448 -13.363  1.00  0.00     0.020 A 
ATOM     68  C   UNL     1       4.668  -2.190 -12.601  1.00  0.00     0.054 A 
BRANCH  68  69
ATOM     69  S   UNL     1       4.914  -3.954 -12.942  1.00  0.00     0.124 S 
ATOM     70  O   UNL     1       6.179  -3.955 -13.669  1.00  0.00    -0.237 OA
ATOM     71  O   UNL     1       4.953  -4.539 -11.604  1.00  0.00    -0.237 OA
ATOM     72  O   UNL     1       3.738  -4.315 -13.733  1.00  0.00    -0.744 OA
ENDBRANCH  68  69
ENDBRANCH  49  63
BRANCH  50  73
ATOM     73  C   UNL     1       3.508  10.388 -10.649  1.00  0.00    -0.014 A 
ATOM     74  C   UNL     1       3.401  10.947  -9.363  1.00  0.00     0.010 A 
ATOM     75  C   UNL     1       3.371  11.225 -11.771  1.00  0.00     0.010 A 
ATOM     76  C   UNL     1       3.105  12.304  -9.201  1.00  0.00     0.020 A 
ATOM     77  C   UNL     1       3.100  12.588 -11.614  1.00  0.00     0.020 A 
ATOM     78  C   UNL     1       2.938  13.112 -10.329  1.00  0.00     0.054 A 
BRANCH  78  79
ATOM     79  S   UNL     1       2.486  14.854 -10.099  1.00  0.00     0.124 S 
ATOM     80  O   UNL     1       1.064  14.754  -9.780  1.00  0.00    -0.237 OA
ATOM     81  O   UNL     1       3.351  15.267  -8.997  1.00  0.00    -0.237 OA
ATOM     82  O   UNL     1       2.796  15.461 -11.391  1.00  0.00    -0.744 OA
ENDBRANCH  78  79
ENDBRANCH  50  73
BRANCH  62  83
ATOM     83  C   UNL     1       8.614   6.215 -13.053  1.00  0.00    -0.014 A 
ATOM     84  C   UNL     1       8.907   6.006 -14.414  1.00  0.00     0.010 A 
ATOM     85  C   UNL     1       9.667   6.449 -12.151  1.00  0.00     0.010 A 
ATOM     86  C   UNL     1      10.231   5.971 -14.856  1.00  0.00     0.020 A 
ATOM     87  C   UNL     1      10.992   6.438 -12.595  1.00  0.00     0.020 A 
ATOM     88  C   UNL     1      11.266   6.167 -13.938  1.00  0.00     0.054 A 
BRANCH  88  89
ATOM     89  S   UNL     1      12.982   6.031 -14.513  1.00  0.00     0.124 S 
ATOM     90  O   UNL     1      13.149   4.587 -14.642  1.00  0.00    -0.237 OA
ATOM     91  O   UNL     1      12.960   6.777 -15.769  1.00  0.00    -0.237 OA
ATOM     92  O   UNL     1      13.752   6.656 -13.440  1.00  0.00    -0.744 OA
ENDBRANCH  88  89
ENDBRANCH  62  83
ENDBRANCH  36  37
ENDBRANCH  29  31
ENDBRANCH  28  29
ENDBRANCH   1  28
TORSDOF 16
