REMARK SMILES Cc1[nH]c2ccccc2c1[C@@H](C(=O)OCCOC(=O)c1ccc(-c2c3nc(c(-c4ccc(S(=O)(=O)[O-])cc4)c4ccc([nH]4)c(-c4ccc(S(=O)(=O)[O-])cc4)c4nc(c(-c5ccc(S(=O)(=O)[O-])cc5)c5ccc2[nH]5)C=C4)C=C3)cc1)[NH+]1CCCC1
REMARK SMILES IDX 16 1 15 2 14 3 12 4 13 5 11 6 10 7 1 8 2 9 3 10 4 11 9 13
REMARK SMILES IDX 5 14 8 15 6 16 7 17 80 18 81 19 84 20 82 22 83 23 17 24
REMARK SMILES IDX 18 25 19 26 20 27 21 28 79 29 22 30 78 31 23 32 24 33 25 34
REMARK SMILES IDX 72 35 26 36 77 37 71 38 73 39 27 40 76 41 70 42 69 43 28 45
REMARK SMILES IDX 58 46 39 47 57 48 40 49 43 50 56 51 74 52 41 53 42 54 55 56
REMARK SMILES IDX 75 57 44 58 29 59 30 60 38 61 31 62 37 63 32 64 33 65 34 66
REMARK SMILES IDX 35 67 36 68 59 69 60 70 68 71 61 72 67 73 62 74 63 75 64 76
REMARK SMILES IDX 65 77 66 78 45 79 46 80 54 81 47 82 53 83 48 84 49 85 50 86
REMARK SMILES IDX 51 87 52 88
REMARK H PARENT 3 12 80 21 73 44 43 55
REMARK Flexibility Score: inf
ROOT
ATOM      1  C   UNL     1       0.375  -4.154  -3.399  1.00  0.00     0.275 C 
ENDROOT
BRANCH   1   2
ATOM      2  C   UNL     1      -0.998  -3.514  -3.203  1.00  0.00     0.274 C 
BRANCH   2   3
ATOM      3  O   UNL     1      -1.003  -2.585  -2.099  1.00  0.00    -0.457 OA
BRANCH   3   4
ATOM      4  C   UNL     1      -1.456  -3.091  -0.913  1.00  0.00     0.370 C 
ATOM      5  O   UNL     1      -1.781  -4.270  -0.774  1.00  0.00    -0.245 OA
BRANCH   4   6
ATOM      6  C   UNL     1      -1.715  -2.024   0.164  1.00  0.00     0.328 C 
BRANCH   6   7
ATOM      7  C   UNL     1      -1.230  -0.612  -0.097  1.00  0.00     0.049 A 
ATOM      8  C   UNL     1      -3.546   0.635  -0.102  1.00  0.00     0.065 C 
ATOM      9  C   UNL     1      -2.066   0.504  -0.163  1.00  0.00     0.022 A 
ATOM     10  N   UNL     1      -1.277   1.620  -0.248  1.00  0.00    -0.358 N 
ATOM     11  C   UNL     1       0.048   1.276  -0.289  1.00  0.00     0.046 A 
ATOM     12  H   UNL     1      -1.617   2.543  -0.275  1.00  0.00     0.166 HD
ATOM     13  C   UNL     1       0.115  -0.118  -0.293  1.00  0.00     0.009 A 
ATOM     14  C   UNL     1       1.179   2.103  -0.315  1.00  0.00     0.027 A 
ATOM     15  C   UNL     1       1.395  -0.703  -0.419  1.00  0.00     0.011 A 
ATOM     16  C   UNL     1       2.431   1.491  -0.366  1.00  0.00     0.002 A 
ATOM     17  C   UNL     1       2.540   0.107  -0.435  1.00  0.00     0.001 A 
ENDBRANCH   6   7
BRANCH   6  18
ATOM     18  N   UNL     1      -1.468  -2.537   1.538  1.00  0.00    -0.319 N 
ATOM     19  C   UNL     1      -2.247  -1.890   2.592  1.00  0.00     0.263 C 
ATOM     20  C   UNL     1      -0.101  -2.574   2.040  1.00  0.00     0.263 C 
ATOM     21  H   UNL     1      -1.769  -3.494   1.358  1.00  0.00     0.349 HD
ATOM     22  C   UNL     1      -1.324  -0.869   3.235  1.00  0.00     0.067 C 
ATOM     23  C   UNL     1       0.082  -1.379   2.964  1.00  0.00     0.067 C 
ENDBRANCH   6  18
ENDBRANCH   4   6
ENDBRANCH   3   4
ENDBRANCH   2   3
ENDBRANCH   1   2
BRANCH   1  24
ATOM     24  O   UNL     1       0.762  -4.844  -2.201  1.00  0.00    -0.458 OA
BRANCH  24  25
ATOM     25  C   UNL     1       2.027  -4.628  -1.769  1.00  0.00     0.338 C 
ATOM     26  O   UNL     1       2.902  -4.029  -2.371  1.00  0.00    -0.246 OA
BRANCH  25  27
ATOM     27  C   UNL     1       2.214  -5.173  -0.400  1.00  0.00     0.060 A 
ATOM     28  C   UNL     1       1.137  -5.384   0.458  1.00  0.00     0.016 A 
ATOM     29  C   UNL     1       3.511  -5.372   0.081  1.00  0.00     0.016 A 
ATOM     30  C   UNL     1       1.357  -5.676   1.805  1.00  0.00     0.010 A 
ATOM     31  C   UNL     1       3.721  -5.758   1.413  1.00  0.00     0.010 A 
ATOM     32  C   UNL     1       2.649  -5.868   2.313  1.00  0.00    -0.014 A 
BRANCH  32  33
ATOM     33  C   UNL     1       2.876  -6.129   3.771  1.00  0.00     0.031 A 
ATOM     34  C   UNL     1       3.860  -5.293   4.562  1.00  0.00     0.074 A 
ATOM     35  C   UNL     1       2.192  -7.095   4.422  1.00  0.00     0.049 A 
ATOM     36  N   UNL     1       4.354  -5.508   5.757  1.00  0.00    -0.248 NA
ATOM     37  C   UNL     1       4.372  -4.070   3.921  1.00  0.00     0.031 C 
ATOM     38  C   UNL     1       1.170  -7.964   3.834  1.00  0.00     0.029 A 
ATOM     39  N   UNL     1       2.240  -7.495   5.737  1.00  0.00    -0.354 N 
ATOM     40  C   UNL     1       5.296  -4.506   5.971  1.00  0.00     0.074 A 
ATOM     41  C   UNL     1       5.291  -3.669   4.790  1.00  0.00     0.031 C 
ATOM     42  C   UNL     1       0.635  -8.731   4.794  1.00  0.00     0.029 A 
ATOM     43  C   UNL     1       1.354  -8.502   6.041  1.00  0.00     0.049 A 
ATOM     44  H   UNL     1       2.852  -7.098   6.398  1.00  0.00     0.167 HD
ATOM     45  C   UNL     1       6.101  -4.309   7.044  1.00  0.00     0.031 A 
ATOM     46  C   UNL     1       1.162  -9.206   7.173  1.00  0.00     0.031 A 
ATOM     47  C   UNL     1       6.052  -5.088   8.256  1.00  0.00     0.049 A 
ATOM     48  C   UNL     1       2.047  -8.959   8.358  1.00  0.00     0.074 A 
ATOM     49  C   UNL     1       6.826  -4.955   9.397  1.00  0.00     0.029 A 
ATOM     50  N   UNL     1       5.160  -6.119   8.501  1.00  0.00    -0.354 N 
ATOM     51  N   UNL     1       3.021  -8.092   8.491  1.00  0.00    -0.248 NA
ATOM     52  C   UNL     1       1.827  -9.811   9.535  1.00  0.00     0.031 C 
ATOM     53  C   UNL     1       6.419  -5.923  10.323  1.00  0.00     0.029 A 
ATOM     54  C   UNL     1       5.363  -6.630   9.773  1.00  0.00     0.049 A 
ATOM     55  H   UNL     1       4.481  -6.442   7.865  1.00  0.00     0.167 HD
ATOM     56  C   UNL     1       3.540  -8.303   9.761  1.00  0.00     0.074 A 
ATOM     57  C   UNL     1       2.749  -9.353  10.371  1.00  0.00     0.031 C 
ATOM     58  C   UNL     1       4.590  -7.691  10.363  1.00  0.00     0.031 A 
BRANCH  45  59
ATOM     59  C   UNL     1       7.150  -3.232   6.949  1.00  0.00    -0.014 A 
ATOM     60  C   UNL     1       6.827  -1.869   7.059  1.00  0.00     0.010 A 
ATOM     61  C   UNL     1       8.501  -3.606   6.813  1.00  0.00     0.010 A 
ATOM     62  C   UNL     1       7.834  -0.898   7.009  1.00  0.00     0.020 A 
ATOM     63  C   UNL     1       9.512  -2.641   6.786  1.00  0.00     0.020 A 
ATOM     64  C   UNL     1       9.170  -1.290   6.870  1.00  0.00     0.054 A 
BRANCH  64  65
ATOM     65  S   UNL     1      10.463  -0.017   6.851  1.00  0.00     0.124 S 
ATOM     66  O   UNL     1      10.347   0.507   5.492  1.00  0.00    -0.237 OA
ATOM     67  O   UNL     1      10.039   0.892   7.912  1.00  0.00    -0.237 OA
ATOM     68  O   UNL     1      11.688  -0.764   7.128  1.00  0.00    -0.744 OA
ENDBRANCH  64  65
ENDBRANCH  45  59
BRANCH  46  69
ATOM     69  C   UNL     1       0.116 -10.263   7.208  1.00  0.00    -0.014 A 
ATOM     70  C   UNL     1      -1.069 -10.071   7.938  1.00  0.00     0.010 A 
ATOM     71  C   UNL     1       0.280 -11.445   6.463  1.00  0.00     0.010 A 
ATOM     72  C   UNL     1      -2.078 -11.038   7.912  1.00  0.00     0.020 A 
ATOM     73  C   UNL     1      -0.738 -12.399   6.410  1.00  0.00     0.020 A 
ATOM     74  C   UNL     1      -1.910 -12.191   7.140  1.00  0.00     0.054 A 
BRANCH  74  75
ATOM     75  S   UNL     1      -3.271 -13.386   7.023  1.00  0.00     0.124 S 
ATOM     76  O   UNL     1      -3.082 -14.181   8.232  1.00  0.00    -0.237 OA
ATOM     77  O   UNL     1      -4.454 -12.528   7.008  1.00  0.00    -0.237 OA
ATOM     78  O   UNL     1      -3.002 -14.080   5.765  1.00  0.00    -0.744 OA
ENDBRANCH  74  75
ENDBRANCH  46  69
BRANCH  58  79
ATOM     79  C   UNL     1       4.931  -8.144  11.755  1.00  0.00    -0.014 A 
ATOM     80  C   UNL     1       5.576  -9.374  11.975  1.00  0.00     0.010 A 
ATOM     81  C   UNL     1       4.596  -7.336  12.855  1.00  0.00     0.010 A 
ATOM     82  C   UNL     1       5.833  -9.813  13.277  1.00  0.00     0.020 A 
ATOM     83  C   UNL     1       4.870  -7.762  14.157  1.00  0.00     0.020 A 
ATOM     84  C   UNL     1       5.466  -9.009  14.360  1.00  0.00     0.054 A 
BRANCH  84  85
ATOM     85  S   UNL     1       5.796  -9.600  16.044  1.00  0.00     0.124 S 
ATOM     86  O   UNL     1       4.707 -10.552  16.249  1.00  0.00    -0.237 OA
ATOM     87  O   UNL     1       7.129 -10.186  15.927  1.00  0.00    -0.237 OA
ATOM     88  O   UNL     1       5.725  -8.387  16.854  1.00  0.00    -0.744 OA
ENDBRANCH  84  85
ENDBRANCH  58  79
ENDBRANCH  32  33
ENDBRANCH  25  27
ENDBRANCH  24  25
ENDBRANCH   1  24
TORSDOF 16
