REMARK SMILES CCC[NH+]1CCN(c2cc(C(=O)OCCOC(=O)c3ccc(-c4c5nc(c(-c6ccc(S(=O)(=O)[O-])cc6)c6ccc([nH]6)c(-c6ccc(S(=O)(=O)[O-])cc6)c6nc(c(-c7ccc(S(=O)(=O)[O-])cc7)c7ccc4[nH]7)C=C6)C=C5)cc3)c3cc(NC(=O)c4ccc(F)cc4)ccc3n2)CC1
REMARK SMILES IDX 14 1 13 2 11 3 12 4 10 5 8 6 9 7 95 8 94 9 79 10 93 11 80 12
REMARK SMILES IDX 92 13 81 14 7 15 4 16 5 17 97 18 6 20 96 21 3 22 2 23 1 24
REMARK SMILES IDX 82 25 83 26 84 28 85 29 86 30 91 31 87 32 90 33 88 34 89 35
REMARK SMILES IDX 15 36 16 37 17 38 18 39 19 40 20 41 78 42 21 43 77 44 22 45
REMARK SMILES IDX 23 46 24 47 71 48 25 49 76 50 70 51 72 52 26 53 75 54 69 55
REMARK SMILES IDX 68 56 27 58 57 59 38 60 56 61 39 62 42 63 55 64 73 65 40 66
REMARK SMILES IDX 41 67 54 69 74 70 43 71 28 72 29 73 37 74 30 75 36 76 31 77
REMARK SMILES IDX 32 78 33 79 34 80 35 81 58 82 59 83 67 84 60 85 66 86 61 87
REMARK SMILES IDX 62 88 63 89 64 90 65 91 44 92 45 93 53 94 46 95 52 96 47 97
REMARK SMILES IDX 48 98 49 99 50 100 51 101
REMARK H PARENT 4 19 82 27 72 57 42 68
REMARK Flexibility Score: inf
ROOT
ATOM      1  C   UNL     1      -1.547  -6.089   3.434  1.00  0.00     0.275 C 
ENDROOT
BRANCH   1   2
ATOM      2  O   UNL     1      -1.767  -5.600   2.093  1.00  0.00    -0.458 OA
BRANCH   2   3
ATOM      3  C   UNL     1      -2.270  -4.343   2.012  1.00  0.00     0.339 C 
ATOM      4  O   UNL     1      -2.507  -3.593   2.941  1.00  0.00    -0.246 OA
BRANCH   3   5
ATOM      5  C   UNL     1      -2.458  -3.934   0.606  1.00  0.00     0.073 A 
ATOM      6  C   UNL     1      -1.978  -2.316  -1.096  1.00  0.00     0.130 A 
ATOM      7  C   UNL     1      -1.725  -2.833   0.159  1.00  0.00     0.063 A 
ATOM      8  N   UNL     1      -2.996  -2.786  -1.839  1.00  0.00    -0.231 NA
ATOM      9  C   UNL     1      -3.707  -3.839  -1.414  1.00  0.00     0.074 A 
ATOM     10  C   UNL     1      -3.459  -4.501  -0.201  1.00  0.00     0.017 A 
ATOM     11  C   UNL     1      -4.743  -4.289  -2.212  1.00  0.00     0.031 A 
ATOM     12  C   UNL     1      -4.230  -5.644   0.139  1.00  0.00     0.037 A 
ATOM     13  C   UNL     1      -5.530  -5.385  -1.849  1.00  0.00     0.028 A 
ATOM     14  C   UNL     1      -5.282  -6.076  -0.663  1.00  0.00     0.042 A 
BRANCH   6  15
ATOM     15  N   UNL     1      -1.219  -1.302  -1.634  1.00  0.00    -0.345 N 
ATOM     16  N   UNL     1       0.343   0.941  -2.644  1.00  0.00    -0.332 N 
ATOM     17  C   UNL     1       0.882  -0.421  -2.628  1.00  0.00     0.284 C 
ATOM     18  C   UNL     1      -1.121   0.969  -2.634  1.00  0.00     0.284 C 
ATOM     19  H   UNL     1       0.587   1.303  -3.565  1.00  0.00     0.348 HD
ATOM     20  C   UNL     1       0.242  -1.405  -1.626  1.00  0.00     0.179 C 
ATOM     21  C   UNL     1      -1.808   0.036  -1.613  1.00  0.00     0.179 C 
BRANCH  16  22
ATOM     22  C   UNL     1       1.053   1.954  -1.875  1.00  0.00     0.262 C 
BRANCH  22  23
ATOM     23  C   UNL     1       0.624   2.298  -0.444  1.00  0.00     0.058 C 
ATOM     24  C   UNL     1       0.944   1.243   0.596  1.00  0.00     0.010 C 
ENDBRANCH  22  23
ENDBRANCH  16  22
ENDBRANCH   6  15
BRANCH  14  25
ATOM     25  N   UNL     1      -6.091  -7.193  -0.400  1.00  0.00    -0.322 N 
ATOM     26  C   UNL     1      -6.222  -8.041   0.673  1.00  0.00     0.255 C 
ATOM     27  H   UNL     1      -6.695  -7.416  -1.144  1.00  0.00     0.170 HD
ATOM     28  O   UNL     1      -6.832  -9.101   0.524  1.00  0.00    -0.269 OA
BRANCH  26  29
ATOM     29  C   UNL     1      -5.719  -7.726   2.025  1.00  0.00     0.040 A 
ATOM     30  C   UNL     1      -5.029  -8.729   2.722  1.00  0.00     0.017 A 
ATOM     31  C   UNL     1      -6.000  -6.502   2.648  1.00  0.00     0.017 A 
ATOM     32  C   UNL     1      -4.595  -8.497   4.027  1.00  0.00     0.040 A 
ATOM     33  C   UNL     1      -5.545  -6.267   3.947  1.00  0.00     0.040 A 
ATOM     34  C   UNL     1      -4.856  -7.269   4.626  1.00  0.00     0.123 A 
ATOM     35  F   UNL     1      -4.404  -7.036   5.865  1.00  0.00    -0.207 F 
ENDBRANCH  26  29
ENDBRANCH  14  25
ENDBRANCH   3   5
ENDBRANCH   2   3
ENDBRANCH   1   2
BRANCH   1  36
ATOM     36  C   UNL     1      -0.370  -7.066   3.477  1.00  0.00     0.275 C 
BRANCH  36  37
ATOM     37  O   UNL     1       0.849  -6.310   3.546  1.00  0.00    -0.458 OA
BRANCH  37  38
ATOM     38  C   UNL     1       1.311  -5.902   2.345  1.00  0.00     0.338 C 
ATOM     39  O   UNL     1       1.012  -6.330   1.242  1.00  0.00    -0.246 OA
BRANCH  38  40
ATOM     40  C   UNL     1       2.009  -4.633   2.556  1.00  0.00     0.060 A 
ATOM     41  C   UNL     1       1.274  -3.474   2.312  1.00  0.00     0.016 A 
ATOM     42  C   UNL     1       3.354  -4.569   2.896  1.00  0.00     0.016 A 
ATOM     43  C   UNL     1       1.899  -2.238   2.293  1.00  0.00     0.010 A 
ATOM     44  C   UNL     1       3.974  -3.317   2.929  1.00  0.00     0.010 A 
ATOM     45  C   UNL     1       3.265  -2.150   2.574  1.00  0.00    -0.014 A 
BRANCH  45  46
ATOM     46  C   UNL     1       3.987  -0.877   2.334  1.00  0.00     0.031 A 
ATOM     47  C   UNL     1       5.037  -0.845   1.254  1.00  0.00     0.074 A 
ATOM     48  C   UNL     1       3.677   0.248   3.006  1.00  0.00     0.049 A 
ATOM     49  N   UNL     1       5.952   0.056   1.016  1.00  0.00    -0.248 NA
ATOM     50  C   UNL     1       5.065  -1.991   0.327  1.00  0.00     0.031 C 
ATOM     51  C   UNL     1       2.596   0.389   3.984  1.00  0.00     0.029 A 
ATOM     52  N   UNL     1       4.236   1.500   2.948  1.00  0.00    -0.354 N 
ATOM     53  C   UNL     1       6.713  -0.451  -0.031  1.00  0.00     0.074 A 
ATOM     54  C   UNL     1       6.144  -1.728  -0.396  1.00  0.00     0.031 C 
ATOM     55  C   UNL     1       2.551   1.663   4.408  1.00  0.00     0.029 A 
ATOM     56  C   UNL     1       3.657   2.402   3.809  1.00  0.00     0.049 A 
ATOM     57  H   UNL     1       4.981   1.730   2.348  1.00  0.00     0.167 HD
ATOM     58  C   UNL     1       7.800   0.099  -0.622  1.00  0.00     0.031 A 
ATOM     59  C   UNL     1       4.013   3.664   4.119  1.00  0.00     0.031 A 
ATOM     60  C   UNL     1       8.321   1.393  -0.276  1.00  0.00     0.049 A 
ATOM     61  C   UNL     1       5.255   4.238   3.487  1.00  0.00     0.074 A 
ATOM     62  C   UNL     1       9.441   2.035  -0.773  1.00  0.00     0.029 A 
ATOM     63  N   UNL     1       7.734   2.256   0.637  1.00  0.00    -0.354 N 
ATOM     64  N   UNL     1       6.048   3.699   2.591  1.00  0.00    -0.248 NA
ATOM     65  C   UNL     1       5.665   5.576   3.931  1.00  0.00     0.031 C 
ATOM     66  C   UNL     1       9.545   3.278  -0.139  1.00  0.00     0.029 A 
ATOM     67  C   UNL     1       8.465   3.427   0.717  1.00  0.00     0.049 A 
ATOM     68  H   UNL     1       6.918   2.063   1.153  1.00  0.00     0.167 HD
ATOM     69  C   UNL     1       7.047   4.637   2.358  1.00  0.00     0.074 A 
ATOM     70  C   UNL     1       6.742   5.787   3.187  1.00  0.00     0.031 C 
ATOM     71  C   UNL     1       8.128   4.556   1.544  1.00  0.00     0.031 A 
BRANCH  58  72
ATOM     72  C   UNL     1       8.523  -0.718  -1.657  1.00  0.00    -0.014 A 
ATOM     73  C   UNL     1       7.994  -0.915  -2.944  1.00  0.00     0.010 A 
ATOM     74  C   UNL     1       9.778  -1.272  -1.340  1.00  0.00     0.010 A 
ATOM     75  C   UNL     1       8.695  -1.674  -3.886  1.00  0.00     0.020 A 
ATOM     76  C   UNL     1      10.493  -2.010  -2.287  1.00  0.00     0.020 A 
ATOM     77  C   UNL     1       9.939  -2.218  -3.551  1.00  0.00     0.054 A 
BRANCH  77  78
ATOM     78  S   UNL     1      10.844  -3.169  -4.804  1.00  0.00     0.124 S 
ATOM     79  O   UNL     1      10.087  -4.418  -4.837  1.00  0.00    -0.237 OA
ATOM     80  O   UNL     1      10.722  -2.329  -5.994  1.00  0.00    -0.237 OA
ATOM     81  O   UNL     1      12.193  -3.272  -4.254  1.00  0.00    -0.744 OA
ENDBRANCH  77  78
ENDBRANCH  58  72
BRANCH  59  82
ATOM     82  C   UNL     1       3.242   4.442   5.128  1.00  0.00    -0.014 A 
ATOM     83  C   UNL     1       2.532   5.598   4.756  1.00  0.00     0.010 A 
ATOM     84  C   UNL     1       3.230   4.042   6.477  1.00  0.00     0.010 A 
ATOM     85  C   UNL     1       1.844   6.348   5.716  1.00  0.00     0.020 A 
ATOM     86  C   UNL     1       2.517   4.769   7.434  1.00  0.00     0.020 A 
ATOM     87  C   UNL     1       1.842   5.928   7.049  1.00  0.00     0.054 A 
BRANCH  87  88
ATOM     88  S   UNL     1       0.915   6.892   8.276  1.00  0.00     0.124 S 
ATOM     89  O   UNL     1       1.812   8.017   8.517  1.00  0.00    -0.237 OA
ATOM     90  O   UNL     1      -0.322   7.207   7.566  1.00  0.00    -0.237 OA
ATOM     91  O   UNL     1       0.762   5.961   9.393  1.00  0.00    -0.744 OA
ENDBRANCH  87  88
ENDBRANCH  59  82
BRANCH  71  92
ATOM     92  C   UNL     1       9.031   5.755   1.482  1.00  0.00    -0.014 A 
ATOM     93  C   UNL     1       9.918   6.051   2.531  1.00  0.00     0.010 A 
ATOM     94  C   UNL     1       9.025   6.566   0.332  1.00  0.00     0.010 A 
ATOM     95  C   UNL     1      10.763   7.159   2.445  1.00  0.00     0.020 A 
ATOM     96  C   UNL     1       9.886   7.660   0.233  1.00  0.00     0.020 A 
ATOM     97  C   UNL     1      10.739   7.958   1.297  1.00  0.00     0.054 A 
BRANCH  97  98
ATOM     98  S   UNL     1      11.873   9.369   1.191  1.00  0.00     0.124 S 
ATOM     99  O   UNL     1      11.229  10.342   2.070  1.00  0.00    -0.237 OA
ATOM    100  O   UNL     1      13.130   8.811   1.686  1.00  0.00    -0.237 OA
ATOM    101  O   UNL     1      11.868   9.711  -0.229  1.00  0.00    -0.744 OA
ENDBRANCH  97  98
ENDBRANCH  71  92
ENDBRANCH  45  46
ENDBRANCH  38  40
ENDBRANCH  37  38
ENDBRANCH  36  37
ENDBRANCH   1  36
TORSDOF 19
