REMARK SMILES CC(C)C[C@H](NC(=O)[C@H](C)NC(=O)[C@@H](NC(=O)CNC(=O)OCc1ccccc1)C(C)C)C(=O)OCCOC(=O)c1ccc(-c2c3nc(c(-c4ccc(S(=O)(=O)[O-])cc4)c4ccc([nH]4)c(-c4ccc(S(=O)(=O)[O-])cc4)c4nc(c(-c5ccc(S(=O)(=O)[O-])cc5)c5ccc2[nH]5)C=C4)C=C3)cc1
REMARK SMILES IDX 5 1 4 2 2 3 1 4 3 5 33 6 34 7 35 8 36 9 37 10 38 11 39 12
REMARK SMILES IDX 40 13 41 14 42 15 100 16 43 17 99 18 44 19 45 20 46 21 93 22
REMARK SMILES IDX 47 23 98 24 92 25 94 26 48 27 97 28 91 29 90 30 49 32 79 33
REMARK SMILES IDX 60 34 78 35 61 36 64 37 77 38 95 39 62 40 63 41 76 43 96 44
REMARK SMILES IDX 65 45 50 46 51 47 59 48 52 49 58 50 53 51 54 52 55 53 56 54
REMARK SMILES IDX 57 55 80 56 81 57 89 58 82 59 88 60 83 61 84 62 85 63 86 64
REMARK SMILES IDX 87 65 66 66 67 67 75 68 68 69 74 70 69 71 70 72 71 73 72 74
REMARK SMILES IDX 73 75 6 76 7 77 8 79 9 80 10 81 11 82 12 83 13 85 14 86
REMARK SMILES IDX 15 87 16 88 17 90 18 91 19 92 20 93 21 95 22 96 23 97 24 98
REMARK SMILES IDX 25 99 29 100 26 101 28 102 27 103 30 104 31 105 32 106
REMARK H PARENT 94 31 64 42 6 78 11 84 15 89 19 94
REMARK Flexibility Score: inf
ROOT
ATOM      1  C   UNL     1       1.639   3.964   0.092  1.00  0.00     0.192 C 
ENDROOT
BRANCH   1   2
ATOM      2  C   UNL     1       2.732   3.069   0.706  1.00  0.00     0.040 C 
BRANCH   2   3
ATOM      3  C   UNL     1       3.862   3.652   1.572  1.00  0.00    -0.015 C 
ATOM      4  C   UNL     1       3.411   3.983   2.992  1.00  0.00     0.007 C 
ATOM      5  C   UNL     1       5.019   2.642   1.693  1.00  0.00     0.007 C 
ENDBRANCH   2   3
ENDBRANCH   1   2
BRANCH   1   6
ATOM      6  C   UNL     1       1.924   5.474   0.270  1.00  0.00     0.328 C 
ATOM      7  O   UNL     1       1.965   6.029   1.361  1.00  0.00    -0.250 OA
BRANCH   6   8
ATOM      8  O   UNL     1       2.167   6.128  -0.904  1.00  0.00    -0.461 OA
BRANCH   8   9
ATOM      9  C   UNL     1       2.503   7.525  -0.752  1.00  0.00     0.274 C 
BRANCH   9  10
ATOM     10  C   UNL     1       1.290   8.467  -0.817  1.00  0.00     0.275 C 
BRANCH  10  11
ATOM     11  O   UNL     1       0.330   8.243   0.232  1.00  0.00    -0.458 OA
BRANCH  11  12
ATOM     12  C   UNL     1      -0.603   7.301  -0.058  1.00  0.00     0.338 C 
ATOM     13  O   UNL     1      -0.699   6.685  -1.107  1.00  0.00    -0.246 OA
BRANCH  12  14
ATOM     14  C   UNL     1      -1.355   6.930   1.155  1.00  0.00     0.060 A 
ATOM     15  C   UNL     1      -1.350   5.577   1.500  1.00  0.00     0.016 A 
ATOM     16  C   UNL     1      -2.093   7.838   1.911  1.00  0.00     0.016 A 
ATOM     17  C   UNL     1      -2.020   5.119   2.622  1.00  0.00     0.010 A 
ATOM     18  C   UNL     1      -2.810   7.374   3.023  1.00  0.00     0.010 A 
ATOM     19  C   UNL     1      -2.770   6.013   3.386  1.00  0.00    -0.014 A 
BRANCH  19  20
ATOM     20  C   UNL     1      -3.601   5.472   4.485  1.00  0.00     0.031 A 
ATOM     21  C   UNL     1      -5.083   5.347   4.282  1.00  0.00     0.074 A 
ATOM     22  C   UNL     1      -3.020   5.014   5.610  1.00  0.00     0.049 A 
ATOM     23  N   UNL     1      -6.006   4.984   5.132  1.00  0.00    -0.248 NA
ATOM     24  C   UNL     1      -5.592   5.672   2.939  1.00  0.00     0.031 C 
ATOM     25  C   UNL     1      -1.578   4.984   5.866  1.00  0.00     0.029 A 
ATOM     26  N   UNL     1      -3.571   4.475   6.744  1.00  0.00    -0.354 N 
ATOM     27  C   UNL     1      -7.208   5.067   4.439  1.00  0.00     0.074 A 
ATOM     28  C   UNL     1      -6.899   5.527   3.103  1.00  0.00     0.031 C 
ATOM     29  C   UNL     1      -1.360   4.452   7.080  1.00  0.00     0.029 A 
ATOM     30  C   UNL     1      -2.644   4.164   7.711  1.00  0.00     0.049 A 
ATOM     31  H   UNL     1      -4.538   4.325   6.856  1.00  0.00     0.167 HD
ATOM     32  C   UNL     1      -8.456   4.786   4.883  1.00  0.00     0.031 A 
ATOM     33  C   UNL     1      -2.817   3.734   8.976  1.00  0.00     0.031 A 
ATOM     34  C   UNL     1      -8.742   4.328   6.217  1.00  0.00     0.049 A 
ATOM     35  C   UNL     1      -4.221   3.523   9.479  1.00  0.00     0.074 A 
ATOM     36  C   UNL     1      -9.969   4.041   6.787  1.00  0.00     0.029 A 
ATOM     37  N   UNL     1      -7.782   4.083   7.190  1.00  0.00    -0.354 N 
ATOM     38  N   UNL     1      -5.356   3.657   8.833  1.00  0.00    -0.248 NA
ATOM     39  C   UNL     1      -4.369   3.109  10.880  1.00  0.00     0.031 C 
ATOM     40  C   UNL     1      -9.755   3.673   8.119  1.00  0.00     0.029 A 
ATOM     41  C   UNL     1      -8.390   3.667   8.361  1.00  0.00     0.049 A 
ATOM     42  H   UNL     1      -6.811   4.190   7.065  1.00  0.00     0.167 HD
ATOM     43  C   UNL     1      -6.352   3.318   9.742  1.00  0.00     0.074 A 
ATOM     44  C   UNL     1      -5.683   2.956  10.975  1.00  0.00     0.031 C 
ATOM     45  C   UNL     1      -7.698   3.308   9.575  1.00  0.00     0.031 A 
BRANCH  32  46
ATOM     46  C   UNL     1      -9.601   5.024   3.935  1.00  0.00    -0.014 A 
ATOM     47  C   UNL     1      -9.812   4.201   2.813  1.00  0.00     0.010 A 
ATOM     48  C   UNL     1     -10.492   6.085   4.180  1.00  0.00     0.010 A 
ATOM     49  C   UNL     1     -10.867   4.461   1.933  1.00  0.00     0.020 A 
ATOM     50  C   UNL     1     -11.566   6.330   3.319  1.00  0.00     0.020 A 
ATOM     51  C   UNL     1     -11.736   5.526   2.190  1.00  0.00     0.054 A 
BRANCH  51  52
ATOM     52  S   UNL     1     -13.106   5.830   1.042  1.00  0.00     0.124 S 
ATOM     53  O   UNL     1     -12.409   6.362  -0.126  1.00  0.00    -0.237 OA
ATOM     54  O   UNL     1     -13.685   4.500   0.875  1.00  0.00    -0.237 OA
ATOM     55  O   UNL     1     -13.950   6.788   1.752  1.00  0.00    -0.744 OA
ENDBRANCH  51  52
ENDBRANCH  32  46
BRANCH  33  56
ATOM     56  C   UNL     1      -1.641   3.531   9.870  1.00  0.00    -0.014 A 
ATOM     57  C   UNL     1      -1.300   2.251  10.338  1.00  0.00     0.010 A 
ATOM     58  C   UNL     1      -0.857   4.632  10.267  1.00  0.00     0.010 A 
ATOM     59  C   UNL     1      -0.214   2.077  11.203  1.00  0.00     0.020 A 
ATOM     60  C   UNL     1       0.248   4.459  11.104  1.00  0.00     0.020 A 
ATOM     61  C   UNL     1       0.554   3.183  11.580  1.00  0.00     0.054 A 
BRANCH  61  62
ATOM     62  S   UNL     1       1.980   2.930  12.674  1.00  0.00     0.124 S 
ATOM     63  O   UNL     1       1.334   2.664  13.956  1.00  0.00    -0.237 OA
ATOM     64  O   UNL     1       2.654   1.792  12.056  1.00  0.00    -0.237 OA
ATOM     65  O   UNL     1       2.705   4.196  12.589  1.00  0.00    -0.744 OA
ENDBRANCH  61  62
ENDBRANCH  33  56
BRANCH  45  66
ATOM     66  C   UNL     1      -8.531   2.847  10.740  1.00  0.00    -0.014 A 
ATOM     67  C   UNL     1      -8.686   3.642  11.890  1.00  0.00     0.010 A 
ATOM     68  C   UNL     1      -9.207   1.616  10.660  1.00  0.00     0.010 A 
ATOM     69  C   UNL     1      -9.474   3.196  12.953  1.00  0.00     0.020 A 
ATOM     70  C   UNL     1     -10.021   1.181  11.707  1.00  0.00     0.020 A 
ATOM     71  C   UNL     1     -10.137   1.968  12.855  1.00  0.00     0.054 A 
BRANCH  71  72
ATOM     72  S   UNL     1     -11.185   1.429  14.233  1.00  0.00     0.124 S 
ATOM     73  O   UNL     1     -10.195   1.054  15.239  1.00  0.00    -0.237 OA
ATOM     74  O   UNL     1     -11.961   2.629  14.533  1.00  0.00    -0.237 OA
ATOM     75  O   UNL     1     -11.954   0.321  13.672  1.00  0.00    -0.744 OA
ENDBRANCH  71  72
ENDBRANCH  45  66
ENDBRANCH  19  20
ENDBRANCH  12  14
ENDBRANCH  11  12
ENDBRANCH  10  11
ENDBRANCH   9  10
ENDBRANCH   8   9
ENDBRANCH   6   8
ENDBRANCH   1   6
BRANCH   1  76
ATOM     76  N   UNL     1       1.311   3.649  -1.329  1.00  0.00    -0.341 N 
ATOM     77  C   UNL     1       0.466   2.651  -1.757  1.00  0.00     0.242 C 
ATOM     78  H   UNL     1       1.737   4.204  -2.022  1.00  0.00     0.164 HD
ATOM     79  O   UNL     1      -0.611   2.983  -2.258  1.00  0.00    -0.273 OA
BRANCH  77  80
ATOM     80  C   UNL     1       1.029   1.228  -1.988  1.00  0.00     0.168 C 
ATOM     81  C   UNL     1      -0.100   0.222  -2.219  1.00  0.00     0.041 C 
BRANCH  80  82
ATOM     82  N   UNL     1       1.943   0.722  -0.987  1.00  0.00    -0.343 N 
ATOM     83  C   UNL     1       3.279   0.480  -1.056  1.00  0.00     0.243 C 
ATOM     84  H   UNL     1       1.531   0.520  -0.116  1.00  0.00     0.164 HD
ATOM     85  O   UNL     1       3.814   0.079  -0.015  1.00  0.00    -0.273 OA
BRANCH  83  86
ATOM     86  C   UNL     1       4.143   0.666  -2.340  1.00  0.00     0.174 C 
BRANCH  86  87
ATOM     87  N   UNL     1       3.563  -0.195  -3.405  1.00  0.00    -0.343 N 
ATOM     88  C   UNL     1       3.053  -0.035  -4.657  1.00  0.00     0.240 C 
ATOM     89  H   UNL     1       3.542  -1.140  -3.130  1.00  0.00     0.164 HD
ATOM     90  O   UNL     1       2.466  -1.022  -5.121  1.00  0.00    -0.273 OA
BRANCH  88  91
ATOM     91  C   UNL     1       3.125   1.263  -5.498  1.00  0.00     0.219 C 
BRANCH  91  92
ATOM     92  N   UNL     1       2.096   2.238  -5.176  1.00  0.00    -0.312 N 
ATOM     93  C   UNL     1       2.226   3.578  -4.923  1.00  0.00     0.407 C 
ATOM     94  H   UNL     1       1.177   1.886  -5.134  1.00  0.00     0.167 HD
ATOM     95  O   UNL     1       1.313   4.181  -4.400  1.00  0.00    -0.225 OA
BRANCH  93  96
ATOM     96  O   UNL     1       3.448   4.098  -5.221  1.00  0.00    -0.445 OA
BRANCH  96  97
ATOM     97  C   UNL     1       3.780   5.343  -4.569  1.00  0.00     0.270 C 
BRANCH  97  98
ATOM     98  C   UNL     1       3.078   6.592  -5.048  1.00  0.00    -0.011 A 
ATOM     99  C   UNL     1       3.585   7.364  -6.101  1.00  0.00     0.007 A 
ATOM    100  C   UNL     1       1.910   7.028  -4.403  1.00  0.00     0.007 A 
ATOM    101  C   UNL     1       2.926   8.532  -6.500  1.00  0.00     0.000 A 
ATOM    102  C   UNL     1       1.244   8.181  -4.812  1.00  0.00     0.000 A 
ATOM    103  C   UNL     1       1.754   8.936  -5.862  1.00  0.00     0.000 A 
ENDBRANCH  97  98
ENDBRANCH  96  97
ENDBRANCH  93  96
ENDBRANCH  91  92
ENDBRANCH  88  91
ENDBRANCH  86  87
BRANCH  86 104
ATOM    104  C   UNL     1       4.660   2.032  -2.834  1.00  0.00     0.015 C 
ATOM    105  C   UNL     1       4.862   3.228  -1.917  1.00  0.00     0.010 C 
ATOM    106  C   UNL     1       5.993   1.821  -3.570  1.00  0.00     0.010 C 
ENDBRANCH  86 104
ENDBRANCH  83  86
ENDBRANCH  80  82
ENDBRANCH  77  80
ENDBRANCH   1  76
TORSDOF 27
