REMARK SMILES Cc1noc(C)c1[C@H](C)NC(=O)NC[C@@](C)(O)C(=O)OCCOC(=O)c1ccc(-c2c3nc(c(-c4ccc(S(=O)(=O)[O-])cc4)c4ccc([nH]4)c(-c4ccc(S(=O)(=O)[O-])cc4)c4nc(c(-c5ccc(S(=O)(=O)[O-])cc5)c5ccc2[nH]5)C=C4)C=C3)cc1
REMARK SMILES IDX 21 1 20 2 18 3 19 4 15 5 16 6 14 7 13 8 10 9 11 10 12 12
REMARK SMILES IDX 8 14 9 15 7 16 1 17 2 18 3 19 4 20 5 21 6 22 17 23 22 25
REMARK SMILES IDX 23 26 24 27 25 28 26 29 27 30 85 31 28 32 84 33 29 34 30 35
REMARK SMILES IDX 31 36 78 37 32 38 83 39 77 40 79 41 33 42 82 43 76 44 75 45
REMARK SMILES IDX 34 47 64 48 45 49 63 50 46 51 49 52 62 53 80 54 47 55 48 56
REMARK SMILES IDX 61 58 81 59 50 60 35 61 36 62 44 63 37 64 43 65 38 66 39 67
REMARK SMILES IDX 40 68 41 69 42 70 65 71 66 72 74 73 67 74 73 75 68 76 69 77
REMARK SMILES IDX 70 78 71 79 72 80 51 81 52 82 60 83 53 84 59 85 54 86 55 87
REMARK SMILES IDX 56 88 57 89 58 90
REMARK H PARENT 10 11 13 13 17 24 79 46 49 57
REMARK Flexibility Score: inf
ROOT
ATOM      1  C   UNL     1       1.401   8.100  -1.414  1.00  0.00     0.274 C 
ENDROOT
BRANCH   1   2
ATOM      2  O   UNL     1       2.453   7.309  -0.815  1.00  0.00    -0.460 OA
BRANCH   2   3
ATOM      3  C   UNL     1       2.215   6.786   0.433  1.00  0.00     0.339 C 
ATOM      4  O   UNL     1       1.292   7.137   1.154  1.00  0.00    -0.249 OA
BRANCH   3   5
ATOM      5  C   UNL     1       3.287   5.714   0.780  1.00  0.00     0.176 C 
ATOM      6  C   UNL     1       4.419   6.510   1.439  1.00  0.00     0.057 C 
BRANCH   5   7
ATOM      7  C   UNL     1       2.816   4.562   1.727  1.00  0.00     0.164 C 
BRANCH   7   8
ATOM      8  N   UNL     1       1.416   4.525   2.162  1.00  0.00    -0.335 N 
ATOM      9  N   UNL     1      -0.242   3.018   1.060  1.00  0.00    -0.331 N 
ATOM     10  C   UNL     1       0.306   3.805   2.063  1.00  0.00     0.315 C 
ATOM     11  H   UNL     1      -0.895   2.487   1.571  1.00  0.00     0.165 HD
ATOM     12  O   UNL     1      -0.440   3.942   3.049  1.00  0.00    -0.249 OA
ATOM     13  H   UNL     1       1.236   5.312   2.725  1.00  0.00     0.165 HD
BRANCH   9  14
ATOM     14  C   UNL     1      -0.534   2.266  -0.872  1.00  0.00     0.116 C 
ATOM     15  C   UNL     1       0.202   0.826  -1.517  1.00  0.00     0.036 C 
BRANCH  14  16
ATOM     16  C   UNL     1      -1.804   2.724  -2.149  1.00  0.00     0.040 A 
ATOM     17  C   UNL     1      -2.809   5.399  -2.094  1.00  0.00     0.071 C 
ATOM     18  C   UNL     1      -2.478   4.022  -2.595  1.00  0.00     0.086 A 
ATOM     19  N   UNL     1      -3.025   3.886  -3.805  1.00  0.00    -0.085 NA
ATOM     20  O   UNL     1      -2.871   2.614  -4.169  1.00  0.00    -0.361 OA
ATOM     21  C   UNL     1      -2.220   1.897  -3.228  1.00  0.00     0.139 A 
ATOM     22  C   UNL     1      -2.165   0.495  -3.711  1.00  0.00     0.091 C 
ENDBRANCH  14  16
ENDBRANCH   9  14
ENDBRANCH   7   8
ENDBRANCH   5   7
BRANCH   5  23
ATOM     23  O   UNL     1       3.905   5.107  -0.368  1.00  0.00    -0.377 OA
ATOM     24  H   UNL     1       4.559   4.452  -0.076  1.00  0.00     0.212 HD
ENDBRANCH   5  23
ENDBRANCH   3   5
ENDBRANCH   2   3
ENDBRANCH   1   2
BRANCH   1  25
ATOM     25  C   UNL     1       0.617   7.248  -2.410  1.00  0.00     0.275 C 
BRANCH  25  26
ATOM     26  O   UNL     1      -0.031   6.209  -1.665  1.00  0.00    -0.458 OA
BRANCH  26  27
ATOM     27  C   UNL     1       0.736   5.130  -1.473  1.00  0.00     0.338 C 
ATOM     28  O   UNL     1       1.811   4.893  -2.008  1.00  0.00    -0.246 OA
BRANCH  27  29
ATOM     29  C   UNL     1       0.221   4.222  -0.447  1.00  0.00     0.060 A 
ATOM     30  C   UNL     1       1.381   2.845  -0.094  1.00  0.00     0.016 A 
ATOM     31  C   UNL     1      -1.542   3.992  -0.030  1.00  0.00     0.016 A 
ATOM     32  C   UNL     1       0.781   1.335   0.699  1.00  0.00     0.010 A 
ATOM     33  C   UNL     1      -2.154   2.386   0.559  1.00  0.00     0.010 A 
ATOM     34  C   UNL     1      -0.985   1.075   0.950  1.00  0.00    -0.014 A 
BRANCH  34  35
ATOM     35  C   UNL     1      -1.433  -0.170   1.646  1.00  0.00     0.031 A 
ATOM     36  C   UNL     1      -1.717  -1.415   0.860  1.00  0.00     0.074 A 
ATOM     37  C   UNL     1      -1.572  -0.226   2.983  1.00  0.00     0.049 A 
ATOM     38  N   UNL     1      -1.663  -2.671   1.207  1.00  0.00    -0.248 NA
ATOM     39  C   UNL     1      -2.076  -1.208  -0.541  1.00  0.00     0.031 C 
ATOM     40  C   UNL     1      -1.416   0.887   3.909  1.00  0.00     0.029 A 
ATOM     41  N   UNL     1      -1.899  -1.284   3.795  1.00  0.00    -0.354 N 
ATOM     42  C   UNL     1      -1.827  -3.393   0.027  1.00  0.00     0.074 A 
ATOM     43  C   UNL     1      -2.011  -2.435  -1.038  1.00  0.00     0.031 C 
ATOM     44  C   UNL     1      -1.675   0.471   5.158  1.00  0.00     0.029 A 
ATOM     45  C   UNL     1      -1.994  -0.949   5.125  1.00  0.00     0.049 A 
ATOM     46  H   UNL     1      -2.052  -2.196   3.457  1.00  0.00     0.167 HD
ATOM     47  C   UNL     1      -1.861  -4.735  -0.146  1.00  0.00     0.031 A 
ATOM     48  C   UNL     1      -2.294  -1.704   6.198  1.00  0.00     0.031 A 
ATOM     49  C   UNL     1      -2.000  -5.654   0.951  1.00  0.00     0.049 A 
ATOM     50  C   UNL     1      -2.467  -3.185   6.003  1.00  0.00     0.074 A 
ATOM     51  C   UNL     1      -2.126  -7.030   0.922  1.00  0.00     0.029 A 
ATOM     52  N   UNL     1      -2.136  -5.265   2.277  1.00  0.00    -0.354 N 
ATOM     53  N   UNL     1      -2.397  -3.883   4.892  1.00  0.00    -0.248 NA
ATOM     54  C   UNL     1      -2.714  -3.984   7.207  1.00  0.00     0.031 C 
ATOM     55  C   UNL     1      -2.430  -7.462   2.220  1.00  0.00     0.029 A 
ATOM     56  C   UNL     1      -2.401  -6.366   3.069  1.00  0.00     0.049 A 
ATOM     57  H   UNL     1      -2.055  -4.340   2.605  1.00  0.00     0.167 HD
ATOM     58  C   UNL     1      -2.567  -5.211   5.268  1.00  0.00     0.074 A 
ATOM     59  C   UNL     1      -2.716  -5.213   6.712  1.00  0.00     0.031 C 
ATOM     60  C   UNL     1      -2.590  -6.329   4.498  1.00  0.00     0.031 A 
BRANCH  47  61
ATOM     61  C   UNL     1      -1.823  -5.268  -1.556  1.00  0.00    -0.014 A 
ATOM     62  C   UNL     1      -0.636  -5.193  -2.311  1.00  0.00     0.010 A 
ATOM     63  C   UNL     1      -2.943  -5.907  -2.118  1.00  0.00     0.010 A 
ATOM     64  C   UNL     1      -0.572  -5.739  -3.598  1.00  0.00     0.020 A 
ATOM     65  C   UNL     1      -2.880  -6.468  -3.399  1.00  0.00     0.020 A 
ATOM     66  C   UNL     1      -1.695  -6.375  -4.134  1.00  0.00     0.054 A 
BRANCH  66  67
ATOM     67  S   UNL     1      -1.569  -7.107  -5.791  1.00  0.00     0.124 S 
ATOM     68  O   UNL     1      -1.432  -5.922  -6.634  1.00  0.00    -0.237 OA
ATOM     69  O   UNL     1      -0.375  -7.941  -5.681  1.00  0.00    -0.237 OA
ATOM     70  O   UNL     1      -2.825  -7.837  -5.945  1.00  0.00    -0.744 OA
ENDBRANCH  66  67
ENDBRANCH  47  61
BRANCH  48  71
ATOM     71  C   UNL     1      -2.420  -1.063   7.537  1.00  0.00    -0.014 A 
ATOM     72  C   UNL     1      -1.474  -1.293   8.550  1.00  0.00     0.010 A 
ATOM     73  C   UNL     1      -3.480  -0.169   7.787  1.00  0.00     0.010 A 
ATOM     74  C   UNL     1      -1.593  -0.655   9.790  1.00  0.00     0.020 A 
ATOM     75  C   UNL     1      -3.586   0.493   9.014  1.00  0.00     0.020 A 
ATOM     76  C   UNL     1      -2.646   0.238  10.012  1.00  0.00     0.054 A 
BRANCH  76  77
ATOM     77  S   UNL     1      -2.747   1.094  11.609  1.00  0.00     0.124 S 
ATOM     78  O   UNL     1      -3.132   0.013  12.511  1.00  0.00    -0.237 OA
ATOM     79  O   UNL     1      -1.390   1.606  11.779  1.00  0.00    -0.237 OA
ATOM     80  O   UNL     1      -3.768   2.116  11.387  1.00  0.00    -0.744 OA
ENDBRANCH  76  77
ENDBRANCH  48  71
BRANCH  60  81
ATOM     81  C   UNL     1      -2.780  -7.640   5.212  1.00  0.00    -0.014 A 
ATOM     82  C   UNL     1      -3.996  -7.964   5.838  1.00  0.00     0.010 A 
ATOM     83  C   UNL     1      -1.722  -8.567   5.242  1.00  0.00     0.010 A 
ATOM     84  C   UNL     1      -4.129  -9.164   6.539  1.00  0.00     0.020 A 
ATOM     85  C   UNL     1      -1.864  -9.784   5.908  1.00  0.00     0.020 A 
ATOM     86  C   UNL     1      -3.058 -10.063   6.574  1.00  0.00     0.054 A 
BRANCH  86  87
ATOM     87  S   UNL     1      -3.253 -11.612   7.494  1.00  0.00     0.124 S 
ATOM     88  O   UNL     1      -3.203 -11.149   8.878  1.00  0.00    -0.237 OA
ATOM     89  O   UNL     1      -4.554 -12.094   7.037  1.00  0.00    -0.237 OA
ATOM     90  O   UNL     1      -2.111 -12.416   7.064  1.00  0.00    -0.744 OA
ENDBRANCH  86  87
ENDBRANCH  60  81
ENDBRANCH  34  35
ENDBRANCH  27  29
ENDBRANCH  26  27
ENDBRANCH  25  26
ENDBRANCH   1  25
TORSDOF 19
