REMARK SMILES C[C@H]1C[C@H]1C(=O)N[C@@H]1CCCCC[C@@H]1C(=O)OCCOC(=O)c1ccc(-c2c3nc(c(-c4ccc(S(=O)(=O)[O-])cc4)c4ccc([nH]4)c(-c4ccc(S(=O)(=O)[O-])cc4)c4nc(c(-c5ccc(S(=O)(=O)[O-])cc5)c5ccc2[nH]5)C=C4)C=C3)cc1
REMARK SMILES IDX 18 1 17 2 15 3 16 4 14 5 8 6 7 7 5 8 6 9 4 11 1 12 2 13 3 14
REMARK SMILES IDX 9 15 10 16 11 17 13 19 12 20 19 22 20 23 21 24 22 25 23 26
REMARK SMILES IDX 24 27 82 28 25 29 81 30 26 31 27 32 28 33 75 34 29 35 80 36
REMARK SMILES IDX 74 37 76 38 30 39 79 40 73 41 72 42 31 44 61 45 42 46 60 47
REMARK SMILES IDX 43 48 46 49 59 50 77 51 44 52 45 53 58 55 78 56 47 57 32 58
REMARK SMILES IDX 33 59 41 60 34 61 40 62 35 63 36 64 37 65 38 66 39 67 62 68
REMARK SMILES IDX 63 69 71 70 64 71 70 72 65 73 66 74 67 75 68 76 69 77 48 78
REMARK SMILES IDX 49 79 57 80 50 81 56 82 51 83 52 84 53 85 54 86 55 87
REMARK H PARENT 7 10 76 43 46 54
REMARK Flexibility Score: 90.00
ROOT
ATOM      1  C   UNL     1      -1.892  -7.914  -1.036  1.00  0.00     0.274 C 
ENDROOT
BRANCH   1   2
ATOM      2  O   UNL     1      -2.200  -6.602  -0.519  1.00  0.00    -0.462 OA
BRANCH   2   3
ATOM      3  C   UNL     1      -1.397  -5.580  -0.949  1.00  0.00     0.311 C 
ATOM      4  O   UNL     1      -0.422  -5.731  -1.666  1.00  0.00    -0.252 OA
BRANCH   3   5
ATOM      5  C   UNL     1      -1.930  -4.245  -0.428  1.00  0.00     0.121 C 
BRANCH   5   6
ATOM      6  C   UNL     1      -1.588  -3.032  -1.329  1.00  0.00     0.096 C 
BRANCH   6   7
ATOM      7  N   UNL     1      -0.283  -3.010  -1.996  1.00  0.00    -0.352 N 
ATOM      8  C   UNL     1       1.025  -2.752  -1.734  1.00  0.00     0.223 C 
ATOM      9  O   UNL     1       1.808  -2.881  -2.675  1.00  0.00    -0.275 OA
ATOM     10  H   UNL     1      -0.388  -3.266  -2.941  1.00  0.00     0.163 HD
BRANCH   8  11
ATOM     11  C   UNL     1       1.609  -2.365  -0.434  1.00  0.00     0.081 C 
ATOM     12  C   UNL     1       1.150   0.208  -0.948  1.00  0.00     0.008 C 
ATOM     13  C   UNL     1       1.845  -0.872  -0.179  1.00  0.00    -0.001 C 
ATOM     14  C   UNL     1       1.053  -1.707   0.784  1.00  0.00     0.018 C 
ENDBRANCH   8  11
ENDBRANCH   6   7
BRANCH   6  15
ATOM     15  C   UNL     1      -2.066  -1.635  -0.919  1.00  0.00     0.026 C 
BRANCH  15  16
ATOM     16  C   UNL     1      -3.274  -1.585   0.007  1.00  0.00     0.002 C 
BRANCH  16  17
ATOM     17  C   UNL     1      -2.934  -1.881   1.465  1.00  0.00     0.000 CG0
ATOM     18  G   UNL     1      -2.749  -3.355   1.809  1.00  0.00     0.000 G0
ENDBRANCH  16  17
ENDBRANCH  15  16
ENDBRANCH   6  15
ENDBRANCH   5   6
BRANCH   5  19
ATOM     19  C   UNL     1      -1.636  -4.088   1.060  1.00  0.00     0.017 C 
BRANCH  19  20
ATOM     20  C   UNL     1      -2.749  -3.355   1.809  1.00  0.00     0.001 CG0
ATOM     21  G   UNL     1      -2.934  -1.881   1.465  1.00  0.00     0.000 G0
ENDBRANCH  19  20
ENDBRANCH   5  19
ENDBRANCH   3   5
ENDBRANCH   2   3
ENDBRANCH   1   2
BRANCH   1  22
ATOM     22  C   UNL     1      -2.946  -8.329  -2.058  1.00  0.00     0.275 C 
BRANCH  22  23
ATOM     23  O   UNL     1      -2.915  -7.413  -3.167  1.00  0.00    -0.458 OA
BRANCH  23  24
ATOM     24  C   UNL     1      -4.089  -6.820  -3.483  1.00  0.00     0.338 C 
ATOM     25  O   UNL     1      -5.182  -7.026  -2.987  1.00  0.00    -0.246 OA
BRANCH  24  26
ATOM     26  C   UNL     1      -3.856  -5.816  -4.538  1.00  0.00     0.060 A 
ATOM     27  C   UNL     1      -2.908  -4.816  -4.335  1.00  0.00     0.016 A 
ATOM     28  C   UNL     1      -4.646  -5.803  -5.684  1.00  0.00     0.016 A 
ATOM     29  C   UNL     1      -2.811  -3.747  -5.224  1.00  0.00     0.010 A 
ATOM     30  C   UNL     1      -4.465  -4.790  -6.635  1.00  0.00     0.010 A 
ATOM     31  C   UNL     1      -3.567  -3.731  -6.404  1.00  0.00    -0.014 A 
BRANCH  31  32
ATOM     32  C   UNL     1      -3.431  -2.619  -7.393  1.00  0.00     0.031 A 
ATOM     33  C   UNL     1      -4.644  -1.828  -7.821  1.00  0.00     0.074 A 
ATOM     34  C   UNL     1      -2.229  -2.314  -7.927  1.00  0.00     0.049 A 
ATOM     35  N   UNL     1      -4.776  -0.993  -8.820  1.00  0.00    -0.248 NA
ATOM     36  C   UNL     1      -5.872  -2.009  -7.028  1.00  0.00     0.031 C 
ATOM     37  C   UNL     1      -0.953  -2.943  -7.579  1.00  0.00     0.029 A 
ATOM     38  N   UNL     1      -1.885  -1.390  -8.886  1.00  0.00    -0.354 N 
ATOM     39  C   UNL     1      -6.109  -0.597  -8.815  1.00  0.00     0.074 A 
ATOM     40  C   UNL     1      -6.745  -1.277  -7.707  1.00  0.00     0.031 C 
ATOM     41  C   UNL     1       0.033  -2.368  -8.284  1.00  0.00     0.029 A 
ATOM     42  C   UNL     1      -0.547  -1.401  -9.207  1.00  0.00     0.049 A 
ATOM     43  H   UNL     1      -2.534  -0.778  -9.303  1.00  0.00     0.167 HD
ATOM     44  C   UNL     1      -6.747   0.249  -9.660  1.00  0.00     0.031 A 
ATOM     45  C   UNL     1       0.138  -0.757 -10.173  1.00  0.00     0.031 A 
ATOM     46  C   UNL     1      -6.108   0.960 -10.735  1.00  0.00     0.049 A 
ATOM     47  C   UNL     1      -0.601   0.134 -11.131  1.00  0.00     0.074 A 
ATOM     48  C   UNL     1      -6.675   1.843 -11.640  1.00  0.00     0.029 A 
ATOM     49  N   UNL     1      -4.760   0.885 -11.043  1.00  0.00    -0.354 N 
ATOM     50  N   UNL     1      -1.875   0.442 -11.153  1.00  0.00    -0.248 NA
ATOM     51  C   UNL     1       0.188   0.742 -12.213  1.00  0.00     0.031 C 
ATOM     52  C   UNL     1      -5.675   2.273 -12.519  1.00  0.00     0.029 A 
ATOM     53  C   UNL     1      -4.478   1.691 -12.134  1.00  0.00     0.049 A 
ATOM     54  H   UNL     1      -4.099   0.340 -10.559  1.00  0.00     0.167 HD
ATOM     55  C   UNL     1      -2.039   1.281 -12.249  1.00  0.00     0.074 A 
ATOM     56  C   UNL     1      -0.732   1.454 -12.849  1.00  0.00     0.031 C 
ATOM     57  C   UNL     1      -3.175   1.850 -12.723  1.00  0.00     0.031 A 
BRANCH  44  58
ATOM     58  C   UNL     1      -8.233   0.422  -9.488  1.00  0.00    -0.014 A 
ATOM     59  C   UNL     1      -8.766   1.213  -8.455  1.00  0.00     0.010 A 
ATOM     60  C   UNL     1      -9.106  -0.171 -10.419  1.00  0.00     0.010 A 
ATOM     61  C   UNL     1     -10.149   1.384  -8.341  1.00  0.00     0.020 A 
ATOM     62  C   UNL     1     -10.488   0.015 -10.320  1.00  0.00     0.020 A 
ATOM     63  C   UNL     1     -11.001   0.780  -9.272  1.00  0.00     0.054 A 
BRANCH  63  64
ATOM     64  S   UNL     1     -12.790   1.043  -9.120  1.00  0.00     0.124 S 
ATOM     65  O   UNL     1     -13.128   0.169  -7.999  1.00  0.00    -0.237 OA
ATOM     66  O   UNL     1     -12.885   2.475  -8.849  1.00  0.00    -0.237 OA
ATOM     67  O   UNL     1     -13.314   0.623 -10.418  1.00  0.00    -0.744 OA
ENDBRANCH  63  64
ENDBRANCH  44  58
BRANCH  45  68
ATOM     68  C   UNL     1       1.597  -1.000 -10.339  1.00  0.00    -0.014 A 
ATOM     69  C   UNL     1       2.532   0.008 -10.049  1.00  0.00     0.010 A 
ATOM     70  C   UNL     1       2.058  -2.249 -10.796  1.00  0.00     0.010 A 
ATOM     71  C   UNL     1       3.900  -0.222 -10.231  1.00  0.00     0.020 A 
ATOM     72  C   UNL     1       3.425  -2.492 -10.951  1.00  0.00     0.020 A 
ATOM     73  C   UNL     1       4.337  -1.470 -10.683  1.00  0.00     0.054 A 
BRANCH  73  74
ATOM     74  S   UNL     1       6.116  -1.768 -10.879  1.00  0.00     0.124 S 
ATOM     75  O   UNL     1       6.387  -1.136 -12.166  1.00  0.00    -0.237 OA
ATOM     76  O   UNL     1       6.686  -1.097  -9.713  1.00  0.00    -0.237 OA
ATOM     77  O   UNL     1       6.220  -3.225 -10.861  1.00  0.00    -0.744 OA
ENDBRANCH  73  74
ENDBRANCH  45  68
BRANCH  57  78
ATOM     78  C   UNL     1      -3.049   2.727 -13.937  1.00  0.00    -0.014 A 
ATOM     79  C   UNL     1      -2.877   2.170 -15.216  1.00  0.00     0.010 A 
ATOM     80  C   UNL     1      -3.144   4.124 -13.801  1.00  0.00     0.010 A 
ATOM     81  C   UNL     1      -2.775   2.997 -16.337  1.00  0.00     0.020 A 
ATOM     82  C   UNL     1      -3.063   4.952 -14.923  1.00  0.00     0.020 A 
ATOM     83  C   UNL     1      -2.865   4.383 -16.183  1.00  0.00     0.054 A 
BRANCH  83  84
ATOM     84  S   UNL     1      -2.770   5.437 -17.657  1.00  0.00     0.124 S 
ATOM     85  O   UNL     1      -1.337   5.442 -17.935  1.00  0.00    -0.237 OA
ATOM     86  O   UNL     1      -3.596   4.718 -18.624  1.00  0.00    -0.237 OA
ATOM     87  O   UNL     1      -3.321   6.713 -17.205  1.00  0.00    -0.744 OA
ENDBRANCH  83  84
ENDBRANCH  57  78
ENDBRANCH  31  32
ENDBRANCH  24  26
ENDBRANCH  23  24
ENDBRANCH  22  23
ENDBRANCH   1  22
TORSDOF 16
