REMARK SMILES O=C(OCCOC(=O)c1cccc2c(=O)oc(=O)[nH]c12)c1ccc(-c2c3nc(c(-c4ccc(S(=O)(=O)[O-])cc4)c4ccc([nH]4)c(-c4ccc(S(=O)(=O)[O-])cc4)c4nc(c(-c5ccc(S(=O)(=O)[O-])cc5)c5ccc2[nH]5)C=C4)C=C3)cc1
REMARK SMILES IDX 3 1 2 2 1 3 21 4 22 5 80 6 23 7 79 8 24 9 25 10 26 11 73 12
REMARK SMILES IDX 27 13 78 14 72 15 74 16 28 17 77 18 71 19 70 20 29 22 59 23
REMARK SMILES IDX 40 24 58 25 41 26 44 27 57 28 75 29 42 30 43 31 56 33 76 34
REMARK SMILES IDX 45 35 30 36 31 37 39 38 32 39 38 40 33 41 34 42 35 43 36 44
REMARK SMILES IDX 37 45 60 46 61 47 69 48 62 49 68 50 63 51 64 52 65 53 66 54
REMARK SMILES IDX 67 55 46 56 47 57 55 58 48 59 54 60 49 61 50 62 51 63 52 64
REMARK SMILES IDX 53 65 4 66 5 67 6 68 7 69 8 70 9 71 10 72 20 73 11 74 13 75
REMARK SMILES IDX 19 76 12 77 14 78 17 79 15 81 16 82 18 83
REMARK H PARENT 74 21 44 32 19 80
REMARK Flexibility Score: inf
ROOT
ATOM      1  O   UNL     1       3.294   0.279  -1.024  1.00  0.00    -0.458 OA
ENDROOT
BRANCH   1   2
ATOM      2  C   UNL     1       3.244  -1.037  -0.697  1.00  0.00     0.338 C 
ATOM      3  O   UNL     1       2.535  -1.805  -1.340  1.00  0.00    -0.246 OA
BRANCH   2   4
ATOM      4  C   UNL     1       3.848  -1.524   0.571  1.00  0.00     0.060 A 
ATOM      5  C   UNL     1       3.027  -2.308   1.395  1.00  0.00     0.016 A 
ATOM      6  C   UNL     1       5.168  -1.297   0.960  1.00  0.00     0.016 A 
ATOM      7  C   UNL     1       3.474  -2.737   2.646  1.00  0.00     0.010 A 
ATOM      8  C   UNL     1       5.624  -1.730   2.208  1.00  0.00     0.010 A 
ATOM      9  C   UNL     1       4.776  -2.437   3.067  1.00  0.00    -0.014 A 
BRANCH   9  10
ATOM     10  C   UNL     1       5.322  -3.062   4.292  1.00  0.00     0.031 A 
ATOM     11  C   UNL     1       5.560  -2.291   5.553  1.00  0.00     0.074 A 
ATOM     12  C   UNL     1       5.639  -4.367   4.222  1.00  0.00     0.049 A 
ATOM     13  N   UNL     1       5.890  -2.744   6.734  1.00  0.00    -0.248 NA
ATOM     14  C   UNL     1       5.396  -0.832   5.496  1.00  0.00     0.031 C 
ATOM     15  C   UNL     1       5.481  -5.200   3.027  1.00  0.00     0.029 A 
ATOM     16  N   UNL     1       6.162  -5.215   5.159  1.00  0.00    -0.354 N 
ATOM     17  C   UNL     1       5.894  -1.644   7.579  1.00  0.00     0.074 A 
ATOM     18  C   UNL     1       5.597  -0.486   6.763  1.00  0.00     0.031 C 
ATOM     19  C   UNL     1       5.896  -6.442   3.305  1.00  0.00     0.029 A 
ATOM     20  C   UNL     1       6.372  -6.485   4.683  1.00  0.00     0.049 A 
ATOM     21  H   UNL     1       6.366  -4.942   6.083  1.00  0.00     0.167 HD
ATOM     22  C   UNL     1       6.115  -1.615   8.915  1.00  0.00     0.031 A 
ATOM     23  C   UNL     1       6.898  -7.570   5.282  1.00  0.00     0.031 A 
ATOM     24  C   UNL     1       6.550  -2.758   9.680  1.00  0.00     0.049 A 
ATOM     25  C   UNL     1       7.276  -7.483   6.726  1.00  0.00     0.074 A 
ATOM     26  C   UNL     1       6.817  -2.835  11.036  1.00  0.00     0.029 A 
ATOM     27  N   UNL     1       6.830  -4.009   9.148  1.00  0.00    -0.354 N 
ATOM     28  N   UNL     1       7.167  -6.458   7.539  1.00  0.00    -0.248 NA
ATOM     29  C   UNL     1       7.830  -8.693   7.342  1.00  0.00     0.031 C 
ATOM     30  C   UNL     1       7.345  -4.103  11.304  1.00  0.00     0.029 A 
ATOM     31  C   UNL     1       7.330  -4.845  10.133  1.00  0.00     0.049 A 
ATOM     32  H   UNL     1       6.694  -4.266   8.207  1.00  0.00     0.167 HD
ATOM     33  C   UNL     1       7.638  -6.899   8.768  1.00  0.00     0.074 A 
ATOM     34  C   UNL     1       8.009  -8.291   8.595  1.00  0.00     0.031 C 
ATOM     35  C   UNL     1       7.750  -6.212   9.932  1.00  0.00     0.031 A 
BRANCH  22  36
ATOM     36  C   UNL     1       5.893  -0.314   9.645  1.00  0.00    -0.014 A 
ATOM     37  C   UNL     1       6.973   0.376  10.224  1.00  0.00     0.010 A 
ATOM     38  C   UNL     1       4.586   0.162   9.859  1.00  0.00     0.010 A 
ATOM     39  C   UNL     1       6.750   1.504  11.021  1.00  0.00     0.020 A 
ATOM     40  C   UNL     1       4.360   1.301  10.640  1.00  0.00     0.020 A 
ATOM     41  C   UNL     1       5.443   1.954  11.231  1.00  0.00     0.054 A 
BRANCH  41  42
ATOM     42  S   UNL     1       5.174   3.408  12.285  1.00  0.00     0.124 S 
ATOM     43  O   UNL     1       5.437   2.877  13.618  1.00  0.00    -0.237 OA
ATOM     44  O   UNL     1       6.162   4.355  11.774  1.00  0.00    -0.237 OA
ATOM     45  O   UNL     1       3.783   3.770  12.018  1.00  0.00    -0.744 OA
ENDBRANCH  41  42
ENDBRANCH  22  36
BRANCH  23  46
ATOM     46  C   UNL     1       7.039  -8.809   4.475  1.00  0.00    -0.014 A 
ATOM     47  C   UNL     1       7.968  -8.853   3.417  1.00  0.00     0.010 A 
ATOM     48  C   UNL     1       6.125  -9.863   4.632  1.00  0.00     0.010 A 
ATOM     49  C   UNL     1       7.922  -9.885   2.478  1.00  0.00     0.020 A 
ATOM     50  C   UNL     1       6.095 -10.913   3.708  1.00  0.00     0.020 A 
ATOM     51  C   UNL     1       6.966 -10.894   2.616  1.00  0.00     0.054 A 
BRANCH  51  52
ATOM     52  S   UNL     1       6.841 -12.156   1.319  1.00  0.00     0.124 S 
ATOM     53  O   UNL     1       6.148 -11.426   0.261  1.00  0.00    -0.237 OA
ATOM     54  O   UNL     1       8.240 -12.478   1.049  1.00  0.00    -0.237 OA
ATOM     55  O   UNL     1       6.070 -13.222   1.954  1.00  0.00    -0.744 OA
ENDBRANCH  51  52
ENDBRANCH  23  46
BRANCH  35  56
ATOM     56  C   UNL     1       8.351  -6.939  11.105  1.00  0.00    -0.014 A 
ATOM     57  C   UNL     1       7.558  -7.254  12.223  1.00  0.00     0.010 A 
ATOM     58  C   UNL     1       9.723  -7.249  11.129  1.00  0.00     0.010 A 
ATOM     59  C   UNL     1       8.127  -7.851  13.350  1.00  0.00     0.020 A 
ATOM     60  C   UNL     1      10.290  -7.874  12.242  1.00  0.00     0.020 A 
ATOM     61  C   UNL     1       9.491  -8.154  13.354  1.00  0.00     0.054 A 
BRANCH  61  62
ATOM     62  S   UNL     1      10.213  -8.945  14.817  1.00  0.00     0.124 S 
ATOM     63  O   UNL     1      10.395  -7.812  15.719  1.00  0.00    -0.237 OA
ATOM     64  O   UNL     1       9.182  -9.903  15.209  1.00  0.00    -0.237 OA
ATOM     65  O   UNL     1      11.445  -9.544  14.307  1.00  0.00    -0.744 OA
ENDBRANCH  61  62
ENDBRANCH  35  56
ENDBRANCH   9  10
ENDBRANCH   2   4
ENDBRANCH   1   2
BRANCH   1  66
ATOM     66  C   UNL     1       4.293   1.243  -0.646  1.00  0.00     0.275 C 
BRANCH  66  67
ATOM     67  C   UNL     1       3.946   2.098   0.575  1.00  0.00     0.275 C 
BRANCH  67  68
ATOM     68  O   UNL     1       3.450   1.357   1.698  1.00  0.00    -0.458 OA
BRANCH  68  69
ATOM     69  C   UNL     1       2.098   1.246   1.753  1.00  0.00     0.340 C 
ATOM     70  O   UNL     1       1.302   1.638   0.915  1.00  0.00    -0.246 OA
BRANCH  69  71
ATOM     71  C   UNL     1       1.688   0.462   2.938  1.00  0.00     0.084 A 
ATOM     72  C   UNL     1       2.329   0.653   4.169  1.00  0.00     0.018 A 
ATOM     73  C   UNL     1       0.662  -0.491   2.824  1.00  0.00     0.073 A 
ATOM     74  C   UNL     1       1.960  -0.117   5.274  1.00  0.00     0.002 A 
ATOM     75  C   UNL     1       0.316  -1.263   3.918  1.00  0.00     0.085 A 
ATOM     76  N   UNL     1       0.000  -0.740   1.627  1.00  0.00    -0.289 N 
ATOM     77  C   UNL     1       0.961  -1.083   5.148  1.00  0.00     0.018 A 
ATOM     78  C   UNL     1      -0.728  -2.286   3.757  1.00  0.00     0.349 A 
ATOM     79  C   UNL     1      -0.938  -1.716   1.466  1.00  0.00     0.419 A 
ATOM     80  H   UNL     1       0.223  -0.178   0.849  1.00  0.00     0.173 HD
ATOM     81  O   UNL     1      -1.082  -2.950   4.724  1.00  0.00    -0.246 OA
ATOM     82  O   UNL     1      -1.270  -2.478   2.536  1.00  0.00    -0.372 OA
ATOM     83  O   UNL     1      -1.466  -1.893   0.371  1.00  0.00    -0.224 OA
ENDBRANCH  69  71
ENDBRANCH  68  69
ENDBRANCH  67  68
ENDBRANCH  66  67
ENDBRANCH   1  66
TORSDOF 14
