REMARK SMILES O=C(OCCOC(=O)c1sccc1S(=O)(=O)Nc1ccccc1N1CCCCC1)c1ccc(-c2c3nc(c(-c4ccc(S(=O)(=O)[O-])cc4)c4ccc([nH]4)c(-c4ccc(S(=O)(=O)[O-])cc4)c4nc(c(-c5ccc(S(=O)(=O)[O-])cc5)c5ccc2[nH]5)C=C4)C=C3)cc1
REMARK SMILES IDX 5 1 4 2 3 3 2 4 1 5 30 6 31 7 89 8 32 9 88 10 33 11 34 12
REMARK SMILES IDX 35 13 82 14 36 15 87 16 81 17 83 18 37 19 86 20 80 21 79 22
REMARK SMILES IDX 38 24 68 25 49 26 67 27 50 28 53 29 66 30 84 31 51 32 52 33
REMARK SMILES IDX 65 35 85 36 54 37 39 38 40 39 48 40 41 41 47 42 42 43 43 44
REMARK SMILES IDX 44 45 45 46 46 47 69 48 70 49 78 50 71 51 77 52 72 53 73 54
REMARK SMILES IDX 74 55 75 56 76 57 55 58 56 59 64 60 57 61 63 62 58 63 59 64
REMARK SMILES IDX 60 65 61 66 62 67 6 68 7 69 8 70 9 71 10 72 13 73 11 74
REMARK SMILES IDX 12 75 14 76 15 77 16 78 17 79 18 81 19 82 23 83 20 84 22 85
REMARK SMILES IDX 21 86 24 87 25 88 29 89 26 90 28 91 27 92
REMARK H PARENT 83 23 53 34 17 80
REMARK Flexibility Score: inf
ROOT
ATOM      1  C   UNL     1       3.594  -0.460  -0.674  1.00  0.00     0.275 C 
ENDROOT
BRANCH   1   2
ATOM      2  C   UNL     1       3.780  -1.687   0.209  1.00  0.00     0.275 C 
BRANCH   2   3
ATOM      3  O   UNL     1       2.720  -1.922   1.147  1.00  0.00    -0.458 OA
BRANCH   3   4
ATOM      4  C   UNL     1       2.602  -1.476   2.419  1.00  0.00     0.338 C 
ATOM      5  O   UNL     1       1.784  -2.000   3.171  1.00  0.00    -0.246 OA
BRANCH   4   6
ATOM      6  C   UNL     1       3.321  -0.264   2.903  1.00  0.00     0.060 A 
ATOM      7  C   UNL     1       4.666   0.015   2.659  1.00  0.00     0.016 A 
ATOM      8  C   UNL     1       2.591   0.614   3.727  1.00  0.00     0.016 A 
ATOM      9  C   UNL     1       5.258   1.166   3.177  1.00  0.00     0.010 A 
ATOM     10  C   UNL     1       3.191   1.745   4.292  1.00  0.00     0.010 A 
ATOM     11  C   UNL     1       4.542   2.000   4.043  1.00  0.00    -0.014 A 
BRANCH  11  12
ATOM     12  C   UNL     1       5.342   2.851   4.955  1.00  0.00     0.031 A 
ATOM     13  C   UNL     1       5.962   2.147   6.119  1.00  0.00     0.074 A 
ATOM     14  C   UNL     1       5.608   4.142   4.698  1.00  0.00     0.049 A 
ATOM     15  N   UNL     1       6.867   2.575   6.951  1.00  0.00    -0.248 NA
ATOM     16  C   UNL     1       5.519   0.760   6.358  1.00  0.00     0.031 C 
ATOM     17  C   UNL     1       5.058   4.870   3.574  1.00  0.00     0.029 A 
ATOM     18  N   UNL     1       6.423   5.059   5.306  1.00  0.00    -0.354 N 
ATOM     19  C   UNL     1       7.104   1.511   7.807  1.00  0.00     0.074 A 
ATOM     20  C   UNL     1       6.261   0.415   7.394  1.00  0.00     0.031 C 
ATOM     21  C   UNL     1       5.590   6.099   3.510  1.00  0.00     0.029 A 
ATOM     22  C   UNL     1       6.506   6.259   4.628  1.00  0.00     0.049 A 
ATOM     23  H   UNL     1       6.903   4.880   6.146  1.00  0.00     0.167 HD
ATOM     24  C   UNL     1       7.932   1.470   8.872  1.00  0.00     0.031 A 
ATOM     25  C   UNL     1       7.256   7.349   4.879  1.00  0.00     0.031 A 
ATOM     26  C   UNL     1       8.664   2.614   9.326  1.00  0.00     0.049 A 
ATOM     27  C   UNL     1       8.150   7.287   6.087  1.00  0.00     0.074 A 
ATOM     28  C   UNL     1       9.421   2.763  10.469  1.00  0.00     0.029 A 
ATOM     29  N   UNL     1       8.698   3.829   8.650  1.00  0.00    -0.354 N 
ATOM     30  N   UNL     1       8.352   6.277   6.902  1.00  0.00    -0.248 NA
ATOM     31  C   UNL     1       8.905   8.499   6.423  1.00  0.00     0.031 C 
ATOM     32  C   UNL     1       9.884   4.085  10.504  1.00  0.00     0.029 A 
ATOM     33  C   UNL     1       9.458   4.740   9.355  1.00  0.00     0.049 A 
ATOM     34  H   UNL     1       8.247   4.013   7.794  1.00  0.00     0.167 HD
ATOM     35  C   UNL     1       9.252   6.729   7.853  1.00  0.00     0.074 A 
ATOM     36  C   UNL     1       9.586   8.095   7.487  1.00  0.00     0.031 C 
ATOM     37  C   UNL     1       9.748   6.090   8.941  1.00  0.00     0.031 A 
BRANCH  24  38
ATOM     38  C   UNL     1       7.938   0.181   9.639  1.00  0.00    -0.014 A 
ATOM     39  C   UNL     1       8.564  -0.968   9.121  1.00  0.00     0.010 A 
ATOM     40  C   UNL     1       7.173   0.079  10.814  1.00  0.00     0.010 A 
ATOM     41  C   UNL     1       8.374  -2.210   9.733  1.00  0.00     0.020 A 
ATOM     42  C   UNL     1       6.997  -1.158  11.439  1.00  0.00     0.020 A 
ATOM     43  C   UNL     1       7.577  -2.299  10.878  1.00  0.00     0.054 A 
BRANCH  43  44
ATOM     44  S   UNL     1       7.293  -3.927  11.625  1.00  0.00     0.124 S 
ATOM     45  O   UNL     1       6.309  -4.508  10.714  1.00  0.00    -0.237 OA
ATOM     46  O   UNL     1       8.620  -4.537  11.585  1.00  0.00    -0.237 OA
ATOM     47  O   UNL     1       6.796  -3.612  12.962  1.00  0.00    -0.744 OA
ENDBRANCH  43  44
ENDBRANCH  24  38
BRANCH  25  48
ATOM     48  C   UNL     1       7.200   8.558   4.001  1.00  0.00    -0.014 A 
ATOM     49  C   UNL     1       8.322   8.965   3.256  1.00  0.00     0.010 A 
ATOM     50  C   UNL     1       6.021   9.323   3.906  1.00  0.00     0.010 A 
ATOM     51  C   UNL     1       8.276  10.116   2.456  1.00  0.00     0.020 A 
ATOM     52  C   UNL     1       5.961  10.459   3.088  1.00  0.00     0.020 A 
ATOM     53  C   UNL     1       7.095  10.858   2.379  1.00  0.00     0.054 A 
BRANCH  53  54
ATOM     54  S   UNL     1       7.039  12.327   1.310  1.00  0.00     0.124 S 
ATOM     55  O   UNL     1       7.767  13.311   2.106  1.00  0.00    -0.237 OA
ATOM     56  O   UNL     1       7.715  11.868   0.099  1.00  0.00    -0.237 OA
ATOM     57  O   UNL     1       5.609  12.582   1.155  1.00  0.00    -0.744 OA
ENDBRANCH  53  54
ENDBRANCH  25  48
BRANCH  37  58
ATOM     58  C   UNL     1      10.705   6.867   9.792  1.00  0.00    -0.014 A 
ATOM     59  C   UNL     1      10.243   7.868  10.662  1.00  0.00     0.010 A 
ATOM     60  C   UNL     1      12.070   6.539   9.762  1.00  0.00     0.010 A 
ATOM     61  C   UNL     1      11.143   8.553  11.476  1.00  0.00     0.020 A 
ATOM     62  C   UNL     1      12.969   7.207  10.592  1.00  0.00     0.020 A 
ATOM     63  C   UNL     1      12.501   8.219  11.434  1.00  0.00     0.054 A 
BRANCH  63  64
ATOM     64  S   UNL     1      13.648   9.084  12.537  1.00  0.00     0.124 S 
ATOM     65  O   UNL     1      13.838  10.352  11.839  1.00  0.00    -0.237 OA
ATOM     66  O   UNL     1      12.898   9.160  13.789  1.00  0.00    -0.237 OA
ATOM     67  O   UNL     1      14.817   8.208  12.572  1.00  0.00    -0.744 OA
ENDBRANCH  63  64
ENDBRANCH  37  58
ENDBRANCH  11  12
ENDBRANCH   4   6
ENDBRANCH   3   4
ENDBRANCH   2   3
ENDBRANCH   1   2
BRANCH   1  68
ATOM     68  O   UNL     1       3.434   0.782   0.025  1.00  0.00    -0.458 OA
BRANCH  68  69
ATOM     69  C   UNL     1       2.150   1.191   0.192  1.00  0.00     0.349 C 
ATOM     70  O   UNL     1       1.184   0.511  -0.139  1.00  0.00    -0.245 OA
BRANCH  69  71
ATOM     71  C   UNL     1       2.057   2.491   0.834  1.00  0.00     0.133 A 
ATOM     72  S   UNL     1       0.593   2.748   1.742  1.00  0.00    -0.136 S 
ATOM     73  C   UNL     1       2.838   3.642   0.837  1.00  0.00     0.113 A 
ATOM     74  C   UNL     1       1.010   4.341   2.147  1.00  0.00     0.067 A 
ATOM     75  C   UNL     1       2.193   4.715   1.562  1.00  0.00     0.035 A 
BRANCH  73  76
ATOM     76  S   UNL     1       4.372   3.911   0.047  1.00  0.00     0.263 S 
ATOM     77  O   UNL     1       4.772   5.222   0.513  1.00  0.00    -0.201 OA
ATOM     78  O   UNL     1       5.189   2.756   0.335  1.00  0.00    -0.201 OA
BRANCH  76  79
ATOM     79  N   UNL     1       4.216   4.138  -1.607  1.00  0.00    -0.277 N 
ATOM     80  H   UNL     1       4.258   5.042  -1.995  1.00  0.00     0.180 HD
BRANCH  79  81
ATOM     81  C   UNL     1       4.022   3.003  -2.442  1.00  0.00     0.072 A 
ATOM     82  C   UNL     1       5.102   2.141  -2.668  1.00  0.00     0.029 A 
ATOM     83  C   UNL     1       2.769   2.787  -3.055  1.00  0.00     0.061 A 
ATOM     84  C   UNL     1       4.937   1.012  -3.465  1.00  0.00     0.002 A 
ATOM     85  C   UNL     1       2.611   1.602  -3.788  1.00  0.00     0.028 A 
ATOM     86  C   UNL     1       3.682   0.726  -3.996  1.00  0.00     0.002 A 
BRANCH  83  87
ATOM     87  N   UNL     1       1.711   3.709  -3.057  1.00  0.00    -0.370 N 
ATOM     88  C   UNL     1       0.767   3.621  -1.946  1.00  0.00     0.116 C 
ATOM     89  C   UNL     1       2.051   5.070  -3.490  1.00  0.00     0.116 C 
ATOM     90  C   UNL     1      -0.508   4.407  -2.225  1.00  0.00     0.021 C 
ATOM     91  C   UNL     1       0.773   5.828  -3.837  1.00  0.00     0.021 C 
ATOM     92  C   UNL     1      -0.188   5.836  -2.651  1.00  0.00     0.004 C 
ENDBRANCH  83  87
ENDBRANCH  79  81
ENDBRANCH  76  79
ENDBRANCH  73  76
ENDBRANCH  69  71
ENDBRANCH  68  69
ENDBRANCH   1  68
TORSDOF 18
