REMARK SMILES O=C(OCCOC(=O)c1nn(Cc2ccc(F)cc2)c2c1CN(C(=O)[C@H]1CC1(F)F)CC2)c1ccc(-c2c3nc(c(-c4ccc(S(=O)(=O)[O-])cc4)c4ccc([nH]4)c(-c4ccc(S(=O)(=O)[O-])cc4)c4nc(c(-c5ccc(S(=O)(=O)[O-])cc5)c5ccc2[nH]5)C=C4)C=C3)cc1
REMARK SMILES IDX 4 1 3 2 2 3 1 4 33 5 34 6 92 7 35 8 91 9 36 10 37 11 38 12
REMARK SMILES IDX 85 13 39 14 90 15 84 16 86 17 40 18 89 19 83 20 82 21 41 23
REMARK SMILES IDX 71 24 52 25 70 26 53 27 56 28 69 29 87 30 54 31 55 32 68 34
REMARK SMILES IDX 88 35 57 36 42 37 43 38 51 39 44 40 50 41 45 42 46 43 47 44
REMARK SMILES IDX 48 45 49 46 72 47 73 48 81 49 74 50 80 51 75 52 76 53 77 54
REMARK SMILES IDX 78 55 79 56 58 57 59 58 67 59 60 60 66 61 61 62 62 63 63 64
REMARK SMILES IDX 64 65 65 66 5 67 6 68 7 69 8 70 9 71 10 72 21 73 11 74 20 75
REMARK SMILES IDX 22 76 32 77 23 78 31 79 12 80 13 81 14 82 19 83 15 84 18 85
REMARK SMILES IDX 16 86 17 87 24 88 25 89 26 90 27 91 28 92 29 93 30 94
REMARK H PARENT 86 22 56 33
REMARK Flexibility Score: inf
ROOT
ATOM      1  C   UNL     1      -9.511   3.357   2.254  1.00  0.00     0.275 C 
ENDROOT
BRANCH   1   2
ATOM      2  O   UNL     1      -8.205   3.953   2.136  1.00  0.00    -0.458 OA
BRANCH   2   3
ATOM      3  C   UNL     1      -7.543   3.837   0.969  1.00  0.00     0.338 C 
ATOM      4  O   UNL     1      -7.838   4.387  -0.076  1.00  0.00    -0.246 OA
BRANCH   3   5
ATOM      5  C   UNL     1      -6.367   2.960   1.139  1.00  0.00     0.060 A 
ATOM      6  C   UNL     1      -6.377   1.899   2.049  1.00  0.00     0.016 A 
ATOM      7  C   UNL     1      -5.271   3.151   0.297  1.00  0.00     0.016 A 
ATOM      8  C   UNL     1      -5.278   1.052   2.136  1.00  0.00     0.010 A 
ATOM      9  C   UNL     1      -4.196   2.270   0.353  1.00  0.00     0.010 A 
ATOM     10  C   UNL     1      -4.171   1.235   1.296  1.00  0.00    -0.014 A 
BRANCH  10  11
ATOM     11  C   UNL     1      -3.044   0.300   1.421  1.00  0.00     0.031 A 
ATOM     12  C   UNL     1      -3.372  -1.160   1.506  1.00  0.00     0.074 A 
ATOM     13  C   UNL     1      -1.741   0.645   1.373  1.00  0.00     0.049 A 
ATOM     14  N   UNL     1      -3.365  -1.935   2.543  1.00  0.00    -0.248 NA
ATOM     15  C   UNL     1      -3.849  -1.824   0.291  1.00  0.00     0.031 C 
ATOM     16  C   UNL     1      -1.133   1.939   1.054  1.00  0.00     0.029 A 
ATOM     17  N   UNL     1      -0.658  -0.166   1.540  1.00  0.00    -0.354 N 
ATOM     18  C   UNL     1      -3.659  -3.219   2.075  1.00  0.00     0.074 A 
ATOM     19  C   UNL     1      -4.123  -3.054   0.724  1.00  0.00     0.031 C 
ATOM     20  C   UNL     1       0.190   1.772   0.829  1.00  0.00     0.029 A 
ATOM     21  C   UNL     1       0.547   0.407   1.168  1.00  0.00     0.049 A 
ATOM     22  H   UNL     1      -0.726  -1.082   1.896  1.00  0.00     0.167 HD
ATOM     23  C   UNL     1      -3.295  -4.354   2.739  1.00  0.00     0.031 A 
ATOM     24  C   UNL     1       1.760  -0.193   1.138  1.00  0.00     0.031 A 
ATOM     25  C   UNL     1      -2.867  -4.076   4.082  1.00  0.00     0.049 A 
ATOM     26  C   UNL     1       1.706  -1.351   2.059  1.00  0.00     0.074 A 
ATOM     27  C   UNL     1      -3.438  -3.460   5.178  1.00  0.00     0.029 A 
ATOM     28  N   UNL     1      -1.515  -4.113   4.335  1.00  0.00    -0.354 N 
ATOM     29  N   UNL     1       1.596  -1.232   3.352  1.00  0.00    -0.248 NA
ATOM     30  C   UNL     1       1.376  -2.662   1.526  1.00  0.00     0.031 C 
ATOM     31  C   UNL     1      -2.377  -2.709   5.763  1.00  0.00     0.029 A 
ATOM     32  C   UNL     1      -1.215  -2.972   5.032  1.00  0.00     0.049 A 
ATOM     33  H   UNL     1      -0.886  -4.822   4.068  1.00  0.00     0.167 HD
ATOM     34  C   UNL     1       0.794  -2.292   3.744  1.00  0.00     0.074 A 
ATOM     35  C   UNL     1       0.785  -3.197   2.598  1.00  0.00     0.031 C 
ATOM     36  C   UNL     1       0.004  -2.211   4.856  1.00  0.00     0.031 A 
BRANCH  23  37
ATOM     37  C   UNL     1      -2.972  -5.672   2.067  1.00  0.00    -0.014 A 
ATOM     38  C   UNL     1      -2.694  -6.798   2.870  1.00  0.00     0.010 A 
ATOM     39  C   UNL     1      -2.662  -5.778   0.695  1.00  0.00     0.010 A 
ATOM     40  C   UNL     1      -2.063  -7.935   2.344  1.00  0.00     0.020 A 
ATOM     41  C   UNL     1      -2.080  -6.926   0.150  1.00  0.00     0.020 A 
ATOM     42  C   UNL     1      -1.744  -7.981   0.987  1.00  0.00     0.054 A 
BRANCH  42  43
ATOM     43  S   UNL     1      -0.812  -9.390   0.337  1.00  0.00     0.124 S 
ATOM     44  O   UNL     1       0.494  -9.194   0.959  1.00  0.00    -0.237 OA
ATOM     45  O   UNL     1      -1.586 -10.527   0.827  1.00  0.00    -0.237 OA
ATOM     46  O   UNL     1      -0.858  -9.188  -1.109  1.00  0.00    -0.744 OA
ENDBRANCH  42  43
ENDBRANCH  23  37
BRANCH  24  47
ATOM     47  C   UNL     1       2.879   0.046   0.201  1.00  0.00    -0.014 A 
ATOM     48  C   UNL     1       4.164  -0.453   0.474  1.00  0.00     0.010 A 
ATOM     49  C   UNL     1       2.614   0.518  -1.102  1.00  0.00     0.010 A 
ATOM     50  C   UNL     1       5.126  -0.553  -0.543  1.00  0.00     0.020 A 
ATOM     51  C   UNL     1       3.571   0.429  -2.118  1.00  0.00     0.020 A 
ATOM     52  C   UNL     1       4.813  -0.136  -1.839  1.00  0.00     0.054 A 
BRANCH  52  53
ATOM     53  S   UNL     1       5.981  -0.476  -3.189  1.00  0.00     0.124 S 
ATOM     54  O   UNL     1       7.048   0.484  -2.925  1.00  0.00    -0.237 OA
ATOM     55  O   UNL     1       6.322  -1.879  -2.967  1.00  0.00    -0.237 OA
ATOM     56  O   UNL     1       5.196  -0.219  -4.395  1.00  0.00    -0.744 OA
ENDBRANCH  52  53
ENDBRANCH  24  47
BRANCH  36  57
ATOM     57  C   UNL     1       0.250  -1.100   5.852  1.00  0.00    -0.014 A 
ATOM     58  C   UNL     1       0.248   0.270   5.523  1.00  0.00     0.010 A 
ATOM     59  C   UNL     1       0.355  -1.460   7.208  1.00  0.00     0.010 A 
ATOM     60  C   UNL     1       0.391   1.247   6.520  1.00  0.00     0.020 A 
ATOM     61  C   UNL     1       0.473  -0.492   8.208  1.00  0.00     0.020 A 
ATOM     62  C   UNL     1       0.506   0.857   7.858  1.00  0.00     0.054 A 
BRANCH  62  63
ATOM     63  S   UNL     1       0.664   2.125   9.146  1.00  0.00     0.124 S 
ATOM     64  O   UNL     1       1.999   2.662   8.898  1.00  0.00    -0.237 OA
ATOM     65  O   UNL     1      -0.444   3.029   8.850  1.00  0.00    -0.237 OA
ATOM     66  O   UNL     1       0.522   1.373  10.393  1.00  0.00    -0.744 OA
ENDBRANCH  62  63
ENDBRANCH  36  57
ENDBRANCH  10  11
ENDBRANCH   3   5
ENDBRANCH   2   3
ENDBRANCH   1   2
BRANCH   1  67
ATOM     67  C   UNL     1     -10.239   2.931   0.975  1.00  0.00     0.275 C 
BRANCH  67  68
ATOM     68  O   UNL     1      -9.552   1.848   0.326  1.00  0.00    -0.457 OA
BRANCH  68  69
ATOM     69  C   UNL     1      -9.465   1.911  -1.043  1.00  0.00     0.359 C 
ATOM     70  O   UNL     1      -9.892   2.825  -1.736  1.00  0.00    -0.244 OA
BRANCH  69  71
ATOM     71  C   UNL     1      -8.828   0.717  -1.605  1.00  0.00     0.175 A 
ATOM     72  N   UNL     1      -9.428  -0.489  -1.503  1.00  0.00    -0.165 NA
ATOM     73  C   UNL     1      -7.610   0.617  -2.335  1.00  0.00     0.028 A 
ATOM     74  N   UNL     1      -8.593  -1.348  -2.127  1.00  0.00    -0.264 N 
ATOM     75  C   UNL     1      -7.450  -0.738  -2.543  1.00  0.00     0.046 A 
ATOM     76  C   UNL     1      -6.608   1.644  -2.758  1.00  0.00     0.159 C 
ATOM     77  C   UNL     1      -6.246  -1.361  -3.137  1.00  0.00     0.078 C 
ATOM     78  N   UNL     1      -5.438   0.995  -3.404  1.00  0.00    -0.337 N 
ATOM     79  C   UNL     1      -5.091  -0.362  -2.962  1.00  0.00     0.126 C 
BRANCH  74  80
ATOM     80  C   UNL     1      -9.059  -2.681  -2.496  1.00  0.00     0.180 C 
BRANCH  80  81
ATOM     81  C   UNL     1      -9.236  -3.610  -1.324  1.00  0.00    -0.026 A 
ATOM     82  C   UNL     1     -10.326  -3.448  -0.452  1.00  0.00     0.008 A 
ATOM     83  C   UNL     1      -8.351  -4.681  -1.117  1.00  0.00     0.008 A 
ATOM     84  C   UNL     1     -10.538  -4.346   0.593  1.00  0.00     0.039 A 
ATOM     85  C   UNL     1      -8.567  -5.580  -0.071  1.00  0.00     0.039 A 
ATOM     86  C   UNL     1      -9.661  -5.408   0.769  1.00  0.00     0.123 A 
ATOM     87  F   UNL     1      -9.881  -6.284   1.758  1.00  0.00    -0.207 F 
ENDBRANCH  80  81
ENDBRANCH  74  80
BRANCH  78  88
ATOM     88  C   UNL     1      -4.564   1.793  -4.135  1.00  0.00     0.232 C 
ATOM     89  O   UNL     1      -4.725   2.997  -4.287  1.00  0.00    -0.274 OA
BRANCH  88  90
ATOM     90  C   UNL     1      -3.360   1.140  -4.698  1.00  0.00     0.154 C 
ATOM     91  C   UNL     1      -3.496   0.080  -5.784  1.00  0.00     0.097 C 
ATOM     92  C   UNL     1      -2.946   1.419  -6.093  1.00  0.00     0.260 C 
ATOM     93  F   UNL     1      -3.650   2.241  -6.939  1.00  0.00    -0.206 F 
ATOM     94  F   UNL     1      -1.617   1.521  -6.435  1.00  0.00    -0.206 F 
ENDBRANCH  88  90
ENDBRANCH  78  88
ENDBRANCH  69  71
ENDBRANCH  68  69
ENDBRANCH  67  68
ENDBRANCH   1  67
TORSDOF 18
