REMARK SMILES O=C(OCCOC(=O)c1cn(-c2cc(Cl)ncn2)cn1)c1ccc(-c2c3nc(c(-c4ccc(S(=O)(=O)[O-])cc4)c4ccc([nH]4)c(-c4ccc(S(=O)(=O)[O-])cc4)c4nc(c(-c5ccc(S(=O)(=O)[O-])cc5)c5ccc2[nH]5)C=C4)C=C3)cc1
REMARK SMILES IDX 4 1 3 2 2 3 1 4 21 5 22 6 80 7 23 8 79 9 24 10 25 11 26 12
REMARK SMILES IDX 73 13 27 14 78 15 72 16 74 17 28 18 77 19 71 20 70 21 29 23
REMARK SMILES IDX 59 24 40 25 58 26 41 27 44 28 57 29 75 30 42 31 43 32 56 34
REMARK SMILES IDX 76 35 45 36 30 37 31 38 39 39 32 40 38 41 33 42 34 43 35 44
REMARK SMILES IDX 36 45 37 46 60 47 61 48 69 49 62 50 68 51 63 52 64 53 65 54
REMARK SMILES IDX 66 55 67 56 46 57 47 58 55 59 48 60 54 61 49 62 50 63 51 64
REMARK SMILES IDX 52 65 53 66 5 67 6 68 7 69 8 70 9 71 10 72 20 73 11 74 19 75
REMARK SMILES IDX 12 76 13 77 18 78 14 79 17 80 15 81 16 82
REMARK H PARENT 74 22 44 33
REMARK Flexibility Score: inf
ROOT
ATOM      1  C   UNL     1       4.608   0.702   1.048  1.00  0.00     0.275 C 
ENDROOT
BRANCH   1   2
ATOM      2  O   UNL     1       3.451   1.420   0.566  1.00  0.00    -0.458 OA
BRANCH   2   3
ATOM      3  C   UNL     1       2.386   0.711   0.117  1.00  0.00     0.338 C 
ATOM      4  O   UNL     1       1.523   0.240   0.839  1.00  0.00    -0.246 OA
BRANCH   3   5
ATOM      5  C   UNL     1       2.332   0.726  -1.365  1.00  0.00     0.060 A 
ATOM      6  C   UNL     1       3.503   0.749  -2.134  1.00  0.00     0.016 A 
ATOM      7  C   UNL     1       1.083   0.689  -1.993  1.00  0.00     0.016 A 
ATOM      8  C   UNL     1       3.428   0.802  -3.517  1.00  0.00     0.010 A 
ATOM      9  C   UNL     1       1.008   0.739  -3.383  1.00  0.00     0.010 A 
ATOM     10  C   UNL     1       2.180   0.828  -4.143  1.00  0.00    -0.014 A 
BRANCH  10  11
ATOM     11  C   UNL     1       2.169   0.903  -5.603  1.00  0.00     0.031 A 
ATOM     12  C   UNL     1       2.724  -0.265  -6.351  1.00  0.00     0.074 A 
ATOM     13  C   UNL     1       1.569   1.898  -6.283  1.00  0.00     0.049 A 
ATOM     14  N   UNL     1       3.675  -0.296  -7.231  1.00  0.00    -0.248 NA
ATOM     15  C   UNL     1       2.147  -1.583  -6.049  1.00  0.00     0.031 C 
ATOM     16  C   UNL     1       0.700   2.949  -5.750  1.00  0.00     0.029 A 
ATOM     17  N   UNL     1       1.515   2.095  -7.631  1.00  0.00    -0.354 N 
ATOM     18  C   UNL     1       3.718  -1.605  -7.713  1.00  0.00     0.074 A 
ATOM     19  C   UNL     1       2.823  -2.374  -6.881  1.00  0.00     0.031 C 
ATOM     20  C   UNL     1       0.019   3.513  -6.772  1.00  0.00     0.029 A 
ATOM     21  C   UNL     1       0.508   2.962  -8.025  1.00  0.00     0.049 A 
ATOM     22  H   UNL     1       2.132   1.662  -8.265  1.00  0.00     0.167 HD
ATOM     23  C   UNL     1       4.356  -1.960  -8.864  1.00  0.00     0.031 A 
ATOM     24  C   UNL     1       0.049   3.153  -9.284  1.00  0.00     0.031 A 
ATOM     25  C   UNL     1       5.285  -0.965  -9.318  1.00  0.00     0.049 A 
ATOM     26  C   UNL     1       1.081   2.672 -10.231  1.00  0.00     0.074 A 
ATOM     27  C   UNL     1       6.427  -0.388  -8.801  1.00  0.00     0.029 A 
ATOM     28  N   UNL     1       4.917  -0.175 -10.380  1.00  0.00    -0.354 N 
ATOM     29  N   UNL     1       2.244   3.238 -10.390  1.00  0.00    -0.248 NA
ATOM     30  C   UNL     1       0.970   1.325 -10.767  1.00  0.00     0.031 C 
ATOM     31  C   UNL     1       6.402   0.961  -9.262  1.00  0.00     0.029 A 
ATOM     32  C   UNL     1       5.260   1.112 -10.051  1.00  0.00     0.049 A 
ATOM     33  H   UNL     1       4.490  -0.475 -11.215  1.00  0.00     0.167 HD
ATOM     34  C   UNL     1       3.116   2.199 -10.671  1.00  0.00     0.074 A 
ATOM     35  C   UNL     1       2.257   1.071 -11.015  1.00  0.00     0.031 C 
ATOM     36  C   UNL     1       4.440   2.272 -10.336  1.00  0.00     0.031 A 
BRANCH  23  37
ATOM     37  C   UNL     1       3.912  -3.101  -9.746  1.00  0.00    -0.014 A 
ATOM     38  C   UNL     1       4.739  -3.533 -10.804  1.00  0.00     0.010 A 
ATOM     39  C   UNL     1       2.588  -3.589  -9.727  1.00  0.00     0.010 A 
ATOM     40  C   UNL     1       4.250  -4.377 -11.813  1.00  0.00     0.020 A 
ATOM     41  C   UNL     1       2.105  -4.464 -10.703  1.00  0.00     0.020 A 
ATOM     42  C   UNL     1       2.930  -4.826 -11.760  1.00  0.00     0.054 A 
BRANCH  42  43
ATOM     43  S   UNL     1       2.274  -5.827 -13.120  1.00  0.00     0.124 S 
ATOM     44  O   UNL     1       2.218  -4.856 -14.208  1.00  0.00    -0.237 OA
ATOM     45  O   UNL     1       3.285  -6.873 -13.254  1.00  0.00    -0.237 OA
ATOM     46  O   UNL     1       0.980  -6.282 -12.616  1.00  0.00    -0.744 OA
ENDBRANCH  42  43
ENDBRANCH  23  37
BRANCH  24  47
ATOM     47  C   UNL     1      -1.346   3.441  -9.690  1.00  0.00    -0.014 A 
ATOM     48  C   UNL     1      -1.645   3.909 -10.981  1.00  0.00     0.010 A 
ATOM     49  C   UNL     1      -2.418   3.006  -8.881  1.00  0.00     0.010 A 
ATOM     50  C   UNL     1      -2.964   3.894 -11.463  1.00  0.00     0.020 A 
ATOM     51  C   UNL     1      -3.734   3.000  -9.349  1.00  0.00     0.020 A 
ATOM     52  C   UNL     1      -3.998   3.423 -10.648  1.00  0.00     0.054 A 
BRANCH  52  53
ATOM     53  S   UNL     1      -5.669   3.243 -11.337  1.00  0.00     0.124 S 
ATOM     54  O   UNL     1      -6.103   4.631 -11.463  1.00  0.00    -0.237 OA
ATOM     55  O   UNL     1      -5.420   2.541 -12.593  1.00  0.00    -0.237 OA
ATOM     56  O   UNL     1      -6.377   2.461 -10.325  1.00  0.00    -0.744 OA
ENDBRANCH  52  53
ENDBRANCH  24  47
BRANCH  36  57
ATOM     57  C   UNL     1       5.007   3.615  -9.931  1.00  0.00    -0.014 A 
ATOM     58  C   UNL     1       4.519   4.355  -8.835  1.00  0.00     0.010 A 
ATOM     59  C   UNL     1       6.169   4.072 -10.579  1.00  0.00     0.010 A 
ATOM     60  C   UNL     1       5.157   5.531  -8.418  1.00  0.00     0.020 A 
ATOM     61  C   UNL     1       6.822   5.235 -10.155  1.00  0.00     0.020 A 
ATOM     62  C   UNL     1       6.308   5.963  -9.081  1.00  0.00     0.054 A 
BRANCH  62  63
ATOM     63  S   UNL     1       7.166   7.450  -8.490  1.00  0.00     0.124 S 
ATOM     64  O   UNL     1       6.250   8.520  -8.876  1.00  0.00    -0.237 OA
ATOM     65  O   UNL     1       7.282   7.209  -7.053  1.00  0.00    -0.237 OA
ATOM     66  O   UNL     1       8.436   7.430  -9.215  1.00  0.00    -0.744 OA
ENDBRANCH  62  63
ENDBRANCH  36  57
ENDBRANCH  10  11
ENDBRANCH   3   5
ENDBRANCH   2   3
ENDBRANCH   1   2
BRANCH   1  67
ATOM     67  C   UNL     1       4.383  -0.733   1.518  1.00  0.00     0.275 C 
BRANCH  67  68
ATOM     68  O   UNL     1       3.931  -1.512   0.406  1.00  0.00    -0.457 OA
BRANCH  68  69
ATOM     69  C   UNL     1       3.107  -2.555   0.706  1.00  0.00     0.358 C 
ATOM     70  O   UNL     1       2.882  -2.971   1.838  1.00  0.00    -0.244 OA
BRANCH  69  71
ATOM     71  C   UNL     1       2.659  -3.225  -0.505  1.00  0.00     0.166 A 
ATOM     72  C   UNL     1       2.819  -4.571  -0.769  1.00  0.00     0.130 A 
ATOM     73  N   UNL     1       2.122  -2.589  -1.607  1.00  0.00    -0.229 NA
ATOM     74  N   UNL     1       2.478  -4.736  -2.090  1.00  0.00    -0.289 N 
ATOM     75  C   UNL     1       2.017  -3.520  -2.529  1.00  0.00     0.206 A 
BRANCH  74  76
ATOM     76  C   UNL     1       2.650  -5.897  -2.880  1.00  0.00     0.142 A 
ATOM     77  C   UNL     1       2.740  -7.122  -2.261  1.00  0.00     0.088 A 
ATOM     78  N   UNL     1       2.772  -5.735  -4.216  1.00  0.00    -0.219 NA
ATOM     79  C   UNL     1       2.981  -8.175  -3.105  1.00  0.00     0.134 A 
ATOM     80  C   UNL     1       3.062  -6.837  -4.924  1.00  0.00     0.226 A 
ATOM     81  Cl  UNL     1       3.053  -9.776  -2.489  1.00  0.00    -0.062 Cl
ATOM     82  N   UNL     1       3.172  -8.073  -4.427  1.00  0.00    -0.224 NA
ENDBRANCH  74  76
ENDBRANCH  69  71
ENDBRANCH  68  69
ENDBRANCH  67  68
ENDBRANCH   1  67
TORSDOF 15
