REMARK SMILES CN(Cc1ccnn1C)C(=O)c1c(C(=O)OCCOC(=O)c2ccc(-c3c4nc(c(-c5ccc(S(=O)(=O)[O-])cc5)c5ccc([nH]5)c(-c5ccc(S(=O)(=O)[O-])cc5)c5nc(c(-c6ccc(S(=O)(=O)[O-])cc6)c6ccc3[nH]6)C=C5)C=C4)cc2)cnn1C
REMARK SMILES IDX 17 1 16 2 14 3 15 4 13 5 12 6 84 7 82 8 83 9 85 10 10 11
REMARK SMILES IDX 11 12 2 13 1 14 3 15 4 16 5 17 8 18 6 19 7 20 9 21 18 22
REMARK SMILES IDX 19 23 20 24 21 25 22 26 23 27 81 28 24 29 80 30 25 31 26 32
REMARK SMILES IDX 27 33 74 34 28 35 79 36 73 37 75 38 29 39 78 40 72 41 71 42
REMARK SMILES IDX 30 44 60 45 41 46 59 47 42 48 45 49 58 50 76 51 43 52 44 53
REMARK SMILES IDX 57 55 77 56 46 57 31 58 32 59 40 60 33 61 39 62 34 63 35 64
REMARK SMILES IDX 36 65 37 66 38 67 61 68 62 69 70 70 63 71 69 72 64 73 65 74
REMARK SMILES IDX 66 75 67 76 68 77 47 78 48 79 56 80 49 81 55 82 50 83 51 84
REMARK SMILES IDX 52 85 53 86 54 87
REMARK H PARENT 75 43 45 54
REMARK Flexibility Score: inf
ROOT
ATOM      1  C   UNL     1       4.464   3.943   1.383  1.00  0.00     0.275 C 
ENDROOT
BRANCH   1   2
ATOM      2  O   UNL     1       3.087   3.812   0.967  1.00  0.00    -0.458 OA
BRANCH   2   3
ATOM      3  C   UNL     1       2.248   4.763   1.467  1.00  0.00     0.342 C 
ATOM      4  O   UNL     1       2.617   5.690   2.184  1.00  0.00    -0.246 OA
BRANCH   3   5
ATOM      5  C   UNL     1       0.865   4.647   1.048  1.00  0.00     0.111 A 
ATOM      6  C   UNL     1       0.080   3.508   0.886  1.00  0.00     0.140 A 
ATOM      7  N   UNL     1      -1.207   3.997   0.882  1.00  0.00    -0.262 N 
ATOM      8  C   UNL     1      -0.030   5.719   0.822  1.00  0.00     0.151 A 
ATOM      9  N   UNL     1      -1.277   5.310   0.610  1.00  0.00    -0.180 NA
ATOM     10  C   UNL     1      -2.385   3.372   1.439  1.00  0.00     0.174 C 
BRANCH   6  11
ATOM     11  C   UNL     1       0.449   2.128   1.042  1.00  0.00     0.273 C 
ATOM     12  O   UNL     1       1.024   1.752   2.063  1.00  0.00    -0.267 OA
BRANCH  11  13
ATOM     13  N   UNL     1       0.167   1.225   0.000  1.00  0.00    -0.334 N 
ATOM     14  C   UNL     1       0.763  -0.093   0.151  1.00  0.00     0.147 C 
BRANCH  13  15
ATOM     15  C   UNL     1      -0.235   1.613  -1.356  1.00  0.00     0.175 C 
BRANCH  15  16
ATOM     16  C   UNL     1      -1.696   1.892  -1.482  1.00  0.00     0.057 A 
ATOM     17  C   UNL     1      -2.315   3.022  -1.991  1.00  0.00     0.047 A 
ATOM     18  N   UNL     1      -2.729   1.042  -1.164  1.00  0.00    -0.271 N 
ATOM     19  C   UNL     1      -3.691   2.799  -1.841  1.00  0.00     0.135 A 
ATOM     20  N   UNL     1      -3.947   1.602  -1.315  1.00  0.00    -0.181 NA
ATOM     21  C   UNL     1      -2.681  -0.312  -0.671  1.00  0.00     0.174 C 
ENDBRANCH  15  16
ENDBRANCH  13  15
ENDBRANCH  11  13
ENDBRANCH   6  11
ENDBRANCH   3   5
ENDBRANCH   2   3
ENDBRANCH   1   2
BRANCH   1  22
ATOM     22  C   UNL     1       5.325   4.655   0.335  1.00  0.00     0.275 C 
BRANCH  22  23
ATOM     23  O   UNL     1       4.917   6.024   0.153  1.00  0.00    -0.458 OA
BRANCH  23  24
ATOM     24  C   UNL     1       4.213   6.268  -0.977  1.00  0.00     0.338 C 
ATOM     25  O   UNL     1       3.915   5.469  -1.846  1.00  0.00    -0.246 OA
BRANCH  24  26
ATOM     26  C   UNL     1       3.733   7.660  -0.987  1.00  0.00     0.060 A 
ATOM     27  C   UNL     1       2.582   7.950  -0.267  1.00  0.00     0.016 A 
ATOM     28  C   UNL     1       4.286   8.621  -1.827  1.00  0.00     0.016 A 
ATOM     29  C   UNL     1       1.912   9.154  -0.451  1.00  0.00     0.010 A 
ATOM     30  C   UNL     1       3.672   9.880  -1.928  1.00  0.00     0.010 A 
ATOM     31  C   UNL     1       2.457  10.150  -1.267  1.00  0.00    -0.014 A 
BRANCH  31  32
ATOM     32  C   UNL     1       1.740  11.449  -1.432  1.00  0.00     0.031 A 
ATOM     33  C   UNL     1       1.329  11.927  -2.802  1.00  0.00     0.074 A 
ATOM     34  C   UNL     1       1.428  12.193  -0.349  1.00  0.00     0.049 A 
ATOM     35  N   UNL     1       0.841  13.088  -3.159  1.00  0.00    -0.248 NA
ATOM     36  C   UNL     1       1.499  10.982  -3.918  1.00  0.00     0.031 C 
ATOM     37  C   UNL     1       1.706  11.830   1.043  1.00  0.00     0.029 A 
ATOM     38  N   UNL     1       0.795  13.409  -0.247  1.00  0.00    -0.354 N 
ATOM     39  C   UNL     1       0.700  13.035  -4.543  1.00  0.00     0.074 A 
ATOM     40  C   UNL     1       1.160  11.728  -4.961  1.00  0.00     0.031 C 
ATOM     41  C   UNL     1       1.208  12.772   1.856  1.00  0.00     0.029 A 
ATOM     42  C   UNL     1       0.670  13.858   1.048  1.00  0.00     0.049 A 
ATOM     43  H   UNL     1       0.462  13.911  -1.026  1.00  0.00     0.167 HD
ATOM     44  C   UNL     1       0.236  13.989  -5.386  1.00  0.00     0.031 A 
ATOM     45  C   UNL     1       0.224  15.031   1.538  1.00  0.00     0.031 A 
ATOM     46  C   UNL     1      -0.254  15.275  -4.958  1.00  0.00     0.049 A 
ATOM     47  C   UNL     1      -0.232  16.095   0.581  1.00  0.00     0.074 A 
ATOM     48  C   UNL     1      -0.756  16.305  -5.735  1.00  0.00     0.029 A 
ATOM     49  N   UNL     1      -0.316  15.704  -3.641  1.00  0.00    -0.354 N 
ATOM     50  N   UNL     1      -0.309  16.046  -0.727  1.00  0.00    -0.248 NA
ATOM     51  C   UNL     1      -0.646  17.378   1.165  1.00  0.00     0.031 C 
ATOM     52  C   UNL     1      -1.070  17.377  -4.892  1.00  0.00     0.029 A 
ATOM     53  C   UNL     1      -0.824  16.992  -3.585  1.00  0.00     0.049 A 
ATOM     54  H   UNL     1      -0.039  15.172  -2.860  1.00  0.00     0.167 HD
ATOM     55  C   UNL     1      -0.794  17.286  -1.123  1.00  0.00     0.074 A 
ATOM     56  C   UNL     1      -1.014  18.055   0.086  1.00  0.00     0.031 C 
ATOM     57  C   UNL     1      -1.033  17.747  -2.375  1.00  0.00     0.031 A 
BRANCH  44  58
ATOM     58  C   UNL     1       0.283  13.704  -6.866  1.00  0.00    -0.014 A 
ATOM     59  C   UNL     1      -0.587  12.779  -7.470  1.00  0.00     0.010 A 
ATOM     60  C   UNL     1       1.190  14.416  -7.674  1.00  0.00     0.010 A 
ATOM     61  C   UNL     1      -0.522  12.543  -8.848  1.00  0.00     0.020 A 
ATOM     62  C   UNL     1       1.238  14.205  -9.055  1.00  0.00     0.020 A 
ATOM     63  C   UNL     1       0.392  13.256  -9.631  1.00  0.00     0.054 A 
BRANCH  63  64
ATOM     64  S   UNL     1       0.441  12.945 -11.418  1.00  0.00     0.124 S 
ATOM     65  O   UNL     1       1.066  11.626 -11.477  1.00  0.00    -0.237 OA
ATOM     66  O   UNL     1      -0.971  12.987 -11.790  1.00  0.00    -0.237 OA
ATOM     67  O   UNL     1       1.252  14.041 -11.941  1.00  0.00    -0.744 OA
ENDBRANCH  63  64
ENDBRANCH  44  58
BRANCH  45  68
ATOM     68  C   UNL     1       0.249  15.279   3.008  1.00  0.00    -0.014 A 
ATOM     69  C   UNL     1      -0.945  15.400   3.739  1.00  0.00     0.010 A 
ATOM     70  C   UNL     1       1.479  15.375   3.688  1.00  0.00     0.010 A 
ATOM     71  C   UNL     1      -0.910  15.622   5.119  1.00  0.00     0.020 A 
ATOM     72  C   UNL     1       1.517  15.562   5.072  1.00  0.00     0.020 A 
ATOM     73  C   UNL     1       0.321  15.697   5.778  1.00  0.00     0.054 A 
BRANCH  73  74
ATOM     74  S   UNL     1       0.343  15.926   7.577  1.00  0.00     0.124 S 
ATOM     75  O   UNL     1      -0.028  17.332   7.708  1.00  0.00    -0.237 OA
ATOM     76  O   UNL     1      -0.656  14.963   8.031  1.00  0.00    -0.237 OA
ATOM     77  O   UNL     1       1.720  15.604   7.947  1.00  0.00    -0.744 OA
ENDBRANCH  73  74
ENDBRANCH  45  68
BRANCH  57  78
ATOM     78  C   UNL     1      -1.593  19.139  -2.501  1.00  0.00    -0.014 A 
ATOM     79  C   UNL     1      -0.797  20.271  -2.252  1.00  0.00     0.010 A 
ATOM     80  C   UNL     1      -2.926  19.314  -2.915  1.00  0.00     0.010 A 
ATOM     81  C   UNL     1      -1.334  21.554  -2.383  1.00  0.00     0.020 A 
ATOM     82  C   UNL     1      -3.458  20.596  -3.075  1.00  0.00     0.020 A 
ATOM     83  C   UNL     1      -2.662  21.708  -2.793  1.00  0.00     0.054 A 
BRANCH  83  84
ATOM     84  S   UNL     1      -3.325  23.384  -2.994  1.00  0.00     0.124 S 
ATOM     85  O   UNL     1      -3.489  23.815  -1.609  1.00  0.00    -0.237 OA
ATOM     86  O   UNL     1      -2.267  24.060  -3.742  1.00  0.00    -0.237 OA
ATOM     87  O   UNL     1      -4.569  23.179  -3.734  1.00  0.00    -0.744 OA
ENDBRANCH  83  84
ENDBRANCH  57  78
ENDBRANCH  31  32
ENDBRANCH  24  26
ENDBRANCH  23  24
ENDBRANCH  22  23
ENDBRANCH   1  22
TORSDOF 18
