REMARK SMILES Cn1cc2cc(C(=O)OCCOC(=O)c3ccc(-c4c5nc(c(-c6ccc(S(=O)(=O)[O-])cc6)c6ccc([nH]6)c(-c6ccc(S(=O)(=O)[O-])cc6)c6nc(c(-c7ccc(S(=O)(=O)[O-])cc7)c7ccc4[nH]7)C=C6)C=C5)cc3)ccc2n1
REMARK SMILES IDX 12 1 11 2 10 3 9 4 7 5 8 6 6 7 1 8 2 9 3 10 78 11 4 12 77 13
REMARK SMILES IDX 5 14 76 15 75 16 13 17 14 18 15 19 16 20 74 21 17 22 73 23
REMARK SMILES IDX 18 24 19 25 20 26 67 27 21 28 72 29 66 30 68 31 22 32 71 33
REMARK SMILES IDX 65 34 64 35 23 37 53 38 34 39 52 40 35 41 38 42 51 43 69 44
REMARK SMILES IDX 36 45 37 46 50 48 70 49 39 50 24 51 25 52 33 53 26 54 32 55
REMARK SMILES IDX 27 56 28 57 29 58 30 59 31 60 54 61 55 62 63 63 56 64 62 65
REMARK SMILES IDX 57 66 58 67 59 68 60 69 61 70 40 71 41 72 49 73 42 74 48 75
REMARK SMILES IDX 43 76 44 77 45 78 46 79 47 80
REMARK H PARENT 68 36 38 47
REMARK Flexibility Score: inf
ROOT
ATOM      1  O   UNL     1       5.293  -2.996   1.052  1.00  0.00    -0.458 OA
ENDROOT
BRANCH   1   2
ATOM      2  C   UNL     1       6.237  -1.915   1.144  1.00  0.00     0.275 C 
BRANCH   2   3
ATOM      3  C   UNL     1       6.025  -0.936  -0.010  1.00  0.00     0.275 C 
BRANCH   3   4
ATOM      4  O   UNL     1       4.745  -0.278   0.091  1.00  0.00    -0.458 OA
BRANCH   4   5
ATOM      5  C   UNL     1       3.781  -0.743  -0.747  1.00  0.00     0.338 C 
ATOM      6  O   UNL     1       3.904  -1.633  -1.565  1.00  0.00    -0.246 OA
BRANCH   5   7
ATOM      7  C   UNL     1       2.479  -0.079  -0.473  1.00  0.00     0.060 A 
ATOM      8  C   UNL     1      -3.330   0.296   0.156  1.00  0.00     0.173 C 
ATOM      9  N   UNL     1      -1.891   0.336   0.042  1.00  0.00    -0.275 N 
ATOM     10  C   UNL     1      -1.085  -0.716  -0.283  1.00  0.00     0.117 A 
ATOM     11  N   UNL     1      -1.234   1.504   0.238  1.00  0.00    -0.173 NA
ATOM     12  C   UNL     1       0.172  -0.184  -0.308  1.00  0.00     0.021 A 
ATOM     13  C   UNL     1       0.063   1.203   0.050  1.00  0.00     0.092 A 
ATOM     14  C   UNL     1       1.326  -0.886  -0.615  1.00  0.00     0.027 A 
ATOM     15  C   UNL     1       1.215   2.006   0.140  1.00  0.00     0.032 A 
ATOM     16  C   UNL     1       2.426   1.311  -0.117  1.00  0.00     0.018 A 
ENDBRANCH   5   7
ENDBRANCH   4   5
ENDBRANCH   3   4
ENDBRANCH   2   3
ENDBRANCH   1   2
BRANCH   1  17
ATOM     17  C   UNL     1       4.444  -3.124   2.097  1.00  0.00     0.338 C 
ATOM     18  O   UNL     1       4.430  -2.469   3.126  1.00  0.00    -0.246 OA
BRANCH  17  19
ATOM     19  C   UNL     1       3.463  -4.184   1.814  1.00  0.00     0.060 A 
ATOM     20  C   UNL     1       2.563  -4.005   0.768  1.00  0.00     0.016 A 
ATOM     21  C   UNL     1       3.332  -5.276   2.667  1.00  0.00     0.016 A 
ATOM     22  C   UNL     1       1.460  -4.847   0.639  1.00  0.00     0.010 A 
ATOM     23  C   UNL     1       2.288  -6.188   2.463  1.00  0.00     0.010 A 
ATOM     24  C   UNL     1       1.309  -5.962   1.477  1.00  0.00    -0.014 A 
BRANCH  24  25
ATOM     25  C   UNL     1       0.118  -6.856   1.351  1.00  0.00     0.031 A 
ATOM     26  C   UNL     1      -0.776  -7.109   2.544  1.00  0.00     0.074 A 
ATOM     27  C   UNL     1      -0.185  -7.440   0.173  1.00  0.00     0.049 A 
ATOM     28  N   UNL     1      -1.747  -7.978   2.682  1.00  0.00    -0.248 NA
ATOM     29  C   UNL     1      -0.537  -6.289   3.742  1.00  0.00     0.031 C 
ATOM     30  C   UNL     1       0.549  -7.259  -1.082  1.00  0.00     0.029 A 
ATOM     31  N   UNL     1      -1.202  -8.301  -0.167  1.00  0.00    -0.354 N 
ATOM     32  C   UNL     1      -2.186  -7.856   3.997  1.00  0.00     0.074 A 
ATOM     33  C   UNL     1      -1.375  -6.830   4.616  1.00  0.00     0.031 C 
ATOM     34  C   UNL     1      -0.067  -7.940  -2.059  1.00  0.00     0.029 A 
ATOM     35  C   UNL     1      -1.179  -8.690  -1.487  1.00  0.00     0.049 A 
ATOM     36  H   UNL     1      -1.883  -8.610   0.474  1.00  0.00     0.167 HD
ATOM     37  C   UNL     1      -3.171  -8.536   4.634  1.00  0.00     0.031 A 
ATOM     38  C   UNL     1      -1.931  -9.582  -2.162  1.00  0.00     0.031 A 
ATOM     39  C   UNL     1      -4.011  -9.524   4.006  1.00  0.00     0.049 A 
ATOM     40  C   UNL     1      -2.995 -10.349  -1.430  1.00  0.00     0.074 A 
ATOM     41  C   UNL     1      -5.047 -10.254   4.564  1.00  0.00     0.029 A 
ATOM     42  N   UNL     1      -3.922  -9.911   2.677  1.00  0.00    -0.354 N 
ATOM     43  N   UNL     1      -3.357 -10.259  -0.173  1.00  0.00    -0.248 NA
ATOM     44  C   UNL     1      -3.739 -11.353  -2.204  1.00  0.00     0.031 C 
ATOM     45  C   UNL     1      -5.556 -11.113   3.584  1.00  0.00     0.029 A 
ATOM     46  C   UNL     1      -4.873 -10.880   2.401  1.00  0.00     0.049 A 
ATOM     47  H   UNL     1      -3.278  -9.550   2.026  1.00  0.00     0.167 HD
ATOM     48  C   UNL     1      -4.377 -11.188  -0.007  1.00  0.00     0.074 A 
ATOM     49  C   UNL     1      -4.590 -11.813  -1.297  1.00  0.00     0.031 C 
ATOM     50  C   UNL     1      -5.071 -11.499   1.115  1.00  0.00     0.031 A 
BRANCH  37  51
ATOM     51  C   UNL     1      -3.365  -8.271   6.106  1.00  0.00    -0.014 A 
ATOM     52  C   UNL     1      -3.921  -7.067   6.575  1.00  0.00     0.010 A 
ATOM     53  C   UNL     1      -3.005  -9.264   7.037  1.00  0.00     0.010 A 
ATOM     54  C   UNL     1      -4.067  -6.843   7.948  1.00  0.00     0.020 A 
ATOM     55  C   UNL     1      -3.176  -9.056   8.408  1.00  0.00     0.020 A 
ATOM     56  C   UNL     1      -3.686  -7.836   8.856  1.00  0.00     0.054 A 
BRANCH  56  57
ATOM     57  S   UNL     1      -3.888  -7.522  10.632  1.00  0.00     0.124 S 
ATOM     58  O   UNL     1      -2.790  -6.597  10.900  1.00  0.00    -0.237 OA
ATOM     59  O   UNL     1      -5.228  -6.944  10.707  1.00  0.00    -0.237 OA
ATOM     60  O   UNL     1      -3.750  -8.844  11.236  1.00  0.00    -0.744 OA
ENDBRANCH  56  57
ENDBRANCH  37  51
BRANCH  38  61
ATOM     61  C   UNL     1      -1.664  -9.829  -3.606  1.00  0.00    -0.014 A 
ATOM     62  C   UNL     1      -2.579  -9.408  -4.586  1.00  0.00     0.010 A 
ATOM     63  C   UNL     1      -0.470 -10.457  -4.009  1.00  0.00     0.010 A 
ATOM     64  C   UNL     1      -2.304  -9.608  -5.942  1.00  0.00     0.020 A 
ATOM     65  C   UNL     1      -0.178 -10.630  -5.364  1.00  0.00     0.020 A 
ATOM     66  C   UNL     1      -1.101 -10.212  -6.323  1.00  0.00     0.054 A 
BRANCH  66  67
ATOM     67  S   UNL     1      -0.727 -10.387  -8.090  1.00  0.00     0.124 S 
ATOM     68  O   UNL     1      -1.584 -11.505  -8.471  1.00  0.00    -0.237 OA
ATOM     69  O   UNL     1      -1.111  -9.084  -8.626  1.00  0.00    -0.237 OA
ATOM     70  O   UNL     1       0.708 -10.661  -8.108  1.00  0.00    -0.744 OA
ENDBRANCH  66  67
ENDBRANCH  38  61
BRANCH  50  71
ATOM     71  C   UNL     1      -6.148 -12.542   0.992  1.00  0.00    -0.014 A 
ATOM     72  C   UNL     1      -5.829 -13.905   0.858  1.00  0.00     0.010 A 
ATOM     73  C   UNL     1      -7.499 -12.155   1.051  1.00  0.00     0.010 A 
ATOM     74  C   UNL     1      -6.844 -14.860   0.754  1.00  0.00     0.020 A 
ATOM     75  C   UNL     1      -8.516 -13.110   0.972  1.00  0.00     0.020 A 
ATOM     76  C   UNL     1      -8.182 -14.456   0.809  1.00  0.00     0.054 A 
BRANCH  76  77
ATOM     77  S   UNL     1      -9.482 -15.717   0.710  1.00  0.00     0.124 S 
ATOM     78  O   UNL     1      -9.466 -16.058  -0.710  1.00  0.00    -0.237 OA
ATOM     79  O   UNL     1      -8.993 -16.756   1.612  1.00  0.00    -0.237 OA
ATOM     80  O   UNL     1     -10.680 -15.016   1.168  1.00  0.00    -0.744 OA
ENDBRANCH  76  77
ENDBRANCH  50  71
ENDBRANCH  24  25
ENDBRANCH  17  19
ENDBRANCH   1  17
TORSDOF 14
