REMARK SMILES O=C(OCCOC(=O)[C@@H]1CCCC[C@H]1C(=O)Nc1ccccc1C(=O)N1CCOCC1)c1ccc(-c2c3nc(c(-c4ccc(S(=O)(=O)[O-])cc4)c4ccc([nH]4)c(-c4ccc(S(=O)(=O)[O-])cc4)c4nc(c(-c5ccc(S(=O)(=O)[O-])cc5)c5ccc2[nH]5)C=C4)C=C3)cc1
REMARK SMILES IDX 4 1 3 2 2 3 1 4 32 5 33 6 91 7 34 8 90 9 35 10 36 11 37 12
REMARK SMILES IDX 84 13 38 14 89 15 83 16 85 17 39 18 88 19 82 20 81 21 40 23
REMARK SMILES IDX 70 24 51 25 69 26 52 27 55 28 68 29 86 30 53 31 54 32 67 34
REMARK SMILES IDX 87 35 56 36 41 37 42 38 50 39 43 40 49 41 44 42 45 43 46 44
REMARK SMILES IDX 47 45 48 46 71 47 72 48 80 49 73 50 79 51 74 52 75 53 76 54
REMARK SMILES IDX 77 55 78 56 57 57 58 58 66 59 59 60 65 61 60 62 61 63 62 64
REMARK SMILES IDX 63 65 64 66 5 67 6 68 7 69 8 70 9 71 10 72 14 73 11 74 13 75
REMARK SMILES IDX 12 76 15 77 16 78 17 79 18 81 19 82 23 83 20 84 22 85 21 86
REMARK SMILES IDX 24 87 25 88 26 89 27 90 31 91 28 92 30 93 29 94
REMARK H PARENT 85 22 55 33 17 80
REMARK Flexibility Score: inf
ROOT
ATOM      1  C   UNL     1       4.511   2.123   0.669  1.00  0.00     0.275 C 
ENDROOT
BRANCH   1   2
ATOM      2  O   UNL     1       4.482   1.560  -0.654  1.00  0.00    -0.458 OA
BRANCH   2   3
ATOM      3  C   UNL     1       3.387   0.831  -0.949  1.00  0.00     0.338 C 
ATOM      4  O   UNL     1       2.296   1.356  -0.982  1.00  0.00    -0.246 OA
BRANCH   3   5
ATOM      5  C   UNL     1       3.884  -0.650  -1.018  1.00  0.00     0.060 A 
ATOM      6  C   UNL     1       5.334  -0.682   0.052  1.00  0.00     0.016 A 
ATOM      7  C   UNL     1       3.237  -2.429  -1.545  1.00  0.00     0.016 A 
ATOM      8  C   UNL     1       5.985  -2.152   0.608  1.00  0.00     0.010 A 
ATOM      9  C   UNL     1       4.050  -3.859  -0.872  1.00  0.00     0.010 A 
ATOM     10  C   UNL     1       5.372  -3.653   0.216  1.00  0.00    -0.014 A 
BRANCH  10  11
ATOM     11  C   UNL     1       5.966  -4.873   0.861  1.00  0.00     0.031 A 
ATOM     12  C   UNL     1       6.416  -5.945  -0.081  1.00  0.00     0.074 A 
ATOM     13  C   UNL     1       6.070  -5.064   2.204  1.00  0.00     0.049 A 
ATOM     14  N   UNL     1       6.990  -7.085   0.178  1.00  0.00    -0.248 NA
ATOM     15  C   UNL     1       6.212  -5.700  -1.518  1.00  0.00     0.031 C 
ATOM     16  C   UNL     1       5.702  -4.103   3.246  1.00  0.00     0.029 A 
ATOM     17  N   UNL     1       6.480  -6.156   2.947  1.00  0.00    -0.354 N 
ATOM     18  C   UNL     1       7.255  -7.634  -1.067  1.00  0.00     0.074 A 
ATOM     19  C   UNL     1       6.623  -6.823  -2.063  1.00  0.00     0.031 C 
ATOM     20  C   UNL     1       5.798  -4.672   4.466  1.00  0.00     0.029 A 
ATOM     21  C   UNL     1       6.303  -6.027   4.318  1.00  0.00     0.049 A 
ATOM     22  H   UNL     1       6.868  -6.962   2.536  1.00  0.00     0.167 HD
ATOM     23  C   UNL     1       8.061  -8.663  -1.378  1.00  0.00     0.031 A 
ATOM     24  C   UNL     1       6.548  -6.891   5.332  1.00  0.00     0.031 A 
ATOM     25  C   UNL     1       8.645  -9.499  -0.385  1.00  0.00     0.049 A 
ATOM     26  C   UNL     1       7.285  -8.160   4.970  1.00  0.00     0.074 A 
ATOM     27  C   UNL     1       9.462 -10.594  -0.553  1.00  0.00     0.029 A 
ATOM     28  N   UNL     1       8.427  -9.341   0.976  1.00  0.00    -0.354 N 
ATOM     29  N   UNL     1       7.654  -8.576   3.779  1.00  0.00    -0.248 NA
ATOM     30  C   UNL     1       7.719  -9.028   6.073  1.00  0.00     0.031 C 
ATOM     31  C   UNL     1       9.665 -11.157   0.709  1.00  0.00     0.029 A 
ATOM     32  C   UNL     1       9.055 -10.353   1.665  1.00  0.00     0.049 A 
ATOM     33  H   UNL     1       7.904  -8.615   1.386  1.00  0.00     0.167 HD
ATOM     34  C   UNL     1       8.422  -9.712   3.994  1.00  0.00     0.074 A 
ATOM     35  C   UNL     1       8.466  -9.915   5.429  1.00  0.00     0.031 C 
ATOM     36  C   UNL     1       9.055 -10.508   3.096  1.00  0.00     0.031 A 
BRANCH  23  37
ATOM     37  C   UNL     1       8.325  -8.884  -2.837  1.00  0.00    -0.014 A 
ATOM     38  C   UNL     1       9.054  -7.935  -3.586  1.00  0.00     0.010 A 
ATOM     39  C   UNL     1       7.783 -10.004  -3.481  1.00  0.00     0.010 A 
ATOM     40  C   UNL     1       9.222  -8.099  -4.960  1.00  0.00     0.020 A 
ATOM     41  C   UNL     1       7.980 -10.188  -4.851  1.00  0.00     0.020 A 
ATOM     42  C   UNL     1       8.696  -9.235  -5.580  1.00  0.00     0.054 A 
BRANCH  42  43
ATOM     43  S   UNL     1       9.011  -9.473  -7.348  1.00  0.00     0.124 S 
ATOM     44  O   UNL     1       8.221  -8.400  -7.946  1.00  0.00    -0.237 OA
ATOM     45  O   UNL     1      10.460  -9.309  -7.432  1.00  0.00    -0.237 OA
ATOM     46  O   UNL     1       8.522 -10.825  -7.607  1.00  0.00    -0.744 OA
ENDBRANCH  42  43
ENDBRANCH  23  37
BRANCH  24  47
ATOM     47  C   UNL     1       6.204  -6.591   6.767  1.00  0.00    -0.014 A 
ATOM     48  C   UNL     1       7.210  -6.375   7.732  1.00  0.00     0.010 A 
ATOM     49  C   UNL     1       4.865  -6.592   7.206  1.00  0.00     0.010 A 
ATOM     50  C   UNL     1       6.894  -6.205   9.091  1.00  0.00     0.020 A 
ATOM     51  C   UNL     1       4.540  -6.396   8.561  1.00  0.00     0.020 A 
ATOM     52  C   UNL     1       5.559  -6.217   9.499  1.00  0.00     0.054 A 
BRANCH  52  53
ATOM     53  S   UNL     1       5.178  -5.981  11.264  1.00  0.00     0.124 S 
ATOM     54  O   UNL     1       5.740  -7.186  11.866  1.00  0.00    -0.237 OA
ATOM     55  O   UNL     1       5.878  -4.736  11.570  1.00  0.00    -0.237 OA
ATOM     56  O   UNL     1       3.719  -5.892  11.293  1.00  0.00    -0.744 OA
ENDBRANCH  52  53
ENDBRANCH  24  47
BRANCH  36  57
ATOM     57  C   UNL     1       9.867 -11.642   3.641  1.00  0.00    -0.014 A 
ATOM     58  C   UNL     1       9.253 -12.745   4.253  1.00  0.00     0.010 A 
ATOM     59  C   UNL     1      11.261 -11.633   3.451  1.00  0.00     0.010 A 
ATOM     60  C   UNL     1      10.030 -13.809   4.706  1.00  0.00     0.020 A 
ATOM     61  C   UNL     1      12.034 -12.716   3.857  1.00  0.00     0.020 A 
ATOM     62  C   UNL     1      11.413 -13.789   4.499  1.00  0.00     0.054 A 
BRANCH  62  63
ATOM     63  S   UNL     1      12.387 -15.208   5.053  1.00  0.00     0.124 S 
ATOM     64  O   UNL     1      12.317 -15.073   6.505  1.00  0.00    -0.237 OA
ATOM     65  O   UNL     1      11.650 -16.336   4.488  1.00  0.00    -0.237 OA
ATOM     66  O   UNL     1      13.705 -14.975   4.468  1.00  0.00    -0.744 OA
ENDBRANCH  62  63
ENDBRANCH  36  57
ENDBRANCH  10  11
ENDBRANCH   3   5
ENDBRANCH   2   3
ENDBRANCH   1   2
BRANCH   1  67
ATOM     67  C   UNL     1       3.807   1.415   1.930  1.00  0.00     0.274 C 
BRANCH  67  68
ATOM     68  O   UNL     1       3.292   0.017   1.858  1.00  0.00    -0.462 OA
BRANCH  68  69
ATOM     69  C   UNL     1       2.561  -0.576   2.875  1.00  0.00     0.309 C 
ATOM     70  O   UNL     1       2.321   0.104   3.882  1.00  0.00    -0.252 OA
BRANCH  69  71
ATOM     71  C   UNL     1       2.001  -2.271   2.861  1.00  0.00     0.111 C 
ATOM     72  C   UNL     1       2.594  -2.744   4.222  1.00  0.00     0.016 C 
ATOM     73  C   UNL     1       1.820  -3.706   1.876  1.00  0.00     0.093 C 
ATOM     74  C   UNL     1       2.084  -4.063   4.786  1.00  0.00     0.001 C 
ATOM     75  C   UNL     1       1.260  -4.925   2.655  1.00  0.00     0.014 C 
ATOM     76  C   UNL     1       2.168  -5.220   3.823  1.00  0.00     0.001 C 
BRANCH  73  77
ATOM     77  C   UNL     1       1.346  -4.141   0.360  1.00  0.00     0.228 C 
ATOM     78  O   UNL     1       1.821  -5.179  -0.139  1.00  0.00    -0.274 OA
ATOM     79  N   UNL     1       0.323  -3.683  -0.410  1.00  0.00    -0.325 N 
ATOM     80  H   UNL     1       0.342  -3.827  -1.384  1.00  0.00     0.169 HD
BRANCH  79  81
ATOM     81  C   UNL     1      -0.732  -3.025   0.160  1.00  0.00     0.054 A 
ATOM     82  C   UNL     1      -1.905  -3.801   0.257  1.00  0.00     0.027 A 
ATOM     83  C   UNL     1      -0.443  -1.944   0.961  1.00  0.00     0.063 A 
ATOM     84  C   UNL     1      -2.662  -3.710   1.411  1.00  0.00     0.002 A 
ATOM     85  C   UNL     1      -1.269  -1.829   2.100  1.00  0.00     0.016 A 
ATOM     86  C   UNL     1      -2.304  -2.761   2.364  1.00  0.00     0.001 A 
BRANCH  83  87
ATOM     87  C   UNL     1       0.783  -1.044   0.697  1.00  0.00     0.256 C 
ATOM     88  O   UNL     1       0.685   0.076   1.201  1.00  0.00    -0.269 OA
ATOM     89  N   UNL     1       1.898  -1.407  -0.183  1.00  0.00    -0.334 N 
ATOM     90  C   UNL     1       1.507  -0.940  -1.800  1.00  0.00     0.148 C 
ATOM     91  C   UNL     1       3.669  -2.037   0.214  1.00  0.00     0.148 C 
ATOM     92  C   UNL     1       2.757  -0.945  -3.156  1.00  0.00     0.181 C 
ATOM     93  C   UNL     1       5.057  -2.077  -1.491  1.00  0.00     0.181 C 
ATOM     94  O   UNL     1       4.387  -1.256  -2.978  1.00  0.00    -0.378 OA
ENDBRANCH  83  87
ENDBRANCH  79  81
ENDBRANCH  73  77
ENDBRANCH  69  71
ENDBRANCH  68  69
ENDBRANCH  67  68
ENDBRANCH   1  67
TORSDOF 17
