REMARK SMILES C=Cc1cncc(-c2ccc([C@@H](C)C(=O)OCCOC(=O)c3ccc(-c4c5nc(c(-c6ccc(S(=O)(=O)[O-])cc6)c6ccc([nH]6)c(-c6ccc(S(=O)(=O)[O-])cc6)c6nc(c(-c7ccc(S(=O)(=O)[O-])cc7)c7ccc4[nH]7)C=C6)C=C5)cc3)cc2)c1
REMARK SMILES IDX 17 1 16 2 14 3 15 4 12 5 13 6 11 7 8 8 9 9 83 10 10 11 82 12
REMARK SMILES IDX 7 13 3 14 4 15 84 16 5 17 6 18 2 19 1 20 18 21 19 22 20 23
REMARK SMILES IDX 21 24 22 25 23 26 81 27 24 28 80 29 25 30 26 31 27 32 74 33
REMARK SMILES IDX 28 34 79 35 73 36 75 37 29 38 78 39 72 40 71 41 30 43 60 44
REMARK SMILES IDX 41 45 59 46 42 47 45 48 58 49 76 50 43 51 44 52 57 54 77 55
REMARK SMILES IDX 46 56 31 57 32 58 40 59 33 60 39 61 34 62 35 63 36 64 37 65
REMARK SMILES IDX 38 66 61 67 62 68 70 69 63 70 69 71 64 72 65 73 66 74 67 75
REMARK SMILES IDX 68 76 47 77 48 78 56 79 49 80 55 81 50 82 51 83 52 84 53 85
REMARK SMILES IDX 54 86
REMARK H PARENT 75 42 45 53
REMARK Flexibility Score: inf
ROOT
ATOM      1  C   UNL     1      -6.569   5.471   3.534  1.00  0.00     0.274 C 
ENDROOT
BRANCH   1   2
ATOM      2  O   UNL     1      -6.743   4.777   2.285  1.00  0.00    -0.462 OA
BRANCH   2   3
ATOM      3  C   UNL     1      -7.180   5.513   1.231  1.00  0.00     0.313 C 
ATOM      4  O   UNL     1      -7.543   6.683   1.313  1.00  0.00    -0.252 OA
BRANCH   3   5
ATOM      5  C   UNL     1      -7.236   4.742  -0.081  1.00  0.00     0.126 C 
ATOM      6  C   UNL     1      -8.674   4.306  -0.358  1.00  0.00     0.025 C 
BRANCH   5   7
ATOM      7  C   UNL     1      -6.247   3.596  -0.232  1.00  0.00    -0.034 A 
ATOM      8  C   UNL     1      -4.404   1.460  -0.589  1.00  0.00    -0.017 A 
ATOM      9  C   UNL     1      -5.440   1.377   0.353  1.00  0.00     0.009 A 
ATOM     10  C   UNL     1      -4.292   2.641  -1.336  1.00  0.00     0.009 A 
ATOM     11  C   UNL     1      -6.352   2.423   0.525  1.00  0.00     0.005 A 
ATOM     12  C   UNL     1      -5.200   3.692  -1.161  1.00  0.00     0.005 A 
BRANCH   8  13
ATOM     13  C   UNL     1      -3.491   0.328  -0.801  1.00  0.00     0.001 A 
ATOM     14  C   UNL     1      -1.265  -0.648  -0.944  1.00  0.00    -0.007 A 
ATOM     15  C   UNL     1      -1.884  -1.865  -1.224  1.00  0.00     0.119 A 
ATOM     16  C   UNL     1      -2.096   0.462  -0.744  1.00  0.00     0.020 A 
ATOM     17  N   UNL     1      -3.222  -2.049  -1.290  1.00  0.00    -0.263 NA
ATOM     18  C   UNL     1      -3.983  -0.949  -1.079  1.00  0.00     0.119 A 
BRANCH  14  19
ATOM     19  C   UNL     1       0.199  -0.567  -0.925  1.00  0.00     0.002 C 
ATOM     20  C   UNL     1       0.898   0.150  -0.036  1.00  0.00     0.009 C 
ENDBRANCH  14  19
ENDBRANCH   8  13
ENDBRANCH   5   7
ENDBRANCH   3   5
ENDBRANCH   2   3
ENDBRANCH   1   2
BRANCH   1  21
ATOM     21  C   UNL     1      -5.103   5.845   3.756  1.00  0.00     0.275 C 
BRANCH  21  22
ATOM     22  O   UNL     1      -4.693   6.893   2.861  1.00  0.00    -0.458 OA
BRANCH  22  23
ATOM     23  C   UNL     1      -4.085   6.479   1.726  1.00  0.00     0.338 C 
ATOM     24  O   UNL     1      -3.814   5.338   1.401  1.00  0.00    -0.246 OA
BRANCH  23  25
ATOM     25  C   UNL     1      -3.841   7.639   0.863  1.00  0.00     0.060 A 
ATOM     26  C   UNL     1      -4.621   7.810  -0.285  1.00  0.00     0.016 A 
ATOM     27  C   UNL     1      -2.789   8.508   1.150  1.00  0.00     0.016 A 
ATOM     28  C   UNL     1      -4.342   8.853  -1.166  1.00  0.00     0.010 A 
ATOM     29  C   UNL     1      -2.518   9.557   0.273  1.00  0.00     0.010 A 
ATOM     30  C   UNL     1      -3.283   9.728  -0.895  1.00  0.00    -0.014 A 
BRANCH  30  31
ATOM     31  C   UNL     1      -2.917  10.803  -1.845  1.00  0.00     0.031 A 
ATOM     32  C   UNL     1      -1.657  10.672  -2.650  1.00  0.00     0.074 A 
ATOM     33  C   UNL     1      -3.679  11.908  -1.940  1.00  0.00     0.049 A 
ATOM     34  N   UNL     1      -1.036  11.573  -3.364  1.00  0.00    -0.248 NA
ATOM     35  C   UNL     1      -1.007   9.351  -2.642  1.00  0.00     0.031 C 
ATOM     36  C   UNL     1      -4.954  12.120  -1.256  1.00  0.00     0.029 A 
ATOM     37  N   UNL     1      -3.472  13.072  -2.635  1.00  0.00    -0.354 N 
ATOM     38  C   UNL     1       0.096  10.941  -3.863  1.00  0.00     0.074 A 
ATOM     39  C   UNL     1       0.077   9.581  -3.369  1.00  0.00     0.031 C 
ATOM     40  C   UNL     1      -5.409  13.349  -1.551  1.00  0.00     0.029 A 
ATOM     41  C   UNL     1      -4.429  14.029  -2.394  1.00  0.00     0.049 A 
ATOM     42  H   UNL     1      -2.713  13.210  -3.247  1.00  0.00     0.167 HD
ATOM     43  C   UNL     1       1.067  11.456  -4.655  1.00  0.00     0.031 A 
ATOM     44  C   UNL     1      -4.485  15.321  -2.771  1.00  0.00     0.031 A 
ATOM     45  C   UNL     1       1.075  12.812  -5.134  1.00  0.00     0.049 A 
ATOM     46  C   UNL     1      -3.361  15.893  -3.592  1.00  0.00     0.074 A 
ATOM     47  C   UNL     1       2.018  13.440  -5.928  1.00  0.00     0.029 A 
ATOM     48  N   UNL     1       0.088  13.748  -4.865  1.00  0.00    -0.354 N 
ATOM     49  N   UNL     1      -2.277  15.297  -4.030  1.00  0.00    -0.248 NA
ATOM     50  C   UNL     1      -3.463  17.311  -3.965  1.00  0.00     0.031 C 
ATOM     51  C   UNL     1       1.619  14.768  -6.110  1.00  0.00     0.029 A 
ATOM     52  C   UNL     1       0.402  14.952  -5.471  1.00  0.00     0.049 A 
ATOM     53  H   UNL     1      -0.716  13.582  -4.323  1.00  0.00     0.167 HD
ATOM     54  C   UNL     1      -1.585  16.258  -4.758  1.00  0.00     0.074 A 
ATOM     55  C   UNL     1      -2.370  17.474  -4.701  1.00  0.00     0.031 C 
ATOM     56  C   UNL     1      -0.407  16.143  -5.419  1.00  0.00     0.031 A 
BRANCH  43  57
ATOM     57  C   UNL     1       2.220  10.558  -5.012  1.00  0.00    -0.014 A 
ATOM     58  C   UNL     1       2.070   9.512  -5.940  1.00  0.00     0.010 A 
ATOM     59  C   UNL     1       3.481  10.783  -4.430  1.00  0.00     0.010 A 
ATOM     60  C   UNL     1       3.152   8.682  -6.249  1.00  0.00     0.020 A 
ATOM     61  C   UNL     1       4.570   9.970  -4.754  1.00  0.00     0.020 A 
ATOM     62  C   UNL     1       4.393   8.912  -5.648  1.00  0.00     0.054 A 
BRANCH  62  63
ATOM     63  S   UNL     1       5.784   7.826  -6.071  1.00  0.00     0.124 S 
ATOM     64  O   UNL     1       5.455   6.614  -5.325  1.00  0.00    -0.237 OA
ATOM     65  O   UNL     1       5.677   7.717  -7.524  1.00  0.00    -0.237 OA
ATOM     66  O   UNL     1       6.953   8.557  -5.589  1.00  0.00    -0.744 OA
ENDBRANCH  62  63
ENDBRANCH  43  57
BRANCH  44  67
ATOM     67  C   UNL     1      -5.629  16.170  -2.344  1.00  0.00    -0.014 A 
ATOM     68  C   UNL     1      -6.594  16.589  -3.276  1.00  0.00     0.010 A 
ATOM     69  C   UNL     1      -5.770  16.550  -0.996  1.00  0.00     0.010 A 
ATOM     70  C   UNL     1      -7.670  17.383  -2.872  1.00  0.00     0.020 A 
ATOM     71  C   UNL     1      -6.858  17.323  -0.584  1.00  0.00     0.020 A 
ATOM     72  C   UNL     1      -7.796  17.745  -1.527  1.00  0.00     0.054 A 
BRANCH  72  73
ATOM     73  S   UNL     1      -9.230  18.732  -1.014  1.00  0.00     0.124 S 
ATOM     74  O   UNL     1      -8.865  20.064  -1.485  1.00  0.00    -0.237 OA
ATOM     75  O   UNL     1     -10.331  18.088  -1.727  1.00  0.00    -0.237 OA
ATOM     76  O   UNL     1      -9.257  18.565   0.437  1.00  0.00    -0.744 OA
ENDBRANCH  72  73
ENDBRANCH  44  67
BRANCH  56  77
ATOM     77  C   UNL     1       0.080  17.337  -6.190  1.00  0.00    -0.014 A 
ATOM     78  C   UNL     1       0.683  18.428  -5.543  1.00  0.00     0.010 A 
ATOM     79  C   UNL     1       0.017  17.318  -7.596  1.00  0.00     0.010 A 
ATOM     80  C   UNL     1       1.209  19.486  -6.290  1.00  0.00     0.020 A 
ATOM     81  C   UNL     1       0.559  18.363  -8.346  1.00  0.00     0.020 A 
ATOM     82  C   UNL     1       1.147  19.444  -7.687  1.00  0.00     0.054 A 
BRANCH  82  83
ATOM     83  S   UNL     1       1.909  20.788  -8.639  1.00  0.00     0.124 S 
ATOM     84  O   UNL     1       0.932  21.862  -8.484  1.00  0.00    -0.237 OA
ATOM     85  O   UNL     1       3.181  20.990  -7.949  1.00  0.00    -0.237 OA
ATOM     86  O   UNL     1       2.021  20.236  -9.987  1.00  0.00    -0.744 OA
ENDBRANCH  82  83
ENDBRANCH  56  77
ENDBRANCH  30  31
ENDBRANCH  23  25
ENDBRANCH  22  23
ENDBRANCH  21  22
ENDBRANCH   1  21
TORSDOF 17
