REMARK SMILES NS(=O)(=O)c1ccc(-n2nc(C(=O)OCCOC(=O)c3ccc(-c4c5nc(c(-c6ccc(S(=O)(=O)[O-])cc6)c6ccc([nH]6)c(-c6ccc(S(=O)(=O)[O-])cc6)c6nc(c(-c7ccc(S(=O)(=O)[O-])cc7)c7ccc4[nH]7)C=C6)C=C5)cc3)cc2-c2cc3ccccc3s2)cc1
REMARK SMILES IDX 15 1 14 2 12 3 13 4 11 5 9 6 10 7 81 8 80 9 8 10 5 11 6 12
REMARK SMILES IDX 92 13 7 14 91 15 2 16 3 17 4 18 1 19 82 22 83 23 90 24 84 25
REMARK SMILES IDX 89 26 85 27 88 28 86 29 87 30 16 31 17 32 18 33 19 34 20 35
REMARK SMILES IDX 21 36 79 37 22 38 78 39 23 40 24 41 25 42 72 43 26 44 77 45
REMARK SMILES IDX 71 46 73 47 27 48 76 49 70 50 69 51 28 53 58 54 39 55 57 56
REMARK SMILES IDX 40 57 43 58 56 59 74 60 41 61 42 62 55 64 75 65 44 66 29 67
REMARK SMILES IDX 30 68 38 69 31 70 37 71 32 72 33 73 34 74 35 75 36 76 59 77
REMARK SMILES IDX 60 78 68 79 61 80 67 81 62 82 63 83 64 84 65 85 66 86 45 87
REMARK SMILES IDX 46 88 54 89 47 90 53 91 48 92 49 93 50 94 51 95 52 96
REMARK H PARENT 1 20 1 21 73 52 43 63
REMARK Flexibility Score: inf
ROOT
ATOM      1  C   UNL     1       2.111 -10.828   6.412  1.00  0.00     0.275 C 
ENDROOT
BRANCH   1   2
ATOM      2  O   UNL     1       2.196  -9.810   5.402  1.00  0.00    -0.457 OA
BRANCH   2   3
ATOM      3  C   UNL     1       1.452  -8.668   5.601  1.00  0.00     0.358 C 
ATOM      4  O   UNL     1       0.527  -8.589   6.402  1.00  0.00    -0.244 OA
BRANCH   3   5
ATOM      5  C   UNL     1       1.909  -7.576   4.728  1.00  0.00     0.171 A 
ATOM      6  N   UNL     1       1.820  -5.842   3.488  1.00  0.00    -0.231 N 
ATOM      7  N   UNL     1       1.373  -6.340   4.675  1.00  0.00    -0.160 NA
ATOM      8  C   UNL     1       2.584  -6.767   2.813  1.00  0.00     0.085 A 
ATOM      9  C   UNL     1       2.941  -7.692   3.775  1.00  0.00     0.068 A 
BRANCH   6  10
ATOM     10  C   UNL     1       1.453  -4.546   3.081  1.00  0.00     0.065 A 
ATOM     11  C   UNL     1       0.806  -1.967   2.300  1.00  0.00     0.082 A 
ATOM     12  C   UNL     1       0.451  -3.049   1.484  1.00  0.00     0.024 A 
ATOM     13  C   UNL     1       1.473  -2.167   3.511  1.00  0.00     0.024 A 
ATOM     14  C   UNL     1       0.798  -4.345   1.864  1.00  0.00     0.030 A 
ATOM     15  C   UNL     1       1.774  -3.467   3.919  1.00  0.00     0.030 A 
BRANCH  11  16
ATOM     16  S   UNL     1       0.391  -0.333   1.776  1.00  0.00     0.238 S 
ATOM     17  O   UNL     1       1.062   0.638   2.617  1.00  0.00    -0.207 OA
ATOM     18  O   UNL     1      -1.018  -0.276   1.491  1.00  0.00    -0.207 OA
BRANCH  16  19
ATOM     19  N   UNL     1       1.171  -0.225   0.288  1.00  0.00    -0.225 NA
ATOM     20  H   UNL     1       1.000   0.695  -0.119  1.00  0.00     0.137 HD
ATOM     21  H   UNL     1       0.812  -0.946  -0.337  1.00  0.00     0.137 HD
ENDBRANCH  16  19
ENDBRANCH  11  16
ENDBRANCH   6  10
BRANCH   8  22
ATOM     22  C   UNL     1       2.771  -6.978   1.400  1.00  0.00     0.054 A 
ATOM     23  C   UNL     1       3.977  -7.260   0.764  1.00  0.00     0.031 A 
ATOM     24  S   UNL     1       1.639  -8.111   0.680  1.00  0.00    -0.134 S 
ATOM     25  C   UNL     1       4.112  -8.713   0.767  1.00  0.00    -0.007 A 
ATOM     26  C   UNL     1       2.860  -9.323   0.937  1.00  0.00     0.035 A 
ATOM     27  C   UNL     1       5.260  -9.534   0.810  1.00  0.00     0.009 A 
ATOM     28  C   UNL     1       2.717 -10.670   1.300  1.00  0.00     0.019 A 
ATOM     29  C   UNL     1       5.131 -10.874   1.196  1.00  0.00     0.001 A 
ATOM     30  C   UNL     1       3.881 -11.419   1.480  1.00  0.00     0.001 A 
ENDBRANCH   8  22
ENDBRANCH   3   5
ENDBRANCH   2   3
ENDBRANCH   1   2
BRANCH   1  31
ATOM     31  C   UNL     1       3.098 -10.554   7.538  1.00  0.00     0.275 C 
BRANCH  31  32
ATOM     32  O   UNL     1       2.754  -9.350   8.213  1.00  0.00    -0.458 OA
BRANCH  32  33
ATOM     33  C   UNL     1       3.376  -8.240   7.754  1.00  0.00     0.338 C 
ATOM     34  O   UNL     1       4.040  -8.136   6.736  1.00  0.00    -0.246 OA
BRANCH  33  35
ATOM     35  C   UNL     1       3.294  -7.197   8.770  1.00  0.00     0.060 A 
ATOM     36  C   UNL     1       3.734  -5.916   8.422  1.00  0.00     0.016 A 
ATOM     37  C   UNL     1       3.139  -7.608  10.099  1.00  0.00     0.016 A 
ATOM     38  C   UNL     1       4.237  -5.115   9.423  1.00  0.00     0.010 A 
ATOM     39  C   UNL     1       3.674  -6.828  11.083  1.00  0.00     0.010 A 
ATOM     40  C   UNL     1       4.289  -5.632  10.721  1.00  0.00    -0.014 A 
BRANCH  40  41
ATOM     41  C   UNL     1       4.860  -4.832  11.781  1.00  0.00     0.031 A 
ATOM     42  C   UNL     1       3.928  -3.753  12.183  1.00  0.00     0.074 A 
ATOM     43  C   UNL     1       6.000  -5.202  12.400  1.00  0.00     0.049 A 
ATOM     44  N   UNL     1       4.051  -2.487  11.963  1.00  0.00    -0.248 NA
ATOM     45  C   UNL     1       2.581  -4.148  12.650  1.00  0.00     0.031 C 
ATOM     46  C   UNL     1       6.773  -6.434  12.189  1.00  0.00     0.029 A 
ATOM     47  N   UNL     1       6.649  -4.625  13.445  1.00  0.00    -0.354 N 
ATOM     48  C   UNL     1       2.919  -1.916  12.536  1.00  0.00     0.074 A 
ATOM     49  C   UNL     1       1.955  -2.972  12.668  1.00  0.00     0.031 C 
ATOM     50  C   UNL     1       7.609  -6.626  13.237  1.00  0.00     0.029 A 
ATOM     51  C   UNL     1       7.529  -5.472  14.116  1.00  0.00     0.049 A 
ATOM     52  H   UNL     1       6.509  -3.686  13.706  1.00  0.00     0.167 HD
ATOM     53  C   UNL     1       3.014  -0.742  13.219  1.00  0.00     0.031 A 
ATOM     54  C   UNL     1       8.092  -5.259  15.336  1.00  0.00     0.031 A 
ATOM     55  C   UNL     1       4.256  -0.076  12.919  1.00  0.00     0.049 A 
ATOM     56  C   UNL     1       7.974  -3.806  15.608  1.00  0.00     0.074 A 
ATOM     57  C   UNL     1       4.827   0.501  11.807  1.00  0.00     0.029 A 
ATOM     58  N   UNL     1       5.270  -0.355  13.803  1.00  0.00    -0.354 N 
ATOM     59  N   UNL     1       8.583  -2.896  14.899  1.00  0.00    -0.248 NA
ATOM     60  C   UNL     1       6.831  -3.334  16.376  1.00  0.00     0.031 C 
ATOM     61  C   UNL     1       6.228   0.269  11.938  1.00  0.00     0.029 A 
ATOM     62  C   UNL     1       6.473  -0.371  13.156  1.00  0.00     0.049 A 
ATOM     63  H   UNL     1       5.147  -0.520  14.766  1.00  0.00     0.167 HD
ATOM     64  C   UNL     1       7.659  -1.868  14.778  1.00  0.00     0.074 A 
ATOM     65  C   UNL     1       6.667  -2.130  15.819  1.00  0.00     0.031 C 
ATOM     66  C   UNL     1       7.632  -1.087  13.656  1.00  0.00     0.031 A 
BRANCH  53  67
ATOM     67  C   UNL     1       2.296  -0.501  14.535  1.00  0.00    -0.014 A 
ATOM     68  C   UNL     1       2.511   0.725  15.195  1.00  0.00     0.010 A 
ATOM     69  C   UNL     1       1.676  -1.523  15.286  1.00  0.00     0.010 A 
ATOM     70  C   UNL     1       2.189   0.891  16.549  1.00  0.00     0.020 A 
ATOM     71  C   UNL     1       1.316  -1.357  16.624  1.00  0.00     0.020 A 
ATOM     72  C   UNL     1       1.603  -0.158  17.257  1.00  0.00     0.054 A 
BRANCH  72  73
ATOM     73  S   UNL     1       1.266   0.035  19.022  1.00  0.00     0.124 S 
ATOM     74  O   UNL     1       2.611   0.163  19.573  1.00  0.00    -0.237 OA
ATOM     75  O   UNL     1       0.450   1.245  19.047  1.00  0.00    -0.237 OA
ATOM     76  O   UNL     1       0.559  -1.195  19.371  1.00  0.00    -0.744 OA
ENDBRANCH  72  73
ENDBRANCH  53  67
BRANCH  54  77
ATOM     77  C   UNL     1       8.395  -6.255  16.402  1.00  0.00    -0.014 A 
ATOM     78  C   UNL     1       9.246  -5.956  17.485  1.00  0.00     0.010 A 
ATOM     79  C   UNL     1       7.616  -7.427  16.498  1.00  0.00     0.010 A 
ATOM     80  C   UNL     1       9.289  -6.779  18.630  1.00  0.00     0.020 A 
ATOM     81  C   UNL     1       7.652  -8.250  17.633  1.00  0.00     0.020 A 
ATOM     82  C   UNL     1       8.479  -7.916  18.702  1.00  0.00     0.054 A 
BRANCH  82  83
ATOM     83  S   UNL     1       8.436  -8.905  20.230  1.00  0.00     0.124 S 
ATOM     84  O   UNL     1       9.766  -9.507  20.251  1.00  0.00    -0.237 OA
ATOM     85  O   UNL     1       8.182  -7.899  21.257  1.00  0.00    -0.237 OA
ATOM     86  O   UNL     1       7.338  -9.844  20.003  1.00  0.00    -0.744 OA
ENDBRANCH  82  83
ENDBRANCH  54  77
BRANCH  66  87
ATOM     87  C   UNL     1       8.860  -1.062  12.778  1.00  0.00    -0.014 A 
ATOM     88  C   UNL     1       9.338  -2.153  12.027  1.00  0.00     0.010 A 
ATOM     89  C   UNL     1       9.479   0.189  12.616  1.00  0.00     0.010 A 
ATOM     90  C   UNL     1      10.422  -1.990  11.147  1.00  0.00     0.020 A 
ATOM     91  C   UNL     1      10.541   0.362  11.731  1.00  0.00     0.020 A 
ATOM     92  C   UNL     1      11.016  -0.730  11.006  1.00  0.00     0.054 A 
BRANCH  92  93
ATOM     93  S   UNL     1      12.393  -0.503   9.846  1.00  0.00     0.124 S 
ATOM     94  O   UNL     1      13.466  -1.269  10.473  1.00  0.00    -0.237 OA
ATOM     95  O   UNL     1      11.866  -1.059   8.602  1.00  0.00    -0.237 OA
ATOM     96  O   UNL     1      12.599   0.945   9.827  1.00  0.00    -0.744 OA
ENDBRANCH  92  93
ENDBRANCH  66  87
ENDBRANCH  40  41
ENDBRANCH  33  35
ENDBRANCH  32  33
ENDBRANCH  31  32
ENDBRANCH   1  31
TORSDOF 18
