REMARK SMILES Cc1cc(OC(F)(F)F)cc2c1O[C@@H](C(F)(F)F)C(C(=O)OCCOC(=O)c1ccc(-c3c4nc(c(-c5ccc(S(=O)(=O)[O-])cc5)c5ccc([nH]5)c(-c5ccc(S(=O)(=O)[O-])cc5)c5nc(c(-c6ccc(S(=O)(=O)[O-])cc6)c6ccc3[nH]6)C=C5)C=C4)cc1)=C2
REMARK SMILES IDX 24 1 23 2 22 3 20 4 21 5 19 6 1 7 2 8 3 9 12 10 4 11 11 12
REMARK SMILES IDX 13 13 10 14 88 15 14 16 5 17 6 18 7 19 8 20 9 21 15 22 16 23
REMARK SMILES IDX 17 24 18 25 25 26 26 27 27 28 28 29 29 30 87 31 30 32 86 33
REMARK SMILES IDX 31 34 32 35 33 36 80 37 34 38 85 39 79 40 81 41 35 42 84 43
REMARK SMILES IDX 78 44 77 45 36 47 66 48 47 49 65 50 48 51 51 52 64 53 82 54
REMARK SMILES IDX 49 55 50 56 63 58 83 59 52 60 37 61 38 62 46 63 39 64 45 65
REMARK SMILES IDX 40 66 41 67 42 68 43 69 44 70 67 71 68 72 76 73 69 74 75 75
REMARK SMILES IDX 70 76 71 77 72 78 73 79 74 80 53 81 54 82 62 83 55 84 61 85
REMARK SMILES IDX 56 86 57 87 58 88 59 89 60 90
REMARK H PARENT 81 46 51 57
REMARK Flexibility Score: inf
ROOT
ATOM      1  C   UNL     1      -5.795   1.663  -5.976  1.00  0.00     0.275 C 
ENDROOT
BRANCH   1   2
ATOM      2  C   UNL     1      -4.658   0.692  -6.292  1.00  0.00     0.275 C 
BRANCH   2   3
ATOM      3  O   UNL     1      -3.790   0.535  -5.149  1.00  0.00    -0.459 OA
BRANCH   3   4
ATOM      4  C   UNL     1      -2.702   1.336  -5.134  1.00  0.00     0.338 C 
ATOM      5  O   UNL     1      -2.317   2.041  -6.054  1.00  0.00    -0.246 OA
BRANCH   4   6
ATOM      6  C   UNL     1      -2.034   1.287  -3.820  1.00  0.00     0.087 C 
ATOM      7  C   UNL     1       0.953  -0.283   0.082  1.00  0.00     0.048 C 
ATOM      8  C   UNL     1       0.529   1.025  -0.525  1.00  0.00    -0.005 A 
ATOM      9  C   UNL     1       1.010   2.219   0.053  1.00  0.00     0.054 A 
ATOM     10  C   UNL     1      -0.328   1.095  -1.631  1.00  0.00     0.131 A 
ATOM     11  C   UNL     1       0.660   3.464  -0.471  1.00  0.00     0.130 A 
ATOM     12  C   UNL     1      -0.668   2.341  -2.164  1.00  0.00     0.021 A 
ATOM     13  O   UNL     1      -0.752  -0.081  -2.202  1.00  0.00    -0.475 OA
ATOM     14  C   UNL     1      -0.187   3.517  -1.578  1.00  0.00     0.058 A 
ATOM     15  C   UNL     1      -1.439   2.407  -3.392  1.00  0.00     0.027 C 
ATOM     16  C   UNL     1      -1.915  -0.015  -3.082  1.00  0.00     0.316 C 
BRANCH  11  17
ATOM     17  O   UNL     1       1.068   4.685  -0.018  1.00  0.00    -0.406 OA
BRANCH  17  18
ATOM     18  C   UNL     1       2.089   4.724   0.964  1.00  0.00     0.573 C 
ATOM     19  F   UNL     1       1.666   4.178   2.124  1.00  0.00    -0.132 F 
ATOM     20  F   UNL     1       3.194   4.069   0.541  1.00  0.00    -0.132 F 
ATOM     21  F   UNL     1       2.428   6.009   1.197  1.00  0.00    -0.132 F 
ENDBRANCH  17  18
ENDBRANCH  11  17
BRANCH  16  22
ATOM     22  C   UNL     1      -3.183  -0.476  -2.334  1.00  0.00     0.430 C 
ATOM     23  F   UNL     1      -3.030  -0.452  -0.989  1.00  0.00    -0.167 F 
ATOM     24  F   UNL     1      -4.277   0.263  -2.616  1.00  0.00    -0.167 F 
ATOM     25  F   UNL     1      -3.479  -1.760  -2.669  1.00  0.00    -0.167 F 
ENDBRANCH  16  22
ENDBRANCH   4   6
ENDBRANCH   3   4
ENDBRANCH   2   3
ENDBRANCH   1   2
BRANCH   1  26
ATOM     26  O   UNL     1      -5.268   2.990  -5.790  1.00  0.00    -0.458 OA
BRANCH  26  27
ATOM     27  C   UNL     1      -5.487   3.547  -4.577  1.00  0.00     0.338 C 
ATOM     28  O   UNL     1      -6.111   3.063  -3.648  1.00  0.00    -0.246 OA
BRANCH  27  29
ATOM     29  C   UNL     1      -4.856   4.879  -4.502  1.00  0.00     0.060 A 
ATOM     30  C   UNL     1      -3.512   5.048  -4.830  1.00  0.00     0.016 A 
ATOM     31  C   UNL     1      -5.583   5.943  -3.967  1.00  0.00     0.016 A 
ATOM     32  C   UNL     1      -2.862   6.239  -4.509  1.00  0.00     0.010 A 
ATOM     33  C   UNL     1      -4.954   7.173  -3.748  1.00  0.00     0.010 A 
ATOM     34  C   UNL     1      -3.574   7.321  -3.968  1.00  0.00    -0.014 A 
BRANCH  34  35
ATOM     35  C   UNL     1      -2.877   8.584  -3.594  1.00  0.00     0.031 A 
ATOM     36  C   UNL     1      -2.916   9.079  -2.168  1.00  0.00     0.074 A 
ATOM     37  C   UNL     1      -2.193   9.286  -4.521  1.00  0.00     0.049 A 
ATOM     38  N   UNL     1      -2.495  10.219  -1.681  1.00  0.00    -0.248 NA
ATOM     39  C   UNL     1      -3.510   8.183  -1.161  1.00  0.00     0.031 C 
ATOM     40  C   UNL     1      -2.031   8.904  -5.926  1.00  0.00     0.029 A 
ATOM     41  N   UNL     1      -1.492  10.463  -4.417  1.00  0.00    -0.354 N 
ATOM     42  C   UNL     1      -2.817  10.197  -0.327  1.00  0.00     0.074 A 
ATOM     43  C   UNL     1      -3.471   8.934  -0.068  1.00  0.00     0.031 C 
ATOM     44  C   UNL     1      -1.238   9.798  -6.537  1.00  0.00     0.029 A 
ATOM     45  C   UNL     1      -0.904  10.861  -5.596  1.00  0.00     0.049 A 
ATOM     46  H   UNL     1      -1.417  10.973  -3.579  1.00  0.00     0.167 HD
ATOM     47  C   UNL     1      -2.585  11.142   0.614  1.00  0.00     0.031 A 
ATOM     48  C   UNL     1      -0.203  11.970  -5.903  1.00  0.00     0.031 A 
ATOM     49  C   UNL     1      -1.891  12.377   0.368  1.00  0.00     0.049 A 
ATOM     50  C   UNL     1       0.005  13.024  -4.855  1.00  0.00     0.074 A 
ATOM     51  C   UNL     1      -1.600  13.391   1.265  1.00  0.00     0.029 A 
ATOM     52  N   UNL     1      -1.364  12.759  -0.855  1.00  0.00    -0.354 N 
ATOM     53  N   UNL     1      -0.365  13.011  -3.598  1.00  0.00    -0.248 NA
ATOM     54  C   UNL     1       0.699  14.251  -5.270  1.00  0.00     0.031 C 
ATOM     55  C   UNL     1      -0.925  14.402   0.576  1.00  0.00     0.029 A 
ATOM     56  C   UNL     1      -0.761  13.999  -0.740  1.00  0.00     0.049 A 
ATOM     57  H   UNL     1      -1.410  12.227  -1.682  1.00  0.00     0.167 HD
ATOM     58  C   UNL     1       0.051  14.227  -3.070  1.00  0.00     0.074 A 
ATOM     59  C   UNL     1       0.715  14.945  -4.139  1.00  0.00     0.031 C 
ATOM     60  C   UNL     1      -0.109  14.704  -1.813  1.00  0.00     0.031 A 
BRANCH  47  61
ATOM     61  C   UNL     1      -3.102  10.897   2.006  1.00  0.00    -0.014 A 
ATOM     62  C   UNL     1      -2.438  10.026   2.886  1.00  0.00     0.010 A 
ATOM     63  C   UNL     1      -4.219  11.618   2.466  1.00  0.00     0.010 A 
ATOM     64  C   UNL     1      -2.891   9.870   4.199  1.00  0.00     0.020 A 
ATOM     65  C   UNL     1      -4.664  11.480   3.784  1.00  0.00     0.020 A 
ATOM     66  C   UNL     1      -3.998  10.603   4.641  1.00  0.00     0.054 A 
BRANCH  66  67
ATOM     67  S   UNL     1      -4.538  10.404   6.362  1.00  0.00     0.124 S 
ATOM     68  O   UNL     1      -4.901   8.989   6.407  1.00  0.00    -0.237 OA
ATOM     69  O   UNL     1      -3.339  10.769   7.112  1.00  0.00    -0.237 OA
ATOM     70  O   UNL     1      -5.658  11.334   6.487  1.00  0.00    -0.744 OA
ENDBRANCH  66  67
ENDBRANCH  47  61
BRANCH  48  71
ATOM     71  C   UNL     1       0.317  12.144  -7.285  1.00  0.00    -0.014 A 
ATOM     72  C   UNL     1       1.686  11.978  -7.555  1.00  0.00     0.010 A 
ATOM     73  C   UNL     1      -0.566  12.410  -8.348  1.00  0.00     0.010 A 
ATOM     74  C   UNL     1       2.161  12.059  -8.868  1.00  0.00     0.020 A 
ATOM     75  C   UNL     1      -0.098  12.470  -9.663  1.00  0.00     0.020 A 
ATOM     76  C   UNL     1       1.263  12.290  -9.915  1.00  0.00     0.054 A 
BRANCH  76  77
ATOM     77  S   UNL     1       1.897  12.307 -11.615  1.00  0.00     0.124 S 
ATOM     78  O   UNL     1       2.803  13.451 -11.594  1.00  0.00    -0.237 OA
ATOM     79  O   UNL     1       2.534  10.996 -11.720  1.00  0.00    -0.237 OA
ATOM     80  O   UNL     1       0.695  12.476 -12.429  1.00  0.00    -0.744 OA
ENDBRANCH  76  77
ENDBRANCH  48  71
BRANCH  60  81
ATOM     81  C   UNL     1       0.441  16.066  -1.504  1.00  0.00    -0.014 A 
ATOM     82  C   UNL     1      -0.269  17.223  -1.867  1.00  0.00     0.010 A 
ATOM     83  C   UNL     1       1.617  16.187  -0.741  1.00  0.00     0.010 A 
ATOM     84  C   UNL     1       0.185  18.481  -1.466  1.00  0.00     0.020 A 
ATOM     85  C   UNL     1       2.065  17.442  -0.325  1.00  0.00     0.020 A 
ATOM     86  C   UNL     1       1.344  18.582  -0.688  1.00  0.00     0.054 A 
BRANCH  86  87
ATOM     87  S   UNL     1       1.865  20.224  -0.122  1.00  0.00     0.124 S 
ATOM     88  O   UNL     1       2.137  20.912  -1.382  1.00  0.00    -0.237 OA
ATOM     89  O   UNL     1       0.689  20.692   0.608  1.00  0.00    -0.237 OA
ATOM     90  O   UNL     1       3.040  19.953   0.702  1.00  0.00    -0.744 OA
ENDBRANCH  86  87
ENDBRANCH  60  81
ENDBRANCH  34  35
ENDBRANCH  27  29
ENDBRANCH  26  27
ENDBRANCH   1  26
TORSDOF 17
