REMARK SMILES Nc1oc2ccc(F)cc2c(=O)c1[C@@H]1[NH2+][C@H](C(=O)OCCOC(=O)c2ccc(-c3c4nc(c(-c5ccc(S(=O)(=O)[O-])cc5)c5ccc([nH]5)c(-c5ccc(S(=O)(=O)[O-])cc5)c5nc(c(-c6ccc(S(=O)(=O)[O-])cc6)c6ccc3[nH]6)C=C5)C=C4)cc2)CS1
REMARK SMILES IDX 21 1 20 2 19 3 17 4 18 5 16 6 14 7 15 8 86 9 85 12 13 13
REMARK SMILES IDX 2 14 3 15 4 16 11 17 5 18 10 19 12 20 6 21 9 22 7 23 8 24
REMARK SMILES IDX 1 25 22 28 23 29 24 30 25 31 26 32 84 33 27 34 83 35 28 36
REMARK SMILES IDX 29 37 30 38 77 39 31 40 82 41 76 42 78 43 32 44 81 45 75 46
REMARK SMILES IDX 74 47 33 49 63 50 44 51 62 52 45 53 48 54 61 55 79 56 46 57
REMARK SMILES IDX 47 58 60 60 80 61 49 62 34 63 35 64 43 65 36 66 42 67 37 68
REMARK SMILES IDX 38 69 39 70 40 71 41 72 64 73 65 74 73 75 66 76 72 77 67 78
REMARK SMILES IDX 68 79 69 80 70 81 71 82 50 83 51 84 59 85 52 86 58 87 53 88
REMARK SMILES IDX 54 89 55 90 56 91 57 92
REMARK H PARENT 15 10 15 11 1 26 1 27 78 48 48 59
REMARK Flexibility Score: inf
ROOT
ATOM      1  C   UNL     1      -2.847  -1.240   1.552  1.00  0.00     0.275 C 
ENDROOT
BRANCH   1   2
ATOM      2  C   UNL     1      -1.844  -0.364   0.799  1.00  0.00     0.274 C 
BRANCH   2   3
ATOM      3  O   UNL     1      -0.604  -1.073   0.621  1.00  0.00    -0.458 OA
BRANCH   3   4
ATOM      4  C   UNL     1       0.502  -0.575   1.239  1.00  0.00     0.365 C 
ATOM      5  O   UNL     1       0.513   0.448   1.917  1.00  0.00    -0.245 OA
BRANCH   4   6
ATOM      6  C   UNL     1       1.733  -1.492   1.107  1.00  0.00     0.304 C 
ATOM      7  C   UNL     1       2.170  -1.918  -1.213  1.00  0.00     0.283 C 
ATOM      8  N   UNL     1       1.651  -2.499   0.025  1.00  0.00    -0.319 N 
ATOM      9  S   UNL     1       3.545  -0.833  -0.748  1.00  0.00    -0.087 SA
ATOM     10  H   UNL     1       2.206  -3.317   0.277  1.00  0.00     0.348 HD
ATOM     11  H   UNL     1       0.679  -2.780  -0.109  1.00  0.00     0.348 HD
ATOM     12  C   UNL     1       3.029  -0.696   0.984  1.00  0.00     0.153 C 
BRANCH   7  13
ATOM     13  C   UNL     1       1.075  -1.291  -2.042  1.00  0.00     0.128 A 
ATOM     14  C   UNL     1       0.664  -0.004  -2.103  1.00  0.00     0.205 A 
ATOM     15  O   UNL     1      -0.439   0.421  -2.826  1.00  0.00    -0.440 OA
ATOM     16  C   UNL     1      -1.127  -0.469  -3.595  1.00  0.00     0.140 A 
ATOM     17  C   UNL     1       0.360  -2.285  -2.898  1.00  0.00     0.205 A 
ATOM     18  C   UNL     1      -2.204   0.027  -4.331  1.00  0.00     0.051 A 
ATOM     19  C   UNL     1      -0.776  -1.807  -3.688  1.00  0.00     0.068 A 
ATOM     20  O   UNL     1       0.712  -3.456  -2.998  1.00  0.00    -0.288 OA
ATOM     21  C   UNL     1      -2.906  -0.822  -5.186  1.00  0.00     0.043 A 
ATOM     22  C   UNL     1      -1.475  -2.666  -4.540  1.00  0.00     0.055 A 
ATOM     23  C   UNL     1      -2.529  -2.158  -5.288  1.00  0.00     0.124 A 
ATOM     24  F   UNL     1      -3.189  -2.963  -6.130  1.00  0.00    -0.207 F 
BRANCH  14  25
ATOM     25  N   UNL     1       1.242   1.035  -1.439  1.00  0.00    -0.369 N 
ATOM     26  H   UNL     1       0.880   1.946  -1.538  1.00  0.00     0.159 HD
ATOM     27  H   UNL     1       2.023   0.876  -0.860  1.00  0.00     0.159 HD
ENDBRANCH  14  25
ENDBRANCH   7  13
ENDBRANCH   4   6
ENDBRANCH   3   4
ENDBRANCH   2   3
ENDBRANCH   1   2
BRANCH   1  28
ATOM     28  O   UNL     1      -2.483  -1.349   2.939  1.00  0.00    -0.458 OA
BRANCH  28  29
ATOM     29  C   UNL     1      -1.626  -2.356   3.230  1.00  0.00     0.338 C 
ATOM     30  O   UNL     1      -1.213  -3.225   2.484  1.00  0.00    -0.246 OA
BRANCH  29  31
ATOM     31  C   UNL     1      -1.100  -2.140   4.582  1.00  0.00     0.060 A 
ATOM     32  C   UNL     1      -1.920  -2.240   5.704  1.00  0.00     0.016 A 
ATOM     33  C   UNL     1       0.264  -1.873   4.715  1.00  0.00     0.016 A 
ATOM     34  C   UNL     1      -1.356  -2.061   6.968  1.00  0.00     0.010 A 
ATOM     35  C   UNL     1       0.830  -1.717   5.971  1.00  0.00     0.010 A 
ATOM     36  C   UNL     1       0.021  -1.804   7.106  1.00  0.00    -0.014 A 
BRANCH  36  37
ATOM     37  C   UNL     1       0.640  -1.692   8.442  1.00  0.00     0.031 A 
ATOM     38  C   UNL     1       1.131  -0.370   8.949  1.00  0.00     0.074 A 
ATOM     39  C   UNL     1       0.787  -2.813   9.171  1.00  0.00     0.049 A 
ATOM     40  N   UNL     1       1.605  -0.076  10.131  1.00  0.00    -0.248 NA
ATOM     41  C   UNL     1       1.106   0.765   8.011  1.00  0.00     0.031 C 
ATOM     42  C   UNL     1       0.418  -4.158   8.723  1.00  0.00     0.029 A 
ATOM     43  N   UNL     1       1.268  -3.003  10.440  1.00  0.00    -0.354 N 
ATOM     44  C   UNL     1       1.915   1.277  10.087  1.00  0.00     0.074 A 
ATOM     45  C   UNL     1       1.637   1.735   8.744  1.00  0.00     0.031 C 
ATOM     46  C   UNL     1       0.632  -5.026   9.722  1.00  0.00     0.029 A 
ATOM     47  C   UNL     1       1.171  -4.304  10.871  1.00  0.00     0.049 A 
ATOM     48  H   UNL     1       1.646  -2.278  10.989  1.00  0.00     0.167 HD
ATOM     49  C   UNL     1       2.361   2.066  11.092  1.00  0.00     0.031 A 
ATOM     50  C   UNL     1       1.452  -4.850  12.070  1.00  0.00     0.031 A 
ATOM     51  C   UNL     1       2.631   1.584  12.421  1.00  0.00     0.049 A 
ATOM     52  C   UNL     1       1.918  -3.952  13.179  1.00  0.00     0.074 A 
ATOM     53  C   UNL     1       3.036   2.305  13.530  1.00  0.00     0.029 A 
ATOM     54  N   UNL     1       2.521   0.260  12.822  1.00  0.00    -0.354 N 
ATOM     55  N   UNL     1       2.121  -2.656  13.150  1.00  0.00    -0.248 NA
ATOM     56  C   UNL     1       2.173  -4.576  14.483  1.00  0.00     0.031 C 
ATOM     57  C   UNL     1       3.221   1.410  14.586  1.00  0.00     0.029 A 
ATOM     58  C   UNL     1       2.871   0.140  14.155  1.00  0.00     0.049 A 
ATOM     59  H   UNL     1       2.237  -0.484  12.243  1.00  0.00     0.167 HD
ATOM     60  C   UNL     1       2.517  -2.305  14.434  1.00  0.00     0.074 A 
ATOM     61  C   UNL     1       2.506  -3.523  15.221  1.00  0.00     0.031 C 
ATOM     62  C   UNL     1       2.861  -1.086  14.916  1.00  0.00     0.031 A 
BRANCH  49  63
ATOM     63  C   UNL     1       2.549   3.535  10.818  1.00  0.00    -0.014 A 
ATOM     64  C   UNL     1       3.833   4.107  10.868  1.00  0.00     0.010 A 
ATOM     65  C   UNL     1       1.436   4.374  10.626  1.00  0.00     0.010 A 
ATOM     66  C   UNL     1       3.999   5.491  10.758  1.00  0.00     0.020 A 
ATOM     67  C   UNL     1       1.599   5.755  10.490  1.00  0.00     0.020 A 
ATOM     68  C   UNL     1       2.879   6.307  10.580  1.00  0.00     0.054 A 
BRANCH  68  69
ATOM     69  S   UNL     1       3.108   8.104  10.465  1.00  0.00     0.124 S 
ATOM     70  O   UNL     1       3.340   8.475  11.857  1.00  0.00    -0.237 OA
ATOM     71  O   UNL     1       4.263   8.224   9.578  1.00  0.00    -0.237 OA
ATOM     72  O   UNL     1       1.847   8.572   9.894  1.00  0.00    -0.744 OA
ENDBRANCH  68  69
ENDBRANCH  49  63
BRANCH  50  73
ATOM     73  C   UNL     1       1.199  -6.301  12.274  1.00  0.00    -0.014 A 
ATOM     74  C   UNL     1       1.998  -7.263  11.628  1.00  0.00     0.010 A 
ATOM     75  C   UNL     1       0.081  -6.725  13.014  1.00  0.00     0.010 A 
ATOM     76  C   UNL     1       1.651  -8.617  11.671  1.00  0.00     0.020 A 
ATOM     77  C   UNL     1      -0.254  -8.082  13.080  1.00  0.00     0.020 A 
ATOM     78  C   UNL     1       0.516  -9.014  12.382  1.00  0.00     0.054 A 
BRANCH  78  79
ATOM     79  S   UNL     1       0.043 -10.766  12.367  1.00  0.00     0.124 S 
ATOM     80  O   UNL     1      -0.568 -10.899  11.047  1.00  0.00    -0.237 OA
ATOM     81  O   UNL     1       1.325 -11.446  12.538  1.00  0.00    -0.237 OA
ATOM     82  O   UNL     1      -0.875 -10.881  13.496  1.00  0.00    -0.744 OA
ENDBRANCH  78  79
ENDBRANCH  50  73
BRANCH  62  83
ATOM     83  C   UNL     1       3.273  -0.990  16.360  1.00  0.00    -0.014 A 
ATOM     84  C   UNL     1       2.453  -0.305  17.275  1.00  0.00     0.010 A 
ATOM     85  C   UNL     1       4.534  -1.450  16.775  1.00  0.00     0.010 A 
ATOM     86  C   UNL     1       2.901  -0.050  18.572  1.00  0.00     0.020 A 
ATOM     87  C   UNL     1       4.976  -1.219  18.080  1.00  0.00     0.020 A 
ATOM     88  C   UNL     1       4.167  -0.497  18.962  1.00  0.00     0.054 A 
BRANCH  88  89
ATOM     89  S   UNL     1       4.752  -0.122  20.637  1.00  0.00     0.124 S 
ATOM     90  O   UNL     1       5.160   1.274  20.513  1.00  0.00    -0.237 OA
ATOM     91  O   UNL     1       3.565  -0.361  21.454  1.00  0.00    -0.237 OA
ATOM     92  O   UNL     1       5.840  -1.076  20.840  1.00  0.00    -0.744 OA
ENDBRANCH  88  89
ENDBRANCH  62  83
ENDBRANCH  36  37
ENDBRANCH  29  31
ENDBRANCH  28  29
ENDBRANCH   1  28
TORSDOF 16
