REMARK SMILES C[C@@H](C(=O)OCCOC(=O)c1ccc(-c2c3nc(c(-c4ccc(S(=O)(=O)[O-])cc4)c4ccc([nH]4)c(-c4ccc(S(=O)(=O)[O-])cc4)c4nc(c(-c5ccc(S(=O)(=O)[O-])cc5)c5ccc2[nH]5)C=C4)C=C3)cc1)c1ccc(N[C@H]2CCC[C@@H]2O)cc1F
REMARK SMILES IDX 6 1 5 2 3 3 4 4 2 5 1 6 71 7 72 8 83 9 73 10 82 11 84 12
REMARK SMILES IDX 74 13 75 14 76 16 77 17 80 18 78 19 79 20 81 21 7 23 8 24
REMARK SMILES IDX 9 25 10 26 11 27 12 28 70 29 13 30 69 31 14 32 15 33 16 34
REMARK SMILES IDX 63 35 17 36 68 37 62 38 64 39 18 40 67 41 61 42 60 43 19 45
REMARK SMILES IDX 49 46 30 47 48 48 31 49 34 50 47 51 65 52 32 53 33 54 46 56
REMARK SMILES IDX 66 57 35 58 20 59 21 60 29 61 22 62 28 63 23 64 24 65 25 66
REMARK SMILES IDX 26 67 27 68 50 69 51 70 59 71 52 72 58 73 53 74 54 75 55 76
REMARK SMILES IDX 56 77 57 78 36 79 37 80 45 81 38 82 44 83 39 84 40 85 41 86
REMARK SMILES IDX 42 87 43 88
REMARK H PARENT 75 15 81 22 64 44 34 55
REMARK Flexibility Score: inf
ROOT
ATOM      1  C   UNL     1       2.503   2.457   2.741  1.00  0.00     0.274 C 
ENDROOT
BRANCH   1   2
ATOM      2  O   UNL     1       2.092   1.352   1.881  1.00  0.00    -0.462 OA
BRANCH   2   3
ATOM      3  C   UNL     1       1.332   0.359   2.452  1.00  0.00     0.313 C 
ATOM      4  O   UNL     1       0.925   0.429   3.609  1.00  0.00    -0.252 OA
BRANCH   3   5
ATOM      5  C   UNL     1       0.925  -0.830   1.449  1.00  0.00     0.129 C 
ATOM      6  C   UNL     1       1.352  -0.489   0.017  1.00  0.00     0.025 C 
BRANCH   5   7
ATOM      7  C   UNL     1      -0.587  -1.061   1.490  1.00  0.00     0.002 A 
ATOM      8  C   UNL     1      -1.239   0.109   1.668  1.00  0.00     0.010 A 
ATOM      9  C   UNL     1      -1.452  -2.133   1.385  1.00  0.00     0.129 A 
ATOM     10  C   UNL     1      -2.473   0.179   2.236  1.00  0.00     0.026 A 
ATOM     11  C   UNL     1      -2.878  -1.906   1.365  1.00  0.00     0.065 A 
ATOM     12  F   UNL     1      -0.968  -3.369   1.206  1.00  0.00    -0.207 F 
ATOM     13  C   UNL     1      -3.409  -0.653   1.728  1.00  0.00     0.037 A 
BRANCH  13  14
ATOM     14  N   UNL     1      -4.644  -0.100   1.381  1.00  0.00    -0.380 N 
ATOM     15  H   UNL     1      -5.113  -0.489   0.609  1.00  0.00     0.160 HD
BRANCH  14  16
ATOM     16  C   UNL     1      -5.323   1.054   2.099  1.00  0.00     0.107 C 
ATOM     17  C   UNL     1      -4.370   2.565   3.078  1.00  0.00     0.027 C 
ATOM     18  C   UNL     1      -6.967   1.842   1.182  1.00  0.00     0.136 C 
ATOM     19  C   UNL     1      -5.563   4.258   3.063  1.00  0.00     0.005 C 
ATOM     20  C   UNL     1      -7.221   3.829   1.901  1.00  0.00     0.034 C 
BRANCH  18  21
ATOM     21  O   UNL     1      -8.161   1.045   1.106  1.00  0.00    -0.391 OA
ATOM     22  H   UNL     1      -8.520   0.915   1.997  1.00  0.00     0.211 HD
ENDBRANCH  18  21
ENDBRANCH  14  16
ENDBRANCH  13  14
ENDBRANCH   5   7
ENDBRANCH   3   5
ENDBRANCH   2   3
ENDBRANCH   1   2
BRANCH   1  23
ATOM     23  C   UNL     1       2.288   3.846   2.099  1.00  0.00     0.275 C 
BRANCH  23  24
ATOM     24  O   UNL     1       0.892   4.249   2.113  1.00  0.00    -0.458 OA
BRANCH  24  25
ATOM     25  C   UNL     1       0.315   4.485   0.898  1.00  0.00     0.338 C 
ATOM     26  O   UNL     1       0.874   4.393  -0.184  1.00  0.00    -0.246 OA
BRANCH  25  27
ATOM     27  C   UNL     1      -1.171   4.482   0.993  1.00  0.00     0.060 A 
ATOM     28  C   UNL     1      -1.641   3.204   1.081  1.00  0.00     0.016 A 
ATOM     29  C   UNL     1      -2.123   5.452   0.748  1.00  0.00     0.016 A 
ATOM     30  C   UNL     1      -2.933   2.820   0.738  1.00  0.00     0.010 A 
ATOM     31  C   UNL     1      -3.511   5.092   0.840  1.00  0.00     0.010 A 
ATOM     32  C   UNL     1      -3.930   3.735   0.973  1.00  0.00    -0.014 A 
BRANCH  32  33
ATOM     33  C   UNL     1      -5.474   3.094   1.439  1.00  0.00     0.031 A 
ATOM     34  C   UNL     1      -6.211   3.535  -0.220  1.00  0.00     0.074 A 
ATOM     35  C   UNL     1      -6.367   2.493   2.960  1.00  0.00     0.049 A 
ATOM     36  N   UNL     1      -7.515   3.517  -0.460  1.00  0.00    -0.248 NA
ATOM     37  C   UNL     1      -5.448   3.875  -1.433  1.00  0.00     0.031 C 
ATOM     38  C   UNL     1      -6.050   2.343   4.605  1.00  0.00     0.029 A 
ATOM     39  N   UNL     1      -7.774   2.010   3.239  1.00  0.00    -0.354 N 
ATOM     40  C   UNL     1      -7.748   3.850  -1.746  1.00  0.00     0.074 A 
ATOM     41  C   UNL     1      -6.433   4.079  -2.321  1.00  0.00     0.031 C 
ATOM     42  C   UNL     1      -7.011   1.744   5.301  1.00  0.00     0.029 A 
ATOM     43  C   UNL     1      -8.190   1.770   4.507  1.00  0.00     0.049 A 
ATOM     44  H   UNL     1      -8.396   1.869   2.489  1.00  0.00     0.167 HD
ATOM     45  C   UNL     1      -8.983   3.907  -2.295  1.00  0.00     0.031 A 
ATOM     46  C   UNL     1      -9.440   1.764   4.998  1.00  0.00     0.031 A 
ATOM     47  C   UNL     1     -10.250   3.676  -1.590  1.00  0.00     0.049 A 
ATOM     48  C   UNL     1     -10.593   2.075   4.093  1.00  0.00     0.074 A 
ATOM     49  C   UNL     1     -11.515   3.736  -2.155  1.00  0.00     0.029 A 
ATOM     50  N   UNL     1     -10.463   3.373  -0.227  1.00  0.00    -0.354 N 
ATOM     51  N   UNL     1     -10.598   2.429   2.826  1.00  0.00    -0.248 NA
ATOM     52  C   UNL     1     -11.912   1.992   4.716  1.00  0.00     0.031 C 
ATOM     53  C   UNL     1     -12.473   3.549  -1.158  1.00  0.00     0.029 A 
ATOM     54  C   UNL     1     -11.838   3.271   0.044  1.00  0.00     0.049 A 
ATOM     55  H   UNL     1      -9.749   3.250   0.440  1.00  0.00     0.167 HD
ATOM     56  C   UNL     1     -11.934   2.590   2.484  1.00  0.00     0.074 A 
ATOM     57  C   UNL     1     -12.696   2.267   3.685  1.00  0.00     0.031 C 
ATOM     58  C   UNL     1     -12.505   2.958   1.305  1.00  0.00     0.031 A 
BRANCH  45  59
ATOM     59  C   UNL     1      -9.015   4.271  -3.746  1.00  0.00    -0.014 A 
ATOM     60  C   UNL     1      -8.530   3.385  -4.723  1.00  0.00     0.010 A 
ATOM     61  C   UNL     1      -9.563   5.504  -4.140  1.00  0.00     0.010 A 
ATOM     62  C   UNL     1      -8.537   3.754  -6.068  1.00  0.00     0.020 A 
ATOM     63  C   UNL     1      -9.601   5.863  -5.488  1.00  0.00     0.020 A 
ATOM     64  C   UNL     1      -9.062   4.995  -6.439  1.00  0.00     0.054 A 
BRANCH  64  65
ATOM     65  S   UNL     1      -9.015   5.463  -8.188  1.00  0.00     0.124 S 
ATOM     66  O   UNL     1      -7.582   5.632  -8.412  1.00  0.00    -0.237 OA
ATOM     67  O   UNL     1      -9.623   4.308  -8.842  1.00  0.00    -0.237 OA
ATOM     68  O   UNL     1      -9.802   6.693  -8.240  1.00  0.00    -0.744 OA
ENDBRANCH  64  65
ENDBRANCH  45  59
BRANCH  46  69
ATOM     69  C   UNL     1      -9.584   1.599   6.464  1.00  0.00    -0.014 A 
ATOM     70  C   UNL     1     -10.002   0.367   6.983  1.00  0.00     0.010 A 
ATOM     71  C   UNL     1      -9.089   2.595   7.331  1.00  0.00     0.010 A 
ATOM     72  C   UNL     1      -9.884   0.117   8.350  1.00  0.00     0.020 A 
ATOM     73  C   UNL     1      -8.919   2.326   8.687  1.00  0.00     0.020 A 
ATOM     74  C   UNL     1      -9.322   1.088   9.187  1.00  0.00     0.054 A 
BRANCH  74  75
ATOM     75  S   UNL     1      -9.055   0.677  10.930  1.00  0.00     0.124 S 
ATOM     76  O   UNL     1     -10.417   0.695  11.453  1.00  0.00    -0.237 OA
ATOM     77  O   UNL     1      -8.422  -0.637  10.851  1.00  0.00    -0.237 OA
ATOM     78  O   UNL     1      -8.185   1.750  11.406  1.00  0.00    -0.744 OA
ENDBRANCH  74  75
ENDBRANCH  46  69
BRANCH  58  79
ATOM     79  C   UNL     1     -14.030   2.947   1.320  1.00  0.00    -0.014 A 
ATOM     80  C   UNL     1     -14.776   3.889   2.059  1.00  0.00     0.010 A 
ATOM     81  C   UNL     1     -14.722   1.931   0.633  1.00  0.00     0.010 A 
ATOM     82  C   UNL     1     -16.170   3.781   2.153  1.00  0.00     0.020 A 
ATOM     83  C   UNL     1     -16.119   1.848   0.686  1.00  0.00     0.020 A 
ATOM     84  C   UNL     1     -16.833   2.762   1.462  1.00  0.00     0.054 A 
BRANCH  84  85
ATOM     85  S   UNL     1     -18.643   2.665   1.571  1.00  0.00     0.124 S 
ATOM     86  O   UNL     1     -18.845   2.230   2.951  1.00  0.00    -0.237 OA
ATOM     87  O   UNL     1     -19.052   4.036   1.278  1.00  0.00    -0.237 OA
ATOM     88  O   UNL     1     -19.000   1.682   0.551  1.00  0.00    -0.744 OA
ENDBRANCH  84  85
ENDBRANCH  58  79
ENDBRANCH  32  33
ENDBRANCH  25  27
ENDBRANCH  24  25
ENDBRANCH  23  24
ENDBRANCH   1  23
TORSDOF 18
