REMARK SMILES CC(C)[C@H]([NH2+]Cc1ccc(N(C)C)cc1)C(=O)OCCOC(=O)c1ccc(-c2c3nc(c(-c4ccc(S(=O)(=O)[O-])cc4)c4ccc([nH]4)c(-c4ccc(S(=O)(=O)[O-])cc4)c4nc(c(-c5ccc(S(=O)(=O)[O-])cc5)c5ccc2[nH]5)C=C4)C=C3)cc1
REMARK SMILES IDX 19 1 18 2 16 3 17 4 4 5 2 6 1 7 3 8 5 9 6 12 7 13 8 14 15 15
REMARK SMILES IDX 9 16 14 17 10 18 11 19 12 20 13 21 20 22 21 23 22 24 23 25
REMARK SMILES IDX 24 26 25 27 83 28 26 29 82 30 27 31 28 32 29 33 76 34 30 35
REMARK SMILES IDX 81 36 75 37 77 38 31 39 80 40 74 41 73 42 32 44 62 45 43 46
REMARK SMILES IDX 61 47 44 48 47 49 60 50 78 51 45 52 46 53 59 55 79 56 48 57
REMARK SMILES IDX 33 58 34 59 42 60 35 61 41 62 36 63 37 64 38 65 39 66 40 67
REMARK SMILES IDX 63 68 64 69 72 70 65 71 71 72 66 73 67 74 68 75 69 76 70 77
REMARK SMILES IDX 49 78 50 79 58 80 51 81 57 82 52 83 53 84 54 85 55 86 56 87
REMARK H PARENT 5 10 5 11 77 43 47 54
REMARK Flexibility Score: inf
ROOT
ATOM      1  C   UNL     1      -1.686  -1.813   4.578  1.00  0.00     0.274 C 
ENDROOT
BRANCH   1   2
ATOM      2  O   UNL     1      -1.010  -1.562   3.333  1.00  0.00    -0.458 OA
BRANCH   2   3
ATOM      3  C   UNL     1      -1.735  -0.936   2.362  1.00  0.00     0.365 C 
ATOM      4  O   UNL     1      -2.905  -0.589   2.484  1.00  0.00    -0.245 OA
BRANCH   3   5
ATOM      5  C   UNL     1      -0.964  -0.790   1.031  1.00  0.00     0.296 C 
BRANCH   5   6
ATOM      6  C   UNL     1      -1.446  -1.876   0.021  1.00  0.00     0.053 C 
ATOM      7  C   UNL     1      -0.475  -2.098  -1.145  1.00  0.00     0.014 C 
ATOM      8  C   UNL     1      -1.800  -3.227   0.649  1.00  0.00     0.014 C 
ENDBRANCH   5   6
BRANCH   5   9
ATOM      9  N   UNL     1       0.505  -0.733   1.246  1.00  0.00    -0.331 N 
ATOM     10  H   UNL     1       0.976  -1.090   0.415  1.00  0.00     0.347 HD
ATOM     11  H   UNL     1       0.731  -1.300   2.064  1.00  0.00     0.347 HD
BRANCH   9  12
ATOM     12  C   UNL     1       0.961   0.647   1.501  1.00  0.00     0.298 C 
BRANCH  12  13
ATOM     13  C   UNL     1       2.466   0.752   1.571  1.00  0.00     0.006 A 
ATOM     14  C   UNL     1       3.233  -0.228   2.196  1.00  0.00     0.012 A 
ATOM     15  C   UNL     1       3.129   1.876   1.073  1.00  0.00     0.012 A 
ATOM     16  C   UNL     1       4.630  -0.118   2.263  1.00  0.00     0.026 A 
ATOM     17  C   UNL     1       4.528   1.980   1.157  1.00  0.00     0.026 A 
ATOM     18  C   UNL     1       5.330   0.977   1.733  1.00  0.00     0.036 A 
BRANCH  18  19
ATOM     19  N   UNL     1       6.715   1.086   1.801  1.00  0.00    -0.378 N 
ATOM     20  C   UNL     1       7.586  -0.035   2.130  1.00  0.00     0.143 C 
ATOM     21  C   UNL     1       7.387   2.271   1.274  1.00  0.00     0.143 C 
ENDBRANCH  18  19
ENDBRANCH  12  13
ENDBRANCH   9  12
ENDBRANCH   5   9
ENDBRANCH   3   5
ENDBRANCH   2   3
ENDBRANCH   1   2
BRANCH   1  22
ATOM     22  C   UNL     1      -1.353  -0.736   5.607  1.00  0.00     0.275 C 
BRANCH  22  23
ATOM     23  O   UNL     1      -1.852   0.533   5.154  1.00  0.00    -0.458 OA
BRANCH  23  24
ATOM     24  C   UNL     1      -0.919   1.484   4.925  1.00  0.00     0.338 C 
ATOM     25  O   UNL     1       0.276   1.433   5.150  1.00  0.00    -0.246 OA
BRANCH  24  26
ATOM     26  C   UNL     1      -1.579   2.644   4.314  1.00  0.00     0.060 A 
ATOM     27  C   UNL     1      -1.898   2.619   2.954  1.00  0.00     0.016 A 
ATOM     28  C   UNL     1      -1.819   3.782   5.080  1.00  0.00     0.016 A 
ATOM     29  C   UNL     1      -2.448   3.742   2.345  1.00  0.00     0.010 A 
ATOM     30  C   UNL     1      -2.411   4.894   4.479  1.00  0.00     0.010 A 
ATOM     31  C   UNL     1      -2.721   4.884   3.107  1.00  0.00    -0.014 A 
BRANCH  31  32
ATOM     32  C   UNL     1      -3.327   6.076   2.471  1.00  0.00     0.031 A 
ATOM     33  C   UNL     1      -2.522   7.333   2.318  1.00  0.00     0.074 A 
ATOM     34  C   UNL     1      -4.604   6.026   2.047  1.00  0.00     0.049 A 
ATOM     35  N   UNL     1      -2.911   8.517   1.927  1.00  0.00    -0.248 NA
ATOM     36  C   UNL     1      -1.091   7.246   2.653  1.00  0.00     0.031 C 
ATOM     37  C   UNL     1      -5.467   4.843   2.095  1.00  0.00     0.029 A 
ATOM     38  N   UNL     1      -5.401   6.998   1.500  1.00  0.00    -0.354 N 
ATOM     39  C   UNL     1      -1.784   9.327   1.996  1.00  0.00     0.074 A 
ATOM     40  C   UNL     1      -0.697   8.499   2.473  1.00  0.00     0.031 C 
ATOM     41  C   UNL     1      -6.672   5.160   1.596  1.00  0.00     0.029 A 
ATOM     42  C   UNL     1      -6.686   6.579   1.256  1.00  0.00     0.049 A 
ATOM     43  H   UNL     1      -5.083   7.909   1.302  1.00  0.00     0.167 HD
ATOM     44  C   UNL     1      -1.673  10.642   1.695  1.00  0.00     0.031 A 
ATOM     45  C   UNL     1      -7.768   7.269   0.847  1.00  0.00     0.031 A 
ATOM     46  C   UNL     1      -2.763  11.455   1.224  1.00  0.00     0.049 A 
ATOM     47  C   UNL     1      -7.637   8.744   0.593  1.00  0.00     0.074 A 
ATOM     48  C   UNL     1      -2.753  12.797   0.884  1.00  0.00     0.029 A 
ATOM     49  N   UNL     1      -4.059  11.003   1.028  1.00  0.00    -0.354 N 
ATOM     50  N   UNL     1      -6.570   9.502   0.682  1.00  0.00    -0.248 NA
ATOM     51  C   UNL     1      -8.857   9.459   0.196  1.00  0.00     0.031 C 
ATOM     52  C   UNL     1      -4.055  13.166   0.527  1.00  0.00     0.029 A 
ATOM     53  C   UNL     1      -4.864  12.043   0.597  1.00  0.00     0.049 A 
ATOM     54  H   UNL     1      -4.362  10.078   1.174  1.00  0.00     0.167 HD
ATOM     55  C   UNL     1      -6.989  10.784   0.345  1.00  0.00     0.074 A 
ATOM     56  C   UNL     1      -8.401  10.693   0.030  1.00  0.00     0.031 C 
ATOM     57  C   UNL     1      -6.271  11.933   0.303  1.00  0.00     0.031 A 
BRANCH  44  58
ATOM     58  C   UNL     1      -0.334  11.292   1.914  1.00  0.00    -0.014 A 
ATOM     59  C   UNL     1       0.746  11.050   1.046  1.00  0.00     0.010 A 
ATOM     60  C   UNL     1      -0.162  12.180   2.991  1.00  0.00     0.010 A 
ATOM     61  C   UNL     1       1.985  11.657   1.274  1.00  0.00     0.020 A 
ATOM     62  C   UNL     1       1.068  12.806   3.209  1.00  0.00     0.020 A 
ATOM     63  C   UNL     1       2.139  12.527   2.358  1.00  0.00     0.054 A 
BRANCH  63  64
ATOM     64  S   UNL     1       3.752  13.314   2.623  1.00  0.00     0.124 S 
ATOM     65  O   UNL     1       4.539  12.211   3.168  1.00  0.00    -0.237 OA
ATOM     66  O   UNL     1       4.125  13.746   1.278  1.00  0.00    -0.237 OA
ATOM     67  O   UNL     1       3.461  14.395   3.562  1.00  0.00    -0.744 OA
ENDBRANCH  63  64
ENDBRANCH  44  58
BRANCH  45  68
ATOM     68  C   UNL     1      -9.076   6.577   0.705  1.00  0.00    -0.014 A 
ATOM     69  C   UNL     1      -9.627   6.340  -0.565  1.00  0.00     0.010 A 
ATOM     70  C   UNL     1      -9.768   6.128   1.846  1.00  0.00     0.010 A 
ATOM     71  C   UNL     1     -10.849   5.672  -0.693  1.00  0.00     0.020 A 
ATOM     72  C   UNL     1     -10.976   5.438   1.722  1.00  0.00     0.020 A 
ATOM     73  C   UNL     1     -11.514   5.223   0.452  1.00  0.00     0.054 A 
BRANCH  73  74
ATOM     74  S   UNL     1     -13.065   4.300   0.262  1.00  0.00     0.124 S 
ATOM     75  O   UNL     1     -14.018   5.366  -0.026  1.00  0.00    -0.237 OA
ATOM     76  O   UNL     1     -12.766   3.400  -0.849  1.00  0.00    -0.237 OA
ATOM     77  O   UNL     1     -13.231   3.643   1.557  1.00  0.00    -0.744 OA
ENDBRANCH  73  74
ENDBRANCH  45  68
BRANCH  57  78
ATOM     78  C   UNL     1      -7.001  13.180  -0.111  1.00  0.00    -0.014 A 
ATOM     79  C   UNL     1      -7.883  13.827   0.771  1.00  0.00     0.010 A 
ATOM     80  C   UNL     1      -6.768  13.734  -1.383  1.00  0.00     0.010 A 
ATOM     81  C   UNL     1      -8.543  14.994   0.378  1.00  0.00     0.020 A 
ATOM     82  C   UNL     1      -7.409  14.913  -1.771  1.00  0.00     0.020 A 
ATOM     83  C   UNL     1      -8.304  15.528  -0.892  1.00  0.00     0.054 A 
BRANCH  83  84
ATOM     84  S   UNL     1      -9.140  17.066  -1.367  1.00  0.00     0.124 S 
ATOM     85  O   UNL     1     -10.490  16.597  -1.667  1.00  0.00    -0.237 OA
ATOM     86  O   UNL     1      -9.013  17.887  -0.165  1.00  0.00    -0.237 OA
ATOM     87  O   UNL     1      -8.372  17.535  -2.518  1.00  0.00    -0.744 OA
ENDBRANCH  83  84
ENDBRANCH  57  78
ENDBRANCH  31  32
ENDBRANCH  24  26
ENDBRANCH  23  24
ENDBRANCH  22  23
ENDBRANCH   1  22
TORSDOF 19
