REMARK SMILES O=C(OCCOC(=O)c1ccccc1C(=O)Nc1ccc(N2C(=O)[C@H]3[C@@H]4CC[C@@H](C4)[C@@H]3C2=O)cc1)c1ccc(-c2c3nc(c(-c4ccc(S(=O)(=O)[O-])cc4)c4ccc([nH]4)c(-c4ccc(S(=O)(=O)[O-])cc4)c4nc(c(-c5ccc(S(=O)(=O)[O-])cc5)c5ccc2[nH]5)C=C4)C=C3)cc1
REMARK SMILES IDX 4 1 3 2 2 3 1 4 36 5 37 6 95 7 38 8 94 9 39 10 40 11 41 12
REMARK SMILES IDX 88 13 42 14 93 15 87 16 89 17 43 18 92 19 86 20 85 21 44 23
REMARK SMILES IDX 74 24 55 25 73 26 56 27 59 28 72 29 90 30 57 31 58 32 71 34
REMARK SMILES IDX 91 35 60 36 45 37 46 38 54 39 47 40 53 41 48 42 49 43 50 44
REMARK SMILES IDX 51 45 52 46 75 47 76 48 84 49 77 50 83 51 78 52 79 53 80 54
REMARK SMILES IDX 81 55 82 56 61 57 62 58 70 59 63 60 69 61 64 62 65 63 66 64
REMARK SMILES IDX 67 65 68 66 5 67 6 68 7 69 8 70 9 71 10 72 14 73 11 74 13 75
REMARK SMILES IDX 12 76 15 77 16 78 17 79 18 81 19 82 35 83 20 84 34 85 21 86
REMARK SMILES IDX 22 87 23 88 32 89 24 90 25 91 31 92 33 93 26 94 29 95 27 96
REMARK SMILES IDX 30 97 28 98
REMARK H PARENT 89 22 59 33 17 80
REMARK Flexibility Score: inf
ROOT
ATOM      1  C   UNL     1       2.438   2.085  -1.984  1.00  0.00     0.275 C 
ENDROOT
BRANCH   1   2
ATOM      2  O   UNL     1       1.359   0.638  -1.542  1.00  0.00    -0.458 OA
BRANCH   2   3
ATOM      3  C   UNL     1       1.176  -0.601  -0.455  1.00  0.00     0.338 C 
ATOM      4  O   UNL     1       0.022  -1.057  -0.502  1.00  0.00    -0.246 OA
BRANCH   3   5
ATOM      5  C   UNL     1       2.201  -1.486   0.739  1.00  0.00     0.060 A 
ATOM      6  C   UNL     1       3.615  -1.581   0.902  1.00  0.00     0.016 A 
ATOM      7  C   UNL     1       1.649  -2.171   1.844  1.00  0.00     0.016 A 
ATOM      8  C   UNL     1       4.402  -1.909   2.074  1.00  0.00     0.010 A 
ATOM      9  C   UNL     1       2.445  -2.611   3.053  1.00  0.00     0.010 A 
ATOM     10  C   UNL     1       3.834  -2.373   3.238  1.00  0.00    -0.014 A 
BRANCH  10  11
ATOM     11  C   UNL     1       4.751  -2.658   4.468  1.00  0.00     0.031 A 
ATOM     12  C   UNL     1       5.492  -3.976   4.589  1.00  0.00     0.074 A 
ATOM     13  C   UNL     1       5.232  -1.734   5.355  1.00  0.00     0.049 A 
ATOM     14  N   UNL     1       6.369  -4.358   5.493  1.00  0.00    -0.248 NA
ATOM     15  C   UNL     1       5.295  -4.937   3.502  1.00  0.00     0.031 C 
ATOM     16  C   UNL     1       5.067  -0.306   5.215  1.00  0.00     0.029 A 
ATOM     17  N   UNL     1       6.005  -1.812   6.517  1.00  0.00    -0.354 N 
ATOM     18  C   UNL     1       6.868  -5.579   5.062  1.00  0.00     0.074 A 
ATOM     19  C   UNL     1       6.160  -5.888   3.830  1.00  0.00     0.031 C 
ATOM     20  C   UNL     1       5.550   0.350   6.285  1.00  0.00     0.029 A 
ATOM     21  C   UNL     1       6.160  -0.606   7.195  1.00  0.00     0.049 A 
ATOM     22  H   UNL     1       6.409  -2.654   6.831  1.00  0.00     0.167 HD
ATOM     23  C   UNL     1       7.827  -6.371   5.608  1.00  0.00     0.031 A 
ATOM     24  C   UNL     1       6.743  -0.251   8.370  1.00  0.00     0.031 A 
ATOM     25  C   UNL     1       8.536  -6.142   6.847  1.00  0.00     0.049 A 
ATOM     26  C   UNL     1       7.575  -1.259   9.126  1.00  0.00     0.074 A 
ATOM     27  C   UNL     1       9.408  -7.002   7.503  1.00  0.00     0.029 A 
ATOM     28  N   UNL     1       8.475  -4.994   7.618  1.00  0.00    -0.354 N 
ATOM     29  N   UNL     1       7.933  -2.458   8.743  1.00  0.00    -0.248 NA
ATOM     30  C   UNL     1       8.131  -0.861  10.433  1.00  0.00     0.031 C 
ATOM     31  C   UNL     1       9.823  -6.400   8.696  1.00  0.00     0.029 A 
ATOM     32  C   UNL     1       9.262  -5.138   8.757  1.00  0.00     0.049 A 
ATOM     33  H   UNL     1       7.951  -4.191   7.393  1.00  0.00     0.167 HD
ATOM     34  C   UNL     1       8.789  -2.933   9.730  1.00  0.00     0.074 A 
ATOM     35  C   UNL     1       8.910  -1.894  10.727  1.00  0.00     0.031 C 
ATOM     36  C   UNL     1       9.419  -4.132   9.778  1.00  0.00     0.031 A 
BRANCH  23  37
ATOM     37  C   UNL     1       8.113  -7.655   4.877  1.00  0.00    -0.014 A 
ATOM     38  C   UNL     1       8.878  -7.672   3.698  1.00  0.00     0.010 A 
ATOM     39  C   UNL     1       7.592  -8.860   5.382  1.00  0.00     0.010 A 
ATOM     40  C   UNL     1       9.066  -8.869   3.002  1.00  0.00     0.020 A 
ATOM     41  C   UNL     1       7.799 -10.061   4.702  1.00  0.00     0.020 A 
ATOM     42  C   UNL     1       8.513 -10.053   3.502  1.00  0.00     0.054 A 
BRANCH  42  43
ATOM     43  S   UNL     1       8.732 -11.586   2.560  1.00  0.00     0.124 S 
ATOM     44  O   UNL     1       7.849 -11.364   1.417  1.00  0.00    -0.237 OA
ATOM     45  O   UNL     1      10.162 -11.577   2.260  1.00  0.00    -0.237 OA
ATOM     46  O   UNL     1       8.299 -12.628   3.486  1.00  0.00    -0.744 OA
ENDBRANCH  42  43
ENDBRANCH  23  37
BRANCH  24  47
ATOM     47  C   UNL     1       6.557   1.121   8.976  1.00  0.00    -0.014 A 
ATOM     48  C   UNL     1       7.637   1.991   9.229  1.00  0.00     0.010 A 
ATOM     49  C   UNL     1       5.283   1.499   9.446  1.00  0.00     0.010 A 
ATOM     50  C   UNL     1       7.458   3.172   9.972  1.00  0.00     0.020 A 
ATOM     51  C   UNL     1       5.093   2.688  10.165  1.00  0.00     0.020 A 
ATOM     52  C   UNL     1       6.187   3.509  10.444  1.00  0.00     0.054 A 
BRANCH  52  53
ATOM     53  S   UNL     1       5.975   5.024  11.432  1.00  0.00     0.124 S 
ATOM     54  O   UNL     1       6.633   4.668  12.686  1.00  0.00    -0.237 OA
ATOM     55  O   UNL     1       6.659   6.030  10.625  1.00  0.00    -0.237 OA
ATOM     56  O   UNL     1       4.524   5.181  11.513  1.00  0.00    -0.744 OA
ENDBRANCH  52  53
ENDBRANCH  24  47
BRANCH  36  57
ATOM     57  C   UNL     1      10.338  -4.407  10.944  1.00  0.00    -0.014 A 
ATOM     58  C   UNL     1       9.838  -4.590  12.247  1.00  0.00     0.010 A 
ATOM     59  C   UNL     1      11.725  -4.528  10.731  1.00  0.00     0.010 A 
ATOM     60  C   UNL     1      10.704  -4.862  13.313  1.00  0.00     0.020 A 
ATOM     61  C   UNL     1      12.592  -4.825  11.790  1.00  0.00     0.020 A 
ATOM     62  C   UNL     1      12.077  -4.979  13.078  1.00  0.00     0.054 A 
BRANCH  62  63
ATOM     63  S   UNL     1      13.173  -5.382  14.468  1.00  0.00     0.124 S 
ATOM     64  O   UNL     1      13.205  -4.123  15.208  1.00  0.00    -0.237 OA
ATOM     65  O   UNL     1      12.468  -6.479  15.126  1.00  0.00    -0.237 OA
ATOM     66  O   UNL     1      14.430  -5.756  13.823  1.00  0.00    -0.744 OA
ENDBRANCH  62  63
ENDBRANCH  36  57
ENDBRANCH  10  11
ENDBRANCH   3   5
ENDBRANCH   2   3
ENDBRANCH   1   2
BRANCH   1  67
ATOM     67  C   UNL     1       3.897   2.445  -0.766  1.00  0.00     0.275 C 
BRANCH  67  68
ATOM     68  O   UNL     1       3.780   1.385   0.978  1.00  0.00    -0.458 OA
BRANCH  68  69
ATOM     69  C   UNL     1       2.736   0.979   2.056  1.00  0.00     0.339 C 
ATOM     70  O   UNL     1       1.541   0.732   1.765  1.00  0.00    -0.246 OA
BRANCH  69  71
ATOM     71  C   UNL     1       2.706   1.163   3.506  1.00  0.00     0.072 A 
ATOM     72  C   UNL     1       1.706   0.286   4.098  1.00  0.00     0.016 A 
ATOM     73  C   UNL     1       3.246   2.164   4.291  1.00  0.00     0.054 A 
ATOM     74  C   UNL     1       1.317   0.278   5.416  1.00  0.00     0.001 A 
ATOM     75  C   UNL     1       2.824   2.138   5.666  1.00  0.00     0.015 A 
ATOM     76  C   UNL     1       1.907   1.211   6.219  1.00  0.00     0.001 A 
BRANCH  73  77
ATOM     77  C   UNL     1       4.314   3.180   3.970  1.00  0.00     0.256 C 
ATOM     78  O   UNL     1       4.797   3.788   4.933  1.00  0.00    -0.269 OA
ATOM     79  N   UNL     1       4.944   3.423   2.763  1.00  0.00    -0.322 N 
ATOM     80  H   UNL     1       5.796   3.909   2.841  1.00  0.00     0.170 HD
BRANCH  79  81
ATOM     81  C   UNL     1       4.584   3.099   1.448  1.00  0.00     0.041 A 
ATOM     82  C   UNL     1       5.692   1.930   0.736  1.00  0.00     0.028 A 
ATOM     83  C   UNL     1       2.878   3.133   1.048  1.00  0.00     0.028 A 
ATOM     84  C   UNL     1       5.163   0.628  -0.302  1.00  0.00     0.029 A 
ATOM     85  C   UNL     1       2.254   1.776   0.022  1.00  0.00     0.029 A 
ATOM     86  C   UNL     1       3.458   0.468  -0.736  1.00  0.00     0.052 A 
BRANCH  86  87
ATOM     87  N   UNL     1       3.274  -0.542  -2.105  1.00  0.00    -0.250 N 
ATOM     88  C   UNL     1       2.728  -0.183  -3.371  1.00  0.00     0.237 C 
ATOM     89  C   UNL     1       3.231  -1.971  -2.160  1.00  0.00     0.237 C 
ATOM     90  O   UNL     1       3.244   0.473  -4.267  1.00  0.00    -0.274 OA
ATOM     91  C   UNL     1       1.610  -1.159  -3.591  1.00  0.00     0.095 C 
ATOM     92  C   UNL     1       2.509  -2.359  -3.473  1.00  0.00     0.095 C 
ATOM     93  O   UNL     1       3.757  -2.820  -1.461  1.00  0.00    -0.274 OA
ATOM     94  C   UNL     1       0.592  -1.518  -4.671  1.00  0.00     0.002 C 
ATOM     95  C   UNL     1       1.553  -3.447  -3.990  1.00  0.00     0.002 C 
ATOM     96  C   UNL     1      -0.570  -2.230  -3.910  1.00  0.00     0.005 C 
ATOM     97  C   UNL     1       1.188  -2.756  -5.341  1.00  0.00     0.009 C 
ATOM     98  C   UNL     1       0.148  -3.479  -3.329  1.00  0.00     0.005 C 
ENDBRANCH  86  87
ENDBRANCH  79  81
ENDBRANCH  73  77
ENDBRANCH  69  71
ENDBRANCH  68  69
ENDBRANCH  67  68
ENDBRANCH   1  67
TORSDOF 17
