REMARK SMILES COCC[C@@]1(C(=O)OCCOC(=O)c2ccc(-c3c4nc(c(-c5ccc(S(=O)(=O)[O-])cc5)c5ccc([nH]5)c(-c5ccc(S(=O)(=O)[O-])cc5)c5nc(c(-c6ccc(S(=O)(=O)[O-])cc6)c6ccc3[nH]6)C=C5)C=C4)cc2)CCCN(C(=O)NCc2ccc(OC)cc2)C1
REMARK SMILES IDX 9 1 8 2 6 3 7 4 5 5 74 6 90 7 75 8 77 9 76 10 4 11 3 12 2 13
REMARK SMILES IDX 1 14 78 15 79 16 80 17 81 19 82 20 83 21 89 22 84 23 88 24
REMARK SMILES IDX 85 25 86 26 87 27 10 28 11 29 12 30 13 31 14 32 15 33 73 34
REMARK SMILES IDX 16 35 72 36 17 37 18 38 19 39 66 40 20 41 71 42 65 43 67 44
REMARK SMILES IDX 21 45 70 46 64 47 63 48 22 50 52 51 33 52 51 53 34 54 37 55
REMARK SMILES IDX 50 56 68 57 35 58 36 59 49 61 69 62 38 63 23 64 24 65 32 66
REMARK SMILES IDX 25 67 31 68 26 69 27 70 28 71 29 72 30 73 53 74 54 75 62 76
REMARK SMILES IDX 55 77 61 78 56 79 57 80 58 81 59 82 60 83 39 84 40 85 48 86
REMARK SMILES IDX 41 87 47 88 42 89 43 90 44 91 45 92 46 93
REMARK H PARENT 80 18 67 49 37 60
REMARK Flexibility Score: inf
ROOT
ATOM      1  C   UNL     1      -1.346   0.903  -3.686  1.00  0.00     0.274 C 
ENDROOT
BRANCH   1   2
ATOM      2  O   UNL     1      -0.873   1.884  -2.739  1.00  0.00    -0.462 OA
BRANCH   2   3
ATOM      3  C   UNL     1       0.182   1.480  -1.979  1.00  0.00     0.314 C 
ATOM      4  O   UNL     1       0.771   0.418  -2.148  1.00  0.00    -0.252 OA
BRANCH   3   5
ATOM      5  C   UNL     1       0.549   2.464  -0.859  1.00  0.00     0.088 C 
ATOM      6  C   UNL     1      -0.565   3.486  -0.510  1.00  0.00     0.022 C 
ATOM      7  C   UNL     1       1.859   3.183  -1.272  1.00  0.00     0.140 C 
ATOM      8  C   UNL     1      -0.635   4.707  -1.434  1.00  0.00     0.023 C 
ATOM      9  N   UNL     1       1.647   4.340  -2.149  1.00  0.00    -0.324 N 
ATOM     10  C   UNL     1       0.738   5.331  -1.605  1.00  0.00     0.121 C 
BRANCH   5  11
ATOM     11  C   UNL     1       0.866   1.592   0.406  1.00  0.00     0.049 C 
BRANCH  11  12
ATOM     12  C   UNL     1      -0.329   0.861   1.029  1.00  0.00     0.161 C 
BRANCH  12  13
ATOM     13  O   UNL     1      -0.867  -0.089   0.121  1.00  0.00    -0.385 OA
ATOM     14  C   UNL     1      -2.276  -0.028  -0.008  1.00  0.00     0.194 C 
ENDBRANCH  12  13
ENDBRANCH  11  12
ENDBRANCH   5  11
BRANCH   9  15
ATOM     15  C   UNL     1       2.492   4.497  -3.207  1.00  0.00     0.317 C 
ATOM     16  O   UNL     1       3.557   3.880  -3.276  1.00  0.00    -0.249 OA
ATOM     17  N   UNL     1       2.215   5.269  -4.264  1.00  0.00    -0.334 N 
ATOM     18  H   UNL     1       2.891   5.160  -4.971  1.00  0.00     0.165 HD
BRANCH  17  19
ATOM     19  C   UNL     1       1.198   6.220  -4.656  1.00  0.00     0.153 C 
BRANCH  19  20
ATOM     20  C   UNL     1       1.680   7.653  -4.524  1.00  0.00    -0.028 A 
ATOM     21  C   UNL     1       3.043   7.967  -4.396  1.00  0.00     0.009 A 
ATOM     22  C   UNL     1       0.768   8.716  -4.606  1.00  0.00     0.009 A 
ATOM     23  C   UNL     1       3.476   9.292  -4.337  1.00  0.00     0.047 A 
ATOM     24  C   UNL     1       1.206  10.049  -4.550  1.00  0.00     0.047 A 
ATOM     25  C   UNL     1       2.564  10.340  -4.420  1.00  0.00     0.118 A 
BRANCH  25  26
ATOM     26  O   UNL     1       3.122  11.584  -4.345  1.00  0.00    -0.497 OA
ATOM     27  C   UNL     1       2.322  12.675  -4.773  1.00  0.00     0.278 C 
ENDBRANCH  25  26
ENDBRANCH  19  20
ENDBRANCH  17  19
ENDBRANCH   9  15
ENDBRANCH   3   5
ENDBRANCH   2   3
ENDBRANCH   1   2
BRANCH   1  28
ATOM     28  C   UNL     1      -0.682   1.049  -5.053  1.00  0.00     0.275 C 
BRANCH  28  29
ATOM     29  O   UNL     1       0.733   0.841  -4.942  1.00  0.00    -0.458 OA
BRANCH  29  30
ATOM     30  C   UNL     1       1.516   1.715  -5.616  1.00  0.00     0.338 C 
ATOM     31  O   UNL     1       1.132   2.589  -6.377  1.00  0.00    -0.246 OA
BRANCH  30  32
ATOM     32  C   UNL     1       2.947   1.460  -5.325  1.00  0.00     0.060 A 
ATOM     33  C   UNL     1       3.373   0.982  -4.083  1.00  0.00     0.016 A 
ATOM     34  C   UNL     1       3.894   1.812  -6.287  1.00  0.00     0.016 A 
ATOM     35  C   UNL     1       4.730   0.951  -3.763  1.00  0.00     0.010 A 
ATOM     36  C   UNL     1       5.255   1.690  -5.999  1.00  0.00     0.010 A 
ATOM     37  C   UNL     1       5.688   1.286  -4.724  1.00  0.00    -0.014 A 
BRANCH  37  38
ATOM     38  C   UNL     1       7.145   1.225  -4.439  1.00  0.00     0.031 A 
ATOM     39  C   UNL     1       7.992   2.449  -4.649  1.00  0.00     0.074 A 
ATOM     40  C   UNL     1       7.722   0.060  -4.085  1.00  0.00     0.049 A 
ATOM     41  N   UNL     1       9.279   2.535  -4.862  1.00  0.00    -0.248 NA
ATOM     42  C   UNL     1       7.291   3.744  -4.642  1.00  0.00     0.031 C 
ATOM     43  C   UNL     1       7.016  -1.181  -3.761  1.00  0.00     0.029 A 
ATOM     44  N   UNL     1       9.050  -0.276  -3.979  1.00  0.00    -0.354 N 
ATOM     45  C   UNL     1       9.534   3.883  -5.086  1.00  0.00     0.074 A 
ATOM     46  C   UNL     1       8.271   4.580  -4.963  1.00  0.00     0.031 C 
ATOM     47  C   UNL     1       7.913  -2.144  -3.505  1.00  0.00     0.029 A 
ATOM     48  C   UNL     1       9.249  -1.617  -3.751  1.00  0.00     0.049 A 
ATOM     49  H   UNL     1       9.783   0.376  -4.058  1.00  0.00     0.167 HD
ATOM     50  C   UNL     1      10.716   4.471  -5.388  1.00  0.00     0.031 A 
ATOM     51  C   UNL     1      10.367  -2.365  -3.816  1.00  0.00     0.031 A 
ATOM     52  C   UNL     1      11.965   3.758  -5.469  1.00  0.00     0.049 A 
ATOM     53  C   UNL     1      11.658  -1.712  -4.213  1.00  0.00     0.074 A 
ATOM     54  C   UNL     1      13.223   4.250  -5.770  1.00  0.00     0.029 A 
ATOM     55  N   UNL     1      12.114   2.400  -5.226  1.00  0.00    -0.354 N 
ATOM     56  N   UNL     1      11.881  -0.457  -4.521  1.00  0.00    -0.248 NA
ATOM     57  C   UNL     1      12.842  -2.576  -4.294  1.00  0.00     0.031 C 
ATOM     58  C   UNL     1      14.128   3.183  -5.740  1.00  0.00     0.029 A 
ATOM     59  C   UNL     1      13.441   2.035  -5.377  1.00  0.00     0.049 A 
ATOM     60  H   UNL     1      11.384   1.786  -4.983  1.00  0.00     0.167 HD
ATOM     61  C   UNL     1      13.236  -0.375  -4.814  1.00  0.00     0.074 A 
ATOM     62  C   UNL     1      13.782  -1.707  -4.644  1.00  0.00     0.031 C 
ATOM     63  C   UNL     1      13.962   0.705  -5.189  1.00  0.00     0.031 A 
BRANCH  50  64
ATOM     64  C   UNL     1      10.713   5.942  -5.709  1.00  0.00    -0.014 A 
ATOM     65  C   UNL     1      10.575   6.916  -4.706  1.00  0.00     0.010 A 
ATOM     66  C   UNL     1      10.906   6.355  -7.042  1.00  0.00     0.010 A 
ATOM     67  C   UNL     1      10.601   8.277  -5.034  1.00  0.00     0.020 A 
ATOM     68  C   UNL     1      10.953   7.713  -7.370  1.00  0.00     0.020 A 
ATOM     69  C   UNL     1      10.785   8.666  -6.365  1.00  0.00     0.054 A 
BRANCH  69  70
ATOM     70  S   UNL     1      10.845  10.436  -6.763  1.00  0.00     0.124 S 
ATOM     71  O   UNL     1       9.433  10.806  -6.708  1.00  0.00    -0.237 OA
ATOM     72  O   UNL     1      11.678  10.982  -5.694  1.00  0.00    -0.237 OA
ATOM     73  O   UNL     1      11.446  10.472  -8.094  1.00  0.00    -0.744 OA
ENDBRANCH  69  70
ENDBRANCH  50  64
BRANCH  51  74
ATOM     74  C   UNL     1      10.279  -3.830  -3.575  1.00  0.00    -0.014 A 
ATOM     75  C   UNL     1      10.773  -4.386  -2.384  1.00  0.00     0.010 A 
ATOM     76  C   UNL     1       9.637  -4.666  -4.509  1.00  0.00     0.010 A 
ATOM     77  C   UNL     1      10.622  -5.753  -2.127  1.00  0.00     0.020 A 
ATOM     78  C   UNL     1       9.462  -6.027  -4.244  1.00  0.00     0.020 A 
ATOM     79  C   UNL     1       9.961  -6.563  -3.056  1.00  0.00     0.054 A 
BRANCH  79  80
ATOM     80  S   UNL     1       9.695  -8.315  -2.664  1.00  0.00     0.124 S 
ATOM     81  O   UNL     1      11.000  -8.894  -2.964  1.00  0.00    -0.237 OA
ATOM     82  O   UNL     1       9.330  -8.275  -1.250  1.00  0.00    -0.237 OA
ATOM     83  O   UNL     1       8.613  -8.705  -3.566  1.00  0.00    -0.744 OA
ENDBRANCH  79  80
ENDBRANCH  51  74
BRANCH  63  84
ATOM     84  C   UNL     1      15.437   0.508  -5.388  1.00  0.00    -0.014 A 
ATOM     85  C   UNL     1      15.940  -0.062  -6.569  1.00  0.00     0.010 A 
ATOM     86  C   UNL     1      16.331   0.973  -4.407  1.00  0.00     0.010 A 
ATOM     87  C   UNL     1      17.320  -0.171  -6.762  1.00  0.00     0.020 A 
ATOM     88  C   UNL     1      17.710   0.881  -4.605  1.00  0.00     0.020 A 
ATOM     89  C   UNL     1      18.196   0.302  -5.780  1.00  0.00     0.054 A 
BRANCH  89  90
ATOM     90  S   UNL     1      19.983   0.217  -6.082  1.00  0.00     0.124 S 
ATOM     91  O   UNL     1      20.267  -1.192  -5.825  1.00  0.00    -0.237 OA
ATOM     92  O   UNL     1      20.095   0.636  -7.477  1.00  0.00    -0.237 OA
ATOM     93  O   UNL     1      20.543   1.154  -5.111  1.00  0.00    -0.744 OA
ENDBRANCH  89  90
ENDBRANCH  63  84
ENDBRANCH  37  38
ENDBRANCH  30  32
ENDBRANCH  29  30
ENDBRANCH  28  29
ENDBRANCH   1  28
TORSDOF 21
