REMARK SMILES CCC(CC)([NH2+]CC(=O)Nc1ccc(C)cc1)C(=O)OCCOC(=O)c1ccc(-c2c3nc(c(-c4ccc(S(=O)(=O)[O-])cc4)c4ccc([nH]4)c(-c4ccc(S(=O)(=O)[O-])cc4)c4nc(c(-c5ccc(S(=O)(=O)[O-])cc5)c5ccc2[nH]5)C=C4)C=C3)cc1
REMARK SMILES IDX 21 1 20 2 18 3 19 4 3 5 2 6 1 7 4 8 5 9 6 10 7 13 8 14 9 15
REMARK SMILES IDX 10 16 11 18 12 19 17 20 13 21 16 22 14 23 15 24 22 25 23 26
REMARK SMILES IDX 24 27 25 28 26 29 27 30 85 31 28 32 84 33 29 34 30 35 31 36
REMARK SMILES IDX 78 37 32 38 83 39 77 40 79 41 33 42 82 43 76 44 75 45 34 47
REMARK SMILES IDX 64 48 45 49 63 50 46 51 49 52 62 53 80 54 47 55 48 56 61 58
REMARK SMILES IDX 81 59 50 60 35 61 36 62 44 63 37 64 43 65 38 66 39 67 40 68
REMARK SMILES IDX 41 69 42 70 65 71 66 72 74 73 67 74 73 75 68 76 69 77 70 78
REMARK SMILES IDX 71 79 72 80 51 81 52 82 60 83 53 84 59 85 54 86 55 87 56 88
REMARK SMILES IDX 57 89 58 90
REMARK H PARENT 6 11 6 12 10 17 79 46 49 57
REMARK Flexibility Score: inf
ROOT
ATOM      1  C   UNL     1       3.425  -5.772  -1.169  1.00  0.00     0.274 C 
ENDROOT
BRANCH   1   2
ATOM      2  O   UNL     1       2.153  -4.891  -1.472  1.00  0.00    -0.457 OA
BRANCH   2   3
ATOM      3  C   UNL     1       1.342  -4.773  -0.365  1.00  0.00     0.368 C 
ATOM      4  O   UNL     1       1.688  -5.600   0.492  1.00  0.00    -0.245 OA
BRANCH   3   5
ATOM      5  C   UNL     1      -0.087  -3.634  -0.001  1.00  0.00     0.194 C 
BRANCH   5   6
ATOM      6  C   UNL     1      -0.668  -2.725  -1.194  1.00  0.00     0.077 C 
ATOM      7  C   UNL     1      -0.690  -1.121  -1.044  1.00  0.00     0.011 C 
ENDBRANCH   5   6
BRANCH   5   8
ATOM      8  C   UNL     1      -0.761  -2.756   1.305  1.00  0.00     0.077 C 
ATOM      9  C   UNL     1      -2.292  -2.523   1.399  1.00  0.00     0.011 C 
ENDBRANCH   5   8
BRANCH   5  10
ATOM     10  N   UNL     1      -0.705  -4.821   0.608  1.00  0.00    -0.324 N 
ATOM     11  H   UNL     1      -0.623  -5.618  -0.024  1.00  0.00     0.347 HD
ATOM     12  H   UNL     1      -1.695  -4.655   0.788  1.00  0.00     0.347 HD
BRANCH  10  13
ATOM     13  C   UNL     1       0.061  -5.126   1.965  1.00  0.00     0.363 C 
BRANCH  13  14
ATOM     14  C   UNL     1       1.560  -4.239   2.545  1.00  0.00     0.279 C 
ATOM     15  O   UNL     1       2.010  -4.724   3.599  1.00  0.00    -0.268 OA
ATOM     16  N   UNL     1       2.131  -2.877   1.854  1.00  0.00    -0.321 N 
ATOM     17  H   UNL     1       1.355  -2.411   1.468  1.00  0.00     0.170 HD
BRANCH  16  18
ATOM     18  C   UNL     1       3.770  -1.721   1.445  1.00  0.00     0.041 A 
ATOM     19  C   UNL     1       3.862  -0.663   0.382  1.00  0.00     0.026 A 
ATOM     20  C   UNL     1       5.246  -1.835   1.868  1.00  0.00     0.026 A 
ATOM     21  C   UNL     1       4.967  -0.272  -0.343  1.00  0.00     0.005 A 
ATOM     22  C   UNL     1       6.383  -1.234   1.252  1.00  0.00     0.005 A 
ATOM     23  C   UNL     1       6.233  -0.504   0.096  1.00  0.00    -0.051 A 
ATOM     24  C   UNL     1       7.273   0.282  -0.611  1.00  0.00     0.044 C 
ENDBRANCH  16  18
ENDBRANCH  13  14
ENDBRANCH  10  13
ENDBRANCH   5  10
ENDBRANCH   3   5
ENDBRANCH   2   3
ENDBRANCH   1   2
BRANCH   1  25
ATOM     25  C   UNL     1       4.877  -5.209  -1.381  1.00  0.00     0.275 C 
BRANCH  25  26
ATOM     26  O   UNL     1       5.100  -3.901  -0.903  1.00  0.00    -0.458 OA
BRANCH  26  27
ATOM     27  C   UNL     1       3.974  -3.219  -1.101  1.00  0.00     0.338 C 
ATOM     28  O   UNL     1       3.568  -2.797  -2.167  1.00  0.00    -0.246 OA
BRANCH  27  29
ATOM     29  C   UNL     1       3.205  -3.236   0.175  1.00  0.00     0.060 A 
ATOM     30  C   UNL     1       2.004  -1.874   0.094  1.00  0.00     0.016 A 
ATOM     31  C   UNL     1       3.901  -3.807   1.776  1.00  0.00     0.016 A 
ATOM     32  C   UNL     1       1.719  -0.823   1.558  1.00  0.00     0.010 A 
ATOM     33  C   UNL     1       3.529  -2.785   3.279  1.00  0.00     0.010 A 
ATOM     34  C   UNL     1       2.516  -1.269   3.086  1.00  0.00    -0.014 A 
BRANCH  34  35
ATOM     35  C   UNL     1       2.792  -0.209   4.042  1.00  0.00     0.031 A 
ATOM     36  C   UNL     1       2.038  -0.573   5.265  1.00  0.00     0.074 A 
ATOM     37  C   UNL     1       3.898   0.526   3.679  1.00  0.00     0.049 A 
ATOM     38  N   UNL     1       1.683   0.203   6.233  1.00  0.00    -0.248 NA
ATOM     39  C   UNL     1       1.360  -1.896   5.449  1.00  0.00     0.031 C 
ATOM     40  C   UNL     1       5.165   0.888   4.321  1.00  0.00     0.029 A 
ATOM     41  N   UNL     1       4.129   1.086   2.399  1.00  0.00    -0.354 N 
ATOM     42  C   UNL     1       1.668  -0.700   7.280  1.00  0.00     0.074 A 
ATOM     43  C   UNL     1       1.028  -1.863   6.740  1.00  0.00     0.031 C 
ATOM     44  C   UNL     1       5.847   1.812   3.592  1.00  0.00     0.029 A 
ATOM     45  C   UNL     1       5.106   2.092   2.361  1.00  0.00     0.049 A 
ATOM     46  H   UNL     1       3.640   0.792   1.596  1.00  0.00     0.167 HD
ATOM     47  C   UNL     1       2.744  -0.683   8.131  1.00  0.00     0.031 A 
ATOM     48  C   UNL     1       4.827   3.299   1.793  1.00  0.00     0.031 A 
ATOM     49  C   UNL     1       3.702   0.402   7.801  1.00  0.00     0.049 A 
ATOM     50  C   UNL     1       4.270   4.044   2.985  1.00  0.00     0.074 A 
ATOM     51  C   UNL     1       5.073   0.513   7.660  1.00  0.00     0.029 A 
ATOM     52  N   UNL     1       3.202   1.604   7.307  1.00  0.00    -0.354 N 
ATOM     53  N   UNL     1       3.714   3.433   4.004  1.00  0.00    -0.248 NA
ATOM     54  C   UNL     1       4.574   5.442   3.253  1.00  0.00     0.031 C 
ATOM     55  C   UNL     1       5.357   1.829   7.138  1.00  0.00     0.029 A 
ATOM     56  C   UNL     1       4.159   2.465   6.837  1.00  0.00     0.049 A 
ATOM     57  H   UNL     1       2.241   1.817   7.296  1.00  0.00     0.167 HD
ATOM     58  C   UNL     1       3.845   4.218   5.103  1.00  0.00     0.074 A 
ATOM     59  C   UNL     1       4.305   5.497   4.569  1.00  0.00     0.031 C 
ATOM     60  C   UNL     1       3.737   3.798   6.398  1.00  0.00     0.031 A 
BRANCH  47  61
ATOM     61  C   UNL     1       3.011  -1.736   9.185  1.00  0.00    -0.014 A 
ATOM     62  C   UNL     1       3.893  -1.376  10.219  1.00  0.00     0.010 A 
ATOM     63  C   UNL     1       2.412  -3.013   9.291  1.00  0.00     0.010 A 
ATOM     64  C   UNL     1       4.113  -2.194  11.330  1.00  0.00     0.020 A 
ATOM     65  C   UNL     1       2.609  -3.840  10.414  1.00  0.00     0.020 A 
ATOM     66  C   UNL     1       3.444  -3.409  11.438  1.00  0.00     0.054 A 
BRANCH  66  67
ATOM     67  S   UNL     1       3.650  -4.363  12.963  1.00  0.00     0.124 S 
ATOM     68  O   UNL     1       5.082  -4.650  12.960  1.00  0.00    -0.237 OA
ATOM     69  O   UNL     1       3.199  -3.420  13.983  1.00  0.00    -0.237 OA
ATOM     70  O   UNL     1       2.784  -5.525  12.770  1.00  0.00    -0.744 OA
ENDBRANCH  66  67
ENDBRANCH  47  61
BRANCH  48  71
ATOM     71  C   UNL     1       4.285   3.269   0.372  1.00  0.00    -0.014 A 
ATOM     72  C   UNL     1       5.184   3.216  -0.733  1.00  0.00     0.010 A 
ATOM     73  C   UNL     1       2.949   2.938   0.100  1.00  0.00     0.010 A 
ATOM     74  C   UNL     1       4.801   2.689  -1.995  1.00  0.00     0.020 A 
ATOM     75  C   UNL     1       2.559   2.399  -1.151  1.00  0.00     0.020 A 
ATOM     76  C   UNL     1       3.498   2.219  -2.175  1.00  0.00     0.054 A 
BRANCH  76  77
ATOM     77  S   UNL     1       3.162   0.972  -3.510  1.00  0.00     0.124 S 
ATOM     78  O   UNL     1       2.928   1.810  -4.679  1.00  0.00    -0.237 OA
ATOM     79  O   UNL     1       4.401   0.199  -3.544  1.00  0.00    -0.237 OA
ATOM     80  O   UNL     1       1.992   0.263  -2.995  1.00  0.00    -0.744 OA
ENDBRANCH  76  77
ENDBRANCH  48  71
BRANCH  60  81
ATOM     81  C   UNL     1       3.029   4.676   7.392  1.00  0.00    -0.014 A 
ATOM     82  C   UNL     1       2.550   5.954   7.084  1.00  0.00     0.010 A 
ATOM     83  C   UNL     1       2.692   4.153   8.663  1.00  0.00     0.010 A 
ATOM     84  C   UNL     1       1.906   6.725   8.039  1.00  0.00     0.020 A 
ATOM     85  C   UNL     1       1.957   4.873   9.591  1.00  0.00     0.020 A 
ATOM     86  C   UNL     1       1.624   6.181   9.288  1.00  0.00     0.054 A 
BRANCH  86  87
ATOM     87  S   UNL     1       0.835   7.225  10.511  1.00  0.00     0.124 S 
ATOM     88  O   UNL     1       1.910   8.161  10.830  1.00  0.00    -0.237 OA
ATOM     89  O   UNL     1      -0.287   7.787   9.762  1.00  0.00    -0.237 OA
ATOM     90  O   UNL     1       0.470   6.299  11.579  1.00  0.00    -0.744 OA
ENDBRANCH  86  87
ENDBRANCH  60  81
ENDBRANCH  34  35
ENDBRANCH  27  29
ENDBRANCH  26  27
ENDBRANCH  25  26
ENDBRANCH   1  25
TORSDOF 20
