REMARK SMILES O=C(OCCOC(=O)[C@@H]1CCCC[C@@H]1NS(=O)(=O)c1ccc2ccccc2c1)c1ccc(-c2c3nc(c(-c4ccc(S(=O)(=O)[O-])cc4)c4ccc([nH]4)c(-c4ccc(S(=O)(=O)[O-])cc4)c4nc(c(-c5ccc(S(=O)(=O)[O-])cc5)c5ccc2[nH]5)C=C4)C=C3)cc1
REMARK SMILES IDX 4 1 3 2 2 3 1 4 29 5 30 6 88 7 31 8 87 9 32 10 33 11 34 12
REMARK SMILES IDX 81 13 35 14 86 15 80 16 82 17 36 18 85 19 79 20 78 21 37 23
REMARK SMILES IDX 67 24 48 25 66 26 49 27 52 28 65 29 83 30 50 31 51 32 64 34
REMARK SMILES IDX 84 35 53 36 38 37 39 38 47 39 40 40 46 41 41 42 42 43 43 44
REMARK SMILES IDX 44 45 45 46 68 47 69 48 77 49 70 50 76 51 71 52 72 53 73 54
REMARK SMILES IDX 74 55 75 56 54 57 55 58 63 59 56 60 62 61 57 62 58 63 59 64
REMARK SMILES IDX 60 65 61 66 5 67 6 68 7 69 8 70 9 71 10 72 14 73 11 74 13 75
REMARK SMILES IDX 12 76 15 77 16 79 17 80 18 81 19 82 20 83 28 84 21 85 27 86
REMARK SMILES IDX 22 87 26 88 23 89 25 90 24 91
REMARK H PARENT 82 22 52 33 15 78
REMARK Flexibility Score: inf
ROOT
ATOM      1  C   UNL     1       4.465  -0.804   0.994  1.00  0.00     0.275 C 
ENDROOT
BRANCH   1   2
ATOM      2  O   UNL     1       3.430  -0.038   1.714  1.00  0.00    -0.458 OA
BRANCH   2   3
ATOM      3  C   UNL     1       3.384   1.275   2.126  1.00  0.00     0.338 C 
ATOM      4  O   UNL     1       2.647   1.601   3.054  1.00  0.00    -0.246 OA
BRANCH   3   5
ATOM      5  C   UNL     1       3.949   2.375   1.273  1.00  0.00     0.060 A 
ATOM      6  C   UNL     1       5.272   2.410   0.849  1.00  0.00     0.016 A 
ATOM      7  C   UNL     1       3.089   3.397   0.822  1.00  0.00     0.016 A 
ATOM      8  C   UNL     1       5.668   3.272  -0.200  1.00  0.00     0.010 A 
ATOM      9  C   UNL     1       3.499   4.288  -0.193  1.00  0.00     0.010 A 
ATOM     10  C   UNL     1       4.771   4.172  -0.791  1.00  0.00    -0.014 A 
BRANCH  10  11
ATOM     11  C   UNL     1       5.284   5.238  -1.715  1.00  0.00     0.031 A 
ATOM     12  C   UNL     1       5.799   6.452  -0.994  1.00  0.00     0.074 A 
ATOM     13  C   UNL     1       5.368   5.194  -3.069  1.00  0.00     0.049 A 
ATOM     14  N   UNL     1       6.266   7.574  -1.465  1.00  0.00    -0.248 NA
ATOM     15  C   UNL     1       5.825   6.351   0.477  1.00  0.00     0.031 C 
ATOM     16  C   UNL     1       5.134   4.042  -3.937  1.00  0.00     0.029 A 
ATOM     17  N   UNL     1       5.668   6.192  -3.981  1.00  0.00    -0.354 N 
ATOM     18  C   UNL     1       6.678   8.286  -0.348  1.00  0.00     0.074 A 
ATOM     19  C   UNL     1       6.329   7.516   0.820  1.00  0.00     0.031 C 
ATOM     20  C   UNL     1       5.134   4.421  -5.230  1.00  0.00     0.029 A 
ATOM     21  C   UNL     1       5.469   5.835  -5.304  1.00  0.00     0.049 A 
ATOM     22  H   UNL     1       5.996   7.080  -3.711  1.00  0.00     0.167 HD
ATOM     23  C   UNL     1       7.339   9.461  -0.282  1.00  0.00     0.031 A 
ATOM     24  C   UNL     1       5.574   6.552  -6.447  1.00  0.00     0.031 A 
ATOM     25  C   UNL     1       7.641  10.257  -1.427  1.00  0.00     0.049 A 
ATOM     26  C   UNL     1       6.122   7.955  -6.353  1.00  0.00     0.074 A 
ATOM     27  C   UNL     1       8.227  11.504  -1.482  1.00  0.00     0.029 A 
ATOM     28  N   UNL     1       7.355   9.875  -2.729  1.00  0.00    -0.354 N 
ATOM     29  N   UNL     1       6.508   8.611  -5.283  1.00  0.00    -0.248 NA
ATOM     30  C   UNL     1       6.307   8.696  -7.611  1.00  0.00     0.031 C 
ATOM     31  C   UNL     1       8.269  11.892  -2.825  1.00  0.00     0.029 A 
ATOM     32  C   UNL     1       7.750  10.865  -3.603  1.00  0.00     0.049 A 
ATOM     33  H   UNL     1       6.934   9.024  -2.991  1.00  0.00     0.167 HD
ATOM     34  C   UNL     1       7.049   9.805  -5.744  1.00  0.00     0.074 A 
ATOM     35  C   UNL     1       6.912   9.799  -7.186  1.00  0.00     0.031 C 
ATOM     36  C   UNL     1       7.631  10.804  -5.038  1.00  0.00     0.031 A 
BRANCH  23  37
ATOM     37  C   UNL     1       7.694   9.907   1.105  1.00  0.00    -0.014 A 
ATOM     38  C   UNL     1       8.689   9.223   1.834  1.00  0.00     0.010 A 
ATOM     39  C   UNL     1       6.869  10.836   1.759  1.00  0.00     0.010 A 
ATOM     40  C   UNL     1       8.772   9.376   3.219  1.00  0.00     0.020 A 
ATOM     41  C   UNL     1       6.971  11.012   3.140  1.00  0.00     0.020 A 
ATOM     42  C   UNL     1       7.891  10.248   3.865  1.00  0.00     0.054 A 
BRANCH  42  43
ATOM     43  S   UNL     1       7.917  10.330   5.676  1.00  0.00     0.124 S 
ATOM     44  O   UNL     1       7.177   9.123   6.038  1.00  0.00    -0.237 OA
ATOM     45  O   UNL     1       9.345  10.305   5.981  1.00  0.00    -0.237 OA
ATOM     46  O   UNL     1       7.240  11.590   5.971  1.00  0.00    -0.744 OA
ENDBRANCH  42  43
ENDBRANCH  23  37
BRANCH  24  47
ATOM     47  C   UNL     1       5.198   5.979  -7.781  1.00  0.00    -0.014 A 
ATOM     48  C   UNL     1       6.171   5.653  -8.745  1.00  0.00     0.010 A 
ATOM     49  C   UNL     1       3.841   5.817  -8.124  1.00  0.00     0.010 A 
ATOM     50  C   UNL     1       5.799   5.209 -10.024  1.00  0.00     0.020 A 
ATOM     51  C   UNL     1       3.464   5.359  -9.396  1.00  0.00     0.020 A 
ATOM     52  C   UNL     1       4.446   5.068 -10.344  1.00  0.00     0.054 A 
BRANCH  52  53
ATOM     53  S   UNL     1       3.988   4.485 -12.006  1.00  0.00     0.124 S 
ATOM     54  O   UNL     1       4.364   5.620 -12.844  1.00  0.00    -0.237 OA
ATOM     55  O   UNL     1       4.812   3.288 -12.158  1.00  0.00    -0.237 OA
ATOM     56  O   UNL     1       2.552   4.237 -11.900  1.00  0.00    -0.744 OA
ENDBRANCH  52  53
ENDBRANCH  24  47
BRANCH  36  57
ATOM     57  C   UNL     1       8.244  11.943  -5.798  1.00  0.00    -0.014 A 
ATOM     58  C   UNL     1       7.452  12.977  -6.321  1.00  0.00     0.010 A 
ATOM     59  C   UNL     1       9.647  12.054  -5.829  1.00  0.00     0.010 A 
ATOM     60  C   UNL     1       8.057  14.121  -6.843  1.00  0.00     0.020 A 
ATOM     61  C   UNL     1      10.253  13.205  -6.329  1.00  0.00     0.020 A 
ATOM     62  C   UNL     1       9.453  14.234  -6.829  1.00  0.00     0.054 A 
BRANCH  62  63
ATOM     63  S   UNL     1      10.208  15.790  -7.372  1.00  0.00     0.124 S 
ATOM     64  O   UNL     1      10.103  15.688  -8.825  1.00  0.00    -0.237 OA
ATOM     65  O   UNL     1       9.353  16.797  -6.748  1.00  0.00    -0.237 OA
ATOM     66  O   UNL     1      11.566  15.720  -6.838  1.00  0.00    -0.744 OA
ENDBRANCH  62  63
ENDBRANCH  36  57
ENDBRANCH  10  11
ENDBRANCH   3   5
ENDBRANCH   2   3
ENDBRANCH   1   2
BRANCH   1  67
ATOM     67  C   UNL     1       4.129  -1.620  -0.504  1.00  0.00     0.274 C 
BRANCH  67  68
ATOM     68  O   UNL     1       3.599  -0.803  -2.291  1.00  0.00    -0.462 OA
BRANCH  68  69
ATOM     69  C   UNL     1       3.097  -0.094  -3.393  1.00  0.00     0.310 C 
ATOM     70  O   UNL     1       3.523  -0.377  -4.521  1.00  0.00    -0.252 OA
BRANCH  69  71
ATOM     71  C   UNL     1       2.045   1.058  -3.288  1.00  0.00     0.117 C 
ATOM     72  C   UNL     1       2.500   2.355  -2.630  1.00  0.00     0.017 C 
ATOM     73  C   UNL     1       0.547   0.798  -3.024  1.00  0.00     0.084 C 
ATOM     74  C   UNL     1       1.765   3.558  -3.196  1.00  0.00     0.001 C 
ATOM     75  C   UNL     1      -0.284   2.076  -3.358  1.00  0.00     0.021 C 
ATOM     76  C   UNL     1       0.293   3.404  -2.837  1.00  0.00     0.002 C 
BRANCH  73  77
ATOM     77  N   UNL     1       0.188   0.430  -1.639  1.00  0.00    -0.207 NA
ATOM     78  H   UNL     1      -0.793   0.682  -1.515  1.00  0.00     0.141 HD
BRANCH  77  79
ATOM     79  S   UNL     1       0.348  -1.151  -1.108  1.00  0.00     0.240 S 
ATOM     80  O   UNL     1       0.012  -1.186   0.294  1.00  0.00    -0.207 OA
ATOM     81  O   UNL     1      -0.243  -2.034  -2.085  1.00  0.00    -0.207 OA
BRANCH  79  82
ATOM     82  C   UNL     1       2.073  -1.285  -1.226  1.00  0.00     0.083 A 
ATOM     83  C   UNL     1       3.000   0.186  -0.784  1.00  0.00     0.022 A 
ATOM     84  C   UNL     1       2.877  -2.586  -2.167  1.00  0.00     0.030 A 
ATOM     85  C   UNL     1       4.743   0.320  -1.290  1.00  0.00     0.010 A 
ATOM     86  C   UNL     1       4.610  -2.437  -2.670  1.00  0.00    -0.017 A 
ATOM     87  C   UNL     1       5.550  -0.989  -2.208  1.00  0.00    -0.018 A 
ATOM     88  C   UNL     1       5.298  -3.294  -3.524  1.00  0.00     0.009 A 
ATOM     89  C   UNL     1       6.871  -0.918  -2.623  1.00  0.00     0.009 A 
ATOM     90  C   UNL     1       6.625  -3.015  -3.917  1.00  0.00     0.001 A 
ATOM     91  C   UNL     1       7.384  -1.908  -3.463  1.00  0.00     0.001 A 
ENDBRANCH  79  82
ENDBRANCH  77  79
ENDBRANCH  73  77
ENDBRANCH  69  71
ENDBRANCH  68  69
ENDBRANCH  67  68
ENDBRANCH   1  67
TORSDOF 17
