REMARK SMILES COC(=O)C[C@H](NC(=O)N[C@H]1CCCC1(C)C)C(=O)OCCOC(=O)c1ccc(-c2c3nc(c(-c4ccc(S(=O)(=O)[O-])cc4)c4ccc([nH]4)c(-c4ccc(S(=O)(=O)[O-])cc4)c4nc(c(-c5ccc(S(=O)(=O)[O-])cc5)c5ccc2[nH]5)C=C4)C=C3)cc1
REMARK SMILES IDX 21 1 20 2 18 3 19 4 6 5 5 6 3 7 4 8 2 9 1 10 7 11 8 12 9 14
REMARK SMILES IDX 10 15 11 17 12 18 15 19 13 20 14 21 16 22 17 23 22 24 23 25
REMARK SMILES IDX 24 26 25 27 26 28 27 29 85 30 28 31 84 32 29 33 30 34 31 35
REMARK SMILES IDX 78 36 32 37 83 38 77 39 79 40 33 41 82 42 76 43 75 44 34 46
REMARK SMILES IDX 64 47 45 48 63 49 46 50 49 51 62 52 80 53 47 54 48 55 61 57
REMARK SMILES IDX 81 58 50 59 35 60 36 61 44 62 37 63 43 64 38 65 39 66 40 67
REMARK SMILES IDX 41 68 42 69 65 70 66 71 74 72 67 73 73 74 68 75 69 76 70 77
REMARK SMILES IDX 71 78 72 79 51 80 52 81 60 82 53 83 59 84 54 85 55 86 56 87
REMARK SMILES IDX 57 88 58 89
REMARK H PARENT 7 13 10 16 79 45 49 56
REMARK Flexibility Score: inf
ROOT
ATOM      1  C   UNL     1      -1.917   6.272   0.055  1.00  0.00     0.274 C 
ENDROOT
BRANCH   1   2
ATOM      2  O   UNL     1      -1.600   4.912  -0.407  1.00  0.00    -0.461 OA
BRANCH   2   3
ATOM      3  C   UNL     1      -1.693   4.614  -1.754  1.00  0.00     0.329 C 
ATOM      4  O   UNL     1      -2.688   4.857  -2.428  1.00  0.00    -0.250 OA
BRANCH   3   5
ATOM      5  C   UNL     1      -0.362   4.007  -2.387  1.00  0.00     0.204 C 
BRANCH   5   6
ATOM      6  C   UNL     1      -0.429   2.559  -2.866  1.00  0.00     0.159 C 
BRANCH   6   7
ATOM      7  C   UNL     1      -1.259   1.688  -1.962  1.00  0.00     0.308 C 
ATOM      8  O   UNL     1      -2.423   1.422  -2.162  1.00  0.00    -0.252 OA
BRANCH   7   9
ATOM      9  O   UNL     1      -0.517   1.264  -0.897  1.00  0.00    -0.469 OA
ATOM     10  C   UNL     1      -1.262   0.488   0.046  1.00  0.00     0.282 C 
ENDBRANCH   7   9
ENDBRANCH   6   7
ENDBRANCH   5   6
BRANCH   5  11
ATOM     11  N   UNL     1       0.763   4.113  -1.493  1.00  0.00    -0.324 N 
ATOM     12  C   UNL     1       0.882   5.160  -0.700  1.00  0.00     0.315 C 
ATOM     13  H   UNL     1       1.444   3.402  -1.475  1.00  0.00     0.166 HD
ATOM     14  O   UNL     1       0.860   4.798   0.481  1.00  0.00    -0.249 OA
ATOM     15  N   UNL     1       0.764   6.449  -1.063  1.00  0.00    -0.335 N 
ATOM     16  H   UNL     1       0.358   6.963  -0.329  1.00  0.00     0.165 HD
BRANCH  15  17
ATOM     17  C   UNL     1       1.039   7.335  -2.183  1.00  0.00     0.089 C 
ATOM     18  C   UNL     1      -0.014   7.316  -3.298  1.00  0.00     0.025 C 
ATOM     19  C   UNL     1       1.157   8.898  -1.833  1.00  0.00    -0.015 C 
ATOM     20  C   UNL     1      -0.824   8.601  -3.260  1.00  0.00     0.003 C 
ATOM     21  C   UNL     1      -0.194   9.507  -2.241  1.00  0.00     0.008 C 
ATOM     22  C   UNL     1       1.386   9.455  -0.415  1.00  0.00     0.013 C 
ATOM     23  C   UNL     1       2.333   9.413  -2.681  1.00  0.00     0.013 C 
ENDBRANCH  15  17
ENDBRANCH   5  11
ENDBRANCH   3   5
ENDBRANCH   2   3
ENDBRANCH   1   2
BRANCH   1  24
ATOM     24  C   UNL     1      -1.123   6.760   1.389  1.00  0.00     0.275 C 
BRANCH  24  25
ATOM     25  O   UNL     1       0.322   7.168   1.227  1.00  0.00    -0.458 OA
BRANCH  25  26
ATOM     26  C   UNL     1       1.369   6.814   2.083  1.00  0.00     0.338 C 
ATOM     27  O   UNL     1       1.199   6.448   3.234  1.00  0.00    -0.246 OA
BRANCH  26  28
ATOM     28  C   UNL     1       2.798   6.879   1.409  1.00  0.00     0.060 A 
ATOM     29  C   UNL     1       3.395   5.764   0.780  1.00  0.00     0.016 A 
ATOM     30  C   UNL     1       3.581   8.042   1.388  1.00  0.00     0.016 A 
ATOM     31  C   UNL     1       4.617   5.816   0.053  1.00  0.00     0.010 A 
ATOM     32  C   UNL     1       4.823   8.105   0.679  1.00  0.00     0.010 A 
ATOM     33  C   UNL     1       5.380   6.982   0.022  1.00  0.00    -0.014 A 
BRANCH  33  34
ATOM     34  C   UNL     1       6.871   6.913  -0.261  1.00  0.00     0.031 A 
ATOM     35  C   UNL     1       7.769   6.877   0.966  1.00  0.00     0.074 A 
ATOM     36  C   UNL     1       7.477   6.848  -1.473  1.00  0.00     0.049 A 
ATOM     37  N   UNL     1       9.073   6.951   1.066  1.00  0.00    -0.248 NA
ATOM     38  C   UNL     1       7.078   6.775   2.262  1.00  0.00     0.031 C 
ATOM     39  C   UNL     1       6.817   6.801  -2.776  1.00  0.00     0.029 A 
ATOM     40  N   UNL     1       8.827   6.824  -1.798  1.00  0.00    -0.354 N 
ATOM     41  C   UNL     1       9.343   6.961   2.432  1.00  0.00     0.074 A 
ATOM     42  C   UNL     1       8.072   6.936   3.116  1.00  0.00     0.031 C 
ATOM     43  C   UNL     1       7.754   6.773  -3.749  1.00  0.00     0.029 A 
ATOM     44  C   UNL     1       9.093   6.825  -3.155  1.00  0.00     0.049 A 
ATOM     45  H   UNL     1       9.538   6.808  -1.117  1.00  0.00     0.167 HD
ATOM     46  C   UNL     1      10.530   6.968   3.084  1.00  0.00     0.031 A 
ATOM     47  C   UNL     1      10.262   6.876  -3.842  1.00  0.00     0.031 A 
ATOM     48  C   UNL     1      11.814   6.950   2.442  1.00  0.00     0.049 A 
ATOM     49  C   UNL     1      11.588   6.930  -3.102  1.00  0.00     0.074 A 
ATOM     50  C   UNL     1      13.066   6.914   3.033  1.00  0.00     0.029 A 
ATOM     51  N   UNL     1      12.017   6.958   1.074  1.00  0.00    -0.354 N 
ATOM     52  N   UNL     1      11.816   6.923  -1.810  1.00  0.00    -0.248 NA
ATOM     53  C   UNL     1      12.817   6.987  -3.917  1.00  0.00     0.031 C 
ATOM     54  C   UNL     1      14.028   6.959   2.021  1.00  0.00     0.029 A 
ATOM     55  C   UNL     1      13.374   6.951   0.800  1.00  0.00     0.049 A 
ATOM     56  H   UNL     1      11.303   6.967   0.396  1.00  0.00     0.167 HD
ATOM     57  C   UNL     1      13.204   6.939  -1.663  1.00  0.00     0.074 A 
ATOM     58  C   UNL     1      13.768   6.945  -2.993  1.00  0.00     0.031 C 
ATOM     59  C   UNL     1      13.942   6.943  -0.524  1.00  0.00     0.031 A 
BRANCH  46  60
ATOM     60  C   UNL     1      10.487   7.017   4.590  1.00  0.00    -0.014 A 
ATOM     61  C   UNL     1      10.015   5.928   5.347  1.00  0.00     0.010 A 
ATOM     62  C   UNL     1      10.939   8.170   5.258  1.00  0.00     0.010 A 
ATOM     63  C   UNL     1       9.947   6.012   6.739  1.00  0.00     0.020 A 
ATOM     64  C   UNL     1      10.909   8.242   6.653  1.00  0.00     0.020 A 
ATOM     65  C   UNL     1      10.395   7.169   7.383  1.00  0.00     0.054 A 
BRANCH  65  66
ATOM     66  S   UNL     1      10.322   7.237   9.193  1.00  0.00     0.124 S 
ATOM     67  O   UNL     1       8.887   7.369   9.432  1.00  0.00    -0.237 OA
ATOM     68  O   UNL     1      10.908   5.957   9.584  1.00  0.00    -0.237 OA
ATOM     69  O   UNL     1      11.120   8.413   9.529  1.00  0.00    -0.744 OA
ENDBRANCH  65  66
ENDBRANCH  46  60
BRANCH  47  70
ATOM     70  C   UNL     1      10.272   6.895  -5.343  1.00  0.00    -0.014 A 
ATOM     71  C   UNL     1      10.784   5.807  -6.079  1.00  0.00     0.010 A 
ATOM     72  C   UNL     1       9.818   8.025  -6.049  1.00  0.00     0.010 A 
ATOM     73  C   UNL     1      10.839   5.847  -7.479  1.00  0.00     0.020 A 
ATOM     74  C   UNL     1       9.845   8.058  -7.451  1.00  0.00     0.020 A 
ATOM     75  C   UNL     1      10.358   6.969  -8.158  1.00  0.00     0.054 A 
BRANCH  75  76
ATOM     76  S   UNL     1      10.358   6.964  -9.976  1.00  0.00     0.124 S 
ATOM     77  O   UNL     1      11.777   7.097 -10.286  1.00  0.00    -0.237 OA
ATOM     78  O   UNL     1       9.761   5.667 -10.285  1.00  0.00    -0.237 OA
ATOM     79  O   UNL     1       9.530   8.118 -10.321  1.00  0.00    -0.744 OA
ENDBRANCH  75  76
ENDBRANCH  47  70
BRANCH  59  80
ATOM     80  C   UNL     1      15.447   6.899  -0.638  1.00  0.00    -0.014 A 
ATOM     81  C   UNL     1      16.187   8.009  -1.083  1.00  0.00     0.010 A 
ATOM     82  C   UNL     1      16.139   5.750  -0.209  1.00  0.00     0.010 A 
ATOM     83  C   UNL     1      17.585   7.958  -1.126  1.00  0.00     0.020 A 
ATOM     84  C   UNL     1      17.536   5.705  -0.223  1.00  0.00     0.020 A 
ATOM     85  C   UNL     1      18.251   6.806  -0.696  1.00  0.00     0.054 A 
BRANCH  85  86
ATOM     86  S   UNL     1      20.066   6.781  -0.723  1.00  0.00     0.124 S 
ATOM     87  O   UNL     1      20.348   6.690  -2.153  1.00  0.00    -0.237 OA
ATOM     88  O   UNL     1      20.414   8.052  -0.093  1.00  0.00    -0.237 OA
ATOM     89  O   UNL     1      20.410   5.593   0.055  1.00  0.00    -0.744 OA
ENDBRANCH  85  86
ENDBRANCH  59  80
ENDBRANCH  33  34
ENDBRANCH  26  28
ENDBRANCH  25  26
ENDBRANCH  24  25
ENDBRANCH   1  24
TORSDOF 19
