REMARK SMILES C[C@@H](NC(=O)N(CC(=O)OCCOC(=O)c1ccc(-c2c3nc(c(-c4ccc(S(=O)(=O)[O-])cc4)c4ccc([nH]4)c(-c4ccc(S(=O)(=O)[O-])cc4)c4nc(c(-c5ccc(S(=O)(=O)[O-])cc5)c5ccc2[nH]5)C=C4)C=C3)cc1)CC(F)(F)F)C1CCCC1
REMARK SMILES IDX 11 1 10 2 8 3 9 4 7 5 6 6 4 7 3 8 5 10 2 11 1 12 81 13 82 14
REMARK SMILES IDX 85 15 83 16 84 17 76 18 77 19 78 20 79 21 80 22 12 23 13 24
REMARK SMILES IDX 14 25 15 26 16 27 17 28 75 29 18 30 74 31 19 32 20 33 21 34
REMARK SMILES IDX 68 35 22 36 73 37 67 38 69 39 23 40 72 41 66 42 65 43 24 45
REMARK SMILES IDX 54 46 35 47 53 48 36 49 39 50 52 51 70 52 37 53 38 54 51 56
REMARK SMILES IDX 71 57 40 58 25 59 26 60 34 61 27 62 33 63 28 64 29 65 30 66
REMARK SMILES IDX 31 67 32 68 55 69 56 70 64 71 57 72 63 73 58 74 59 75 60 76
REMARK SMILES IDX 61 77 62 78 41 79 42 80 50 81 43 82 49 83 44 84 45 85 46 86
REMARK SMILES IDX 47 87 48 88
REMARK H PARENT 3 9 69 44 39 55
REMARK Flexibility Score: inf
ROOT
ATOM      1  C   UNL     1      -3.308  -4.158  -2.983  1.00  0.00     0.274 C 
ENDROOT
BRANCH   1   2
ATOM      2  O   UNL     1      -2.519  -4.009  -1.787  1.00  0.00    -0.461 OA
BRANCH   2   3
ATOM      3  C   UNL     1      -2.620  -2.808  -1.169  1.00  0.00     0.325 C 
ATOM      4  O   UNL     1      -3.333  -1.894  -1.576  1.00  0.00    -0.250 OA
BRANCH   3   5
ATOM      5  C   UNL     1      -1.889  -2.738   0.179  1.00  0.00     0.244 C 
BRANCH   5   6
ATOM      6  N   UNL     1      -0.799  -3.663   0.395  1.00  0.00    -0.305 N 
BRANCH   6   7
ATOM      7  C   UNL     1       0.465  -3.532  -0.070  1.00  0.00     0.318 C 
ATOM      8  N   UNL     1       0.966  -2.466  -0.712  1.00  0.00    -0.335 N 
ATOM      9  H   UNL     1       1.739  -2.764  -1.243  1.00  0.00     0.165 HD
ATOM     10  O   UNL     1       1.270  -4.458   0.080  1.00  0.00    -0.249 OA
BRANCH   8  11
ATOM     11  C   UNL     1       0.796  -1.005  -0.927  1.00  0.00     0.083 C 
ATOM     12  C   UNL     1       0.979  -0.233   0.379  1.00  0.00     0.031 C 
BRANCH  11  13
ATOM     13  C   UNL     1      -0.405  -0.538  -1.757  1.00  0.00     0.011 C 
ATOM     14  C   UNL     1      -0.491   0.956  -2.080  1.00  0.00     0.006 C 
ATOM     15  C   UNL     1      -0.502  -1.157  -3.152  1.00  0.00     0.006 C 
ATOM     16  C   UNL     1      -1.656   0.996  -3.067  1.00  0.00     0.000 C 
ATOM     17  C   UNL     1      -1.527  -0.288  -3.888  1.00  0.00     0.000 C 
ENDBRANCH  11  13
ENDBRANCH   8  11
ENDBRANCH   6   7
BRANCH   6  18
ATOM     18  C   UNL     1      -1.140  -4.885   1.174  1.00  0.00     0.237 C 
BRANCH  18  19
ATOM     19  C   UNL     1      -1.102  -6.249   0.466  1.00  0.00     0.406 C 
ATOM     20  F   UNL     1       0.114  -6.832   0.520  1.00  0.00    -0.169 F 
ATOM     21  F   UNL     1      -1.959  -7.104   1.087  1.00  0.00    -0.169 F 
ATOM     22  F   UNL     1      -1.480  -6.193  -0.827  1.00  0.00    -0.169 F 
ENDBRANCH  18  19
ENDBRANCH   6  18
ENDBRANCH   5   6
ENDBRANCH   3   5
ENDBRANCH   2   3
ENDBRANCH   1   2
BRANCH   1  23
ATOM     23  C   UNL     1      -4.708  -4.726  -2.710  1.00  0.00     0.275 C 
BRANCH  23  24
ATOM     24  O   UNL     1      -5.550  -3.825  -1.962  1.00  0.00    -0.458 OA
BRANCH  24  25
ATOM     25  C   UNL     1      -5.470  -3.965  -0.618  1.00  0.00     0.338 C 
ATOM     26  O   UNL     1      -4.786  -4.770  -0.004  1.00  0.00    -0.246 OA
BRANCH  25  27
ATOM     27  C   UNL     1      -6.174  -2.873   0.072  1.00  0.00     0.060 A 
ATOM     28  C   UNL     1      -5.383  -1.919   0.711  1.00  0.00     0.016 A 
ATOM     29  C   UNL     1      -7.554  -2.877   0.264  1.00  0.00     0.016 A 
ATOM     30  C   UNL     1      -5.928  -1.015   1.597  1.00  0.00     0.010 A 
ATOM     31  C   UNL     1      -8.120  -1.935   1.136  1.00  0.00     0.010 A 
ATOM     32  C   UNL     1      -7.301  -1.027   1.831  1.00  0.00    -0.014 A 
BRANCH  32  33
ATOM     33  C   UNL     1      -7.801  -0.145   2.903  1.00  0.00     0.031 A 
ATOM     34  C   UNL     1      -8.198  -0.746   4.219  1.00  0.00     0.074 A 
ATOM     35  C   UNL     1      -7.737   1.189   2.743  1.00  0.00     0.049 A 
ATOM     36  N   UNL     1      -8.670  -0.156   5.284  1.00  0.00    -0.248 NA
ATOM     37  C   UNL     1      -8.030  -2.202   4.356  1.00  0.00     0.031 C 
ATOM     38  C   UNL     1      -7.247   1.871   1.541  1.00  0.00     0.029 A 
ATOM     39  N   UNL     1      -8.052   2.207   3.601  1.00  0.00    -0.354 N 
ATOM     40  C   UNL     1      -8.896  -1.172   6.205  1.00  0.00     0.074 A 
ATOM     41  C   UNL     1      -8.506  -2.414   5.574  1.00  0.00     0.031 C 
ATOM     42  C   UNL     1      -7.278   3.196   1.748  1.00  0.00     0.029 A 
ATOM     43  C   UNL     1      -7.851   3.455   3.064  1.00  0.00     0.049 A 
ATOM     44  H   UNL     1      -8.389   2.060   4.514  1.00  0.00     0.167 HD
ATOM     45  C   UNL     1      -9.396  -1.073   7.460  1.00  0.00     0.031 A 
ATOM     46  C   UNL     1      -8.134   4.671   3.565  1.00  0.00     0.031 A 
ATOM     47  C   UNL     1      -9.784   0.173   8.065  1.00  0.00     0.049 A 
ATOM     48  C   UNL     1      -8.744   4.756   4.934  1.00  0.00     0.074 A 
ATOM     49  C   UNL     1     -10.357   0.394   9.304  1.00  0.00     0.029 A 
ATOM     50  N   UNL     1      -9.628   1.417   7.467  1.00  0.00    -0.354 N 
ATOM     51  N   UNL     1      -9.035   3.781   5.763  1.00  0.00    -0.248 NA
ATOM     52  C   UNL     1      -9.068   6.096   5.431  1.00  0.00     0.031 C 
ATOM     53  C   UNL     1     -10.583   1.771   9.438  1.00  0.00     0.029 A 
ATOM     54  C   UNL     1     -10.105   2.410   8.303  1.00  0.00     0.049 A 
ATOM     55  H   UNL     1      -9.235   1.569   6.577  1.00  0.00     0.167 HD
ATOM     56  C   UNL     1      -9.586   4.389   6.883  1.00  0.00     0.074 A 
ATOM     57  C   UNL     1      -9.553   5.819   6.634  1.00  0.00     0.031 C 
ATOM     58  C   UNL     1     -10.083   3.822   8.011  1.00  0.00     0.031 A 
BRANCH  45  59
ATOM     59  C   UNL     1      -9.626  -2.364   8.199  1.00  0.00    -0.014 A 
ATOM     60  C   UNL     1      -8.557  -3.123   8.710  1.00  0.00     0.010 A 
ATOM     61  C   UNL     1     -10.938  -2.853   8.334  1.00  0.00     0.010 A 
ATOM     62  C   UNL     1      -8.792  -4.377   9.284  1.00  0.00     0.020 A 
ATOM     63  C   UNL     1     -11.179  -4.094   8.928  1.00  0.00     0.020 A 
ATOM     64  C   UNL     1     -10.101  -4.861   9.374  1.00  0.00     0.054 A 
BRANCH  64  65
ATOM     65  S   UNL     1     -10.383  -6.508  10.081  1.00  0.00     0.124 S 
ATOM     66  O   UNL     1      -9.994  -7.379   8.975  1.00  0.00    -0.237 OA
ATOM     67  O   UNL     1      -9.488  -6.522  11.236  1.00  0.00    -0.237 OA
ATOM     68  O   UNL     1     -11.808  -6.507  10.402  1.00  0.00    -0.744 OA
ENDBRANCH  64  65
ENDBRANCH  45  59
BRANCH  46  69
ATOM     69  C   UNL     1      -7.899   5.877   2.727  1.00  0.00    -0.014 A 
ATOM     70  C   UNL     1      -6.863   6.777   3.021  1.00  0.00     0.010 A 
ATOM     71  C   UNL     1      -8.683   6.088   1.576  1.00  0.00     0.010 A 
ATOM     72  C   UNL     1      -6.607   7.860   2.172  1.00  0.00     0.020 A 
ATOM     73  C   UNL     1      -8.414   7.152   0.712  1.00  0.00     0.020 A 
ATOM     74  C   UNL     1      -7.378   8.034   1.018  1.00  0.00     0.054 A 
BRANCH  74  75
ATOM     75  S   UNL     1      -6.964   9.381  -0.127  1.00  0.00     0.124 S 
ATOM     76  O   UNL     1      -7.526  10.542   0.554  1.00  0.00    -0.237 OA
ATOM     77  O   UNL     1      -5.505   9.320  -0.175  1.00  0.00    -0.237 OA
ATOM     78  O   UNL     1      -7.635   8.993  -1.366  1.00  0.00    -0.744 OA
ENDBRANCH  74  75
ENDBRANCH  46  69
BRANCH  58  79
ATOM     79  C   UNL     1     -10.625   4.764   9.049  1.00  0.00    -0.014 A 
ATOM     80  C   UNL     1     -11.856   5.417   8.859  1.00  0.00     0.010 A 
ATOM     81  C   UNL     1      -9.895   4.994  10.228  1.00  0.00     0.010 A 
ATOM     82  C   UNL     1     -12.324   6.324   9.811  1.00  0.00     0.020 A 
ATOM     83  C   UNL     1     -10.373   5.883  11.193  1.00  0.00     0.020 A 
ATOM     84  C   UNL     1     -11.574   6.559  10.967  1.00  0.00     0.054 A 
BRANCH  84  85
ATOM     85  S   UNL     1     -12.197   7.741  12.193  1.00  0.00     0.124 S 
ATOM     86  O   UNL     1     -11.836   9.021  11.588  1.00  0.00    -0.237 OA
ATOM     87  O   UNL     1     -13.627   7.445  12.231  1.00  0.00    -0.237 OA
ATOM     88  O   UNL     1     -11.463   7.395  13.408  1.00  0.00    -0.744 OA
ENDBRANCH  84  85
ENDBRANCH  58  79
ENDBRANCH  32  33
ENDBRANCH  25  27
ENDBRANCH  24  25
ENDBRANCH  23  24
ENDBRANCH   1  23
TORSDOF 20
