REMARK SMILES O=C(OCCOC(=O)[C@@H](Cc1ccccc1)N1C(=O)/C(=C/c2ccncc2)SC1=S)c1ccc(-c2c3nc(c(-c4ccc(S(=O)(=O)[O-])cc4)c4ccc([nH]4)c(-c4ccc(S(=O)(=O)[O-])cc4)c4nc(c(-c5ccc(S(=O)(=O)[O-])cc5)c5ccc2[nH]5)C=C4)C=C3)cc1
REMARK SMILES IDX 4 1 3 2 2 3 1 4 31 5 32 6 90 7 33 8 89 9 34 10 35 11 36 12
REMARK SMILES IDX 83 13 37 14 88 15 82 16 84 17 38 18 87 19 81 20 80 21 39 23
REMARK SMILES IDX 69 24 50 25 68 26 51 27 54 28 67 29 85 30 52 31 53 32 66 34
REMARK SMILES IDX 86 35 55 36 40 37 41 38 49 39 42 40 48 41 43 42 44 43 45 44
REMARK SMILES IDX 46 45 47 46 70 47 71 48 79 49 72 50 78 51 73 52 74 53 75 54
REMARK SMILES IDX 76 55 77 56 56 57 57 58 65 59 58 60 64 61 59 62 60 63 61 64
REMARK SMILES IDX 62 65 63 66 5 67 6 68 7 69 8 70 9 71 10 72 11 73 12 74 16 75
REMARK SMILES IDX 13 76 15 77 14 78 17 79 18 80 29 81 19 82 20 83 28 84 30 85
REMARK SMILES IDX 21 86 22 87 23 88 27 89 24 90 26 91 25 92
REMARK H PARENT 84 22 54 33
REMARK Flexibility Score: inf
ROOT
ATOM      1  C   UNL     1       3.934  -1.210  -1.723  1.00  0.00     0.275 C 
ENDROOT
BRANCH   1   2
ATOM      2  O   UNL     1       2.815  -1.506  -0.876  1.00  0.00    -0.458 OA
BRANCH   2   3
ATOM      3  C   UNL     1       2.564  -0.995   0.351  1.00  0.00     0.338 C 
ATOM      4  O   UNL     1       1.430  -1.113   0.812  1.00  0.00    -0.246 OA
BRANCH   3   5
ATOM      5  C   UNL     1       3.543  -0.214   1.173  1.00  0.00     0.060 A 
ATOM      6  C   UNL     1       5.114   0.316   0.599  1.00  0.00     0.016 A 
ATOM      7  C   UNL     1       2.827   0.380   2.703  1.00  0.00     0.016 A 
ATOM      8  C   UNL     1       6.005   1.538   1.539  1.00  0.00     0.010 A 
ATOM      9  C   UNL     1       3.566   1.621   3.709  1.00  0.00     0.010 A 
ATOM     10  C   UNL     1       5.190   2.275   3.246  1.00  0.00    -0.014 A 
BRANCH  10  11
ATOM     11  C   UNL     1       5.569   3.210   4.455  1.00  0.00     0.031 A 
ATOM     12  C   UNL     1       6.047   2.507   5.695  1.00  0.00     0.074 A 
ATOM     13  C   UNL     1       5.536   4.565   4.434  1.00  0.00     0.049 A 
ATOM     14  N   UNL     1       6.947   2.888   6.554  1.00  0.00    -0.248 NA
ATOM     15  C   UNL     1       5.459   1.187   5.996  1.00  0.00     0.031 C 
ATOM     16  C   UNL     1       4.833   5.408   3.471  1.00  0.00     0.029 A 
ATOM     17  N   UNL     1       6.353   5.461   5.090  1.00  0.00    -0.354 N 
ATOM     18  C   UNL     1       7.070   1.830   7.444  1.00  0.00     0.074 A 
ATOM     19  C   UNL     1       6.147   0.802   7.053  1.00  0.00     0.031 C 
ATOM     20  C   UNL     1       5.476   6.581   3.352  1.00  0.00     0.029 A 
ATOM     21  C   UNL     1       6.512   6.641   4.372  1.00  0.00     0.049 A 
ATOM     22  H   UNL     1       6.774   5.286   5.962  1.00  0.00     0.167 HD
ATOM     23  C   UNL     1       7.881   1.738   8.515  1.00  0.00     0.031 A 
ATOM     24  C   UNL     1       7.412   7.637   4.524  1.00  0.00     0.031 A 
ATOM     25  C   UNL     1       8.657   2.850   8.966  1.00  0.00     0.049 A 
ATOM     26  C   UNL     1       8.291   7.540   5.736  1.00  0.00     0.074 A 
ATOM     27  C   UNL     1       9.443   2.960  10.092  1.00  0.00     0.029 A 
ATOM     28  N   UNL     1       8.681   4.080   8.320  1.00  0.00    -0.354 N 
ATOM     29  N   UNL     1       8.464   6.517   6.540  1.00  0.00    -0.248 NA
ATOM     30  C   UNL     1       9.025   8.751   6.114  1.00  0.00     0.031 C 
ATOM     31  C   UNL     1       9.867   4.289  10.176  1.00  0.00     0.029 A 
ATOM     32  C   UNL     1       9.442   4.970   9.043  1.00  0.00     0.049 A 
ATOM     33  H   UNL     1       8.224   4.284   7.472  1.00  0.00     0.167 HD
ATOM     34  C   UNL     1       9.305   6.968   7.543  1.00  0.00     0.074 A 
ATOM     35  C   UNL     1       9.652   8.338   7.206  1.00  0.00     0.031 C 
ATOM     36  C   UNL     1       9.736   6.325   8.655  1.00  0.00     0.031 A 
BRANCH  23  37
ATOM     37  C   UNL     1       7.822   0.461   9.298  1.00  0.00    -0.014 A 
ATOM     38  C   UNL     1       8.300  -0.752   8.764  1.00  0.00     0.010 A 
ATOM     39  C   UNL     1       7.205   0.462  10.559  1.00  0.00     0.010 A 
ATOM     40  C   UNL     1       8.141  -1.945   9.473  1.00  0.00     0.020 A 
ATOM     41  C   UNL     1       7.073  -0.722  11.284  1.00  0.00     0.020 A 
ATOM     42  C   UNL     1       7.537  -1.919  10.734  1.00  0.00     0.054 A 
BRANCH  42  43
ATOM     43  S   UNL     1       7.402  -3.469  11.663  1.00  0.00     0.124 S 
ATOM     44  O   UNL     1       6.427  -4.214  10.870  1.00  0.00    -0.237 OA
ATOM     45  O   UNL     1       8.769  -3.980  11.620  1.00  0.00    -0.237 OA
ATOM     46  O   UNL     1       6.938  -3.044  12.981  1.00  0.00    -0.744 OA
ENDBRANCH  42  43
ENDBRANCH  23  37
BRANCH  24  47
ATOM     47  C   UNL     1       7.452   8.846   3.643  1.00  0.00    -0.014 A 
ATOM     48  C   UNL     1       8.614   9.238   2.944  1.00  0.00     0.010 A 
ATOM     49  C   UNL     1       6.327   9.685   3.579  1.00  0.00     0.010 A 
ATOM     50  C   UNL     1       8.641  10.430   2.200  1.00  0.00     0.020 A 
ATOM     51  C   UNL     1       6.347  10.865   2.833  1.00  0.00     0.020 A 
ATOM     52  C   UNL     1       7.500  11.232   2.143  1.00  0.00     0.054 A 
BRANCH  52  53
ATOM     53  S   UNL     1       7.531  12.768   1.171  1.00  0.00     0.124 S 
ATOM     54  O   UNL     1       8.548  13.550   1.865  1.00  0.00    -0.237 OA
ATOM     55  O   UNL     1       7.900  12.287  -0.157  1.00  0.00    -0.237 OA
ATOM     56  O   UNL     1       6.168  13.277   1.304  1.00  0.00    -0.744 OA
ENDBRANCH  52  53
ENDBRANCH  24  47
BRANCH  36  57
ATOM     57  C   UNL     1      10.683   7.081   9.528  1.00  0.00    -0.014 A 
ATOM     58  C   UNL     1      10.270   8.187  10.288  1.00  0.00     0.010 A 
ATOM     59  C   UNL     1      12.012   6.631   9.601  1.00  0.00     0.010 A 
ATOM     60  C   UNL     1      11.198   8.869  11.071  1.00  0.00     0.020 A 
ATOM     61  C   UNL     1      12.926   7.278  10.421  1.00  0.00     0.020 A 
ATOM     62  C   UNL     1      12.518   8.407  11.132  1.00  0.00     0.054 A 
BRANCH  62  63
ATOM     63  S   UNL     1      13.697   9.292  12.176  1.00  0.00     0.124 S 
ATOM     64  O   UNL     1      13.875  10.540  11.438  1.00  0.00    -0.237 OA
ATOM     65  O   UNL     1      12.977   9.403  13.441  1.00  0.00    -0.237 OA
ATOM     66  O   UNL     1      14.864   8.412  12.202  1.00  0.00    -0.744 OA
ENDBRANCH  62  63
ENDBRANCH  36  57
ENDBRANCH  10  11
ENDBRANCH   3   5
ENDBRANCH   2   3
ENDBRANCH   1   2
BRANCH   1  67
ATOM     67  C   UNL     1       3.853   0.199  -2.329  1.00  0.00     0.274 C 
BRANCH  67  68
ATOM     68  O   UNL     1       3.548   1.177  -1.318  1.00  0.00    -0.461 OA
BRANCH  68  69
ATOM     69  C   UNL     1       2.446   1.956  -1.409  1.00  0.00     0.329 C 
ATOM     70  O   UNL     1       1.660   1.941  -2.347  1.00  0.00    -0.250 OA
BRANCH  69  71
ATOM     71  C   UNL     1       2.386   2.960  -0.246  1.00  0.00     0.206 C 
BRANCH  71  72
ATOM     72  C   UNL     1       2.697   2.404   1.171  1.00  0.00     0.073 C 
BRANCH  72  73
ATOM     73  C   UNL     1       4.165   1.974   1.647  1.00  0.00    -0.045 A 
ATOM     74  C   UNL     1       5.019   0.461   2.701  1.00  0.00     0.004 A 
ATOM     75  C   UNL     1       5.202   3.446   1.413  1.00  0.00     0.004 A 
ATOM     76  C   UNL     1       6.706   0.651   3.308  1.00  0.00     0.000 A 
ATOM     77  C   UNL     1       6.834   3.493   2.088  1.00  0.00     0.000 A 
ATOM     78  C   UNL     1       7.545   2.156   2.999  1.00  0.00     0.000 A 
ENDBRANCH  72  73
ENDBRANCH  71  72
BRANCH  71  79
ATOM     79  N   UNL     1       2.819   4.345  -0.488  1.00  0.00    -0.278 N 
ATOM     80  C   UNL     1       2.205   5.332   0.285  1.00  0.00     0.267 C 
ATOM     81  C   UNL     1       3.905   4.747  -1.244  1.00  0.00     0.149 C 
ATOM     82  O   UNL     1       1.269   5.169   1.056  1.00  0.00    -0.268 OA
ATOM     83  C   UNL     1       2.857   6.642   0.066  1.00  0.00     0.081 C 
ATOM     84  S   UNL     1       4.204   6.452  -0.983  1.00  0.00    -0.054 SA
ATOM     85  S   UNL     1       4.892   3.889  -2.275  1.00  0.00    -0.052 S 
ATOM     86  C   UNL     1       2.388   7.783   0.592  1.00  0.00     0.029 C 
BRANCH  86  87
ATOM     87  C   UNL     1       2.850   9.117   0.184  1.00  0.00    -0.021 A 
ATOM     88  C   UNL     1       2.950   9.416  -1.179  1.00  0.00     0.028 A 
ATOM     89  C   UNL     1       3.146  10.113   1.109  1.00  0.00     0.028 A 
ATOM     90  C   UNL     1       3.399  10.660  -1.565  1.00  0.00     0.111 A 
ATOM     91  C   UNL     1       3.544  11.350   0.619  1.00  0.00     0.111 A 
ATOM     92  N   UNL     1       3.655  11.643  -0.695  1.00  0.00    -0.265 NA
ENDBRANCH  86  87
ENDBRANCH  71  79
ENDBRANCH  69  71
ENDBRANCH  68  69
ENDBRANCH  67  68
ENDBRANCH   1  67
TORSDOF 18
