REMARK SMILES CC(C)C[C@H](NC(=O)[C@@H](NC(=O)[C@H](C)NC(=O)CNC(=O)OCc1ccccc1)C(C)C)C(=O)OCCOC(=O)c1ccc(-c2c3nc(c(-c4ccc(S(=O)(=O)[O-])cc4)c4ccc([nH]4)c(-c4ccc(S(=O)(=O)[O-])cc4)c4nc(c(-c5ccc(S(=O)(=O)[O-])cc5)c5ccc2[nH]5)C=C4)C=C3)cc1
REMARK SMILES IDX 5 1 4 2 2 3 1 4 3 5 33 6 34 7 35 8 36 9 37 10 38 11 39 12
REMARK SMILES IDX 40 13 41 14 42 15 100 16 43 17 99 18 44 19 45 20 46 21 93 22
REMARK SMILES IDX 47 23 98 24 92 25 94 26 48 27 97 28 91 29 90 30 49 32 79 33
REMARK SMILES IDX 60 34 78 35 61 36 64 37 77 38 95 39 62 40 63 41 76 43 96 44
REMARK SMILES IDX 65 45 50 46 51 47 59 48 52 49 58 50 53 51 54 52 55 53 56 54
REMARK SMILES IDX 57 55 80 56 81 57 89 58 82 59 88 60 83 61 84 62 85 63 86 64
REMARK SMILES IDX 87 65 66 66 67 67 75 68 68 69 74 70 69 71 70 72 71 73 72 74
REMARK SMILES IDX 73 75 6 76 7 77 8 79 9 80 10 81 11 82 12 84 13 85 14 86
REMARK SMILES IDX 15 87 16 88 17 90 18 91 19 92 20 93 21 95 22 96 23 97 24 98
REMARK SMILES IDX 25 99 29 100 26 101 28 102 27 103 30 104 31 105 32 106
REMARK H PARENT 94 31 64 42 6 78 10 83 15 89 19 94
REMARK Flexibility Score: inf
ROOT
ATOM      1  C   UNL     1      -4.063   2.620  -0.224  1.00  0.00     0.192 C 
ENDROOT
BRANCH   1   2
ATOM      2  C   UNL     1      -4.602   3.969  -0.792  1.00  0.00     0.040 C 
BRANCH   2   3
ATOM      3  C   UNL     1      -3.746   4.547  -1.922  1.00  0.00    -0.015 C 
ATOM      4  C   UNL     1      -3.903   3.590  -3.050  1.00  0.00     0.007 C 
ATOM      5  C   UNL     1      -4.101   5.926  -2.469  1.00  0.00     0.007 C 
ENDBRANCH   2   3
ENDBRANCH   1   2
BRANCH   1   6
ATOM      6  C   UNL     1      -4.552   1.224  -0.711  1.00  0.00     0.328 C 
ATOM      7  O   UNL     1      -5.637   0.985  -1.218  1.00  0.00    -0.250 OA
BRANCH   6   8
ATOM      8  O   UNL     1      -3.633   0.276  -0.357  1.00  0.00    -0.461 OA
BRANCH   8   9
ATOM      9  C   UNL     1      -3.900  -1.139  -0.457  1.00  0.00     0.274 C 
BRANCH   9  10
ATOM     10  C   UNL     1      -3.350  -1.820   0.802  1.00  0.00     0.275 C 
BRANCH  10  11
ATOM     11  O   UNL     1      -4.332  -1.749   1.836  1.00  0.00    -0.458 OA
BRANCH  11  12
ATOM     12  C   UNL     1      -4.508  -0.504   2.343  1.00  0.00     0.338 C 
ATOM     13  O   UNL     1      -3.725   0.418   2.363  1.00  0.00    -0.246 OA
BRANCH  12  14
ATOM     14  C   UNL     1      -5.950  -0.370   2.583  1.00  0.00     0.060 A 
ATOM     15  C   UNL     1      -6.582   0.796   2.134  1.00  0.00     0.016 A 
ATOM     16  C   UNL     1      -6.661  -1.385   3.219  1.00  0.00     0.016 A 
ATOM     17  C   UNL     1      -7.923   1.002   2.392  1.00  0.00     0.010 A 
ATOM     18  C   UNL     1      -8.003  -1.182   3.485  1.00  0.00     0.010 A 
ATOM     19  C   UNL     1      -8.605   0.037   3.127  1.00  0.00    -0.014 A 
BRANCH  19  20
ATOM     20  C   UNL     1      -9.856   0.394   3.798  1.00  0.00     0.031 A 
ATOM     21  C   UNL     1      -9.763   0.710   5.258  1.00  0.00     0.074 A 
ATOM     22  C   UNL     1     -11.012   0.355   3.126  1.00  0.00     0.049 A 
ATOM     23  N   UNL     1     -10.706   0.755   6.154  1.00  0.00    -0.248 NA
ATOM     24  C   UNL     1      -8.410   0.974   5.786  1.00  0.00     0.031 C 
ATOM     25  C   UNL     1     -11.152   0.141   1.686  1.00  0.00     0.029 A 
ATOM     26  N   UNL     1     -12.292   0.448   3.590  1.00  0.00    -0.354 N 
ATOM     27  C   UNL     1     -10.057   0.997   7.358  1.00  0.00     0.074 A 
ATOM     28  C   UNL     1      -8.642   1.077   7.084  1.00  0.00     0.031 C 
ATOM     29  C   UNL     1     -12.460   0.071   1.388  1.00  0.00     0.029 A 
ATOM     30  C   UNL     1     -13.227   0.169   2.625  1.00  0.00     0.049 A 
ATOM     31  H   UNL     1     -12.520   0.690   4.516  1.00  0.00     0.167 HD
ATOM     32  C   UNL     1     -10.610   1.121   8.585  1.00  0.00     0.031 A 
ATOM     33  C   UNL     1     -14.547  -0.046   2.759  1.00  0.00     0.031 A 
ATOM     34  C   UNL     1     -12.025   1.010   8.803  1.00  0.00     0.049 A 
ATOM     35  C   UNL     1     -15.138   0.030   4.141  1.00  0.00     0.074 A 
ATOM     36  C   UNL     1     -12.730   1.124   9.985  1.00  0.00     0.029 A 
ATOM     37  N   UNL     1     -12.952   0.750   7.800  1.00  0.00    -0.354 N 
ATOM     38  N   UNL     1     -14.531   0.246   5.287  1.00  0.00    -0.248 NA
ATOM     39  C   UNL     1     -16.588  -0.158   4.249  1.00  0.00     0.031 C 
ATOM     40  C   UNL     1     -14.077   0.874   9.704  1.00  0.00     0.029 A 
ATOM     41  C   UNL     1     -14.223   0.682   8.336  1.00  0.00     0.049 A 
ATOM     42  H   UNL     1     -12.735   0.633   6.847  1.00  0.00     0.167 HD
ATOM     43  C   UNL     1     -15.532   0.262   6.250  1.00  0.00     0.074 A 
ATOM     44  C   UNL     1     -16.782   0.033   5.548  1.00  0.00     0.031 C 
ATOM     45  C   UNL     1     -15.438   0.459   7.590  1.00  0.00     0.031 A 
BRANCH  32  46
ATOM     46  C   UNL     1      -9.682   1.321   9.752  1.00  0.00    -0.014 A 
ATOM     47  C   UNL     1      -8.918   2.495   9.896  1.00  0.00     0.010 A 
ATOM     48  C   UNL     1      -9.561   0.308  10.721  1.00  0.00     0.010 A 
ATOM     49  C   UNL     1      -8.020   2.631  10.958  1.00  0.00     0.020 A 
ATOM     50  C   UNL     1      -8.688   0.454  11.803  1.00  0.00     0.020 A 
ATOM     51  C   UNL     1      -7.909   1.608  11.905  1.00  0.00     0.054 A 
BRANCH  51  52
ATOM     52  S   UNL     1      -6.746   1.818  13.280  1.00  0.00     0.124 S 
ATOM     53  O   UNL     1      -5.456   1.691  12.605  1.00  0.00    -0.237 OA
ATOM     54  O   UNL     1      -7.069   3.155  13.769  1.00  0.00    -0.237 OA
ATOM     55  O   UNL     1      -7.082   0.726  14.190  1.00  0.00    -0.744 OA
ENDBRANCH  51  52
ENDBRANCH  32  46
BRANCH  33  56
ATOM     56  C   UNL     1     -15.364  -0.364   1.560  1.00  0.00    -0.014 A 
ATOM     57  C   UNL     1     -16.272   0.580   1.056  1.00  0.00     0.010 A 
ATOM     58  C   UNL     1     -15.193  -1.584   0.878  1.00  0.00     0.010 A 
ATOM     59  C   UNL     1     -17.003   0.308  -0.103  1.00  0.00     0.020 A 
ATOM     60  C   UNL     1     -15.901  -1.847  -0.298  1.00  0.00     0.020 A 
ATOM     61  C   UNL     1     -16.808  -0.901  -0.777  1.00  0.00     0.054 A 
BRANCH  61  62
ATOM     62  S   UNL     1     -17.727  -1.198  -2.312  1.00  0.00     0.124 S 
ATOM     63  O   UNL     1     -19.091  -1.368  -1.822  1.00  0.00    -0.237 OA
ATOM     64  O   UNL     1     -17.475   0.026  -3.069  1.00  0.00    -0.237 OA
ATOM     65  O   UNL     1     -17.104  -2.400  -2.860  1.00  0.00    -0.744 OA
ENDBRANCH  61  62
ENDBRANCH  33  56
BRANCH  45  66
ATOM     66  C   UNL     1     -16.723   0.502   8.369  1.00  0.00    -0.014 A 
ATOM     67  C   UNL     1     -17.472  -0.660   8.619  1.00  0.00     0.010 A 
ATOM     68  C   UNL     1     -17.137   1.726   8.928  1.00  0.00     0.010 A 
ATOM     69  C   UNL     1     -18.629  -0.593   9.398  1.00  0.00     0.020 A 
ATOM     70  C   UNL     1     -18.272   1.790   9.735  1.00  0.00     0.020 A 
ATOM     71  C   UNL     1     -19.018   0.631   9.955  1.00  0.00     0.054 A 
BRANCH  71  72
ATOM     72  S   UNL     1     -20.487   0.677  11.014  1.00  0.00     0.124 S 
ATOM     73  O   UNL     1     -21.565   0.498  10.045  1.00  0.00    -0.237 OA
ATOM     74  O   UNL     1     -20.262  -0.446  11.920  1.00  0.00    -0.237 OA
ATOM     75  O   UNL     1     -20.424   1.997  11.638  1.00  0.00    -0.744 OA
ENDBRANCH  71  72
ENDBRANCH  45  66
ENDBRANCH  19  20
ENDBRANCH  12  14
ENDBRANCH  11  12
ENDBRANCH  10  11
ENDBRANCH   9  10
ENDBRANCH   8   9
ENDBRANCH   6   8
ENDBRANCH   1   6
BRANCH   1  76
ATOM     76  N   UNL     1      -2.629   2.628   0.046  1.00  0.00    -0.341 N 
ATOM     77  C   UNL     1      -1.518   2.304  -0.647  1.00  0.00     0.243 C 
ATOM     78  H   UNL     1      -2.423   2.947   0.954  1.00  0.00     0.164 HD
ATOM     79  O   UNL     1      -0.471   2.604  -0.045  1.00  0.00    -0.273 OA
BRANCH  77  80
ATOM     80  C   UNL     1      -1.377   1.678  -2.112  1.00  0.00     0.174 C 
BRANCH  80  81
ATOM     81  N   UNL     1      -2.162   0.512  -2.667  1.00  0.00    -0.342 N 
ATOM     82  C   UNL     1      -3.078   0.047  -3.551  1.00  0.00     0.242 C 
ATOM     83  H   UNL     1      -1.875  -0.272  -2.146  1.00  0.00     0.164 HD
ATOM     84  O   UNL     1      -3.001  -1.196  -3.635  1.00  0.00    -0.273 OA
BRANCH  82  85
ATOM     85  C   UNL     1      -4.218   0.768  -4.376  1.00  0.00     0.168 C 
ATOM     86  C   UNL     1      -5.009  -0.328  -5.122  1.00  0.00     0.041 C 
BRANCH  85  87
ATOM     87  N   UNL     1      -3.761   1.750  -5.366  1.00  0.00    -0.343 N 
ATOM     88  C   UNL     1      -4.376   2.800  -5.993  1.00  0.00     0.240 C 
ATOM     89  H   UNL     1      -2.821   1.629  -5.634  1.00  0.00     0.164 HD
ATOM     90  O   UNL     1      -3.656   3.448  -6.767  1.00  0.00    -0.273 OA
BRANCH  88  91
ATOM     91  C   UNL     1      -5.797   3.340  -5.666  1.00  0.00     0.219 C 
BRANCH  91  92
ATOM     92  N   UNL     1      -6.840   2.350  -5.590  1.00  0.00    -0.312 N 
ATOM     93  C   UNL     1      -7.602   1.956  -4.534  1.00  0.00     0.407 C 
ATOM     94  H   UNL     1      -7.033   1.885  -6.436  1.00  0.00     0.167 HD
ATOM     95  O   UNL     1      -8.356   1.000  -4.671  1.00  0.00    -0.225 OA
BRANCH  93  96
ATOM     96  O   UNL     1      -7.447   2.684  -3.404  1.00  0.00    -0.445 OA
BRANCH  96  97
ATOM     97  C   UNL     1      -8.270   2.260  -2.294  1.00  0.00     0.270 C 
BRANCH  97  98
ATOM     98  C   UNL     1      -9.554   3.053  -2.223  1.00  0.00    -0.011 A 
ATOM     99  C   UNL     1      -9.850   3.852  -1.108  1.00  0.00     0.007 A 
ATOM    100  C   UNL     1     -10.497   2.978  -3.259  1.00  0.00     0.007 A 
ATOM    101  C   UNL     1     -11.038   4.587  -1.057  1.00  0.00     0.000 A 
ATOM    102  C   UNL     1     -11.675   3.722  -3.214  1.00  0.00     0.000 A 
ATOM    103  C   UNL     1     -11.942   4.533  -2.116  1.00  0.00     0.000 A 
ENDBRANCH  97  98
ENDBRANCH  96  97
ENDBRANCH  93  96
ENDBRANCH  91  92
ENDBRANCH  88  91
ENDBRANCH  85  87
ENDBRANCH  82  85
ENDBRANCH  80  81
BRANCH  80 104
ATOM    104  C   UNL     1      -0.810   2.628  -3.206  1.00  0.00     0.015 C 
ATOM    105  C   UNL     1       0.102   3.741  -2.673  1.00  0.00     0.010 C 
ATOM    106  C   UNL     1      -0.045   1.840  -4.277  1.00  0.00     0.010 C 
ENDBRANCH  80 104
ENDBRANCH  77  80
ENDBRANCH   1  76
TORSDOF 27
