REMARK SMILES CCOc1cccc(OCC)c1-c1ccc([C@@H](C)C(=O)OCCOC(=O)c2ccc(-c3c4nc(c(-c5ccc(S(=O)(=O)[O-])cc5)c5ccc([nH]5)c(-c5ccc(S(=O)(=O)[O-])cc5)c5nc(c(-c6ccc(S(=O)(=O)[O-])cc6)c6ccc3[nH]6)C=C5)C=C4)cc2)cc1F
REMARK SMILES IDX 22 1 21 2 19 3 20 4 17 5 18 6 16 7 13 8 14 9 88 10 15 11
REMARK SMILES IDX 87 12 89 13 12 14 4 15 5 16 6 17 8 18 7 19 3 20 2 21 1 22
REMARK SMILES IDX 9 23 10 24 11 25 23 26 24 27 25 28 26 29 27 30 28 31 86 32
REMARK SMILES IDX 29 33 85 34 30 35 31 36 32 37 79 38 33 39 84 40 78 41 80 42
REMARK SMILES IDX 34 43 83 44 77 45 76 46 35 48 65 49 46 50 64 51 47 52 50 53
REMARK SMILES IDX 63 54 81 55 48 56 49 57 62 59 82 60 51 61 36 62 37 63 45 64
REMARK SMILES IDX 38 65 44 66 39 67 40 68 41 69 42 70 43 71 66 72 67 73 75 74
REMARK SMILES IDX 68 75 74 76 69 77 70 78 71 79 72 80 73 81 52 82 53 83 61 84
REMARK SMILES IDX 54 85 60 86 55 87 56 88 57 89 58 90 59 91
REMARK H PARENT 80 47 50 58
REMARK Flexibility Score: inf
ROOT
ATOM      1  C   UNL     1       0.846  -4.140   3.749  1.00  0.00     0.274 C 
ENDROOT
BRANCH   1   2
ATOM      2  O   UNL     1       1.494  -3.928   2.479  1.00  0.00    -0.462 OA
BRANCH   2   3
ATOM      3  C   UNL     1       1.049  -4.656   1.423  1.00  0.00     0.313 C 
ATOM      4  O   UNL     1       0.221  -5.557   1.519  1.00  0.00    -0.252 OA
BRANCH   3   5
ATOM      5  C   UNL     1       1.718  -4.311   0.094  1.00  0.00     0.126 C 
ATOM      6  C   UNL     1       2.944  -5.194  -0.120  1.00  0.00     0.025 C 
BRANCH   5   7
ATOM      7  C   UNL     1       2.040  -2.849  -0.194  1.00  0.00    -0.031 A 
ATOM      8  C   UNL     1       2.779  -0.183  -0.882  1.00  0.00     0.025 A 
ATOM      9  C   UNL     1       3.056  -0.712   0.386  1.00  0.00     0.012 A 
ATOM     10  C   UNL     1       2.059  -0.988  -1.772  1.00  0.00     0.131 A 
ATOM     11  C   UNL     1       2.741  -2.036   0.704  1.00  0.00     0.005 A 
ATOM     12  C   UNL     1       1.686  -2.293  -1.436  1.00  0.00     0.044 A 
ATOM     13  F   UNL     1       1.748  -0.534  -2.996  1.00  0.00    -0.206 F 
BRANCH   8  14
ATOM     14  C   UNL     1       3.238   1.172  -1.228  1.00  0.00     0.069 A 
ATOM     15  C   UNL     1       2.278   2.219  -1.220  1.00  0.00     0.130 A 
ATOM     16  C   UNL     1       2.620   3.555  -1.442  1.00  0.00     0.047 A 
ATOM     17  C   UNL     1       3.945   3.890  -1.670  1.00  0.00     0.008 A 
ATOM     18  C   UNL     1       4.579   1.524  -1.503  1.00  0.00     0.130 A 
ATOM     19  C   UNL     1       4.904   2.881  -1.711  1.00  0.00     0.047 A 
BRANCH  15  20
ATOM     20  O   UNL     1       0.948   1.898  -1.097  1.00  0.00    -0.493 OA
BRANCH  20  21
ATOM     21  C   UNL     1       0.360   2.360   0.121  1.00  0.00     0.226 C 
ATOM     22  C   UNL     1      -0.275   1.166   0.805  1.00  0.00     0.049 C 
ENDBRANCH  20  21
ENDBRANCH  15  20
BRANCH  18  23
ATOM     23  O   UNL     1       5.708   0.761  -1.635  1.00  0.00    -0.493 OA
BRANCH  23  24
ATOM     24  C   UNL     1       5.759  -0.642  -1.433  1.00  0.00     0.226 C 
ATOM     25  C   UNL     1       6.268  -0.933  -0.031  1.00  0.00     0.049 C 
ENDBRANCH  23  24
ENDBRANCH  18  23
ENDBRANCH   8  14
ENDBRANCH   5   7
ENDBRANCH   3   5
ENDBRANCH   2   3
ENDBRANCH   1   2
BRANCH   1  26
ATOM     26  C   UNL     1      -0.193  -3.051   4.042  1.00  0.00     0.275 C 
BRANCH  26  27
ATOM     27  O   UNL     1      -1.359  -3.189   3.209  1.00  0.00    -0.458 OA
BRANCH  27  28
ATOM     28  C   UNL     1      -1.298  -2.510   2.043  1.00  0.00     0.338 C 
ATOM     29  O   UNL     1      -0.391  -1.772   1.679  1.00  0.00    -0.246 OA
BRANCH  28  30
ATOM     30  C   UNL     1      -2.411  -2.880   1.166  1.00  0.00     0.060 A 
ATOM     31  C   UNL     1      -2.105  -3.481  -0.058  1.00  0.00     0.016 A 
ATOM     32  C   UNL     1      -3.732  -2.577   1.500  1.00  0.00     0.016 A 
ATOM     33  C   UNL     1      -3.118  -3.798  -0.953  1.00  0.00     0.010 A 
ATOM     34  C   UNL     1      -4.751  -2.894   0.597  1.00  0.00     0.010 A 
ATOM     35  C   UNL     1      -4.449  -3.506  -0.632  1.00  0.00    -0.014 A 
BRANCH  35  36
ATOM     36  C   UNL     1      -5.519  -3.831  -1.601  1.00  0.00     0.031 A 
ATOM     37  C   UNL     1      -6.160  -2.739  -2.405  1.00  0.00     0.074 A 
ATOM     38  C   UNL     1      -5.891  -5.114  -1.767  1.00  0.00     0.049 A 
ATOM     39  N   UNL     1      -7.163  -2.812  -3.239  1.00  0.00    -0.248 NA
ATOM     40  C   UNL     1      -5.596  -1.388  -2.252  1.00  0.00     0.031 C 
ATOM     41  C   UNL     1      -5.298  -6.261  -1.077  1.00  0.00     0.029 A 
ATOM     42  N   UNL     1      -6.858  -5.667  -2.567  1.00  0.00    -0.354 N 
ATOM     43  C   UNL     1      -7.366  -1.517  -3.700  1.00  0.00     0.074 A 
ATOM     44  C   UNL     1      -6.389  -0.675  -3.041  1.00  0.00     0.031 C 
ATOM     45  C   UNL     1      -5.916  -7.382  -1.482  1.00  0.00     0.029 A 
ATOM     46  C   UNL     1      -6.976  -7.028  -2.420  1.00  0.00     0.049 A 
ATOM     47  H   UNL     1      -7.413  -5.140  -3.186  1.00  0.00     0.167 HD
ATOM     48  C   UNL     1      -8.284  -1.073  -4.592  1.00  0.00     0.031 A 
ATOM     49  C   UNL     1      -7.862  -7.889  -2.957  1.00  0.00     0.031 A 
ATOM     50  C   UNL     1      -9.257  -1.919  -5.234  1.00  0.00     0.049 A 
ATOM     51  C   UNL     1      -8.914  -7.362  -3.893  1.00  0.00     0.074 A 
ATOM     52  C   UNL     1     -10.242  -1.566  -6.139  1.00  0.00     0.029 A 
ATOM     53  N   UNL     1      -9.364  -3.288  -5.038  1.00  0.00    -0.354 N 
ATOM     54  N   UNL     1      -9.108  -6.131  -4.303  1.00  0.00    -0.248 NA
ATOM     55  C   UNL     1      -9.866  -8.338  -4.438  1.00  0.00     0.031 C 
ATOM     56  C   UNL     1     -10.972  -2.716  -6.460  1.00  0.00     0.029 A 
ATOM     57  C   UNL     1     -10.409  -3.793  -5.793  1.00  0.00     0.049 A 
ATOM     58  H   UNL     1      -8.783  -3.822  -4.450  1.00  0.00     0.167 HD
ATOM     59  C   UNL     1     -10.195  -6.186  -5.166  1.00  0.00     0.074 A 
ATOM     60  C   UNL     1     -10.605  -7.575  -5.233  1.00  0.00     0.031 C 
ATOM     61  C   UNL     1     -10.802  -5.179  -5.842  1.00  0.00     0.031 A 
BRANCH  48  62
ATOM     62  C   UNL     1      -8.304   0.402  -4.890  1.00  0.00    -0.014 A 
ATOM     63  C   UNL     1      -7.303   1.001  -5.676  1.00  0.00     0.010 A 
ATOM     64  C   UNL     1      -9.354   1.197  -4.397  1.00  0.00     0.010 A 
ATOM     65  C   UNL     1      -7.332   2.375  -5.931  1.00  0.00     0.020 A 
ATOM     66  C   UNL     1      -9.399   2.567  -4.668  1.00  0.00     0.020 A 
ATOM     67  C   UNL     1      -8.377   3.151  -5.419  1.00  0.00     0.054 A 
BRANCH  67  68
ATOM     68  S   UNL     1      -8.399   4.931  -5.771  1.00  0.00     0.124 S 
ATOM     69  O   UNL     1      -7.357   5.428  -4.876  1.00  0.00    -0.237 OA
ATOM     70  O   UNL     1      -8.079   4.983  -7.196  1.00  0.00    -0.237 OA
ATOM     71  O   UNL     1      -9.760   5.336  -5.428  1.00  0.00    -0.744 OA
ENDBRANCH  67  68
ENDBRANCH  48  62
BRANCH  49  72
ATOM     72  C   UNL     1      -7.814  -9.328  -2.584  1.00  0.00    -0.014 A 
ATOM     73  C   UNL     1      -7.402 -10.300  -3.512  1.00  0.00     0.010 A 
ATOM     74  C   UNL     1      -8.166  -9.731  -1.282  1.00  0.00     0.010 A 
ATOM     75  C   UNL     1      -7.357 -11.650  -3.148  1.00  0.00     0.020 A 
ATOM     76  C   UNL     1      -8.097 -11.075  -0.907  1.00  0.00     0.020 A 
ATOM     77  C   UNL     1      -7.703 -12.028  -1.848  1.00  0.00     0.054 A 
BRANCH  77  78
ATOM     78  S   UNL     1      -7.585 -13.777  -1.378  1.00  0.00     0.124 S 
ATOM     79  O   UNL     1      -8.782 -14.338  -1.996  1.00  0.00    -0.237 OA
ATOM     80  O   UNL     1      -6.315 -14.183  -1.976  1.00  0.00    -0.237 OA
ATOM     81  O   UNL     1      -7.592 -13.739   0.083  1.00  0.00    -0.744 OA
ENDBRANCH  77  78
ENDBRANCH  49  72
BRANCH  61  82
ATOM     82  C   UNL     1     -11.956  -5.548  -6.733  1.00  0.00    -0.014 A 
ATOM     83  C   UNL     1     -13.214  -5.871  -6.195  1.00  0.00     0.010 A 
ATOM     84  C   UNL     1     -11.790  -5.522  -8.130  1.00  0.00     0.010 A 
ATOM     85  C   UNL     1     -14.281  -6.187  -7.039  1.00  0.00     0.020 A 
ATOM     86  C   UNL     1     -12.861  -5.816  -8.977  1.00  0.00     0.020 A 
ATOM     87  C   UNL     1     -14.097  -6.159  -8.425  1.00  0.00     0.054 A 
BRANCH  87  88
ATOM     88  S   UNL     1     -15.508  -6.529  -9.503  1.00  0.00     0.124 S 
ATOM     89  O   UNL     1     -15.596  -7.983  -9.400  1.00  0.00    -0.237 OA
ATOM     90  O   UNL     1     -16.598  -5.787  -8.874  1.00  0.00    -0.237 OA
ATOM     91  O   UNL     1     -15.089  -6.021 -10.808  1.00  0.00    -0.744 OA
ENDBRANCH  87  88
ENDBRANCH  61  82
ENDBRANCH  35  36
ENDBRANCH  28  30
ENDBRANCH  27  28
ENDBRANCH  26  27
ENDBRANCH   1  26
TORSDOF 20
