REMARK SMILES Cc1ccc(C(=O)N2CCC3(CCC(=O)N(CC(=O)OCCOC(=O)c4ccc(-c5c6nc(c(-c7ccc(S(=O)(=O)[O-])cc7)c7ccc([nH]7)c(-c7ccc(S(=O)(=O)[O-])cc7)c7nc(c(-c8ccc(S(=O)(=O)[O-])cc8)c8ccc5[nH]8)C=C7)C=C6)cc4)C3)CC2)cc1O
REMARK SMILES IDX 21 1 20 2 18 3 19 4 17 5 16 6 6 7 7 8 8 9 9 10 88 11 10 12
REMARK SMILES IDX 87 13 11 14 12 15 86 16 13 17 14 18 15 19 5 20 1 21 2 22
REMARK SMILES IDX 3 23 90 24 4 25 89 26 91 27 22 29 23 30 24 31 25 32 26 33
REMARK SMILES IDX 27 34 85 35 28 36 84 37 29 38 30 39 31 40 78 41 32 42 83 43
REMARK SMILES IDX 77 44 79 45 33 46 82 47 76 48 75 49 34 51 64 52 45 53 63 54
REMARK SMILES IDX 46 55 49 56 62 57 80 58 47 59 48 60 61 62 81 63 50 64 35 65
REMARK SMILES IDX 36 66 44 67 37 68 43 69 38 70 39 71 40 72 41 73 42 74 65 75
REMARK SMILES IDX 66 76 74 77 67 78 73 79 68 80 69 81 70 82 71 83 72 84 51 85
REMARK SMILES IDX 52 86 60 87 53 88 59 89 54 90 55 91 56 92 57 93 58 94
REMARK H PARENT 91 28 79 50 49 61
REMARK Flexibility Score: inf
ROOT
ATOM      1  C   UNL     1      10.041  -5.285   4.140  1.00  0.00     0.274 C 
ENDROOT
BRANCH   1   2
ATOM      2  O   UNL     1       9.136  -4.481   3.364  1.00  0.00    -0.461 OA
BRANCH   2   3
ATOM      3  C   UNL     1       8.347  -3.633   4.064  1.00  0.00     0.325 C 
ATOM      4  O   UNL     1       8.231  -3.630   5.286  1.00  0.00    -0.250 OA
BRANCH   3   5
ATOM      5  C   UNL     1       7.608  -2.621   3.194  1.00  0.00     0.242 C 
BRANCH   5   6
ATOM      6  N   UNL     1       7.756  -2.660   1.740  1.00  0.00    -0.331 N 
ATOM      7  C   UNL     1       2.930   1.476   0.397  1.00  0.00     0.253 C 
ATOM      8  O   UNL     1       2.791   2.562   0.953  1.00  0.00    -0.269 OA
ATOM      9  N   UNL     1       4.173   0.885   0.206  1.00  0.00    -0.339 N 
ATOM     10  C   UNL     1       5.239   1.164   1.151  1.00  0.00     0.120 C 
ATOM     11  C   UNL     1       4.577   0.191  -1.006  1.00  0.00     0.120 C 
ATOM     12  C   UNL     1       5.843  -0.165   1.611  1.00  0.00     0.030 C 
ATOM     13  C   UNL     1       5.251  -1.135  -0.676  1.00  0.00     0.030 C 
ATOM     14  C   UNL     1       6.339  -1.053   0.434  1.00  0.00    -0.008 C 
ATOM     15  C   UNL     1       7.669  -0.511  -0.158  1.00  0.00     0.019 C 
ATOM     16  C   UNL     1       6.581  -2.506   0.914  1.00  0.00     0.127 C 
ATOM     17  C   UNL     1       8.875  -0.756   0.748  1.00  0.00     0.101 C 
ATOM     18  C   UNL     1       8.948  -2.202   1.196  1.00  0.00     0.223 C 
ATOM     19  O   UNL     1       9.975  -2.866   1.168  1.00  0.00    -0.275 OA
BRANCH   7  20
ATOM     20  C   UNL     1       1.708   0.690   0.068  1.00  0.00     0.043 A 
ATOM     21  C   UNL     1      -1.994  -1.527  -0.182  1.00  0.00     0.048 C 
ATOM     22  C   UNL     1      -0.716  -0.742  -0.142  1.00  0.00    -0.009 A 
ATOM     23  C   UNL     1       0.487  -1.409   0.120  1.00  0.00     0.008 A 
ATOM     24  C   UNL     1      -0.682   0.651  -0.291  1.00  0.00     0.119 A 
ATOM     25  C   UNL     1       1.683  -0.699   0.241  1.00  0.00     0.014 A 
ATOM     26  C   UNL     1       0.514   1.364  -0.202  1.00  0.00     0.060 A 
BRANCH  24  27
ATOM     27  O   UNL     1      -1.814   1.391  -0.493  1.00  0.00    -0.508 OA
ATOM     28  H   UNL     1      -2.646   0.965  -0.561  1.00  0.00     0.293 HD
ENDBRANCH  24  27
ENDBRANCH   7  20
ENDBRANCH   5   6
ENDBRANCH   3   5
ENDBRANCH   2   3
ENDBRANCH   1   2
BRANCH   1  29
ATOM     29  C   UNL     1      11.400  -4.598   4.264  1.00  0.00     0.275 C 
BRANCH  29  30
ATOM     30  O   UNL     1      11.274  -3.389   5.037  1.00  0.00    -0.458 OA
BRANCH  30  31
ATOM     31  C   UNL     1      11.612  -2.249   4.394  1.00  0.00     0.338 C 
ATOM     32  O   UNL     1      12.051  -2.123   3.266  1.00  0.00    -0.246 OA
BRANCH  31  33
ATOM     33  C   UNL     1      11.427  -1.095   5.281  1.00  0.00     0.060 A 
ATOM     34  C   UNL     1      10.147  -0.613   5.558  1.00  0.00     0.016 A 
ATOM     35  C   UNL     1      12.559  -0.402   5.710  1.00  0.00     0.016 A 
ATOM     36  C   UNL     1       9.999   0.606   6.218  1.00  0.00     0.010 A 
ATOM     37  C   UNL     1      12.407   0.789   6.420  1.00  0.00     0.010 A 
ATOM     38  C   UNL     1      11.127   1.319   6.651  1.00  0.00    -0.014 A 
BRANCH  38  39
ATOM     39  C   UNL     1      10.976   2.626   7.335  1.00  0.00     0.031 A 
ATOM     40  C   UNL     1      11.449   3.891   6.670  1.00  0.00     0.074 A 
ATOM     41  C   UNL     1      10.428   2.670   8.565  1.00  0.00     0.049 A 
ATOM     42  N   UNL     1      11.498   5.105   7.154  1.00  0.00    -0.248 NA
ATOM     43  C   UNL     1      11.938   3.775   5.286  1.00  0.00     0.031 C 
ATOM     44  C   UNL     1       9.923   1.513   9.308  1.00  0.00     0.029 A 
ATOM     45  N   UNL     1      10.211   3.729   9.409  1.00  0.00    -0.354 N 
ATOM     46  C   UNL     1      12.055   5.892   6.151  1.00  0.00     0.074 A 
ATOM     47  C   UNL     1      12.328   5.018   5.031  1.00  0.00     0.031 C 
ATOM     48  C   UNL     1       9.449   1.926  10.494  1.00  0.00     0.029 A 
ATOM     49  C   UNL     1       9.662   3.365  10.615  1.00  0.00     0.049 A 
ATOM     50  H   UNL     1      10.429   4.660   9.174  1.00  0.00     0.167 HD
ATOM     51  C   UNL     1      12.317   7.220   6.167  1.00  0.00     0.031 A 
ATOM     52  C   UNL     1       9.390   4.099  11.710  1.00  0.00     0.031 A 
ATOM     53  C   UNL     1      12.021   8.091   7.274  1.00  0.00     0.049 A 
ATOM     54  C   UNL     1       9.694   5.569  11.702  1.00  0.00     0.074 A 
ATOM     55  C   UNL     1      12.224   9.457   7.373  1.00  0.00     0.029 A 
ATOM     56  N   UNL     1      11.457   7.683   8.473  1.00  0.00    -0.354 N 
ATOM     57  N   UNL     1      10.217   6.294  10.742  1.00  0.00    -0.248 NA
ATOM     58  C   UNL     1       9.375   6.319  12.924  1.00  0.00     0.031 C 
ATOM     59  C   UNL     1      11.810   9.870   8.644  1.00  0.00     0.029 A 
ATOM     60  C   UNL     1      11.317   8.767   9.322  1.00  0.00     0.049 A 
ATOM     61  H   UNL     1      11.194   6.759   8.688  1.00  0.00     0.167 HD
ATOM     62  C   UNL     1      10.283   7.588  11.242  1.00  0.00     0.074 A 
ATOM     63  C   UNL     1       9.728   7.551  12.581  1.00  0.00     0.031 C 
ATOM     64  C   UNL     1      10.765   8.707  10.649  1.00  0.00     0.031 A 
BRANCH  51  65
ATOM     65  C   UNL     1      12.984   7.819   4.960  1.00  0.00    -0.014 A 
ATOM     66  C   UNL     1      12.257   8.098   3.789  1.00  0.00     0.010 A 
ATOM     67  C   UNL     1      14.343   8.177   5.026  1.00  0.00     0.010 A 
ATOM     68  C   UNL     1      12.884   8.708   2.698  1.00  0.00     0.020 A 
ATOM     69  C   UNL     1      14.969   8.801   3.943  1.00  0.00     0.020 A 
ATOM     70  C   UNL     1      14.237   9.053   2.781  1.00  0.00     0.054 A 
BRANCH  70  71
ATOM     71  S   UNL     1      15.018   9.887   1.371  1.00  0.00     0.124 S 
ATOM     72  O   UNL     1      15.226   8.777   0.444  1.00  0.00    -0.237 OA
ATOM     73  O   UNL     1      14.005  10.859   0.968  1.00  0.00    -0.237 OA
ATOM     74  O   UNL     1      16.235  10.461   1.939  1.00  0.00    -0.744 OA
ENDBRANCH  70  71
ENDBRANCH  51  65
BRANCH  52  75
ATOM     75  C   UNL     1       8.833   3.440  12.920  1.00  0.00    -0.014 A 
ATOM     76  C   UNL     1       7.491   3.631  13.287  1.00  0.00     0.010 A 
ATOM     77  C   UNL     1       9.647   2.600  13.701  1.00  0.00     0.010 A 
ATOM     78  C   UNL     1       6.975   3.003  14.425  1.00  0.00     0.020 A 
ATOM     79  C   UNL     1       9.129   1.953  14.825  1.00  0.00     0.020 A 
ATOM     80  C   UNL     1       7.798   2.170  15.188  1.00  0.00     0.054 A 
BRANCH  80  81
ATOM     81  S   UNL     1       7.103   1.315  16.630  1.00  0.00     0.124 S 
ATOM     82  O   UNL     1       7.187   2.344  17.660  1.00  0.00    -0.237 OA
ATOM     83  O   UNL     1       5.754   0.974  16.183  1.00  0.00    -0.237 OA
ATOM     84  O   UNL     1       7.997   0.173  16.807  1.00  0.00    -0.744 OA
ENDBRANCH  80  81
ENDBRANCH  52  75
BRANCH  64  85
ATOM     85  C   UNL     1      10.694   9.983  11.439  1.00  0.00    -0.014 A 
ATOM     86  C   UNL     1      11.611  10.242  12.472  1.00  0.00     0.010 A 
ATOM     87  C   UNL     1       9.723  10.948  11.118  1.00  0.00     0.010 A 
ATOM     88  C   UNL     1      11.540  11.437  13.193  1.00  0.00     0.020 A 
ATOM     89  C   UNL     1       9.661  12.151  11.825  1.00  0.00     0.020 A 
ATOM     90  C   UNL     1      10.561  12.381  12.868  1.00  0.00     0.054 A 
BRANCH  90  91
ATOM     91  S   UNL     1      10.505  13.942  13.791  1.00  0.00     0.124 S 
ATOM     92  O   UNL     1       9.810  13.546  15.013  1.00  0.00    -0.237 OA
ATOM     93  O   UNL     1      11.918  14.276  13.953  1.00  0.00    -0.237 OA
ATOM     94  O   UNL     1       9.758  14.836  12.909  1.00  0.00    -0.744 OA
ENDBRANCH  90  91
ENDBRANCH  64  85
ENDBRANCH  38  39
ENDBRANCH  31  33
ENDBRANCH  30  31
ENDBRANCH  29  30
ENDBRANCH   1  29
TORSDOF 17
