REMARK SMILES O=C(CCc1nc(-c2ccccc2)c(-c2ccccc2)o1)OCCOC(=O)c1ccc(-c2c3nc(c(-c4ccc(S(=O)(=O)[O-])cc4)c4ccc([nH]4)c(-c4ccc(S(=O)(=O)[O-])cc4)c4nc(c(-c5ccc(S(=O)(=O)[O-])cc5)c5ccc2[nH]5)C=C4)C=C3)cc1
REMARK SMILES IDX 23 1 22 2 2 3 1 4 3 5 4 6 5 7 6 8 21 9 7 10 14 11 8 12 9 13
REMARK SMILES IDX 13 14 10 15 12 16 11 17 15 18 16 19 20 20 17 21 19 22 18 23
REMARK SMILES IDX 24 24 25 25 26 26 27 27 28 28 29 29 87 30 30 31 86 32 31 33
REMARK SMILES IDX 32 34 33 35 80 36 34 37 85 38 79 39 81 40 35 41 84 42 78 43
REMARK SMILES IDX 77 44 36 46 66 47 47 48 65 49 48 50 51 51 64 52 82 53 49 54
REMARK SMILES IDX 50 55 63 57 83 58 52 59 37 60 38 61 46 62 39 63 45 64 40 65
REMARK SMILES IDX 41 66 42 67 43 68 44 69 67 70 68 71 76 72 69 73 75 74 70 75
REMARK SMILES IDX 71 76 72 77 73 78 74 79 53 80 54 81 62 82 55 83 61 84 56 85
REMARK SMILES IDX 57 86 58 87 59 88 60 89
REMARK H PARENT 81 45 51 56
REMARK Flexibility Score: inf
ROOT
ATOM      1  C   UNL     1       3.369  -0.730   1.204  1.00  0.00     0.274 C 
ENDROOT
BRANCH   1   2
ATOM      2  O   UNL     1       2.251  -0.149   0.514  1.00  0.00    -0.462 OA
BRANCH   2   3
ATOM      3  C   UNL     1       2.462   1.068  -0.053  1.00  0.00     0.306 C 
ATOM      4  O   UNL     1       1.885   2.072   0.348  1.00  0.00    -0.252 OA
BRANCH   3   5
ATOM      5  C   UNL     1       3.299   1.052  -1.313  1.00  0.00     0.132 C 
BRANCH   5   6
ATOM      6  C   UNL     1       4.326   2.175  -1.337  1.00  0.00     0.109 C 
BRANCH   6   7
ATOM      7  C   UNL     1       5.429   1.919  -0.372  1.00  0.00     0.196 A 
ATOM      8  N   UNL     1       5.980   0.768  -0.032  1.00  0.00    -0.213 NA
ATOM      9  O   UNL     1       5.882   2.997   0.334  1.00  0.00    -0.440 OA
ATOM     10  C   UNL     1       6.777   1.096   1.039  1.00  0.00     0.117 A 
ATOM     11  C   UNL     1       6.770   2.463   1.227  1.00  0.00     0.162 A 
BRANCH  10  12
ATOM     12  C   UNL     1       7.410   0.121   1.904  1.00  0.00     0.004 A 
ATOM     13  C   UNL     1       7.214   0.183   3.293  1.00  0.00     0.010 A 
ATOM     14  C   UNL     1       8.198  -0.903   1.373  1.00  0.00     0.010 A 
ATOM     15  C   UNL     1       7.829  -0.739   4.141  1.00  0.00     0.001 A 
ATOM     16  C   UNL     1       8.819  -1.823   2.224  1.00  0.00     0.001 A 
ATOM     17  C   UNL     1       8.639  -1.736   3.605  1.00  0.00     0.000 A 
ENDBRANCH  10  12
BRANCH  11  18
ATOM     18  C   UNL     1       7.430   3.391   2.122  1.00  0.00     0.020 A 
ATOM     19  C   UNL     1       6.698   4.369   2.804  1.00  0.00     0.012 A 
ATOM     20  C   UNL     1       8.811   3.293   2.339  1.00  0.00     0.012 A 
ATOM     21  C   UNL     1       7.337   5.229   3.698  1.00  0.00     0.001 A 
ATOM     22  C   UNL     1       9.450   4.160   3.225  1.00  0.00     0.001 A 
ATOM     23  C   UNL     1       8.712   5.125   3.907  1.00  0.00     0.000 A 
ENDBRANCH  11  18
ENDBRANCH   6   7
ENDBRANCH   5   6
ENDBRANCH   3   5
ENDBRANCH   2   3
ENDBRANCH   1   2
BRANCH   1  24
ATOM     24  C   UNL     1       3.845  -2.064   0.613  1.00  0.00     0.275 C 
BRANCH  24  25
ATOM     25  O   UNL     1       3.629  -2.148  -0.801  1.00  0.00    -0.458 OA
BRANCH  25  26
ATOM     26  C   UNL     1       2.366  -2.509  -1.141  1.00  0.00     0.338 C 
ATOM     27  O   UNL     1       1.503  -2.939  -0.392  1.00  0.00    -0.246 OA
BRANCH  26  28
ATOM     28  C   UNL     1       2.112  -2.120  -2.543  1.00  0.00     0.060 A 
ATOM     29  C   UNL     1       0.894  -1.495  -2.834  1.00  0.00     0.016 A 
ATOM     30  C   UNL     1       3.040  -2.369  -3.558  1.00  0.00     0.016 A 
ATOM     31  C   UNL     1       0.576  -1.168  -4.151  1.00  0.00     0.010 A 
ATOM     32  C   UNL     1       2.718  -2.043  -4.879  1.00  0.00     0.010 A 
ATOM     33  C   UNL     1       1.469  -1.476  -5.186  1.00  0.00    -0.014 A 
BRANCH  33  34
ATOM     34  C   UNL     1       1.024  -1.362  -6.596  1.00  0.00     0.031 A 
ATOM     35  C   UNL     1       0.506  -2.593  -7.291  1.00  0.00     0.074 A 
ATOM     36  C   UNL     1       1.044  -0.182  -7.241  1.00  0.00     0.049 A 
ATOM     37  N   UNL     1       0.033  -2.722  -8.503  1.00  0.00    -0.248 NA
ATOM     38  C   UNL     1       0.524  -3.844  -6.514  1.00  0.00     0.031 C 
ATOM     39  C   UNL     1       1.492   1.088  -6.673  1.00  0.00     0.029 A 
ATOM     40  N   UNL     1       0.672   0.135  -8.524  1.00  0.00    -0.354 N 
ATOM     41  C   UNL     1      -0.313  -4.062  -8.632  1.00  0.00     0.074 A 
ATOM     42  C   UNL     1       0.043  -4.714  -7.390  1.00  0.00     0.031 C 
ATOM     43  C   UNL     1       1.367   2.050  -7.605  1.00  0.00     0.029 A 
ATOM     44  C   UNL     1       0.850   1.460  -8.840  1.00  0.00     0.049 A 
ATOM     45  H   UNL     1       0.311  -0.526  -9.159  1.00  0.00     0.167 HD
ATOM     46  C   UNL     1      -0.888  -4.694  -9.682  1.00  0.00     0.031 A 
ATOM     47  C   UNL     1       0.626   2.121  -9.993  1.00  0.00     0.031 A 
ATOM     48  C   UNL     1      -1.222  -4.057 -10.927  1.00  0.00     0.049 A 
ATOM     49  C   UNL     1       0.060   1.379 -11.177  1.00  0.00     0.074 A 
ATOM     50  C   UNL     1      -1.814  -4.614 -12.047  1.00  0.00     0.029 A 
ATOM     51  N   UNL     1      -0.983  -2.724 -11.221  1.00  0.00    -0.354 N 
ATOM     52  N   UNL     1      -0.297   0.120 -11.268  1.00  0.00    -0.248 NA
ATOM     53  C   UNL     1      -0.144   2.153 -12.411  1.00  0.00     0.031 C 
ATOM     54  C   UNL     1      -1.888  -3.628 -13.037  1.00  0.00     0.029 A 
ATOM     55  C   UNL     1      -1.392  -2.445 -12.514  1.00  0.00     0.049 A 
ATOM     56  H   UNL     1      -0.582  -2.071 -10.602  1.00  0.00     0.167 HD
ATOM     57  C   UNL     1      -0.796  -0.040 -12.558  1.00  0.00     0.074 A 
ATOM     58  C   UNL     1      -0.702   1.251 -13.207  1.00  0.00     0.031 C 
ATOM     59  C   UNL     1      -1.294  -1.155 -13.149  1.00  0.00     0.031 A 
BRANCH  46  60
ATOM     60  C   UNL     1      -1.170  -6.164  -9.530  1.00  0.00    -0.014 A 
ATOM     61  C   UNL     1      -2.211  -6.618  -8.700  1.00  0.00     0.010 A 
ATOM     62  C   UNL     1      -0.402  -7.101 -10.244  1.00  0.00     0.010 A 
ATOM     63  C   UNL     1      -2.455  -7.986  -8.558  1.00  0.00     0.020 A 
ATOM     64  C   UNL     1      -0.658  -8.469 -10.123  1.00  0.00     0.020 A 
ATOM     65  C   UNL     1      -1.672  -8.904  -9.266  1.00  0.00     0.054 A 
BRANCH  65  66
ATOM     66  S   UNL     1      -2.018 -10.674  -9.074  1.00  0.00     0.124 S 
ATOM     67  O   UNL     1      -1.479 -10.942  -7.742  1.00  0.00    -0.237 OA
ATOM     68  O   UNL     1      -3.473 -10.732  -9.186  1.00  0.00    -0.237 OA
ATOM     69  O   UNL     1      -1.286 -11.291 -10.177  1.00  0.00    -0.744 OA
ENDBRANCH  65  66
ENDBRANCH  46  60
BRANCH  47  70
ATOM     70  C   UNL     1       0.937   3.573 -10.092  1.00  0.00    -0.014 A 
ATOM     71  C   UNL     1      -0.095   4.523 -10.181  1.00  0.00     0.010 A 
ATOM     72  C   UNL     1       2.274   4.011 -10.111  1.00  0.00     0.010 A 
ATOM     73  C   UNL     1       0.203   5.883 -10.305  1.00  0.00     0.020 A 
ATOM     74  C   UNL     1       2.575   5.372 -10.210  1.00  0.00     0.020 A 
ATOM     75  C   UNL     1       1.537   6.299 -10.319  1.00  0.00     0.054 A 
BRANCH  75  76
ATOM     76  S   UNL     1       1.902   8.073 -10.436  1.00  0.00     0.124 S 
ATOM     77  O   UNL     1       1.622   8.348 -11.842  1.00  0.00    -0.237 OA
ATOM     78  O   UNL     1       0.964   8.653  -9.478  1.00  0.00    -0.237 OA
ATOM     79  O   UNL     1       3.308   8.158 -10.048  1.00  0.00    -0.744 OA
ENDBRANCH  75  76
ENDBRANCH  47  70
BRANCH  59  80
ATOM     80  C   UNL     1      -1.808  -1.029 -14.559  1.00  0.00    -0.014 A 
ATOM     81  C   UNL     1      -0.929  -0.894 -15.647  1.00  0.00     0.010 A 
ATOM     82  C   UNL     1      -3.192  -1.114 -14.801  1.00  0.00     0.010 A 
ATOM     83  C   UNL     1      -1.427  -0.819 -16.952  1.00  0.00     0.020 A 
ATOM     84  C   UNL     1      -3.691  -1.065 -16.106  1.00  0.00     0.020 A 
ATOM     85  C   UNL     1      -2.805  -0.905 -17.173  1.00  0.00     0.054 A 
BRANCH  85  86
ATOM     86  S   UNL     1      -3.423  -0.856 -18.878  1.00  0.00     0.124 S 
ATOM     87  O   UNL     1      -3.292   0.561 -19.208  1.00  0.00    -0.237 OA
ATOM     88  O   UNL     1      -2.507  -1.752 -19.579  1.00  0.00    -0.237 OA
ATOM     89  O   UNL     1      -4.796  -1.344 -18.763  1.00  0.00    -0.744 OA
ENDBRANCH  85  86
ENDBRANCH  59  80
ENDBRANCH  33  34
ENDBRANCH  26  28
ENDBRANCH  25  26
ENDBRANCH  24  25
ENDBRANCH   1  24
TORSDOF 18
