REMARK SMILES Cc1nc(C[NH2+][C@@H](C(=O)OCCOC(=O)c2ccc(-c3c4nc(c(-c5ccc(S(=O)(=O)[O-])cc5)c5ccc([nH]5)c(-c5ccc(S(=O)(=O)[O-])cc5)c5nc(c(-c6ccc(S(=O)(=O)[O-])cc6)c6ccc3[nH]6)C=C5)C=C4)cc2)c2ccccc2)sc1C
REMARK SMILES IDX 11 1 10 2 8 3 9 4 7 5 6 6 5 9 4 10 1 11 2 12 3 13 83 14
REMARK SMILES IDX 82 15 84 16 76 17 77 18 81 19 78 20 80 21 79 22 12 23 13 24
REMARK SMILES IDX 14 25 15 26 16 27 17 28 75 29 18 30 74 31 19 32 20 33 21 34
REMARK SMILES IDX 68 35 22 36 73 37 67 38 69 39 23 40 72 41 66 42 65 43 24 45
REMARK SMILES IDX 54 46 35 47 53 48 36 49 39 50 52 51 70 52 37 53 38 54 51 56
REMARK SMILES IDX 71 57 40 58 25 59 26 60 34 61 27 62 33 63 28 64 29 65 30 66
REMARK SMILES IDX 31 67 32 68 55 69 56 70 64 71 57 72 63 73 58 74 59 75 60 76
REMARK SMILES IDX 61 77 62 78 41 79 42 80 50 81 43 82 49 83 44 84 45 85 46 86
REMARK SMILES IDX 47 87 48 88
REMARK H PARENT 6 7 6 8 69 44 39 55
REMARK Flexibility Score: inf
ROOT
ATOM      1  C   UNL     1      -5.804   3.071   0.530  1.00  0.00     0.274 C 
ENDROOT
BRANCH   1   2
ATOM      2  O   UNL     1      -4.370   3.177   0.644  1.00  0.00    -0.457 OA
BRANCH   2   3
ATOM      3  C   UNL     1      -3.843   4.437   0.709  1.00  0.00     0.369 C 
ATOM      4  O   UNL     1      -4.520   5.458   0.645  1.00  0.00    -0.245 OA
BRANCH   3   5
ATOM      5  C   UNL     1      -2.292   4.430   0.816  1.00  0.00     0.325 C 
BRANCH   5   6
ATOM      6  N   UNL     1      -1.730   3.063   0.885  1.00  0.00    -0.325 N 
ATOM      7  H   UNL     1      -0.822   3.111   1.348  1.00  0.00     0.347 HD
ATOM      8  H   UNL     1      -2.397   2.489   1.401  1.00  0.00     0.347 HD
BRANCH   6   9
ATOM      9  C   UNL     1      -1.550   2.442  -0.426  1.00  0.00     0.330 C 
BRANCH   9  10
ATOM     10  C   UNL     1      -0.627   1.256  -0.331  1.00  0.00     0.148 A 
ATOM     11  C   UNL     1       2.738   0.017  -0.140  1.00  0.00     0.068 C 
ATOM     12  C   UNL     1       1.255   0.092  -0.194  1.00  0.00     0.052 A 
ATOM     13  N   UNL     1       0.686   1.336  -0.398  1.00  0.00    -0.240 NA
ATOM     14  C   UNL     1       0.347  -0.944  -0.051  1.00  0.00     0.025 A 
ATOM     15  S   UNL     1      -1.252  -0.328  -0.119  1.00  0.00    -0.118 S 
ATOM     16  C   UNL     1       0.601  -2.394   0.159  1.00  0.00     0.058 C 
ENDBRANCH   9  10
ENDBRANCH   6   9
ENDBRANCH   5   6
BRANCH   5  17
ATOM     17  C   UNL     1      -1.786   5.305   1.966  1.00  0.00     0.021 A 
ATOM     18  C   UNL     1      -1.147   4.774   3.102  1.00  0.00     0.010 A 
ATOM     19  C   UNL     1      -1.942   6.702   1.895  1.00  0.00     0.010 A 
ATOM     20  C   UNL     1      -0.682   5.607   4.124  1.00  0.00     0.001 A 
ATOM     21  C   UNL     1      -1.482   7.534   2.921  1.00  0.00     0.001 A 
ATOM     22  C   UNL     1      -0.850   6.986   4.034  1.00  0.00     0.000 A 
ENDBRANCH   5  17
ENDBRANCH   3   5
ENDBRANCH   2   3
ENDBRANCH   1   2
BRANCH   1  23
ATOM     23  C   UNL     1      -6.361   2.241   1.683  1.00  0.00     0.275 C 
BRANCH  23  24
ATOM     24  O   UNL     1      -6.204   2.964   2.916  1.00  0.00    -0.458 OA
BRANCH  24  25
ATOM     25  C   UNL     1      -5.139   2.596   3.663  1.00  0.00     0.338 C 
ATOM     26  O   UNL     1      -4.364   1.680   3.451  1.00  0.00    -0.246 OA
BRANCH  25  27
ATOM     27  C   UNL     1      -4.973   3.552   4.766  1.00  0.00     0.060 A 
ATOM     28  C   UNL     1      -4.388   4.782   4.483  1.00  0.00     0.016 A 
ATOM     29  C   UNL     1      -5.236   3.179   6.083  1.00  0.00     0.016 A 
ATOM     30  C   UNL     1      -3.954   5.592   5.529  1.00  0.00     0.010 A 
ATOM     31  C   UNL     1      -4.869   4.038   7.128  1.00  0.00     0.010 A 
ATOM     32  C   UNL     1      -4.163   5.226   6.867  1.00  0.00    -0.014 A 
BRANCH  32  33
ATOM     33  C   UNL     1      -3.528   6.021   7.962  1.00  0.00     0.031 A 
ATOM     34  C   UNL     1      -2.545   5.364   8.905  1.00  0.00     0.074 A 
ATOM     35  C   UNL     1      -3.735   7.349   8.073  1.00  0.00     0.049 A 
ATOM     36  N   UNL     1      -1.983   5.850   9.984  1.00  0.00    -0.248 NA
ATOM     37  C   UNL     1      -2.153   3.977   8.605  1.00  0.00     0.031 C 
ATOM     38  C   UNL     1      -4.594   8.155   7.203  1.00  0.00     0.029 A 
ATOM     39  N   UNL     1      -3.189   8.268   8.937  1.00  0.00    -0.354 N 
ATOM     40  C   UNL     1      -1.252   4.805  10.538  1.00  0.00     0.074 A 
ATOM     41  C   UNL     1      -1.419   3.665   9.663  1.00  0.00     0.031 C 
ATOM     42  C   UNL     1      -4.433   9.453   7.507  1.00  0.00     0.029 A 
ATOM     43  C   UNL     1      -3.529   9.568   8.646  1.00  0.00     0.049 A 
ATOM     44  H   UNL     1      -2.610   8.019   9.693  1.00  0.00     0.167 HD
ATOM     45  C   UNL     1      -0.517   4.787  11.678  1.00  0.00     0.031 A 
ATOM     46  C   UNL     1      -3.158  10.726   9.227  1.00  0.00     0.031 A 
ATOM     47  C   UNL     1      -0.273   5.934  12.509  1.00  0.00     0.049 A 
ATOM     48  C   UNL     1      -2.281  10.701  10.445  1.00  0.00     0.074 A 
ATOM     49  C   UNL     1       0.407   6.004  13.713  1.00  0.00     0.029 A 
ATOM     50  N   UNL     1      -0.653   7.228  12.191  1.00  0.00    -0.354 N 
ATOM     51  N   UNL     1      -1.739   9.671  11.048  1.00  0.00    -0.248 NA
ATOM     52  C   UNL     1      -1.990  11.996  11.076  1.00  0.00     0.031 C 
ATOM     53  C   UNL     1       0.441   7.345  14.122  1.00  0.00     0.029 A 
ATOM     54  C   UNL     1      -0.200   8.107  13.159  1.00  0.00     0.049 A 
ATOM     55  H   UNL     1      -1.171   7.484  11.393  1.00  0.00     0.167 HD
ATOM     56  C   UNL     1      -1.059  10.193  12.142  1.00  0.00     0.074 A 
ATOM     57  C   UNL     1      -1.224  11.631  12.096  1.00  0.00     0.031 C 
ATOM     58  C   UNL     1      -0.376   9.534  13.110  1.00  0.00     0.031 A 
BRANCH  45  59
ATOM     59  C   UNL     1       0.023   3.455  12.117  1.00  0.00    -0.014 A 
ATOM     60  C   UNL     1       1.166   2.891  11.525  1.00  0.00     0.010 A 
ATOM     61  C   UNL     1      -0.640   2.753  13.140  1.00  0.00     0.010 A 
ATOM     62  C   UNL     1       1.608   1.623  11.916  1.00  0.00     0.020 A 
ATOM     63  C   UNL     1      -0.190   1.495  13.547  1.00  0.00     0.020 A 
ATOM     64  C   UNL     1       0.917   0.927  12.914  1.00  0.00     0.054 A 
BRANCH  64  65
ATOM     65  S   UNL     1       1.488  -0.724  13.408  1.00  0.00     0.124 S 
ATOM     66  O   UNL     1       0.822  -1.576  12.426  1.00  0.00    -0.237 OA
ATOM     67  O   UNL     1       2.939  -0.627  13.271  1.00  0.00    -0.237 OA
ATOM     68  O   UNL     1       1.004  -0.855  14.780  1.00  0.00    -0.744 OA
ENDBRANCH  64  65
ENDBRANCH  45  59
BRANCH  46  69
ATOM     69  C   UNL     1      -3.618  12.018   8.656  1.00  0.00    -0.014 A 
ATOM     70  C   UNL     1      -2.724  12.817   7.923  1.00  0.00     0.010 A 
ATOM     71  C   UNL     1      -4.949  12.440   8.814  1.00  0.00     0.010 A 
ATOM     72  C   UNL     1      -3.152  14.020   7.355  1.00  0.00     0.020 A 
ATOM     73  C   UNL     1      -5.386  13.632   8.231  1.00  0.00     0.020 A 
ATOM     74  C   UNL     1      -4.483  14.418   7.511  1.00  0.00     0.054 A 
BRANCH  74  75
ATOM     75  S   UNL     1      -5.060  15.935   6.698  1.00  0.00     0.124 S 
ATOM     76  O   UNL     1      -4.767  16.948   7.706  1.00  0.00    -0.237 OA
ATOM     77  O   UNL     1      -4.241  15.991   5.489  1.00  0.00    -0.237 OA
ATOM     78  O   UNL     1      -6.478  15.668   6.466  1.00  0.00    -0.744 OA
ENDBRANCH  74  75
ENDBRANCH  46  69
BRANCH  58  79
ATOM     79  C   UNL     1       0.239  10.368  14.196  1.00  0.00    -0.014 A 
ATOM     80  C   UNL     1      -0.551  10.869  15.246  1.00  0.00     0.010 A 
ATOM     81  C   UNL     1       1.616  10.648  14.174  1.00  0.00     0.010 A 
ATOM     82  C   UNL     1       0.020  11.668  16.239  1.00  0.00     0.020 A 
ATOM     83  C   UNL     1       2.193  11.437  15.173  1.00  0.00     0.020 A 
ATOM     84  C   UNL     1       1.387  11.957  16.190  1.00  0.00     0.054 A 
BRANCH  84  85
ATOM     85  S   UNL     1       2.120  12.985  17.493  1.00  0.00     0.124 S 
ATOM     86  O   UNL     1       1.818  14.333  17.020  1.00  0.00    -0.237 OA
ATOM     87  O   UNL     1       1.397  12.563  18.690  1.00  0.00    -0.237 OA
ATOM     88  O   UNL     1       3.533  12.615  17.466  1.00  0.00    -0.744 OA
ENDBRANCH  84  85
ENDBRANCH  58  79
ENDBRANCH  32  33
ENDBRANCH  25  27
ENDBRANCH  24  25
ENDBRANCH  23  24
ENDBRANCH   1  23
TORSDOF 18
