REMARK SMILES C/C(=C\C(=O)OCCOC(=O)c1ccc(-c2c3nc(c(-c4ccc(S(=O)(=O)[O-])cc4)c4ccc([nH]4)c(-c4ccc(S(=O)(=O)[O-])cc4)c4nc(c(-c5ccc(S(=O)(=O)[O-])cc5)c5ccc2[nH]5)C=C4)C=C3)cc1)CSc1ccc(N)c(C)c1
REMARK SMILES IDX 7 1 6 2 4 3 5 4 3 5 1 6 2 7 72 8 73 9 74 10 75 11 81 12
REMARK SMILES IDX 76 13 79 14 77 15 80 16 78 17 8 20 9 21 10 22 11 23 12 24
REMARK SMILES IDX 13 25 71 26 14 27 70 28 15 29 16 30 17 31 64 32 18 33 69 34
REMARK SMILES IDX 63 35 65 36 19 37 68 38 62 39 61 40 20 42 50 43 31 44 49 45
REMARK SMILES IDX 32 46 35 47 48 48 66 49 33 50 34 51 47 53 67 54 36 55 21 56
REMARK SMILES IDX 22 57 30 58 23 59 29 60 24 61 25 62 26 63 27 64 28 65 51 66
REMARK SMILES IDX 52 67 60 68 53 69 59 70 54 71 55 72 56 73 57 74 58 75 37 76
REMARK SMILES IDX 38 77 46 78 39 79 45 80 40 81 41 82 42 83 43 84 44 85
REMARK H PARENT 78 18 78 19 65 41 35 52
REMARK Flexibility Score: inf
ROOT
ATOM      1  C   UNL     1      -0.528  -1.248   3.344  1.00  0.00     0.275 C 
ENDROOT
BRANCH   1   2
ATOM      2  O   UNL     1      -0.041  -1.018   2.009  1.00  0.00    -0.459 OA
BRANCH   2   3
ATOM      3  C   UNL     1       0.304  -2.120   1.309  1.00  0.00     0.330 C 
ATOM      4  O   UNL     1       0.327  -3.266   1.736  1.00  0.00    -0.247 OA
BRANCH   3   5
ATOM      5  C   UNL     1       0.524  -1.847  -0.128  1.00  0.00     0.093 C 
ATOM      6  C   UNL     1       1.402   0.521  -0.107  1.00  0.00     0.040 C 
ATOM      7  C   UNL     1       0.933  -0.739  -0.779  1.00  0.00    -0.056 C 
BRANCH   7   8
ATOM      8  C   UNL     1       1.039  -0.793  -2.291  1.00  0.00     0.105 C 
BRANCH   8   9
ATOM      9  S   UNL     1       0.350   0.653  -3.155  1.00  0.00    -0.122 SA
BRANCH   9  10
ATOM     10  C   UNL     1      -1.405   0.579  -2.830  1.00  0.00     0.008 A 
ATOM     11  C   UNL     1      -2.068   1.800  -2.681  1.00  0.00     0.017 A 
ATOM     12  C   UNL     1      -2.162  -0.595  -2.802  1.00  0.00     0.020 A 
ATOM     13  C   UNL     1      -3.451   1.847  -2.490  1.00  0.00     0.027 A 
ATOM     14  C   UNL     1      -3.564  -0.555  -2.622  1.00  0.00    -0.027 A 
ATOM     15  C   UNL     1      -4.218   0.680  -2.482  1.00  0.00     0.034 A 
ATOM     16  C   UNL     1      -4.340  -1.844  -2.591  1.00  0.00     0.046 C 
BRANCH  15  17
ATOM     17  N   UNL     1      -5.580   0.769  -2.226  1.00  0.00    -0.399 N 
ATOM     18  H   UNL     1      -6.007   1.651  -2.133  1.00  0.00     0.156 HD
ATOM     19  H   UNL     1      -6.118  -0.050  -2.136  1.00  0.00     0.156 HD
ENDBRANCH  15  17
ENDBRANCH   9  10
ENDBRANCH   8   9
ENDBRANCH   7   8
ENDBRANCH   3   5
ENDBRANCH   2   3
ENDBRANCH   1   2
BRANCH   1  20
ATOM     20  C   UNL     1      -2.056  -1.143   3.405  1.00  0.00     0.275 C 
BRANCH  20  21
ATOM     21  O   UNL     1      -2.701  -2.267   2.776  1.00  0.00    -0.458 OA
BRANCH  21  22
ATOM     22  C   UNL     1      -2.932  -2.117   1.450  1.00  0.00     0.338 C 
ATOM     23  O   UNL     1      -2.676  -1.139   0.771  1.00  0.00    -0.246 OA
BRANCH  22  24
ATOM     24  C   UNL     1      -3.437  -3.375   0.873  1.00  0.00     0.060 A 
ATOM     25  C   UNL     1      -2.779  -3.882  -0.251  1.00  0.00     0.016 A 
ATOM     26  C   UNL     1      -4.590  -3.995   1.355  1.00  0.00     0.016 A 
ATOM     27  C   UNL     1      -3.283  -4.998  -0.914  1.00  0.00     0.010 A 
ATOM     28  C   UNL     1      -5.094  -5.121   0.691  1.00  0.00     0.010 A 
ATOM     29  C   UNL     1      -4.454  -5.617  -0.458  1.00  0.00    -0.014 A 
BRANCH  29  30
ATOM     30  C   UNL     1      -5.014  -6.761  -1.217  1.00  0.00     0.031 A 
ATOM     31  C   UNL     1      -6.229  -6.574  -2.081  1.00  0.00     0.074 A 
ATOM     32  C   UNL     1      -4.400  -7.957  -1.163  1.00  0.00     0.049 A 
ATOM     33  N   UNL     1      -6.859  -7.453  -2.819  1.00  0.00    -0.248 NA
ATOM     34  C   UNL     1      -6.811  -5.223  -2.126  1.00  0.00     0.031 C 
ATOM     35  C   UNL     1      -3.191  -8.251  -0.392  1.00  0.00     0.029 A 
ATOM     36  N   UNL     1      -4.705  -9.147  -1.774  1.00  0.00    -0.354 N 
ATOM     37  C   UNL     1      -7.916  -6.768  -3.407  1.00  0.00     0.074 A 
ATOM     38  C   UNL     1      -7.854  -5.404  -2.925  1.00  0.00     0.031 C 
ATOM     39  C   UNL     1      -2.850  -9.536  -0.586  1.00  0.00     0.029 A 
ATOM     40  C   UNL     1      -3.836 -10.164  -1.461  1.00  0.00     0.049 A 
ATOM     41  H   UNL     1      -5.473  -9.260  -2.380  1.00  0.00     0.167 HD
ATOM     42  C   UNL     1      -8.851  -7.233  -4.270  1.00  0.00     0.031 A 
ATOM     43  C   UNL     1      -3.841 -11.461  -1.825  1.00  0.00     0.031 A 
ATOM     44  C   UNL     1      -8.919  -8.593  -4.738  1.00  0.00     0.049 A 
ATOM     45  C   UNL     1      -4.924 -11.966  -2.738  1.00  0.00     0.074 A 
ATOM     46  C   UNL     1      -9.829  -9.157  -5.616  1.00  0.00     0.029 A 
ATOM     47  N   UNL     1      -8.045  -9.603  -4.366  1.00  0.00    -0.354 N 
ATOM     48  N   UNL     1      -5.912 -11.302  -3.289  1.00  0.00    -0.248 NA
ATOM     49  C   UNL     1      -4.889 -13.394  -3.080  1.00  0.00     0.031 C 
ATOM     50  C   UNL     1      -9.531 -10.520  -5.739  1.00  0.00     0.029 A 
ATOM     51  C   UNL     1      -8.406 -10.792  -4.978  1.00  0.00     0.049 A 
ATOM     52  H   UNL     1      -7.281  -9.492  -3.755  1.00  0.00     0.167 HD
ATOM     53  C   UNL     1      -6.606 -12.228  -4.059  1.00  0.00     0.074 A 
ATOM     54  C   UNL     1      -5.916 -13.494  -3.914  1.00  0.00     0.031 C 
ATOM     55  C   UNL     1      -7.714 -12.046  -4.819  1.00  0.00     0.031 A 
BRANCH  42  56
ATOM     56  C   UNL     1      -9.904  -6.263  -4.735  1.00  0.00    -0.014 A 
ATOM     57  C   UNL     1      -9.603  -5.254  -5.667  1.00  0.00     0.010 A 
ATOM     58  C   UNL     1     -11.221  -6.382  -4.255  1.00  0.00     0.010 A 
ATOM     59  C   UNL     1     -10.591  -4.353  -6.076  1.00  0.00     0.020 A 
ATOM     60  C   UNL     1     -12.216  -5.497  -4.678  1.00  0.00     0.020 A 
ATOM     61  C   UNL     1     -11.889  -4.475  -5.572  1.00  0.00     0.054 A 
BRANCH  61  62
ATOM     62  S   UNL     1     -13.154  -3.295  -6.119  1.00  0.00     0.124 S 
ATOM     63  O   UNL     1     -12.790  -2.097  -5.365  1.00  0.00    -0.237 OA
ATOM     64  O   UNL     1     -12.926  -3.222  -7.560  1.00  0.00    -0.237 OA
ATOM     65  O   UNL     1     -14.411  -3.924  -5.721  1.00  0.00    -0.744 OA
ENDBRANCH  61  62
ENDBRANCH  42  56
BRANCH  43  66
ATOM     66  C   UNL     1      -2.789 -12.376  -1.307  1.00  0.00    -0.014 A 
ATOM     67  C   UNL     1      -1.783 -12.864  -2.157  1.00  0.00     0.010 A 
ATOM     68  C   UNL     1      -2.782 -12.748   0.050  1.00  0.00     0.010 A 
ATOM     69  C   UNL     1      -0.793 -13.719  -1.661  1.00  0.00     0.020 A 
ATOM     70  C   UNL     1      -1.781 -13.582   0.554  1.00  0.00     0.020 A 
ATOM     71  C   UNL     1      -0.798 -14.071  -0.308  1.00  0.00     0.054 A 
BRANCH  71  72
ATOM     72  S   UNL     1       0.528 -15.133   0.329  1.00  0.00     0.124 S 
ATOM     73  O   UNL     1       0.116 -16.450  -0.146  1.00  0.00    -0.237 OA
ATOM     74  O   UNL     1       1.718 -14.573  -0.308  1.00  0.00    -0.237 OA
ATOM     75  O   UNL     1       0.456 -14.936   1.775  1.00  0.00    -0.744 OA
ENDBRANCH  71  72
ENDBRANCH  43  66
BRANCH  55  76
ATOM     76  C   UNL     1      -8.235 -13.239  -5.573  1.00  0.00    -0.014 A 
ATOM     77  C   UNL     1      -8.914 -14.277  -4.912  1.00  0.00     0.010 A 
ATOM     78  C   UNL     1      -8.076 -13.301  -6.969  1.00  0.00     0.010 A 
ATOM     79  C   UNL     1      -9.398 -15.374  -5.630  1.00  0.00     0.020 A 
ATOM     80  C   UNL     1      -8.579 -14.385  -7.694  1.00  0.00     0.020 A 
ATOM     81  C   UNL     1      -9.223 -15.423  -7.017  1.00  0.00     0.054 A 
BRANCH  81  82
ATOM     82  S   UNL     1      -9.890 -16.838  -7.935  1.00  0.00     0.124 S 
ATOM     83  O   UNL     1      -8.906 -17.878  -7.647  1.00  0.00    -0.237 OA
ATOM     84  O   UNL     1     -11.204 -17.029  -7.325  1.00  0.00    -0.237 OA
ATOM     85  O   UNL     1      -9.917 -16.370  -9.319  1.00  0.00    -0.744 OA
ENDBRANCH  81  82
ENDBRANCH  55  76
ENDBRANCH  29  30
ENDBRANCH  22  24
ENDBRANCH  21  22
ENDBRANCH  20  21
ENDBRANCH   1  20
TORSDOF 18
