REMARK SMILES Cc1ccc(C)c(-c2cc(C(=O)OCCOC(=O)c3ccc(-c4c5nc(c(-c6ccc(S(=O)(=O)[O-])cc6)c6ccc([nH]6)c(-c6ccc(S(=O)(=O)[O-])cc6)c6nc(c(-c7ccc(S(=O)(=O)[O-])cc7)c7ccc4[nH]7)C=C6)C=C5)cc3)c3cc(C)ccc3n2)c1
REMARK SMILES IDX 15 1 14 2 13 3 11 4 12 5 10 6 8 7 9 8 86 9 85 10 79 11 84 12
REMARK SMILES IDX 80 13 83 14 81 15 82 16 7 17 1 18 2 19 3 20 87 21 4 22 5 23
REMARK SMILES IDX 6 24 16 25 17 26 18 27 19 28 20 29 78 30 21 31 77 32 22 33
REMARK SMILES IDX 23 34 24 35 71 36 25 37 76 38 70 39 72 40 26 41 75 42 69 43
REMARK SMILES IDX 68 44 27 46 57 47 38 48 56 49 39 50 42 51 55 52 73 53 40 54
REMARK SMILES IDX 41 55 54 57 74 58 43 59 28 60 29 61 37 62 30 63 36 64 31 65
REMARK SMILES IDX 32 66 33 67 34 68 35 69 58 70 59 71 67 72 60 73 66 74 61 75
REMARK SMILES IDX 62 76 63 77 64 78 65 79 44 80 45 81 53 82 46 83 52 84 47 85
REMARK SMILES IDX 48 86 49 87 50 88 51 89
REMARK H PARENT 72 45 42 56
REMARK Flexibility Score: inf
ROOT
ATOM      1  C   UNL     1       0.204   8.600  -3.379  1.00  0.00     0.275 C 
ENDROOT
BRANCH   1   2
ATOM      2  C   UNL     1      -1.036   8.547  -4.270  1.00  0.00     0.275 C 
BRANCH   2   3
ATOM      3  O   UNL     1      -2.013   7.772  -3.573  1.00  0.00    -0.458 OA
BRANCH   3   4
ATOM      4  C   UNL     1      -1.841   6.277  -3.555  1.00  0.00     0.339 C 
ATOM      5  O   UNL     1      -1.241   6.144  -4.660  1.00  0.00    -0.246 OA
BRANCH   4   6
ATOM      6  C   UNL     1      -2.469   4.921  -1.990  1.00  0.00     0.071 A 
ATOM      7  C   UNL     1      -1.899   2.667  -0.585  1.00  0.00     0.072 A 
ATOM      8  C   UNL     1      -2.015   3.425  -1.783  1.00  0.00     0.045 A 
ATOM      9  N   UNL     1      -2.448   3.091   0.542  1.00  0.00    -0.248 NA
ATOM     10  C   UNL     1      -3.166   4.196   0.543  1.00  0.00     0.072 A 
ATOM     11  C   UNL     1      -3.278   5.171  -0.536  1.00  0.00     0.015 A 
ATOM     12  C   UNL     1      -3.777   4.293   1.799  1.00  0.00     0.029 A 
ATOM     13  C   UNL     1      -4.136   6.250   0.032  1.00  0.00     0.014 A 
ATOM     14  C   UNL     1      -4.585   5.344   2.193  1.00  0.00     0.005 A 
ATOM     15  C   UNL     1      -4.769   6.355   1.295  1.00  0.00    -0.050 A 
ATOM     16  C   UNL     1      -5.582   7.575   1.613  1.00  0.00     0.044 C 
BRANCH   7  17
ATOM     17  C   UNL     1      -1.103   1.398  -0.411  1.00  0.00     0.003 A 
ATOM     18  C   UNL     1       2.612   0.315  -0.029  1.00  0.00     0.044 C 
ATOM     19  C   UNL     1       1.110   0.280  -0.119  1.00  0.00    -0.050 A 
ATOM     20  C   UNL     1       0.481  -0.960  -0.020  1.00  0.00     0.004 A 
ATOM     21  C   UNL     1       0.319   1.441  -0.315  1.00  0.00     0.014 A 
ATOM     22  C   UNL     1      -0.905  -1.030  -0.047  1.00  0.00     0.004 A 
ATOM     23  C   UNL     1      -1.701   0.129  -0.204  1.00  0.00    -0.042 A 
ATOM     24  C   UNL     1      -3.188  -0.085  -0.118  1.00  0.00     0.045 C 
ENDBRANCH   7  17
ENDBRANCH   4   6
ENDBRANCH   3   4
ENDBRANCH   2   3
ENDBRANCH   1   2
BRANCH   1  25
ATOM     25  O   UNL     1       0.947   7.346  -3.267  1.00  0.00    -0.458 OA
BRANCH  25  26
ATOM     26  C   UNL     1       0.838   6.524  -2.180  1.00  0.00     0.338 C 
ATOM     27  O   UNL     1       1.769   6.189  -1.468  1.00  0.00    -0.246 OA
BRANCH  26  28
ATOM     28  C   UNL     1      -0.472   5.839  -2.106  1.00  0.00     0.060 A 
ATOM     29  C   UNL     1      -0.769   4.556  -3.360  1.00  0.00     0.016 A 
ATOM     30  C   UNL     1      -1.821   6.912  -1.587  1.00  0.00     0.016 A 
ATOM     31  C   UNL     1      -2.443   4.403  -4.149  1.00  0.00     0.010 A 
ATOM     32  C   UNL     1      -3.457   6.783  -2.441  1.00  0.00     0.010 A 
ATOM     33  C   UNL     1      -3.741   5.598  -3.769  1.00  0.00    -0.014 A 
BRANCH  33  34
ATOM     34  C   UNL     1      -4.753   6.215  -4.778  1.00  0.00     0.031 A 
ATOM     35  C   UNL     1      -6.090   6.094  -4.135  1.00  0.00     0.074 A 
ATOM     36  C   UNL     1      -4.685   7.040  -5.892  1.00  0.00     0.049 A 
ATOM     37  N   UNL     1      -6.829   5.035  -4.199  1.00  0.00    -0.248 NA
ATOM     38  C   UNL     1      -6.504   7.039  -3.076  1.00  0.00     0.031 C 
ATOM     39  C   UNL     1      -3.543   7.591  -6.646  1.00  0.00     0.029 A 
ATOM     40  N   UNL     1      -5.733   7.630  -6.614  1.00  0.00    -0.354 N 
ATOM     41  C   UNL     1      -7.912   5.320  -3.390  1.00  0.00     0.074 A 
ATOM     42  C   UNL     1      -7.458   6.327  -2.473  1.00  0.00     0.031 C 
ATOM     43  C   UNL     1      -3.940   8.557  -7.530  1.00  0.00     0.029 A 
ATOM     44  C   UNL     1      -5.393   8.648  -7.552  1.00  0.00     0.049 A 
ATOM     45  H   UNL     1      -6.668   7.351  -6.479  1.00  0.00     0.167 HD
ATOM     46  C   UNL     1      -9.186   5.034  -3.774  1.00  0.00     0.031 A 
ATOM     47  C   UNL     1      -6.209   9.415  -8.371  1.00  0.00     0.031 A 
ATOM     48  C   UNL     1      -9.199   4.255  -4.990  1.00  0.00     0.049 A 
ATOM     49  C   UNL     1      -7.477   8.664  -8.516  1.00  0.00     0.074 A 
ATOM     50  C   UNL     1      -8.646   3.050  -5.375  1.00  0.00     0.029 A 
ATOM     51  N   UNL     1      -9.456   4.944  -6.154  1.00  0.00    -0.354 N 
ATOM     52  N   UNL     1      -7.545   7.517  -9.125  1.00  0.00    -0.248 NA
ATOM     53  C   UNL     1      -8.505   8.932  -7.527  1.00  0.00     0.031 C 
ATOM     54  C   UNL     1      -8.154   3.274  -6.694  1.00  0.00     0.029 A 
ATOM     55  C   UNL     1      -8.541   4.551  -7.099  1.00  0.00     0.049 A 
ATOM     56  H   UNL     1     -10.173   5.606  -6.287  1.00  0.00     0.167 HD
ATOM     57  C   UNL     1      -8.290   6.731  -8.264  1.00  0.00     0.074 A 
ATOM     58  C   UNL     1      -8.884   7.671  -7.306  1.00  0.00     0.031 C 
ATOM     59  C   UNL     1      -8.102   5.382  -8.200  1.00  0.00     0.031 A 
BRANCH  46  60
ATOM     60  C   UNL     1     -10.392   5.809  -3.311  1.00  0.00    -0.014 A 
ATOM     61  C   UNL     1     -11.666   5.295  -3.605  1.00  0.00     0.010 A 
ATOM     62  C   UNL     1     -10.335   7.121  -2.790  1.00  0.00     0.010 A 
ATOM     63  C   UNL     1     -12.819   6.065  -3.417  1.00  0.00     0.020 A 
ATOM     64  C   UNL     1     -11.480   7.882  -2.557  1.00  0.00     0.020 A 
ATOM     65  C   UNL     1     -12.717   7.355  -2.893  1.00  0.00     0.054 A 
BRANCH  65  66
ATOM     66  S   UNL     1     -14.212   8.351  -2.698  1.00  0.00     0.124 S 
ATOM     67  O   UNL     1     -14.648   8.515  -4.081  1.00  0.00    -0.237 OA
ATOM     68  O   UNL     1     -15.046   7.488  -1.866  1.00  0.00    -0.237 OA
ATOM     69  O   UNL     1     -13.731   9.565  -2.042  1.00  0.00    -0.744 OA
ENDBRANCH  65  66
ENDBRANCH  46  60
BRANCH  47  70
ATOM     70  C   UNL     1      -6.185  10.877  -8.812  1.00  0.00    -0.014 A 
ATOM     71  C   UNL     1      -7.058  11.437  -9.797  1.00  0.00     0.010 A 
ATOM     72  C   UNL     1      -5.524  11.811  -7.998  1.00  0.00     0.010 A 
ATOM     73  C   UNL     1      -7.278  12.844  -9.919  1.00  0.00     0.020 A 
ATOM     74  C   UNL     1      -5.743  13.204  -8.105  1.00  0.00     0.020 A 
ATOM     75  C   UNL     1      -6.628  13.721  -9.051  1.00  0.00     0.054 A 
BRANCH  75  76
ATOM     76  S   UNL     1      -7.005  15.517  -9.060  1.00  0.00     0.124 S 
ATOM     77  O   UNL     1      -6.430  15.960 -10.327  1.00  0.00    -0.237 OA
ATOM     78  O   UNL     1      -8.462  15.549  -8.985  1.00  0.00    -0.237 OA
ATOM     79  O   UNL     1      -6.319  16.016  -7.867  1.00  0.00    -0.744 OA
ENDBRANCH  75  76
ENDBRANCH  47  70
BRANCH  59  80
ATOM     80  C   UNL     1      -7.224   4.716  -9.242  1.00  0.00    -0.014 A 
ATOM     81  C   UNL     1      -5.838   4.944  -9.389  1.00  0.00     0.010 A 
ATOM     82  C   UNL     1      -7.806   3.675  -9.984  1.00  0.00     0.010 A 
ATOM     83  C   UNL     1      -5.064   4.148 -10.254  1.00  0.00     0.020 A 
ATOM     84  C   UNL     1      -7.041   2.870 -10.830  1.00  0.00     0.020 A 
ATOM     85  C   UNL     1      -5.674   3.110 -10.966  1.00  0.00     0.054 A 
BRANCH  85  86
ATOM     86  S   UNL     1      -4.674   2.033 -12.035  1.00  0.00     0.124 S 
ATOM     87  O   UNL     1      -4.268   2.937 -13.107  1.00  0.00    -0.237 OA
ATOM     88  O   UNL     1      -3.603   1.594 -11.143  1.00  0.00    -0.237 OA
ATOM     89  O   UNL     1      -5.604   0.979 -12.435  1.00  0.00    -0.744 OA
ENDBRANCH  85  86
ENDBRANCH  59  80
ENDBRANCH  33  34
ENDBRANCH  26  28
ENDBRANCH  25  26
ENDBRANCH   1  25
TORSDOF 15
