REMARK SMILES COc1ccc(C2=NN(C(=O)CCC(=O)OCCOC(=O)c3ccc(-c4c5nc(c(-c6ccc(S(=O)(=O)[O-])cc6)c6ccc([nH]6)c(-c6ccc(S(=O)(=O)[O-])cc6)c6nc(c(-c7ccc(S(=O)(=O)[O-])cc7)c7ccc4[nH]7)C=C6)C=C5)cc3)[C@H](c3ccc(Cl)cc3Cl)C2)cc1
REMARK SMILES IDX 17 1 16 2 14 3 15 4 13 5 12 6 10 7 11 8 9 9 7 10 8 11 91 12
REMARK SMILES IDX 82 13 6 14 3 15 4 16 93 17 5 18 92 19 2 20 1 21 83 22 84 23
REMARK SMILES IDX 89 24 85 25 88 26 90 27 86 28 87 29 18 30 19 31 20 32 21 33
REMARK SMILES IDX 22 34 23 35 81 36 24 37 80 38 25 39 26 40 27 41 74 42 28 43
REMARK SMILES IDX 79 44 73 45 75 46 29 47 78 48 72 49 71 50 30 52 60 53 41 54
REMARK SMILES IDX 59 55 42 56 45 57 58 58 76 59 43 60 44 61 57 63 77 64 46 65
REMARK SMILES IDX 31 66 32 67 40 68 33 69 39 70 34 71 35 72 36 73 37 74 38 75
REMARK SMILES IDX 61 76 62 77 70 78 63 79 69 80 64 81 65 82 66 83 67 84 68 85
REMARK SMILES IDX 47 86 48 87 56 88 49 89 55 90 50 91 51 92 52 93 53 94 54 95
REMARK H PARENT 75 51 45 62
REMARK Flexibility Score: inf
ROOT
ATOM      1  C   UNL     1       6.212  -2.385   6.847  1.00  0.00     0.274 C 
ENDROOT
BRANCH   1   2
ATOM      2  O   UNL     1       5.195  -3.365   7.149  1.00  0.00    -0.462 OA
BRANCH   2   3
ATOM      3  C   UNL     1       5.601  -4.446   7.869  1.00  0.00     0.306 C 
ATOM      4  O   UNL     1       6.737  -4.609   8.295  1.00  0.00    -0.252 OA
BRANCH   3   5
ATOM      5  C   UNL     1       4.504  -5.468   8.035  1.00  0.00     0.132 C 
BRANCH   5   6
ATOM      6  C   UNL     1       3.302  -4.976   8.837  1.00  0.00     0.114 C 
BRANCH   6   7
ATOM      7  C   UNL     1       2.108  -4.762   7.928  1.00  0.00     0.243 C 
ATOM      8  O   UNL     1       1.623  -5.753   7.366  1.00  0.00    -0.273 OA
BRANCH   7   9
ATOM      9  N   UNL     1       1.667  -3.462   7.681  1.00  0.00    -0.225 N 
ATOM     10  C   UNL     1       1.215  -2.050   6.111  1.00  0.00     0.071 C 
ATOM     11  N   UNL     1       1.095  -3.296   6.419  1.00  0.00    -0.174 NA
ATOM     12  C   UNL     1       1.703  -1.147   7.182  1.00  0.00     0.091 C 
ATOM     13  C   UNL     1       2.187  -2.178   8.201  1.00  0.00     0.149 C 
BRANCH  10  14
ATOM     14  C   UNL     1       0.980  -1.500   4.782  1.00  0.00    -0.002 A 
ATOM     15  C   UNL     1       0.677  -0.254   2.320  1.00  0.00     0.118 A 
ATOM     16  C   UNL     1      -0.375  -0.262   3.244  1.00  0.00     0.047 A 
ATOM     17  C   UNL     1       1.892  -0.865   2.642  1.00  0.00     0.047 A 
ATOM     18  C   UNL     1      -0.232  -0.890   4.481  1.00  0.00     0.014 A 
ATOM     19  C   UNL     1       2.044  -1.495   3.877  1.00  0.00     0.014 A 
BRANCH  15  20
ATOM     20  O   UNL     1       0.418   0.410   1.152  1.00  0.00    -0.497 OA
ATOM     21  C   UNL     1       1.184  -0.006   0.027  1.00  0.00     0.278 C 
ENDBRANCH  15  20
ENDBRANCH  10  14
BRANCH  13  22
ATOM     22  C   UNL     1       1.977  -1.666   9.630  1.00  0.00    -0.004 A 
ATOM     23  C   UNL     1       2.479  -0.354   9.880  1.00  0.00     0.009 A 
ATOM     24  C   UNL     1       1.547  -2.390  10.752  1.00  0.00     0.047 A 
ATOM     25  C   UNL     1       2.641   0.158  11.168  1.00  0.00     0.021 A 
ATOM     26  C   UNL     1       1.744  -1.887  12.053  1.00  0.00     0.041 A 
ATOM     27  Cl  UNL     1       0.730  -3.904  10.661  1.00  0.00    -0.084 Cl
ATOM     28  C   UNL     1       2.310  -0.633  12.253  1.00  0.00     0.042 A 
ATOM     29  Cl  UNL     1       2.619  -0.060  13.844  1.00  0.00    -0.084 Cl
ENDBRANCH  13  22
ENDBRANCH   7   9
ENDBRANCH   6   7
ENDBRANCH   5   6
ENDBRANCH   3   5
ENDBRANCH   2   3
ENDBRANCH   1   2
BRANCH   1  30
ATOM     30  C   UNL     1       6.225  -1.200   7.822  1.00  0.00     0.275 C 
BRANCH  30  31
ATOM     31  O   UNL     1       6.803  -1.520   9.102  1.00  0.00    -0.458 OA
BRANCH  31  32
ATOM     32  C   UNL     1       5.919  -2.024   9.988  1.00  0.00     0.338 C 
ATOM     33  O   UNL     1       4.738  -2.221   9.791  1.00  0.00    -0.246 OA
BRANCH  32  34
ATOM     34  C   UNL     1       6.514  -2.398  11.261  1.00  0.00     0.060 A 
ATOM     35  C   UNL     1       6.472  -3.749  11.619  1.00  0.00     0.016 A 
ATOM     36  C   UNL     1       6.952  -1.417  12.148  1.00  0.00     0.016 A 
ATOM     37  C   UNL     1       6.931  -4.135  12.869  1.00  0.00     0.010 A 
ATOM     38  C   UNL     1       7.424  -1.808  13.398  1.00  0.00     0.010 A 
ATOM     39  C   UNL     1       7.438  -3.168  13.749  1.00  0.00    -0.014 A 
BRANCH  39  40
ATOM     40  C   UNL     1       8.143  -3.603  14.969  1.00  0.00     0.031 A 
ATOM     41  C   UNL     1       7.510  -3.489  16.317  1.00  0.00     0.074 A 
ATOM     42  C   UNL     1       9.393  -4.078  14.813  1.00  0.00     0.049 A 
ATOM     43  N   UNL     1       8.015  -3.794  17.483  1.00  0.00    -0.248 NA
ATOM     44  C   UNL     1       6.137  -2.963  16.367  1.00  0.00     0.031 C 
ATOM     45  C   UNL     1      10.082  -4.223  13.525  1.00  0.00     0.029 A 
ATOM     46  N   UNL     1      10.304  -4.522  15.731  1.00  0.00    -0.354 N 
ATOM     47  C   UNL     1       7.029  -3.493  18.412  1.00  0.00     0.074 A 
ATOM     48  C   UNL     1       5.899  -2.965  17.673  1.00  0.00     0.031 C 
ATOM     49  C   UNL     1      11.303  -4.732  13.737  1.00  0.00     0.029 A 
ATOM     50  C   UNL     1      11.496  -4.909  15.170  1.00  0.00     0.049 A 
ATOM     51  H   UNL     1      10.123  -4.561  16.698  1.00  0.00     0.167 HD
ATOM     52  C   UNL     1       7.073  -3.644  19.758  1.00  0.00     0.031 A 
ATOM     53  C   UNL     1      12.628  -5.344  15.750  1.00  0.00     0.031 A 
ATOM     54  C   UNL     1       8.223  -4.143  20.469  1.00  0.00     0.049 A 
ATOM     55  C   UNL     1      12.659  -5.471  17.243  1.00  0.00     0.074 A 
ATOM     56  C   UNL     1       8.379  -4.341  21.830  1.00  0.00     0.029 A 
ATOM     57  N   UNL     1       9.421  -4.516  19.872  1.00  0.00    -0.354 N 
ATOM     58  N   UNL     1      11.710  -5.202  18.108  1.00  0.00    -0.248 NA
ATOM     59  C   UNL     1      13.905  -5.964  17.837  1.00  0.00     0.031 C 
ATOM     60  C   UNL     1       9.685  -4.794  22.059  1.00  0.00     0.029 A 
ATOM     61  C   UNL     1      10.327  -4.923  20.837  1.00  0.00     0.049 A 
ATOM     62  H   UNL     1       9.600  -4.494  18.904  1.00  0.00     0.167 HD
ATOM     63  C   UNL     1      12.240  -5.504  19.354  1.00  0.00     0.074 A 
ATOM     64  C   UNL     1      13.587  -5.995  19.125  1.00  0.00     0.031 C 
ATOM     65  C   UNL     1      11.668  -5.387  20.578  1.00  0.00     0.031 A 
BRANCH  52  66
ATOM     66  C   UNL     1       5.858  -3.228  20.543  1.00  0.00    -0.014 A 
ATOM     67  C   UNL     1       4.680  -3.997  20.521  1.00  0.00     0.010 A 
ATOM     68  C   UNL     1       5.900  -2.064  21.331  1.00  0.00     0.010 A 
ATOM     69  C   UNL     1       3.554  -3.587  21.241  1.00  0.00     0.020 A 
ATOM     70  C   UNL     1       4.782  -1.661  22.069  1.00  0.00     0.020 A 
ATOM     71  C   UNL     1       3.609  -2.416  22.004  1.00  0.00     0.054 A 
BRANCH  71  72
ATOM     72  S   UNL     1       2.136  -1.905  22.933  1.00  0.00     0.124 S 
ATOM     73  O   UNL     1       1.284  -1.370  21.873  1.00  0.00    -0.237 OA
ATOM     74  O   UNL     1       1.680  -3.157  23.531  1.00  0.00    -0.237 OA
ATOM     75  O   UNL     1       2.648  -0.917  23.879  1.00  0.00    -0.744 OA
ENDBRANCH  71  72
ENDBRANCH  52  66
BRANCH  53  76
ATOM     76  C   UNL     1      13.802  -5.680  14.905  1.00  0.00    -0.014 A 
ATOM     77  C   UNL     1      14.166  -7.020  14.691  1.00  0.00     0.010 A 
ATOM     78  C   UNL     1      14.520  -4.660  14.253  1.00  0.00     0.010 A 
ATOM     79  C   UNL     1      15.232  -7.335  13.844  1.00  0.00     0.020 A 
ATOM     80  C   UNL     1      15.570  -4.973  13.387  1.00  0.00     0.020 A 
ATOM     81  C   UNL     1      15.925  -6.309  13.194  1.00  0.00     0.054 A 
BRANCH  81  82
ATOM     82  S   UNL     1      17.257  -6.741  12.040  1.00  0.00     0.124 S 
ATOM     83  O   UNL     1      18.354  -7.057  12.948  1.00  0.00    -0.237 OA
ATOM     84  O   UNL     1      16.692  -7.875  11.311  1.00  0.00    -0.237 OA
ATOM     85  O   UNL     1      17.427  -5.526  11.247  1.00  0.00    -0.744 OA
ENDBRANCH  81  82
ENDBRANCH  53  76
BRANCH  65  86
ATOM     86  C   UNL     1      12.505  -5.810  21.751  1.00  0.00    -0.014 A 
ATOM     87  C   UNL     1      13.563  -5.006  22.210  1.00  0.00     0.010 A 
ATOM     88  C   UNL     1      12.220  -7.020  22.408  1.00  0.00     0.010 A 
ATOM     89  C   UNL     1      14.348  -5.425  23.286  1.00  0.00     0.020 A 
ATOM     90  C   UNL     1      12.990  -7.430  23.498  1.00  0.00     0.020 A 
ATOM     91  C   UNL     1      14.060  -6.638  23.919  1.00  0.00     0.054 A 
BRANCH  91  92
ATOM     92  S   UNL     1      15.078  -7.154  25.328  1.00  0.00     0.124 S 
ATOM     93  O   UNL     1      16.276  -7.663  24.666  1.00  0.00    -0.237 OA
ATOM     94  O   UNL     1      15.253  -5.909  26.074  1.00  0.00    -0.237 OA
ATOM     95  O   UNL     1      14.257  -8.161  25.996  1.00  0.00    -0.744 OA
ENDBRANCH  91  92
ENDBRANCH  65  86
ENDBRANCH  39  40
ENDBRANCH  32  34
ENDBRANCH  31  32
ENDBRANCH  30  31
ENDBRANCH   1  30
TORSDOF 20
