REMARK SMILES C[C@H]1OCC[C@@H]1C(=O)Nc1ccc(Cl)c(C(=O)OCCOC(=O)c2ccc(-c3c4nc(c(-c5ccc(S(=O)(=O)[O-])cc5)c5ccc([nH]5)c(-c5ccc(S(=O)(=O)[O-])cc5)c5nc(c(-c6ccc(S(=O)(=O)[O-])cc6)c6ccc3[nH]6)C=C5)C=C4)cc2)c1
REMARK SMILES IDX 20 1 19 2 18 3 16 4 17 5 15 6 10 7 11 8 84 9 12 10 13 11
REMARK SMILES IDX 14 12 9 13 7 14 8 15 6 17 1 18 2 19 3 20 4 21 5 22 21 23
REMARK SMILES IDX 22 24 23 25 24 26 25 27 83 28 26 29 82 30 27 31 28 32 29 33
REMARK SMILES IDX 76 34 30 35 81 36 75 37 77 38 31 39 80 40 74 41 73 42 32 44
REMARK SMILES IDX 62 45 43 46 61 47 44 48 47 49 60 50 78 51 45 52 46 53 59 55
REMARK SMILES IDX 79 56 48 57 33 58 34 59 42 60 35 61 41 62 36 63 37 64 38 65
REMARK SMILES IDX 39 66 40 67 63 68 64 69 72 70 65 71 71 72 66 73 67 74 68 75
REMARK SMILES IDX 69 76 70 77 49 78 50 79 58 80 51 81 57 82 52 83 53 84 54 85
REMARK SMILES IDX 55 86 56 87
REMARK H PARENT 9 16 77 43 47 54
REMARK Flexibility Score: inf
ROOT
ATOM      1  C   UNL     1      -0.458   2.328   8.412  1.00  0.00     0.275 C 
ENDROOT
BRANCH   1   2
ATOM      2  C   UNL     1      -0.116   3.153   7.173  1.00  0.00     0.275 C 
BRANCH   2   3
ATOM      3  O   UNL     1      -0.826   2.632   6.033  1.00  0.00    -0.458 OA
BRANCH   3   4
ATOM      4  C   UNL     1      -0.082   2.203   4.985  1.00  0.00     0.339 C 
ATOM      5  O   UNL     1       1.132   2.197   4.910  1.00  0.00    -0.246 OA
BRANCH   4   6
ATOM      6  C   UNL     1      -0.953   1.530   3.995  1.00  0.00     0.080 A 
ATOM      7  C   UNL     1      -1.285  -0.464   2.645  1.00  0.00     0.042 A 
ATOM      8  C   UNL     1      -2.543  -0.001   2.273  1.00  0.00     0.028 A 
ATOM      9  C   UNL     1      -0.498   0.295   3.505  1.00  0.00     0.043 A 
ATOM     10  C   UNL     1      -2.975   1.258   2.704  1.00  0.00     0.023 A 
ATOM     11  C   UNL     1      -2.181   2.032   3.559  1.00  0.00     0.055 A 
ATOM     12  Cl  UNL     1      -2.764   3.604   3.974  1.00  0.00    -0.083 Cl
BRANCH   7  13
ATOM     13  N   UNL     1      -0.863  -1.749   2.305  1.00  0.00    -0.326 N 
ATOM     14  C   UNL     1      -0.369  -2.224   1.127  1.00  0.00     0.230 C 
ATOM     15  O   UNL     1      -0.128  -3.434   1.062  1.00  0.00    -0.274 OA
ATOM     16  H   UNL     1      -0.933  -2.415   3.027  1.00  0.00     0.169 HD
BRANCH  14  17
ATOM     17  C   UNL     1      -0.064  -1.341  -0.077  1.00  0.00     0.110 C 
ATOM     18  C   UNL     1       2.011  -0.008  -0.674  1.00  0.00     0.039 C 
ATOM     19  C   UNL     1       0.816  -0.146   0.263  1.00  0.00     0.127 C 
ATOM     20  O   UNL     1      -0.011   1.021   0.132  1.00  0.00    -0.378 OA
ATOM     21  C   UNL     1      -1.071   0.724  -0.777  1.00  0.00     0.161 C 
ATOM     22  C   UNL     1      -1.280  -0.776  -0.773  1.00  0.00     0.044 C 
ENDBRANCH  14  17
ENDBRANCH   7  13
ENDBRANCH   4   6
ENDBRANCH   3   4
ENDBRANCH   2   3
ENDBRANCH   1   2
BRANCH   1  23
ATOM     23  O   UNL     1       0.142   1.023   8.308  1.00  0.00    -0.458 OA
BRANCH  23  24
ATOM     24  C   UNL     1      -0.702   0.014   7.998  1.00  0.00     0.338 C 
ATOM     25  O   UNL     1      -1.913   0.062   7.867  1.00  0.00    -0.246 OA
BRANCH  24  26
ATOM     26  C   UNL     1       0.086  -1.194   7.718  1.00  0.00     0.060 A 
ATOM     27  C   UNL     1       0.665  -1.312   6.458  1.00  0.00     0.016 A 
ATOM     28  C   UNL     1       0.162  -2.244   8.627  1.00  0.00     0.016 A 
ATOM     29  C   UNL     1       1.245  -2.513   6.059  1.00  0.00     0.010 A 
ATOM     30  C   UNL     1       0.838  -3.416   8.261  1.00  0.00     0.010 A 
ATOM     31  C   UNL     1       1.361  -3.578   6.963  1.00  0.00    -0.014 A 
BRANCH  31  32
ATOM     32  C   UNL     1       2.022  -4.851   6.552  1.00  0.00     0.031 A 
ATOM     33  C   UNL     1       1.275  -6.160   6.628  1.00  0.00     0.074 A 
ATOM     34  C   UNL     1       3.296  -4.844   6.105  1.00  0.00     0.049 A 
ATOM     35  N   UNL     1       1.726  -7.379   6.479  1.00  0.00    -0.248 NA
ATOM     36  C   UNL     1      -0.166  -6.088   6.923  1.00  0.00     0.031 C 
ATOM     37  C   UNL     1       4.131  -3.652   5.933  1.00  0.00     0.029 A 
ATOM     38  N   UNL     1       4.113  -5.875   5.707  1.00  0.00    -0.354 N 
ATOM     39  C   UNL     1       0.643  -8.220   6.712  1.00  0.00     0.074 A 
ATOM     40  C   UNL     1      -0.488  -7.370   7.018  1.00  0.00     0.031 C 
ATOM     41  C   UNL     1       5.320  -4.013   5.429  1.00  0.00     0.029 A 
ATOM     42  C   UNL     1       5.372  -5.467   5.331  1.00  0.00     0.049 A 
ATOM     43  H   UNL     1       3.825  -6.816   5.693  1.00  0.00     0.167 HD
ATOM     44  C   UNL     1       0.595  -9.574   6.679  1.00  0.00     0.031 A 
ATOM     45  C   UNL     1       6.466  -6.176   4.990  1.00  0.00     0.031 A 
ATOM     46  C   UNL     1       1.713 -10.417   6.341  1.00  0.00     0.049 A 
ATOM     47  C   UNL     1       6.404  -7.676   5.008  1.00  0.00     0.074 A 
ATOM     48  C   UNL     1       1.759 -11.799   6.271  1.00  0.00     0.029 A 
ATOM     49  N   UNL     1       2.978  -9.959   6.005  1.00  0.00    -0.354 N 
ATOM     50  N   UNL     1       5.383  -8.453   5.282  1.00  0.00    -0.248 NA
ATOM     51  C   UNL     1       7.645  -8.395   4.690  1.00  0.00     0.031 C 
ATOM     52  C   UNL     1       3.064 -12.179   5.938  1.00  0.00     0.029 A 
ATOM     53  C   UNL     1       3.817 -11.032   5.749  1.00  0.00     0.049 A 
ATOM     54  H   UNL     1       3.241  -9.012   5.956  1.00  0.00     0.167 HD
ATOM     55  C   UNL     1       5.858  -9.754   5.162  1.00  0.00     0.074 A 
ATOM     56  C   UNL     1       7.249  -9.659   4.768  1.00  0.00     0.031 C 
ATOM     57  C   UNL     1       5.202 -10.922   5.367  1.00  0.00     0.031 A 
BRANCH  44  58
ATOM     58  C   UNL     1      -0.702 -10.238   7.066  1.00  0.00    -0.014 A 
ATOM     59  C   UNL     1      -1.823 -10.216   6.218  1.00  0.00     0.010 A 
ATOM     60  C   UNL     1      -0.783 -10.932   8.288  1.00  0.00     0.010 A 
ATOM     61  C   UNL     1      -3.014 -10.842   6.604  1.00  0.00     0.020 A 
ATOM     62  C   UNL     1      -1.962 -11.581   8.665  1.00  0.00     0.020 A 
ATOM     63  C   UNL     1      -3.077 -11.516   7.828  1.00  0.00     0.054 A 
BRANCH  63  64
ATOM     64  S   UNL     1      -4.628 -12.331   8.299  1.00  0.00     0.124 S 
ATOM     65  O   UNL     1      -5.468 -11.192   8.660  1.00  0.00    -0.237 OA
ATOM     66  O   UNL     1      -5.011 -13.029   7.074  1.00  0.00    -0.237 OA
ATOM     67  O   UNL     1      -4.242 -13.197   9.410  1.00  0.00    -0.744 OA
ENDBRANCH  63  64
ENDBRANCH  44  58
BRANCH  45  68
ATOM     68  C   UNL     1       7.735  -5.467   4.663  1.00  0.00    -0.014 A 
ATOM     69  C   UNL     1       8.238  -5.463   3.351  1.00  0.00     0.010 A 
ATOM     70  C   UNL     1       8.435  -4.770   5.666  1.00  0.00     0.010 A 
ATOM     71  C   UNL     1       9.421  -4.780   3.049  1.00  0.00     0.020 A 
ATOM     72  C   UNL     1       9.600  -4.061   5.362  1.00  0.00     0.020 A 
ATOM     73  C   UNL     1      10.091  -4.080   4.056  1.00  0.00     0.054 A 
BRANCH  73  74
ATOM     74  S   UNL     1      11.586  -3.143   3.631  1.00  0.00     0.124 S 
ATOM     75  O   UNL     1      12.583  -4.202   3.510  1.00  0.00    -0.237 OA
ATOM     76  O   UNL     1      11.205  -2.486   2.383  1.00  0.00    -0.237 OA
ATOM     77  O   UNL     1      11.760  -2.244   4.770  1.00  0.00    -0.744 OA
ENDBRANCH  73  74
ENDBRANCH  45  68
BRANCH  57  78
ATOM     78  C   UNL     1       5.978 -12.193   5.150  1.00  0.00    -0.014 A 
ATOM     79  C   UNL     1       6.948 -12.617   6.075  1.00  0.00     0.010 A 
ATOM     80  C   UNL     1       5.703 -12.992   4.026  1.00  0.00     0.010 A 
ATOM     81  C   UNL     1       7.654 -13.805   5.862  1.00  0.00     0.020 A 
ATOM     82  C   UNL     1       6.390 -14.192   3.822  1.00  0.00     0.020 A 
ATOM     83  C   UNL     1       7.372 -14.583   4.735  1.00  0.00     0.054 A 
BRANCH  83  84
ATOM     84  S   UNL     1       8.274 -16.139   4.499  1.00  0.00     0.124 S 
ATOM     85  O   UNL     1       9.583 -15.666   4.055  1.00  0.00    -0.237 OA
ATOM     86  O   UNL     1       8.242 -16.736   5.832  1.00  0.00    -0.237 OA
ATOM     87  O   UNL     1       7.490 -16.845   3.488  1.00  0.00    -0.744 OA
ENDBRANCH  83  84
ENDBRANCH  57  78
ENDBRANCH  31  32
ENDBRANCH  24  26
ENDBRANCH  23  24
ENDBRANCH   1  23
TORSDOF 16
