REMARK SMILES CCCCCCNC(=O)Oc1cccc(-c2ccc([C@@H](C)C(=O)OCCOC(=O)c3ccc(-c4c5nc(c(-c6ccc(S(=O)(=O)[O-])cc6)c6ccc([nH]6)c(-c6ccc(S(=O)(=O)[O-])cc6)c6nc(c(-c7ccc(S(=O)(=O)[O-])cc7)c7ccc4[nH]7)C=C6)C=C5)cc3)cc2O)c1
REMARK SMILES IDX 20 1 21 2 19 3 16 4 17 5 91 6 18 7 90 8 15 9 11 10 12 11
REMARK SMILES IDX 93 12 13 13 14 14 10 15 8 16 7 17 9 19 6 20 5 21 4 22 3 23
REMARK SMILES IDX 2 24 1 25 92 26 22 28 23 29 24 30 25 31 26 32 27 33 28 34
REMARK SMILES IDX 29 35 30 36 31 37 89 38 32 39 88 40 33 41 34 42 35 43 82 44
REMARK SMILES IDX 36 45 87 46 81 47 83 48 37 49 86 50 80 51 79 52 38 54 68 55
REMARK SMILES IDX 49 56 67 57 50 58 53 59 66 60 84 61 51 62 52 63 65 65 85 66
REMARK SMILES IDX 54 67 39 68 40 69 48 70 41 71 47 72 42 73 43 74 44 75 45 76
REMARK SMILES IDX 46 77 69 78 70 79 78 80 71 81 77 82 72 83 73 84 74 85 75 86
REMARK SMILES IDX 76 87 55 88 56 89 64 90 57 91 63 92 58 93 59 94 60 95 61 96
REMARK SMILES IDX 62 97
REMARK H PARENT 7 18 92 27 83 53 53 64
REMARK Flexibility Score: inf
ROOT
ATOM      1  C   UNL     1      -4.812 -11.306  -8.159  1.00  0.00     0.126 C 
ATOM      2  C   UNL     1      -6.020 -11.796  -8.955  1.00  0.00     0.025 C 
ENDROOT
BRANCH   1   3
ATOM      3  C   UNL     1      -4.872  -9.812  -7.881  1.00  0.00    -0.030 A 
ATOM      4  C   UNL     1      -5.009  -7.024  -7.290  1.00  0.00     0.024 A 
ATOM      5  C   UNL     1      -4.989  -7.494  -8.615  1.00  0.00     0.013 A 
ATOM      6  C   UNL     1      -4.963  -7.985  -6.269  1.00  0.00     0.123 A 
ATOM      7  C   UNL     1      -4.931  -8.862  -8.908  1.00  0.00     0.005 A 
ATOM      8  C   UNL     1      -4.893  -9.351  -6.556  1.00  0.00     0.051 A 
BRANCH   4   9
ATOM      9  C   UNL     1      -5.111  -5.577  -7.037  1.00  0.00    -0.011 A 
ATOM     10  C   UNL     1      -4.270  -3.516  -6.074  1.00  0.00     0.133 A 
ATOM     11  C   UNL     1      -5.387  -2.816  -6.526  1.00  0.00     0.047 A 
ATOM     12  C   UNL     1      -4.123  -4.883  -6.318  1.00  0.00     0.056 A 
ATOM     13  C   UNL     1      -6.363  -3.488  -7.255  1.00  0.00     0.004 A 
ATOM     14  C   UNL     1      -6.227  -4.856  -7.503  1.00  0.00     0.009 A 
BRANCH  10  15
ATOM     15  O   UNL     1      -3.376  -2.816  -5.249  1.00  0.00    -0.410 OA
BRANCH  15  16
ATOM     16  C   UNL     1      -2.038  -2.794  -5.612  1.00  0.00     0.412 C 
ATOM     17  N   UNL     1      -1.251  -2.123  -4.716  1.00  0.00    -0.321 N 
ATOM     18  H   UNL     1      -0.286  -2.099  -4.911  1.00  0.00     0.167 HD
ATOM     19  O   UNL     1      -1.561  -3.284  -6.628  1.00  0.00    -0.224 OA
BRANCH  17  20
ATOM     20  C   UNL     1      -1.683  -1.443  -3.510  1.00  0.00     0.119 C 
BRANCH  20  21
ATOM     21  C   UNL     1      -1.056  -2.034  -2.248  1.00  0.00     0.021 C 
BRANCH  21  22
ATOM     22  C   UNL     1       0.472  -1.934  -2.174  1.00  0.00     0.002 C 
BRANCH  22  23
ATOM     23  C   UNL     1       1.054  -0.520  -2.283  1.00  0.00    -0.000 C 
BRANCH  23  24
ATOM     24  C   UNL     1       0.566   0.479  -1.231  1.00  0.00    -0.003 C 
ATOM     25  C   UNL     1       0.941   0.090   0.190  1.00  0.00     0.004 C 
ENDBRANCH  23  24
ENDBRANCH  22  23
ENDBRANCH  21  22
ENDBRANCH  20  21
ENDBRANCH  17  20
ENDBRANCH  15  16
ENDBRANCH  10  15
ENDBRANCH   4   9
BRANCH   6  26
ATOM     26  O   UNL     1      -5.023  -7.671  -4.936  1.00  0.00    -0.507 OA
ATOM     27  H   UNL     1      -5.072  -6.774  -4.668  1.00  0.00     0.293 HD
ENDBRANCH   6  26
ENDBRANCH   1   3
BRANCH   1  28
ATOM     28  C   UNL     1      -3.528 -11.823  -8.800  1.00  0.00     0.313 C 
ATOM     29  O   UNL     1      -3.125 -12.968  -8.620  1.00  0.00    -0.252 OA
BRANCH  28  30
ATOM     30  O   UNL     1      -2.925 -10.926  -9.624  1.00  0.00    -0.462 OA
BRANCH  30  31
ATOM     31  C   UNL     1      -1.683 -11.335 -10.229  1.00  0.00     0.274 C 
BRANCH  31  32
ATOM     32  C   UNL     1      -0.480 -10.726  -9.505  1.00  0.00     0.275 C 
BRANCH  32  33
ATOM     33  O   UNL     1      -0.320 -11.289  -8.190  1.00  0.00    -0.458 OA
BRANCH  33  34
ATOM     34  C   UNL     1      -0.876 -10.563  -7.192  1.00  0.00     0.338 C 
ATOM     35  O   UNL     1      -1.434  -9.485  -7.288  1.00  0.00    -0.246 OA
BRANCH  34  36
ATOM     36  C   UNL     1      -0.823 -11.327  -5.937  1.00  0.00     0.060 A 
ATOM     37  C   UNL     1      -2.031 -11.726  -5.362  1.00  0.00     0.016 A 
ATOM     38  C   UNL     1       0.388 -11.567  -5.285  1.00  0.00     0.016 A 
ATOM     39  C   UNL     1      -2.042 -12.347  -4.118  1.00  0.00     0.010 A 
ATOM     40  C   UNL     1       0.377 -12.199  -4.037  1.00  0.00     0.010 A 
ATOM     41  C   UNL     1      -0.839 -12.573  -3.438  1.00  0.00    -0.014 A 
BRANCH  41  42
ATOM     42  C   UNL     1      -0.874 -13.146  -2.071  1.00  0.00     0.031 A 
ATOM     43  C   UNL     1      -0.632 -12.261  -0.882  1.00  0.00     0.074 A 
ATOM     44  C   UNL     1      -1.155 -14.450  -1.898  1.00  0.00     0.049 A 
ATOM     45  N   UNL     1      -0.603 -12.573   0.388  1.00  0.00    -0.248 NA
ATOM     46  C   UNL     1      -0.386 -10.837  -1.159  1.00  0.00     0.031 C 
ATOM     47  C   UNL     1      -1.433 -15.403  -2.974  1.00  0.00     0.029 A 
ATOM     48  N   UNL     1      -1.250 -15.198  -0.752  1.00  0.00    -0.354 N 
ATOM     49  C   UNL     1      -0.317 -11.392   1.062  1.00  0.00     0.074 A 
ATOM     50  C   UNL     1      -0.161 -10.361   0.057  1.00  0.00     0.031 C 
ATOM     51  C   UNL     1      -1.668 -16.611  -2.436  1.00  0.00     0.029 A 
ATOM     52  C   UNL     1      -1.524 -16.524  -0.984  1.00  0.00     0.049 A 
ATOM     53  H   UNL     1      -1.134 -14.821   0.149  1.00  0.00     0.167 HD
ATOM     54  C   UNL     1      -0.198 -11.184   2.396  1.00  0.00     0.031 A 
ATOM     55  C   UNL     1      -1.629 -17.558  -0.128  1.00  0.00     0.031 A 
ATOM     56  C   UNL     1      -0.351 -12.212   3.391  1.00  0.00     0.049 A 
ATOM     57  C   UNL     1      -1.468 -17.312   1.346  1.00  0.00     0.074 A 
ATOM     58  C   UNL     1      -0.264 -12.100   4.768  1.00  0.00     0.029 A 
ATOM     59  N   UNL     1      -0.619 -13.545   3.115  1.00  0.00    -0.354 N 
ATOM     60  N   UNL     1      -1.215 -16.185   1.969  1.00  0.00    -0.248 NA
ATOM     61  C   UNL     1      -1.614 -18.474   2.234  1.00  0.00     0.031 C 
ATOM     62  C   UNL     1      -0.439 -13.373   5.322  1.00  0.00     0.029 A 
ATOM     63  C   UNL     1      -0.680 -14.271   4.294  1.00  0.00     0.049 A 
ATOM     64  H   UNL     1      -0.747 -13.921   2.214  1.00  0.00     0.167 HD
ATOM     65  C   UNL     1      -1.183 -16.499   3.323  1.00  0.00     0.074 A 
ATOM     66  C   UNL     1      -1.459 -17.918   3.429  1.00  0.00     0.031 C 
ATOM     67  C   UNL     1      -0.946 -15.685   4.381  1.00  0.00     0.031 A 
BRANCH  54  68
ATOM     68  C   UNL     1       0.157  -9.791   2.841  1.00  0.00    -0.014 A 
ATOM     69  C   UNL     1      -0.777  -8.741   2.772  1.00  0.00     0.010 A 
ATOM     70  C   UNL     1       1.450  -9.525   3.327  1.00  0.00     0.010 A 
ATOM     71  C   UNL     1      -0.406  -7.440   3.124  1.00  0.00     0.020 A 
ATOM     72  C   UNL     1       1.818  -8.230   3.703  1.00  0.00     0.020 A 
ATOM     73  C   UNL     1       0.894  -7.191   3.574  1.00  0.00     0.054 A 
BRANCH  73  74
ATOM     74  S   UNL     1       1.361  -5.490   4.001  1.00  0.00     0.124 S 
ATOM     75  O   UNL     1       1.547  -4.889   2.683  1.00  0.00    -0.237 OA
ATOM     76  O   UNL     1       0.201  -5.013   4.749  1.00  0.00    -0.237 OA
ATOM     77  O   UNL     1       2.581  -5.653   4.789  1.00  0.00    -0.744 OA
ENDBRANCH  73  74
ENDBRANCH  54  68
BRANCH  55  78
ATOM     78  C   UNL     1      -1.881 -18.922  -0.662  1.00  0.00    -0.014 A 
ATOM     79  C   UNL     1      -3.140 -19.529  -0.524  1.00  0.00     0.010 A 
ATOM     80  C   UNL     1      -0.866 -19.600  -1.364  1.00  0.00     0.010 A 
ATOM     81  C   UNL     1      -3.383 -20.788  -1.082  1.00  0.00     0.020 A 
ATOM     82  C   UNL     1      -1.111 -20.847  -1.942  1.00  0.00     0.020 A 
ATOM     83  C   UNL     1      -2.368 -21.436  -1.794  1.00  0.00     0.054 A 
BRANCH  83  84
ATOM     84  S   UNL     1      -2.728 -23.028  -2.588  1.00  0.00     0.124 S 
ATOM     85  O   UNL     1      -2.679 -23.950  -1.457  1.00  0.00    -0.237 OA
ATOM     86  O   UNL     1      -4.052 -22.804  -3.164  1.00  0.00    -0.237 OA
ATOM     87  O   UNL     1      -1.651 -23.173  -3.564  1.00  0.00    -0.744 OA
ENDBRANCH  83  84
ENDBRANCH  55  78
BRANCH  67  88
ATOM     88  C   UNL     1      -0.988 -16.307   5.751  1.00  0.00    -0.014 A 
ATOM     89  C   UNL     1       0.064 -17.118   6.212  1.00  0.00     0.010 A 
ATOM     90  C   UNL     1      -2.071 -16.034   6.606  1.00  0.00     0.010 A 
ATOM     91  C   UNL     1       0.021 -17.667   7.496  1.00  0.00     0.020 A 
ATOM     92  C   UNL     1      -2.106 -16.563   7.899  1.00  0.00     0.020 A 
ATOM     93  C   UNL     1      -1.065 -17.388   8.331  1.00  0.00     0.054 A 
BRANCH  93  94
ATOM     94  S   UNL     1      -1.080 -18.074  10.011  1.00  0.00     0.124 S 
ATOM     95  O   UNL     1      -1.462 -19.463   9.768  1.00  0.00    -0.237 OA
ATOM     96  O   UNL     1       0.297 -17.870  10.456  1.00  0.00    -0.237 OA
ATOM     97  O   UNL     1      -2.078 -17.265  10.706  1.00  0.00    -0.744 OA
ENDBRANCH  93  94
ENDBRANCH  67  88
ENDBRANCH  41  42
ENDBRANCH  34  36
ENDBRANCH  33  34
ENDBRANCH  32  33
ENDBRANCH  31  32
ENDBRANCH  30  31
ENDBRANCH  28  30
ENDBRANCH   1  28
TORSDOF 24
