REMARK SMILES COc1ccc(-c2nc(NCC(=O)OCCOC(=O)c3ccc(-c4c5nc(c(-c6ccc(S(=O)(=O)[O-])cc6)c6ccc([nH]6)c(-c6ccc(S(=O)(=O)[O-])cc6)c6nc(c(-c7ccc(S(=O)(=O)[O-])cc7)c7ccc4[nH]7)C=C6)C=C5)cc3)sc2-c2ccc(OC)cc2)cc1
REMARK SMILES IDX 15 1 14 2 12 3 13 4 11 5 10 6 9 8 7 9 8 10 81 11 80 12 6 13
REMARK SMILES IDX 3 14 4 15 91 16 5 17 90 18 2 19 1 20 82 21 83 22 89 23 84 24
REMARK SMILES IDX 88 25 85 26 86 27 87 28 16 29 17 30 18 31 19 32 20 33 21 34
REMARK SMILES IDX 79 35 22 36 78 37 23 38 24 39 25 40 72 41 26 42 77 43 71 44
REMARK SMILES IDX 73 45 27 46 76 47 70 48 69 49 28 51 58 52 39 53 57 54 40 55
REMARK SMILES IDX 43 56 56 57 74 58 41 59 42 60 55 62 75 63 44 64 29 65 30 66
REMARK SMILES IDX 38 67 31 68 37 69 32 70 33 71 34 72 35 73 36 74 59 75 60 76
REMARK SMILES IDX 68 77 61 78 67 79 62 80 63 81 64 82 65 83 66 84 45 85 46 86
REMARK SMILES IDX 54 87 47 88 53 89 48 90 49 91 50 92 51 93 52 94
REMARK H PARENT 10 7 73 50 43 61
REMARK Flexibility Score: inf
ROOT
ATOM      1  C   UNL     1       8.382   5.833  -7.113  1.00  0.00     0.274 C 
ENDROOT
BRANCH   1   2
ATOM      2  O   UNL     1       6.959   5.639  -7.152  1.00  0.00    -0.461 OA
BRANCH   2   3
ATOM      3  C   UNL     1       6.319   6.091  -8.267  1.00  0.00     0.325 C 
ATOM      4  O   UNL     1       6.847   6.751  -9.155  1.00  0.00    -0.250 OA
BRANCH   3   5
ATOM      5  C   UNL     1       4.842   5.725  -8.272  1.00  0.00     0.238 C 
BRANCH   5   6
ATOM      6  N   UNL     1       4.553   4.482  -7.566  1.00  0.00    -0.351 N 
ATOM      7  H   UNL     1       5.180   3.731  -7.678  1.00  0.00     0.163 HD
BRANCH   6   8
ATOM      8  C   UNL     1       3.481   4.299  -6.770  1.00  0.00     0.184 A 
ATOM      9  C   UNL     1       2.183   3.339  -5.240  1.00  0.00     0.091 A 
ATOM     10  N   UNL     1       3.304   3.213  -6.051  1.00  0.00    -0.220 NA
ATOM     11  C   UNL     1       1.542   4.569  -5.310  1.00  0.00     0.064 A 
ATOM     12  S   UNL     1       2.241   5.478  -6.578  1.00  0.00    -0.096 S 
BRANCH   9  13
ATOM     13  C   UNL     1       1.804   2.291  -4.301  1.00  0.00     0.002 A 
ATOM     14  C   UNL     1       1.035   0.488  -2.298  1.00  0.00     0.118 A 
ATOM     15  C   UNL     1       0.097   0.942  -3.223  1.00  0.00     0.047 A 
ATOM     16  C   UNL     1       2.373   0.867  -2.419  1.00  0.00     0.047 A 
ATOM     17  C   UNL     1       0.477   1.846  -4.218  1.00  0.00     0.014 A 
ATOM     18  C   UNL     1       2.757   1.764  -3.422  1.00  0.00     0.014 A 
BRANCH  14  19
ATOM     19  O   UNL     1       0.571  -0.361  -1.329  1.00  0.00    -0.497 OA
ATOM     20  C   UNL     1       1.036  -0.029  -0.023  1.00  0.00     0.278 C 
ENDBRANCH  14  19
ENDBRANCH   9  13
BRANCH  11  21
ATOM     21  C   UNL     1       0.519   5.198  -4.473  1.00  0.00    -0.006 A 
ATOM     22  C   UNL     1      -0.580   5.864  -5.028  1.00  0.00     0.013 A 
ATOM     23  C   UNL     1       0.678   5.210  -3.080  1.00  0.00     0.013 A 
ATOM     24  C   UNL     1      -1.484   6.540  -4.206  1.00  0.00     0.047 A 
ATOM     25  C   UNL     1      -0.234   5.879  -2.258  1.00  0.00     0.047 A 
ATOM     26  C   UNL     1      -1.317   6.552  -2.820  1.00  0.00     0.118 A 
BRANCH  26  27
ATOM     27  O   UNL     1      -2.262   7.262  -2.132  1.00  0.00    -0.497 OA
ATOM     28  C   UNL     1      -2.173   7.229  -0.714  1.00  0.00     0.278 C 
ENDBRANCH  26  27
ENDBRANCH  11  21
ENDBRANCH   6   8
ENDBRANCH   5   6
ENDBRANCH   3   5
ENDBRANCH   2   3
ENDBRANCH   1   2
BRANCH   1  29
ATOM     29  C   UNL     1       9.126   4.566  -7.547  1.00  0.00     0.275 C 
BRANCH  29  30
ATOM     30  O   UNL     1       8.990   4.306  -8.957  1.00  0.00    -0.458 OA
BRANCH  30  31
ATOM     31  C   UNL     1       7.894   3.592  -9.314  1.00  0.00     0.338 C 
ATOM     32  O   UNL     1       7.037   3.145  -8.570  1.00  0.00    -0.246 OA
BRANCH  31  33
ATOM     33  C   UNL     1       7.776   3.561 -10.783  1.00  0.00     0.060 A 
ATOM     34  C   UNL     1       6.561   3.963 -11.348  1.00  0.00     0.016 A 
ATOM     35  C   UNL     1       8.813   3.096 -11.593  1.00  0.00     0.016 A 
ATOM     36  C   UNL     1       6.376   3.904 -12.726  1.00  0.00     0.010 A 
ATOM     37  C   UNL     1       8.624   3.032 -12.978  1.00  0.00     0.010 A 
ATOM     38  C   UNL     1       7.402   3.428 -13.550  1.00  0.00    -0.014 A 
BRANCH  38  39
ATOM     39  C   UNL     1       7.173   3.305 -15.009  1.00  0.00     0.031 A 
ATOM     40  C   UNL     1       6.937   1.952 -15.615  1.00  0.00     0.074 A 
ATOM     41  C   UNL     1       7.153   4.409 -15.779  1.00  0.00     0.049 A 
ATOM     42  N   UNL     1       6.785   1.627 -16.873  1.00  0.00    -0.248 NA
ATOM     43  C   UNL     1       6.861   0.815 -14.684  1.00  0.00     0.031 C 
ATOM     44  C   UNL     1       7.316   5.781 -15.294  1.00  0.00     0.029 A 
ATOM     45  N   UNL     1       6.987   4.550 -17.134  1.00  0.00    -0.354 N 
ATOM     46  C   UNL     1       6.615   0.248 -16.889  1.00  0.00     0.074 A 
ATOM     47  C   UNL     1       6.696  -0.204 -15.516  1.00  0.00     0.031 C 
ATOM     48  C   UNL     1       7.239   6.625 -16.337  1.00  0.00     0.029 A 
ATOM     49  C   UNL     1       7.071   5.852 -17.565  1.00  0.00     0.049 A 
ATOM     50  H   UNL     1       6.824   3.791 -17.739  1.00  0.00     0.167 HD
ATOM     51  C   UNL     1       6.412  -0.566 -17.952  1.00  0.00     0.031 A 
ATOM     52  C   UNL     1       7.045   6.363 -18.811  1.00  0.00     0.031 A 
ATOM     53  C   UNL     1       6.336  -0.109 -19.314  1.00  0.00     0.049 A 
ATOM     54  C   UNL     1       6.887   5.432 -19.982  1.00  0.00     0.074 A 
ATOM     55  C   UNL     1       6.130  -0.855 -20.462  1.00  0.00     0.029 A 
ATOM     56  N   UNL     1       6.464   1.213 -19.714  1.00  0.00    -0.354 N 
ATOM     57  N   UNL     1       6.736   4.129 -19.981  1.00  0.00    -0.248 NA
ATOM     58  C   UNL     1       6.899   6.038 -21.320  1.00  0.00     0.031 C 
ATOM     59  C   UNL     1       6.181   0.012 -21.560  1.00  0.00     0.029 A 
ATOM     60  C   UNL     1       6.365   1.303 -21.092  1.00  0.00     0.049 A 
ATOM     61  H   UNL     1       6.605   1.975 -19.107  1.00  0.00     0.167 HD
ATOM     62  C   UNL     1       6.616   3.761 -21.317  1.00  0.00     0.074 A 
ATOM     63  C   UNL     1       6.699   4.981 -22.095  1.00  0.00     0.031 C 
ATOM     64  C   UNL     1       6.451   2.526 -21.850  1.00  0.00     0.031 A 
BRANCH  51  65
ATOM     65  C   UNL     1       6.303  -2.043 -17.684  1.00  0.00    -0.014 A 
ATOM     66  C   UNL     1       5.154  -2.596 -17.091  1.00  0.00     0.010 A 
ATOM     67  C   UNL     1       7.356  -2.895 -18.062  1.00  0.00     0.010 A 
ATOM     68  C   UNL     1       5.078  -3.970 -16.844  1.00  0.00     0.020 A 
ATOM     69  C   UNL     1       7.274  -4.272 -17.838  1.00  0.00     0.020 A 
ATOM     70  C   UNL     1       6.142  -4.799 -17.214  1.00  0.00     0.054 A 
BRANCH  70  71
ATOM     71  S   UNL     1       6.015  -6.580 -16.894  1.00  0.00     0.124 S 
ATOM     72  O   UNL     1       6.231  -6.642 -15.451  1.00  0.00    -0.237 OA
ATOM     73  O   UNL     1       4.660  -6.892 -17.340  1.00  0.00    -0.237 OA
ATOM     74  O   UNL     1       7.083  -7.155 -17.709  1.00  0.00    -0.744 OA
ENDBRANCH  70  71
ENDBRANCH  51  65
BRANCH  52  75
ATOM     75  C   UNL     1       7.207   7.829 -19.013  1.00  0.00    -0.014 A 
ATOM     76  C   UNL     1       6.126   8.619 -19.439  1.00  0.00     0.010 A 
ATOM     77  C   UNL     1       8.447   8.444 -18.761  1.00  0.00     0.010 A 
ATOM     78  C   UNL     1       6.285   9.997 -19.619  1.00  0.00     0.020 A 
ATOM     79  C   UNL     1       8.603   9.824 -18.914  1.00  0.00     0.020 A 
ATOM     80  C   UNL     1       7.522  10.591 -19.352  1.00  0.00     0.054 A 
BRANCH  80  81
ATOM     81  S   UNL     1       7.692  12.388 -19.533  1.00  0.00     0.124 S 
ATOM     82  O   UNL     1       7.767  12.542 -20.982  1.00  0.00    -0.237 OA
ATOM     83  O   UNL     1       6.471  12.887 -18.906  1.00  0.00    -0.237 OA
ATOM     84  O   UNL     1       8.923  12.689 -18.806  1.00  0.00    -0.744 OA
ENDBRANCH  80  81
ENDBRANCH  52  75
BRANCH  64  85
ATOM     85  C   UNL     1       6.320   2.429 -23.345  1.00  0.00    -0.014 A 
ATOM     86  C   UNL     1       7.439   2.572 -24.183  1.00  0.00     0.010 A 
ATOM     87  C   UNL     1       5.069   2.127 -23.913  1.00  0.00     0.010 A 
ATOM     88  C   UNL     1       7.305   2.436 -25.568  1.00  0.00     0.020 A 
ATOM     89  C   UNL     1       4.936   1.967 -25.295  1.00  0.00     0.020 A 
ATOM     90  C   UNL     1       6.054   2.134 -26.115  1.00  0.00     0.054 A 
BRANCH  90  91
ATOM     91  S   UNL     1       5.915   1.905 -27.909  1.00  0.00     0.124 S 
ATOM     92  O   UNL     1       5.967   3.281 -28.395  1.00  0.00    -0.237 OA
ATOM     93  O   UNL     1       7.082   1.084 -28.221  1.00  0.00    -0.237 OA
ATOM     94  O   UNL     1       4.627   1.234 -28.074  1.00  0.00    -0.744 OA
ENDBRANCH  90  91
ENDBRANCH  64  85
ENDBRANCH  38  39
ENDBRANCH  31  33
ENDBRANCH  30  31
ENDBRANCH  29  30
ENDBRANCH   1  29
TORSDOF 20
