REMARK SMILES CCn1c(C(=O)OCCOC(=O)c2ccc(-c3c4nc(c(-c5ccc(S(=O)(=O)[O-])cc5)c5ccc([nH]5)c(-c5ccc(S(=O)(=O)[O-])cc5)c5nc(c(-c6ccc(S(=O)(=O)[O-])cc6)c6ccc3[nH]6)C=C5)C=C4)cc2)c(C[NH2+]Cc2ccccc2Cl)c2ccc(C)cc21
REMARK SMILES IDX 8 1 7 2 5 3 6 4 4 5 3 6 90 7 73 8 84 9 89 10 85 11 87 12
REMARK SMILES IDX 86 13 88 14 2 15 1 16 74 17 75 18 76 21 77 22 78 23 82 24
REMARK SMILES IDX 79 25 81 26 83 27 80 28 9 29 10 30 11 31 12 32 13 33 14 34
REMARK SMILES IDX 72 35 15 36 71 37 16 38 17 39 18 40 65 41 19 42 70 43 64 44
REMARK SMILES IDX 66 45 20 46 69 47 63 48 62 49 21 51 51 52 32 53 50 54 33 55
REMARK SMILES IDX 36 56 49 57 67 58 34 59 35 60 48 62 68 63 37 64 22 65 23 66
REMARK SMILES IDX 31 67 24 68 30 69 25 70 26 71 27 72 28 73 29 74 52 75 53 76
REMARK SMILES IDX 61 77 54 78 60 79 55 80 56 81 57 82 58 83 59 84 38 85 39 86
REMARK SMILES IDX 47 87 40 88 46 89 41 90 42 91 43 92 44 93 45 94
REMARK H PARENT 75 19 75 20 66 50 36 61
REMARK Flexibility Score: inf
ROOT
ATOM      1  C   UNL     1      -1.487  -5.461  -1.909  1.00  0.00     0.275 C 
ENDROOT
BRANCH   1   2
ATOM      2  O   UNL     1      -1.145  -4.826  -0.651  1.00  0.00    -0.457 OA
BRANCH   2   3
ATOM      3  C   UNL     1      -0.004  -4.088  -0.680  1.00  0.00     0.355 C 
ATOM      4  O   UNL     1       0.471  -3.657  -1.721  1.00  0.00    -0.244 OA
BRANCH   3   5
ATOM      5  C   UNL     1       0.647  -3.966   0.612  1.00  0.00     0.137 A 
ATOM      6  N   UNL     1       0.994  -2.792   1.246  1.00  0.00    -0.335 N 
ATOM      7  C   UNL     1       1.975  -3.010   2.185  1.00  0.00     0.049 A 
ATOM      8  C   UNL     1       1.193  -4.987   1.391  1.00  0.00     0.047 A 
ATOM      9  C   UNL     1       1.999  -4.380   2.419  1.00  0.00     0.009 A 
ATOM     10  C   UNL     1       2.790  -2.104   2.880  1.00  0.00     0.030 A 
ATOM     11  C   UNL     1       2.788  -4.840   3.498  1.00  0.00     0.011 A 
ATOM     12  C   UNL     1       3.518  -2.559   3.979  1.00  0.00    -0.049 A 
ATOM     13  C   UNL     1       3.506  -3.919   4.288  1.00  0.00     0.004 A 
ATOM     14  C   UNL     1       4.274  -1.550   4.798  1.00  0.00     0.044 C 
BRANCH   6  15
ATOM     15  C   UNL     1       0.387  -1.501   1.008  1.00  0.00     0.119 C 
ATOM     16  C   UNL     1       0.049  -0.662   2.238  1.00  0.00     0.027 C 
ENDBRANCH   6  15
BRANCH   8  17
ATOM     17  C   UNL     1       0.995  -6.443   1.133  1.00  0.00     0.300 C 
BRANCH  17  18
ATOM     18  N   UNL     1      -0.429  -6.685   1.349  1.00  0.00    -0.339 N 
ATOM     19  H   UNL     1      -0.941  -6.309   0.551  1.00  0.00     0.346 HD
ATOM     20  H   UNL     1      -0.670  -6.228   2.229  1.00  0.00     0.346 HD
BRANCH  18  21
ATOM     21  C   UNL     1      -0.787  -8.082   1.499  1.00  0.00     0.299 C 
BRANCH  21  22
ATOM     22  C   UNL     1      -0.262  -8.756   2.747  1.00  0.00     0.025 A 
ATOM     23  C   UNL     1       0.222  -8.015   3.846  1.00  0.00     0.011 A 
ATOM     24  C   UNL     1      -0.239 -10.156   2.840  1.00  0.00     0.049 A 
ATOM     25  C   UNL     1       0.814  -8.644   4.939  1.00  0.00     0.001 A 
ATOM     26  C   UNL     1       0.339 -10.786   3.945  1.00  0.00     0.021 A 
ATOM     27  Cl  UNL     1      -0.921 -11.165   1.611  1.00  0.00    -0.084 Cl
ATOM     28  C   UNL     1       0.886 -10.030   4.981  1.00  0.00     0.002 A 
ENDBRANCH  21  22
ENDBRANCH  18  21
ENDBRANCH  17  18
ENDBRANCH   8  17
ENDBRANCH   3   5
ENDBRANCH   2   3
ENDBRANCH   1   2
BRANCH   1  29
ATOM     29  C   UNL     1      -2.684  -4.809  -2.612  1.00  0.00     0.275 C 
BRANCH  29  30
ATOM     30  O   UNL     1      -2.203  -3.772  -3.480  1.00  0.00    -0.458 OA
BRANCH  30  31
ATOM     31  C   UNL     1      -2.589  -2.503  -3.173  1.00  0.00     0.338 C 
ATOM     32  O   UNL     1      -3.607  -2.166  -2.636  1.00  0.00    -0.246 OA
BRANCH  31  33
ATOM     33  C   UNL     1      -1.351  -1.681  -3.269  1.00  0.00     0.060 A 
ATOM     34  C   UNL     1      -0.307  -1.990  -4.152  1.00  0.00     0.016 A 
ATOM     35  C   UNL     1      -1.137  -0.799  -2.219  1.00  0.00     0.016 A 
ATOM     36  C   UNL     1       1.008  -1.635  -3.820  1.00  0.00     0.010 A 
ATOM     37  C   UNL     1       0.165  -0.401  -1.942  1.00  0.00     0.010 A 
ATOM     38  C   UNL     1       1.262  -0.951  -2.629  1.00  0.00    -0.014 A 
BRANCH  38  39
ATOM     39  C   UNL     1       2.633  -0.744  -2.115  1.00  0.00     0.031 A 
ATOM     40  C   UNL     1       3.000   0.672  -1.916  1.00  0.00     0.074 A 
ATOM     41  C   UNL     1       3.563  -1.612  -1.640  1.00  0.00     0.049 A 
ATOM     42  N   UNL     1       3.518   1.445  -2.808  1.00  0.00    -0.248 NA
ATOM     43  C   UNL     1       2.685   1.334  -0.642  1.00  0.00     0.031 C 
ATOM     44  C   UNL     1       3.477  -3.038  -1.332  1.00  0.00     0.029 A 
ATOM     45  N   UNL     1       4.856  -1.318  -1.263  1.00  0.00    -0.354 N 
ATOM     46  C   UNL     1       3.774   2.635  -2.154  1.00  0.00     0.074 A 
ATOM     47  C   UNL     1       3.034   2.591  -0.917  1.00  0.00     0.031 C 
ATOM     48  C   UNL     1       4.566  -3.435  -0.625  1.00  0.00     0.029 A 
ATOM     49  C   UNL     1       5.534  -2.355  -0.636  1.00  0.00     0.049 A 
ATOM     50  H   UNL     1       5.267  -0.438  -1.426  1.00  0.00     0.167 HD
ATOM     51  C   UNL     1       4.781   3.460  -2.540  1.00  0.00     0.031 A 
ATOM     52  C   UNL     1       6.841  -2.387  -0.279  1.00  0.00     0.031 A 
ATOM     53  C   UNL     1       5.463   2.972  -3.711  1.00  0.00     0.049 A 
ATOM     54  C   UNL     1       7.577  -1.498  -1.204  1.00  0.00     0.074 A 
ATOM     55  C   UNL     1       5.177   2.847  -5.052  1.00  0.00     0.029 A 
ATOM     56  N   UNL     1       6.531   2.147  -3.448  1.00  0.00    -0.354 N 
ATOM     57  N   UNL     1       7.646  -1.701  -2.490  1.00  0.00    -0.248 NA
ATOM     58  C   UNL     1       8.107  -0.220  -0.746  1.00  0.00     0.031 C 
ATOM     59  C   UNL     1       5.944   1.739  -5.523  1.00  0.00     0.029 A 
ATOM     60  C   UNL     1       6.679   1.222  -4.457  1.00  0.00     0.049 A 
ATOM     61  H   UNL     1       7.107   2.209  -2.652  1.00  0.00     0.167 HD
ATOM     62  C   UNL     1       7.812  -0.443  -3.026  1.00  0.00     0.074 A 
ATOM     63  C   UNL     1       8.283   0.382  -1.925  1.00  0.00     0.031 C 
ATOM     64  C   UNL     1       7.234  -0.101  -4.212  1.00  0.00     0.031 A 
BRANCH  51  65
ATOM     65  C   UNL     1       5.389   4.508  -1.660  1.00  0.00    -0.014 A 
ATOM     66  C   UNL     1       5.412   4.419  -0.253  1.00  0.00     0.010 A 
ATOM     67  C   UNL     1       6.130   5.544  -2.256  1.00  0.00     0.010 A 
ATOM     68  C   UNL     1       6.072   5.364   0.531  1.00  0.00     0.020 A 
ATOM     69  C   UNL     1       6.838   6.469  -1.480  1.00  0.00     0.020 A 
ATOM     70  C   UNL     1       6.786   6.383  -0.089  1.00  0.00     0.054 A 
BRANCH  70  71
ATOM     71  S   UNL     1       7.710   7.537   0.953  1.00  0.00     0.124 S 
ATOM     72  O   UNL     1       6.639   8.356   1.515  1.00  0.00    -0.237 OA
ATOM     73  O   UNL     1       8.381   6.644   1.894  1.00  0.00    -0.237 OA
ATOM     74  O   UNL     1       8.591   8.220   0.009  1.00  0.00    -0.744 OA
ENDBRANCH  70  71
ENDBRANCH  51  65
BRANCH  52  75
ATOM     75  C   UNL     1       7.533  -3.018   0.869  1.00  0.00    -0.014 A 
ATOM     76  C   UNL     1       6.911  -3.021   2.130  1.00  0.00     0.010 A 
ATOM     77  C   UNL     1       8.920  -3.265   0.814  1.00  0.00     0.010 A 
ATOM     78  C   UNL     1       7.667  -3.143   3.306  1.00  0.00     0.020 A 
ATOM     79  C   UNL     1       9.682  -3.391   1.986  1.00  0.00     0.020 A 
ATOM     80  C   UNL     1       9.054  -3.280   3.227  1.00  0.00     0.054 A 
BRANCH  80  81
ATOM     81  S   UNL     1      10.027  -3.201   4.760  1.00  0.00     0.124 S 
ATOM     82  O   UNL     1       9.821  -1.817   5.179  1.00  0.00    -0.237 OA
ATOM     83  O   UNL     1       9.384  -4.210   5.598  1.00  0.00    -0.237 OA
ATOM     84  O   UNL     1      11.384  -3.526   4.330  1.00  0.00    -0.744 OA
ENDBRANCH  80  81
ENDBRANCH  52  75
BRANCH  64  85
ATOM     85  C   UNL     1       6.924  -1.196  -5.208  1.00  0.00    -0.014 A 
ATOM     86  C   UNL     1       7.457  -1.066  -6.504  1.00  0.00     0.010 A 
ATOM     87  C   UNL     1       6.056  -2.275  -4.952  1.00  0.00     0.010 A 
ATOM     88  C   UNL     1       7.103  -1.953  -7.524  1.00  0.00     0.020 A 
ATOM     89  C   UNL     1       5.716  -3.186  -5.965  1.00  0.00     0.020 A 
ATOM     90  C   UNL     1       6.221  -3.000  -7.254  1.00  0.00     0.054 A 
BRANCH  90  91
ATOM     91  S   UNL     1       5.740  -4.097  -8.617  1.00  0.00     0.124 S 
ATOM     92  O   UNL     1       4.823  -3.255  -9.382  1.00  0.00    -0.237 OA
ATOM     93  O   UNL     1       7.015  -4.382  -9.272  1.00  0.00    -0.237 OA
ATOM     94  O   UNL     1       5.122  -5.241  -7.951  1.00  0.00    -0.744 OA
ENDBRANCH  90  91
ENDBRANCH  64  85
ENDBRANCH  38  39
ENDBRANCH  31  33
ENDBRANCH  30  31
ENDBRANCH  29  30
ENDBRANCH   1  29
TORSDOF 19
