REMARK SMILES O=C(OCCOC(=O)c1cc(S(=O)(=O)Nc2ccc(F)c(C(F)(F)F)c2)c[nH]1)c1ccc(-c2c3nc(c(-c4ccc(S(=O)(=O)[O-])cc4)c4ccc([nH]4)c(-c4ccc(S(=O)(=O)[O-])cc4)c4nc(c(-c5ccc(S(=O)(=O)[O-])cc5)c5ccc2[nH]5)C=C4)C=C3)cc1
REMARK SMILES IDX 5 1 4 2 3 3 2 4 1 5 29 6 30 7 88 8 31 9 87 10 32 11 33 12
REMARK SMILES IDX 34 13 81 14 35 15 86 16 80 17 82 18 36 19 85 20 79 21 78 22
REMARK SMILES IDX 37 24 67 25 48 26 66 27 49 28 52 29 65 30 83 31 50 32 51 33
REMARK SMILES IDX 64 35 84 36 53 37 38 38 39 39 47 40 40 41 46 42 41 43 42 44
REMARK SMILES IDX 43 45 44 46 45 47 68 48 69 49 77 50 70 51 76 52 71 53 72 54
REMARK SMILES IDX 73 55 74 56 75 57 54 58 55 59 63 60 56 61 62 62 57 63 58 64
REMARK SMILES IDX 59 65 60 66 61 67 6 68 7 69 8 70 9 71 10 72 28 73 11 74
REMARK SMILES IDX 27 75 12 77 13 78 14 79 15 80 16 82 17 83 26 84 18 85 21 86
REMARK SMILES IDX 19 87 20 88 22 89 23 90 24 91 25 92
REMARK H PARENT 82 23 52 34 28 76 15 81
REMARK Flexibility Score: inf
ROOT
ATOM      1  C   UNL     1       4.505   0.477   1.294  1.00  0.00     0.275 C 
ENDROOT
BRANCH   1   2
ATOM      2  C   UNL     1       4.447   1.238  -0.031  1.00  0.00     0.275 C 
BRANCH   2   3
ATOM      3  O   UNL     1       3.137   1.417  -0.614  1.00  0.00    -0.458 OA
BRANCH   3   4
ATOM      4  C   UNL     1       2.247   0.397  -0.668  1.00  0.00     0.338 C 
ATOM      5  O   UNL     1       1.272   0.315   0.067  1.00  0.00    -0.246 OA
BRANCH   4   6
ATOM      6  C   UNL     1       2.370  -0.452  -1.875  1.00  0.00     0.060 A 
ATOM      7  C   UNL     1       3.595  -0.963  -2.305  1.00  0.00     0.016 A 
ATOM      8  C   UNL     1       1.196  -0.782  -2.570  1.00  0.00     0.016 A 
ATOM      9  C   UNL     1       3.659  -1.737  -3.455  1.00  0.00     0.010 A 
ATOM     10  C   UNL     1       1.255  -1.572  -3.720  1.00  0.00     0.010 A 
ATOM     11  C   UNL     1       2.494  -2.036  -4.172  1.00  0.00    -0.014 A 
BRANCH  11  12
ATOM     12  C   UNL     1       2.647  -2.891  -5.371  1.00  0.00     0.031 A 
ATOM     13  C   UNL     1       2.852  -4.363  -5.042  1.00  0.00     0.074 A 
ATOM     14  C   UNL     1       2.755  -2.258  -6.574  1.00  0.00     0.049 A 
ATOM     15  N   UNL     1       3.655  -5.219  -5.596  1.00  0.00    -0.248 NA
ATOM     16  C   UNL     1       2.161  -4.935  -3.861  1.00  0.00     0.031 C 
ATOM     17  C   UNL     1       2.543  -0.810  -6.773  1.00  0.00     0.029 A 
ATOM     18  N   UNL     1       3.071  -2.676  -7.850  1.00  0.00    -0.354 N 
ATOM     19  C   UNL     1       3.488  -6.449  -4.927  1.00  0.00     0.074 A 
ATOM     20  C   UNL     1       2.624  -6.188  -3.811  1.00  0.00     0.031 C 
ATOM     21  C   UNL     1       2.776  -0.467  -8.056  1.00  0.00     0.029 A 
ATOM     22  C   UNL     1       3.182  -1.640  -8.805  1.00  0.00     0.049 A 
ATOM     23  H   UNL     1       3.210  -3.624  -8.079  1.00  0.00     0.167 HD
ATOM     24  C   UNL     1       3.988  -7.633  -5.388  1.00  0.00     0.031 A 
ATOM     25  C   UNL     1       3.615  -1.693 -10.099  1.00  0.00     0.031 A 
ATOM     26  C   UNL     1       4.682  -7.452  -6.621  1.00  0.00     0.049 A 
ATOM     27  C   UNL     1       3.950  -3.097 -10.398  1.00  0.00     0.074 A 
ATOM     28  C   UNL     1       5.903  -6.941  -6.976  1.00  0.00     0.029 A 
ATOM     29  N   UNL     1       3.947  -7.650  -7.766  1.00  0.00    -0.354 N 
ATOM     30  N   UNL     1       3.095  -4.057 -10.563  1.00  0.00    -0.248 NA
ATOM     31  C   UNL     1       5.365  -3.477 -10.516  1.00  0.00     0.031 C 
ATOM     32  C   UNL     1       5.717  -6.461  -8.295  1.00  0.00     0.029 A 
ATOM     33  C   UNL     1       4.406  -6.743  -8.690  1.00  0.00     0.049 A 
ATOM     34  H   UNL     1       3.231  -8.313  -7.897  1.00  0.00     0.167 HD
ATOM     35  C   UNL     1       3.866  -5.185 -10.419  1.00  0.00     0.074 A 
ATOM     36  C   UNL     1       5.230  -4.789 -10.688  1.00  0.00     0.031 C 
ATOM     37  C   UNL     1       3.437  -6.184  -9.608  1.00  0.00     0.031 A 
BRANCH  24  38
ATOM     38  C   UNL     1       3.729  -9.056  -4.962  1.00  0.00    -0.014 A 
ATOM     39  C   UNL     1       4.649 -10.039  -5.411  1.00  0.00     0.010 A 
ATOM     40  C   UNL     1       2.511  -9.507  -4.434  1.00  0.00     0.010 A 
ATOM     41  C   UNL     1       4.324 -11.396  -5.450  1.00  0.00     0.020 A 
ATOM     42  C   UNL     1       2.191 -10.878  -4.434  1.00  0.00     0.020 A 
ATOM     43  C   UNL     1       3.077 -11.804  -4.990  1.00  0.00     0.054 A 
BRANCH  43  44
ATOM     44  S   UNL     1       2.613 -13.544  -5.203  1.00  0.00     0.124 S 
ATOM     45  O   UNL     1       2.375 -13.625  -6.641  1.00  0.00    -0.237 OA
ATOM     46  O   UNL     1       3.800 -14.253  -4.727  1.00  0.00    -0.237 OA
ATOM     47  O   UNL     1       1.430 -13.692  -4.359  1.00  0.00    -0.744 OA
ENDBRANCH  43  44
ENDBRANCH  24  38
BRANCH  25  48
ATOM     48  C   UNL     1       3.950  -0.703 -11.186  1.00  0.00    -0.014 A 
ATOM     49  C   UNL     1       4.005   0.687 -11.035  1.00  0.00     0.010 A 
ATOM     50  C   UNL     1       4.397  -1.214 -12.437  1.00  0.00     0.010 A 
ATOM     51  C   UNL     1       4.595   1.506 -12.021  1.00  0.00     0.020 A 
ATOM     52  C   UNL     1       5.029  -0.422 -13.399  1.00  0.00     0.020 A 
ATOM     53  C   UNL     1       5.147   0.940 -13.173  1.00  0.00     0.054 A 
BRANCH  53  54
ATOM     54  S   UNL     1       6.152   1.936 -14.308  1.00  0.00     0.124 S 
ATOM     55  O   UNL     1       5.174   2.350 -15.309  1.00  0.00    -0.237 OA
ATOM     56  O   UNL     1       6.663   3.002 -13.448  1.00  0.00    -0.237 OA
ATOM     57  O   UNL     1       7.165   0.990 -14.772  1.00  0.00    -0.744 OA
ENDBRANCH  53  54
ENDBRANCH  25  48
BRANCH  37  58
ATOM     58  C   UNL     1       1.928  -6.211  -9.400  1.00  0.00    -0.014 A 
ATOM     59  C   UNL     1       1.062  -6.413 -10.489  1.00  0.00     0.010 A 
ATOM     60  C   UNL     1       1.342  -5.914  -8.154  1.00  0.00     0.010 A 
ATOM     61  C   UNL     1      -0.330  -6.304 -10.341  1.00  0.00     0.020 A 
ATOM     62  C   UNL     1      -0.047  -5.814  -7.991  1.00  0.00     0.020 A 
ATOM     63  C   UNL     1      -0.878  -6.002  -9.092  1.00  0.00     0.054 A 
BRANCH  63  64
ATOM     64  S   UNL     1      -2.679  -5.824  -8.938  1.00  0.00     0.124 S 
ATOM     65  O   UNL     1      -2.978  -4.742  -9.872  1.00  0.00    -0.237 OA
ATOM     66  O   UNL     1      -3.162  -7.144  -9.335  1.00  0.00    -0.237 OA
ATOM     67  O   UNL     1      -2.880  -5.490  -7.528  1.00  0.00    -0.744 OA
ENDBRANCH  63  64
ENDBRANCH  37  58
ENDBRANCH  11  12
ENDBRANCH   4   6
ENDBRANCH   3   4
ENDBRANCH   2   3
ENDBRANCH   1   2
BRANCH   1  68
ATOM     68  O   UNL     1       4.098  -0.888   1.121  1.00  0.00    -0.457 OA
BRANCH  68  69
ATOM     69  C   UNL     1       3.004  -1.254   1.844  1.00  0.00     0.354 C 
ATOM     70  O   UNL     1       2.446  -0.572   2.693  1.00  0.00    -0.244 OA
BRANCH  69  71
ATOM     71  C   UNL     1       2.581  -2.574   1.472  1.00  0.00     0.126 A 
ATOM     72  C   UNL     1       3.314  -3.739   1.338  1.00  0.00     0.057 A 
ATOM     73  N   UNL     1       1.257  -2.909   1.290  1.00  0.00    -0.354 N 
ATOM     74  C   UNL     1       2.386  -4.808   1.462  1.00  0.00     0.106 A 
ATOM     75  C   UNL     1       1.121  -4.273   1.321  1.00  0.00     0.105 A 
ATOM     76  H   UNL     1       0.521  -2.268   1.157  1.00  0.00     0.166 HD
BRANCH  74  77
ATOM     77  S   UNL     1       2.815  -6.440   1.844  1.00  0.00     0.263 S 
ATOM     78  O   UNL     1       1.558  -7.158   1.904  1.00  0.00    -0.201 OA
ATOM     79  O   UNL     1       3.855  -6.774   0.903  1.00  0.00    -0.201 OA
BRANCH  77  80
ATOM     80  N   UNL     1       3.508  -6.549   3.406  1.00  0.00    -0.280 N 
ATOM     81  H   UNL     1       3.383  -7.354   3.958  1.00  0.00     0.180 HD
BRANCH  80  82
ATOM     82  C   UNL     1       4.271  -5.443   3.888  1.00  0.00     0.050 A 
ATOM     83  C   UNL     1       3.591  -4.367   4.465  1.00  0.00     0.030 A 
ATOM     84  C   UNL     1       5.659  -5.390   3.736  1.00  0.00     0.043 A 
ATOM     85  C   UNL     1       4.290  -3.231   4.869  1.00  0.00     0.042 A 
ATOM     86  C   UNL     1       6.377  -4.255   4.169  1.00  0.00     0.093 A 
ATOM     87  C   UNL     1       5.673  -3.186   4.724  1.00  0.00     0.135 A 
ATOM     88  F   UNL     1       6.318  -2.086   5.134  1.00  0.00    -0.206 F 
BRANCH  86  89
ATOM     89  C   UNL     1       7.874  -4.214   4.079  1.00  0.00     0.419 C 
ATOM     90  F   UNL     1       8.460  -5.015   5.014  1.00  0.00    -0.166 F 
ATOM     91  F   UNL     1       8.335  -4.656   2.876  1.00  0.00    -0.166 F 
ATOM     92  F   UNL     1       8.427  -2.982   4.250  1.00  0.00    -0.166 F 
ENDBRANCH  86  89
ENDBRANCH  80  82
ENDBRANCH  77  80
ENDBRANCH  74  77
ENDBRANCH  69  71
ENDBRANCH  68  69
ENDBRANCH   1  68
TORSDOF 18
