REMARK SMILES Nc1ccc(C(=O)N[C@H]2CCCCC[C@H]2C(=O)OCCOC(=O)c2ccc(-c3c4nc(c(-c5ccc(S(=O)(=O)[O-])cc5)c5ccc([nH]5)c(-c5ccc(S(=O)(=O)[O-])cc5)c5nc(c(-c6ccc(S(=O)(=O)[O-])cc6)c6ccc3[nH]6)C=C5)C=C4)cc2)cc1
REMARK SMILES IDX 19 1 18 2 16 3 17 4 15 5 9 6 8 7 6 8 7 9 5 11 2 12 3 13
REMARK SMILES IDX 85 14 4 15 84 16 1 17 10 20 11 21 14 23 13 24 12 25 20 27
REMARK SMILES IDX 21 28 22 29 23 30 24 31 25 32 83 33 26 34 82 35 27 36 28 37
REMARK SMILES IDX 29 38 76 39 30 40 81 41 75 42 77 43 31 44 80 45 74 46 73 47
REMARK SMILES IDX 32 49 62 50 43 51 61 52 44 53 47 54 60 55 78 56 45 57 46 58
REMARK SMILES IDX 59 60 79 61 48 62 33 63 34 64 42 65 35 66 41 67 36 68 37 69
REMARK SMILES IDX 38 70 39 71 40 72 63 73 64 74 72 75 65 76 71 77 66 78 67 79
REMARK SMILES IDX 68 80 69 81 70 82 49 83 50 84 58 85 51 86 57 87 52 88 53 89
REMARK SMILES IDX 54 90 55 91 56 92
REMARK H PARENT 8 10 1 18 1 19 77 48 47 59
REMARK Flexibility Score: 100.00
ROOT
ATOM      1  C   UNL     1       0.301   4.426  -2.238  1.00  0.00     0.274 C 
ENDROOT
BRANCH   1   2
ATOM      2  O   UNL     1      -1.150   4.685  -2.126  1.00  0.00    -0.462 OA
BRANCH   2   3
ATOM      3  C   UNL     1      -2.426   4.712  -1.806  1.00  0.00     0.311 C 
ATOM      4  O   UNL     1      -3.115   5.518  -2.445  1.00  0.00    -0.252 OA
BRANCH   3   5
ATOM      5  C   UNL     1      -3.140   3.792  -0.810  1.00  0.00     0.121 C 
BRANCH   5   6
ATOM      6  C   UNL     1      -2.516   3.168   0.455  1.00  0.00     0.096 C 
BRANCH   6   7
ATOM      7  N   UNL     1      -1.087   3.279   0.763  1.00  0.00    -0.348 N 
ATOM      8  C   UNL     1      -0.121   4.206   1.037  1.00  0.00     0.251 C 
ATOM      9  O   UNL     1       0.987   3.768   1.360  1.00  0.00    -0.269 OA
ATOM     10  H   UNL     1      -0.687   2.380   0.778  1.00  0.00     0.164 HD
BRANCH   8  11
ATOM     11  C   UNL     1      -0.256   5.669   0.837  1.00  0.00     0.039 A 
ATOM     12  C   UNL     1      -0.420   8.369   0.019  1.00  0.00     0.031 A 
ATOM     13  C   UNL     1       0.819   7.771   0.246  1.00  0.00     0.026 A 
ATOM     14  C   UNL     1      -1.564   7.647   0.324  1.00  0.00     0.026 A 
ATOM     15  C   UNL     1       0.904   6.432   0.654  1.00  0.00     0.016 A 
ATOM     16  C   UNL     1      -1.470   6.311   0.709  1.00  0.00     0.016 A 
BRANCH  12  17
ATOM     17  N   UNL     1      -0.524   9.695  -0.369  1.00  0.00    -0.399 N 
ATOM     18  H   UNL     1       0.287  10.209  -0.586  1.00  0.00     0.156 HD
ATOM     19  H   UNL     1      -1.409  10.122  -0.428  1.00  0.00     0.156 HD
ENDBRANCH  12  17
ENDBRANCH   8  11
ENDBRANCH   6   7
BRANCH   6  20
ATOM     20  C   UNL     1      -3.389   3.076   1.728  1.00  0.00     0.026 C 
BRANCH  20  21
ATOM     21  C   UNL     1      -3.661   4.365   2.475  1.00  0.00     0.002 CG0
ATOM     22  G   UNL     1      -4.699   5.306   1.863  1.00  0.00     0.000 G0
ENDBRANCH  20  21
ENDBRANCH   6  20
ENDBRANCH   5   6
BRANCH   5  23
ATOM     23  C   UNL     1      -4.613   4.289  -0.565  1.00  0.00     0.017 C 
BRANCH  23  24
ATOM     24  C   UNL     1      -4.809   5.502   0.345  1.00  0.00     0.001 C 
BRANCH  24  25
ATOM     25  C   UNL     1      -4.699   5.306   1.863  1.00  0.00     0.000 CG0
ATOM     26  G   UNL     1      -3.661   4.365   2.475  1.00  0.00     0.000 G0
ENDBRANCH  24  25
ENDBRANCH  23  24
ENDBRANCH   5  23
ENDBRANCH   3   5
ENDBRANCH   2   3
ENDBRANCH   1   2
BRANCH   1  27
ATOM     27  C   UNL     1       0.892   3.044  -2.031  1.00  0.00     0.275 C 
BRANCH  27  28
ATOM     28  O   UNL     1       0.412   2.177  -3.048  1.00  0.00    -0.458 OA
BRANCH  28  29
ATOM     29  C   UNL     1      -0.693   1.495  -2.686  1.00  0.00     0.338 C 
ATOM     30  O   UNL     1      -1.150   1.338  -1.574  1.00  0.00    -0.246 OA
BRANCH  29  31
ATOM     31  C   UNL     1      -1.396   1.166  -3.919  1.00  0.00     0.060 A 
ATOM     32  C   UNL     1      -2.736   1.550  -4.026  1.00  0.00     0.016 A 
ATOM     33  C   UNL     1      -0.726   0.517  -4.953  1.00  0.00     0.016 A 
ATOM     34  C   UNL     1      -3.447   1.244  -5.167  1.00  0.00     0.010 A 
ATOM     35  C   UNL     1      -1.432   0.224  -6.103  1.00  0.00     0.010 A 
ATOM     36  C   UNL     1      -2.794   0.561  -6.190  1.00  0.00    -0.014 A 
BRANCH  36  37
ATOM     37  C   UNL     1      -3.547   0.051  -7.335  1.00  0.00     0.031 A 
ATOM     38  C   UNL     1      -3.769  -1.424  -7.394  1.00  0.00     0.074 A 
ATOM     39  C   UNL     1      -3.883   0.901  -8.315  1.00  0.00     0.049 A 
ATOM     40  N   UNL     1      -4.097  -2.164  -8.411  1.00  0.00    -0.248 NA
ATOM     41  C   UNL     1      -3.538  -2.172  -6.142  1.00  0.00     0.031 C 
ATOM     42  C   UNL     1      -3.724   2.358  -8.268  1.00  0.00     0.029 A 
ATOM     43  N   UNL     1      -4.384   0.654  -9.560  1.00  0.00    -0.354 N 
ATOM     44  C   UNL     1      -4.049  -3.471  -7.943  1.00  0.00     0.074 A 
ATOM     45  C   UNL     1      -3.656  -3.425  -6.554  1.00  0.00     0.031 C 
ATOM     46  C   UNL     1      -4.095   2.874  -9.451  1.00  0.00     0.029 A 
ATOM     47  C   UNL     1      -4.449   1.779 -10.345  1.00  0.00     0.049 A 
ATOM     48  H   UNL     1      -4.668  -0.238  -9.863  1.00  0.00     0.167 HD
ATOM     49  C   UNL     1      -4.298  -4.602  -8.640  1.00  0.00     0.031 A 
ATOM     50  C   UNL     1      -4.717   1.885 -11.658  1.00  0.00     0.031 A 
ATOM     51  C   UNL     1      -4.686  -4.574 -10.024  1.00  0.00     0.049 A 
ATOM     52  C   UNL     1      -4.978   0.613 -12.415  1.00  0.00     0.074 A 
ATOM     53  C   UNL     1      -5.013  -5.628 -10.852  1.00  0.00     0.029 A 
ATOM     54  N   UNL     1      -4.799  -3.411 -10.779  1.00  0.00    -0.354 N 
ATOM     55  N   UNL     1      -4.946  -0.626 -11.975  1.00  0.00    -0.248 NA
ATOM     56  C   UNL     1      -5.312   0.744 -13.836  1.00  0.00     0.031 C 
ATOM     57  C   UNL     1      -5.279  -5.106 -12.122  1.00  0.00     0.029 A 
ATOM     58  C   UNL     1      -5.179  -3.721 -12.069  1.00  0.00     0.049 A 
ATOM     59  H   UNL     1      -4.633  -2.501 -10.443  1.00  0.00     0.167 HD
ATOM     60  C   UNL     1      -5.294  -1.423 -13.056  1.00  0.00     0.074 A 
ATOM     61  C   UNL     1      -5.530  -0.522 -14.171  1.00  0.00     0.031 C 
ATOM     62  C   UNL     1      -5.418  -2.771 -13.129  1.00  0.00     0.031 A 
BRANCH  49  63
ATOM     63  C   UNL     1      -4.114  -5.919  -7.936  1.00  0.00    -0.014 A 
ATOM     64  C   UNL     1      -4.952  -6.312  -6.877  1.00  0.00     0.010 A 
ATOM     65  C   UNL     1      -3.082  -6.785  -8.343  1.00  0.00     0.010 A 
ATOM     66  C   UNL     1      -4.736  -7.523  -6.212  1.00  0.00     0.020 A 
ATOM     67  C   UNL     1      -2.881  -8.011  -7.701  1.00  0.00     0.020 A 
ATOM     68  C   UNL     1      -3.700  -8.364  -6.628  1.00  0.00     0.054 A 
BRANCH  68  69
ATOM     69  S   UNL     1      -3.459  -9.940  -5.761  1.00  0.00     0.124 S 
ATOM     70  O   UNL     1      -2.906  -9.499  -4.483  1.00  0.00    -0.237 OA
ATOM     71  O   UNL     1      -4.813 -10.484  -5.705  1.00  0.00    -0.237 OA
ATOM     72  O   UNL     1      -2.531 -10.671  -6.621  1.00  0.00    -0.744 OA
ENDBRANCH  68  69
ENDBRANCH  49  63
BRANCH  50  73
ATOM     73  C   UNL     1      -4.753   3.222 -12.304  1.00  0.00    -0.014 A 
ATOM     74  C   UNL     1      -5.982   3.774 -12.703  1.00  0.00     0.010 A 
ATOM     75  C   UNL     1      -3.579   3.982 -12.469  1.00  0.00     0.010 A 
ATOM     76  C   UNL     1      -6.037   5.051 -13.267  1.00  0.00     0.020 A 
ATOM     77  C   UNL     1      -3.633   5.271 -13.009  1.00  0.00     0.020 A 
ATOM     78  C   UNL     1      -4.862   5.794 -13.414  1.00  0.00     0.054 A 
BRANCH  78  79
ATOM     79  S   UNL     1      -4.972   7.469 -14.102  1.00  0.00     0.124 S 
ATOM     80  O   UNL     1      -5.276   7.201 -15.504  1.00  0.00    -0.237 OA
ATOM     81  O   UNL     1      -6.057   8.059 -13.321  1.00  0.00    -0.237 OA
ATOM     82  O   UNL     1      -3.650   8.034 -13.845  1.00  0.00    -0.744 OA
ENDBRANCH  78  79
ENDBRANCH  50  73
BRANCH  62  83
ATOM     83  C   UNL     1      -5.887  -3.341 -14.435  1.00  0.00    -0.014 A 
ATOM     84  C   UNL     1      -5.021  -3.446 -15.535  1.00  0.00     0.010 A 
ATOM     85  C   UNL     1      -7.184  -3.881 -14.514  1.00  0.00     0.010 A 
ATOM     86  C   UNL     1      -5.449  -4.081 -16.701  1.00  0.00     0.020 A 
ATOM     87  C   UNL     1      -7.604  -4.541 -15.667  1.00  0.00     0.020 A 
ATOM     88  C   UNL     1      -6.734  -4.633 -16.755  1.00  0.00     0.054 A 
BRANCH  88  89
ATOM     89  S   UNL     1      -7.229  -5.538 -18.244  1.00  0.00     0.124 S 
ATOM     90  O   UNL     1      -7.427  -4.456 -19.204  1.00  0.00    -0.237 OA
ATOM     91  O   UNL     1      -6.074  -6.397 -18.494  1.00  0.00    -0.237 OA
ATOM     92  O   UNL     1      -8.444  -6.239 -17.836  1.00  0.00    -0.744 OA
ENDBRANCH  88  89
ENDBRANCH  62  83
ENDBRANCH  36  37
ENDBRANCH  29  31
ENDBRANCH  28  29
ENDBRANCH  27  28
ENDBRANCH   1  27
TORSDOF 17
