REMARK SMILES COc1ccc(NC(=O)N[C@@H]2C=C[C@H](C(=O)OCCOC(=O)c3ccc(-c4c5nc(c(-c6ccc(S(=O)(=O)[O-])cc6)c6ccc([nH]6)c(-c6ccc(S(=O)(=O)[O-])cc6)c6nc(c(-c7ccc(S(=O)(=O)[O-])cc7)c7ccc4[nH]7)C=C6)C=C5)cc3)C2)c(C)c1
REMARK SMILES IDX 18 1 17 2 15 3 16 4 14 5 11 6 12 7 83 8 13 9 10 10 7 11 8 12
REMARK SMILES IDX 9 14 6 16 3 17 4 18 86 19 5 20 84 21 85 22 2 23 1 24 19 25
REMARK SMILES IDX 20 26 21 27 22 28 23 29 24 30 82 31 25 32 81 33 26 34 27 35
REMARK SMILES IDX 28 36 75 37 29 38 80 39 74 40 76 41 30 42 79 43 73 44 72 45
REMARK SMILES IDX 31 47 61 48 42 49 60 50 43 51 46 52 59 53 77 54 44 55 45 56
REMARK SMILES IDX 58 58 78 59 47 60 32 61 33 62 41 63 34 64 40 65 35 66 36 67
REMARK SMILES IDX 37 68 38 69 39 70 62 71 63 72 71 73 64 74 70 75 65 76 66 77
REMARK SMILES IDX 67 78 68 79 69 80 48 81 49 82 57 83 50 84 56 85 51 86 52 87
REMARK SMILES IDX 53 88 54 89 55 90
REMARK H PARENT 7 13 10 15 76 46 46 57
REMARK Flexibility Score: inf
ROOT
ATOM      1  C   UNL     1       2.643   1.729  -0.577  1.00  0.00     0.274 C 
ENDROOT
BRANCH   1   2
ATOM      2  O   UNL     1       2.864   0.359  -0.232  1.00  0.00    -0.462 OA
BRANCH   2   3
ATOM      3  C   UNL     1       3.666   0.112   0.954  1.00  0.00     0.312 C 
ATOM      4  O   UNL     1       4.489   1.064   0.979  1.00  0.00    -0.252 OA
BRANCH   3   5
ATOM      5  C   UNL     1       3.420  -1.660   2.239  1.00  0.00     0.124 C 
ATOM      6  C   UNL     1       3.756  -4.346   2.477  1.00  0.00     0.107 C 
ATOM      7  C   UNL     1       2.330  -3.998   2.554  1.00  0.00    -0.006 C 
ATOM      8  C   UNL     1       4.519  -3.029   2.511  1.00  0.00     0.048 C 
ATOM      9  C   UNL     1       2.128  -2.682   2.604  1.00  0.00    -0.014 C 
BRANCH   6  10
ATOM     10  N   UNL     1       4.036  -5.260   1.395  1.00  0.00    -0.332 N 
ATOM     11  N   UNL     1       6.242  -6.086   1.823  1.00  0.00    -0.308 N 
ATOM     12  C   UNL     1       5.114  -6.018   1.075  1.00  0.00     0.319 C 
ATOM     13  H   UNL     1       7.069  -6.181   1.296  1.00  0.00     0.171 HD
ATOM     14  O   UNL     1       5.087  -6.625   0.002  1.00  0.00    -0.248 OA
ATOM     15  H   UNL     1       3.291  -5.351   0.758  1.00  0.00     0.165 HD
BRANCH  11  16
ATOM     16  C   UNL     1       6.445  -6.047   3.210  1.00  0.00     0.046 A 
ATOM     17  C   UNL     1       6.558  -5.237   5.877  1.00  0.00     0.119 A 
ATOM     18  C   UNL     1       5.405  -5.819   5.373  1.00  0.00     0.048 A 
ATOM     19  C   UNL     1       7.724  -5.296   5.108  1.00  0.00     0.052 A 
ATOM     20  C   UNL     1       5.390  -6.307   4.071  1.00  0.00     0.030 A 
ATOM     21  C   UNL     1       7.691  -5.733   3.767  1.00  0.00    -0.024 A 
ATOM     22  C   UNL     1       8.992  -5.973   3.053  1.00  0.00     0.047 C 
BRANCH  17  23
ATOM     23  O   UNL     1       6.660  -4.645   7.106  1.00  0.00    -0.497 OA
ATOM     24  C   UNL     1       5.421  -4.358   7.754  1.00  0.00     0.278 C 
ENDBRANCH  17  23
ENDBRANCH  11  16
ENDBRANCH   6  10
ENDBRANCH   3   5
ENDBRANCH   2   3
ENDBRANCH   1   2
BRANCH   1  25
ATOM     25  C   UNL     1       1.582   2.283   0.383  1.00  0.00     0.275 C 
BRANCH  25  26
ATOM     26  O   UNL     1       2.043   2.409   1.760  1.00  0.00    -0.458 OA
BRANCH  26  27
ATOM     27  C   UNL     1       1.634   1.513   2.706  1.00  0.00     0.338 C 
ATOM     28  O   UNL     1       0.629   1.609   3.390  1.00  0.00    -0.246 OA
BRANCH  27  29
ATOM     29  C   UNL     1       2.405   0.255   2.605  1.00  0.00     0.060 A 
ATOM     30  C   UNL     1       4.163   0.211   2.985  1.00  0.00     0.016 A 
ATOM     31  C   UNL     1       1.739  -0.741   1.294  1.00  0.00     0.016 A 
ATOM     32  C   UNL     1       5.286  -0.747   1.925  1.00  0.00     0.010 A 
ATOM     33  C   UNL     1       2.837  -1.712   0.253  1.00  0.00     0.010 A 
ATOM     34  C   UNL     1       4.619  -1.618   0.476  1.00  0.00    -0.014 A 
BRANCH  34  35
ATOM     35  C   UNL     1       5.337  -1.742  -0.806  1.00  0.00     0.031 A 
ATOM     36  C   UNL     1       5.184  -3.033  -1.510  1.00  0.00     0.074 A 
ATOM     37  C   UNL     1       6.030  -0.716  -1.356  1.00  0.00     0.049 A 
ATOM     38  N   UNL     1       6.175  -3.782  -1.866  1.00  0.00    -0.248 NA
ATOM     39  C   UNL     1       3.886  -3.670  -1.737  1.00  0.00     0.031 C 
ATOM     40  C   UNL     1       6.590  -0.645  -2.709  1.00  0.00     0.029 A 
ATOM     41  N   UNL     1       6.452   0.489  -0.813  1.00  0.00    -0.354 N 
ATOM     42  C   UNL     1       5.610  -4.848  -2.547  1.00  0.00     0.074 A 
ATOM     43  C   UNL     1       4.220  -4.854  -2.226  1.00  0.00     0.031 C 
ATOM     44  C   UNL     1       7.501   0.347  -2.757  1.00  0.00     0.029 A 
ATOM     45  C   UNL     1       7.644   0.879  -1.414  1.00  0.00     0.049 A 
ATOM     46  H   UNL     1       5.979   0.991  -0.110  1.00  0.00     0.167 HD
ATOM     47  C   UNL     1       6.205  -5.441  -3.612  1.00  0.00     0.031 A 
ATOM     48  C   UNL     1       8.824   0.970  -0.730  1.00  0.00     0.031 A 
ATOM     49  C   UNL     1       7.322  -4.615  -4.032  1.00  0.00     0.049 A 
ATOM     50  C   UNL     1       9.791  -0.130  -1.165  1.00  0.00     0.074 A 
ATOM     51  C   UNL     1       7.386  -3.549  -4.916  1.00  0.00     0.029 A 
ATOM     52  N   UNL     1       8.397  -4.475  -3.175  1.00  0.00    -0.354 N 
ATOM     53  N   UNL     1       9.435  -1.202  -1.828  1.00  0.00    -0.248 NA
ATOM     54  C   UNL     1      11.227  -0.102  -0.914  1.00  0.00     0.031 C 
ATOM     55  C   UNL     1       8.523  -2.764  -4.569  1.00  0.00     0.029 A 
ATOM     56  C   UNL     1       9.173  -3.385  -3.516  1.00  0.00     0.049 A 
ATOM     57  H   UNL     1       8.585  -5.075  -2.417  1.00  0.00     0.167 HD
ATOM     58  C   UNL     1      10.532  -1.983  -2.110  1.00  0.00     0.074 A 
ATOM     59  C   UNL     1      11.628  -1.247  -1.499  1.00  0.00     0.031 C 
ATOM     60  C   UNL     1      10.435  -3.157  -2.816  1.00  0.00     0.031 A 
BRANCH  47  61
ATOM     61  C   UNL     1       5.483  -6.476  -4.448  1.00  0.00    -0.014 A 
ATOM     62  C   UNL     1       5.762  -6.607  -5.817  1.00  0.00     0.010 A 
ATOM     63  C   UNL     1       4.500  -7.350  -3.921  1.00  0.00     0.010 A 
ATOM     64  C   UNL     1       5.026  -7.482  -6.635  1.00  0.00     0.020 A 
ATOM     65  C   UNL     1       3.709  -8.174  -4.736  1.00  0.00     0.020 A 
ATOM     66  C   UNL     1       3.980  -8.235  -6.097  1.00  0.00     0.054 A 
BRANCH  66  67
ATOM     67  S   UNL     1       3.009  -9.310  -7.189  1.00  0.00     0.124 S 
ATOM     68  O   UNL     1       2.523  -8.376  -8.202  1.00  0.00    -0.237 OA
ATOM     69  O   UNL     1       4.006 -10.273  -7.647  1.00  0.00    -0.237 OA
ATOM     70  O   UNL     1       1.974  -9.857  -6.314  1.00  0.00    -0.744 OA
ENDBRANCH  66  67
ENDBRANCH  47  61
BRANCH  48  71
ATOM     71  C   UNL     1       8.673   1.569   0.633  1.00  0.00    -0.014 A 
ATOM     72  C   UNL     1       8.150   2.886   0.689  1.00  0.00     0.010 A 
ATOM     73  C   UNL     1       8.629   0.794   1.801  1.00  0.00     0.010 A 
ATOM     74  C   UNL     1       7.424   3.334   1.798  1.00  0.00     0.020 A 
ATOM     75  C   UNL     1       7.937   1.263   2.939  1.00  0.00     0.020 A 
ATOM     76  C   UNL     1       7.291   2.506   2.908  1.00  0.00     0.054 A 
BRANCH  76  77
ATOM     77  S   UNL     1       6.171   3.040   4.244  1.00  0.00     0.124 S 
ATOM     78  O   UNL     1       6.822   4.248   4.739  1.00  0.00    -0.237 OA
ATOM     79  O   UNL     1       4.906   3.259   3.547  1.00  0.00    -0.237 OA
ATOM     80  O   UNL     1       6.173   1.906   5.166  1.00  0.00    -0.744 OA
ENDBRANCH  76  77
ENDBRANCH  48  71
BRANCH  60  81
ATOM     81  C   UNL     1      11.505  -4.236  -2.986  1.00  0.00    -0.014 A 
ATOM     82  C   UNL     1      12.843  -4.110  -2.608  1.00  0.00     0.010 A 
ATOM     83  C   UNL     1      11.151  -5.494  -3.555  1.00  0.00     0.010 A 
ATOM     84  C   UNL     1      13.759  -5.160  -2.770  1.00  0.00     0.020 A 
ATOM     85  C   UNL     1      12.038  -6.563  -3.689  1.00  0.00     0.020 A 
ATOM     86  C   UNL     1      13.350  -6.380  -3.304  1.00  0.00     0.054 A 
BRANCH  86  87
ATOM     87  S   UNL     1      14.565  -7.693  -3.519  1.00  0.00     0.124 S 
ATOM     88  O   UNL     1      15.482  -7.098  -4.488  1.00  0.00    -0.237 OA
ATOM     89  O   UNL     1      15.094  -7.848  -2.166  1.00  0.00    -0.237 OA
ATOM     90  O   UNL     1      13.782  -8.822  -4.012  1.00  0.00    -0.744 OA
ENDBRANCH  86  87
ENDBRANCH  60  81
ENDBRANCH  34  35
ENDBRANCH  27  29
ENDBRANCH  26  27
ENDBRANCH  25  26
ENDBRANCH   1  25
TORSDOF 17
