REMARK SMILES O=C(N[C@@H](C(=O)OCCOC(=O)c1ccc(-c2c3nc(c(-c4ccc(S(=O)(=O)[O-])cc4)c4ccc([nH]4)c(-c4ccc(S(=O)(=O)[O-])cc4)c4nc(c(-c5ccc(S(=O)(=O)[O-])cc5)c5ccc2[nH]5)C=C4)C=C3)cc1)c1ccccc1)c1ccc(Br)nc1
REMARK SMILES IDX 9 1 8 2 7 3 5 4 6 5 4 6 3 7 1 8 2 9 79 11 80 12 85 13 81 14
REMARK SMILES IDX 84 15 82 16 83 17 73 18 74 19 78 20 75 21 77 22 76 23 10 24
REMARK SMILES IDX 11 25 12 26 13 27 14 28 72 29 15 30 71 31 16 32 17 33 18 34
REMARK SMILES IDX 65 35 19 36 70 37 64 38 66 39 20 40 69 41 63 42 62 43 21 45
REMARK SMILES IDX 51 46 32 47 50 48 33 49 36 50 49 51 67 52 34 53 35 54 48 56
REMARK SMILES IDX 68 57 37 58 22 59 23 60 31 61 24 62 30 63 25 64 26 65 27 66
REMARK SMILES IDX 28 67 29 68 52 69 53 70 61 71 54 72 60 73 55 74 56 75 57 76
REMARK SMILES IDX 58 77 59 78 38 79 39 80 47 81 40 82 46 83 41 84 42 85 43 86
REMARK SMILES IDX 44 87 45 88
REMARK H PARENT 3 10 66 44 36 55
REMARK Flexibility Score: inf
ROOT
ATOM      1  C   UNL     1       4.678  -1.179  -5.054  1.00  0.00     0.275 C 
ENDROOT
BRANCH   1   2
ATOM      2  C   UNL     1       5.064  -1.812  -3.719  1.00  0.00     0.274 C 
BRANCH   2   3
ATOM      3  O   UNL     1       4.455  -1.112  -2.615  1.00  0.00    -0.460 OA
BRANCH   3   4
ATOM      4  C   UNL     1       5.290  -0.372  -1.827  1.00  0.00     0.333 C 
ATOM      5  O   UNL     1       6.499  -0.279  -2.008  1.00  0.00    -0.249 OA
BRANCH   4   6
ATOM      6  C   UNL     1       4.554   0.249  -0.617  1.00  0.00     0.223 C 
BRANCH   6   7
ATOM      7  N   UNL     1       3.099   0.051  -0.643  1.00  0.00    -0.335 N 
ATOM      8  O   UNL     1       1.095  -0.668   0.124  1.00  0.00    -0.269 OA
ATOM      9  C   UNL     1       2.293  -0.496   0.316  1.00  0.00     0.253 C 
ATOM     10  H   UNL     1       2.642   0.354  -1.461  1.00  0.00     0.165 HD
BRANCH   9  11
ATOM     11  C   UNL     1       2.893  -0.986   1.564  1.00  0.00     0.058 A 
ATOM     12  C   UNL     1       2.836  -2.350   1.843  1.00  0.00     0.018 A 
ATOM     13  C   UNL     1       3.566  -0.151   2.443  1.00  0.00     0.126 A 
ATOM     14  C   UNL     1       3.507  -2.838   2.961  1.00  0.00     0.037 A 
ATOM     15  N   UNL     1       4.234  -0.605   3.531  1.00  0.00    -0.249 NA
ATOM     16  C   UNL     1       4.199  -1.938   3.761  1.00  0.00     0.106 A 
ATOM     17  Br  UNL     1       5.177  -2.603   5.242  1.00  0.00    -0.029 Br
ENDBRANCH   9  11
ENDBRANCH   6   7
BRANCH   6  18
ATOM     18  C   UNL     1       4.906   1.712  -0.368  1.00  0.00    -0.014 A 
ATOM     19  C   UNL     1       6.145   2.040   0.210  1.00  0.00     0.006 A 
ATOM     20  C   UNL     1       4.036   2.765  -0.708  1.00  0.00     0.006 A 
ATOM     21  C   UNL     1       6.497   3.372   0.449  1.00  0.00     0.000 A 
ATOM     22  C   UNL     1       4.389   4.096  -0.463  1.00  0.00     0.000 A 
ATOM     23  C   UNL     1       5.618   4.399   0.117  1.00  0.00     0.000 A 
ENDBRANCH   6  18
ENDBRANCH   4   6
ENDBRANCH   3   4
ENDBRANCH   2   3
ENDBRANCH   1   2
BRANCH   1  24
ATOM     24  O   UNL     1       5.258   0.131  -5.184  1.00  0.00    -0.458 OA
BRANCH  24  25
ATOM     25  C   UNL     1       4.435   1.155  -4.862  1.00  0.00     0.338 C 
ATOM     26  O   UNL     1       3.268   1.088  -4.518  1.00  0.00    -0.246 OA
BRANCH  25  27
ATOM     27  C   UNL     1       5.200   2.407  -4.846  1.00  0.00     0.060 A 
ATOM     28  C   UNL     1       5.877   2.729  -3.676  1.00  0.00     0.016 A 
ATOM     29  C   UNL     1       5.126   3.326  -5.891  1.00  0.00     0.016 A 
ATOM     30  C   UNL     1       6.395   4.005  -3.499  1.00  0.00     0.010 A 
ATOM     31  C   UNL     1       5.726   4.585  -5.741  1.00  0.00     0.010 A 
ATOM     32  C   UNL     1       6.329   4.955  -4.524  1.00  0.00    -0.014 A 
BRANCH  32  33
ATOM     33  C   UNL     1       6.818   6.340  -4.270  1.00  0.00     0.031 A 
ATOM     34  C   UNL     1       5.875   7.511  -4.392  1.00  0.00     0.074 A 
ATOM     35  C   UNL     1       8.082   6.559  -3.849  1.00  0.00     0.049 A 
ATOM     36  N   UNL     1       6.143   8.792  -4.362  1.00  0.00    -0.248 NA
ATOM     37  C   UNL     1       4.448   7.202  -4.580  1.00  0.00     0.031 C 
ATOM     38  C   UNL     1       9.090   5.525  -3.602  1.00  0.00     0.029 A 
ATOM     39  N   UNL     1       8.726   7.728  -3.522  1.00  0.00    -0.354 N 
ATOM     40  C   UNL     1       4.936   9.438  -4.604  1.00  0.00     0.074 A 
ATOM     41  C   UNL     1       3.930   8.410  -4.758  1.00  0.00     0.031 C 
ATOM     42  C   UNL     1      10.194   6.096  -3.097  1.00  0.00     0.029 A 
ATOM     43  C   UNL     1      10.014   7.543  -3.078  1.00  0.00     0.049 A 
ATOM     44  H   UNL     1       8.304   8.614  -3.598  1.00  0.00     0.167 HD
ATOM     45  C   UNL     1       4.691  10.767  -4.703  1.00  0.00     0.031 A 
ATOM     46  C   UNL     1      10.962   8.434  -2.728  1.00  0.00     0.031 A 
ATOM     47  C   UNL     1       5.677  11.792  -4.489  1.00  0.00     0.049 A 
ATOM     48  C   UNL     1      10.674   9.901  -2.853  1.00  0.00     0.074 A 
ATOM     49  C   UNL     1       5.531  13.165  -4.595  1.00  0.00     0.029 A 
ATOM     50  N   UNL     1       6.984  11.559  -4.095  1.00  0.00    -0.354 N 
ATOM     51  N   UNL     1       9.559  10.492  -3.208  1.00  0.00    -0.248 NA
ATOM     52  C   UNL     1      11.783  10.821  -2.564  1.00  0.00     0.031 C 
ATOM     53  C   UNL     1       6.759  13.761  -4.285  1.00  0.00     0.029 A 
ATOM     54  C   UNL     1       7.657  12.760  -3.953  1.00  0.00     0.049 A 
ATOM     55  H   UNL     1       7.377  10.670  -3.938  1.00  0.00     0.167 HD
ATOM     56  C   UNL     1       9.837  11.854  -3.201  1.00  0.00     0.074 A 
ATOM     57  C   UNL     1      11.213  12.001  -2.772  1.00  0.00     0.031 C 
ATOM     58  C   UNL     1       9.029  12.888  -3.537  1.00  0.00     0.031 A 
BRANCH  45  59
ATOM     59  C   UNL     1       3.308  11.184  -5.119  1.00  0.00    -0.014 A 
ATOM     60  C   UNL     1       2.230  11.171  -4.218  1.00  0.00     0.010 A 
ATOM     61  C   UNL     1       3.096  11.624  -6.439  1.00  0.00     0.010 A 
ATOM     62  C   UNL     1       0.953  11.554  -4.642  1.00  0.00     0.020 A 
ATOM     63  C   UNL     1       1.826  12.027  -6.861  1.00  0.00     0.020 A 
ATOM     64  C   UNL     1       0.758  11.971  -5.963  1.00  0.00     0.054 A 
BRANCH  64  65
ATOM     65  S   UNL     1      -0.902  12.476  -6.492  1.00  0.00     0.124 S 
ATOM     66  O   UNL     1      -1.550  11.186  -6.714  1.00  0.00    -0.237 OA
ATOM     67  O   UNL     1      -1.392  13.236  -5.345  1.00  0.00    -0.237 OA
ATOM     68  O   UNL     1      -0.655  13.265  -7.697  1.00  0.00    -0.744 OA
ENDBRANCH  64  65
ENDBRANCH  45  59
BRANCH  46  69
ATOM     69  C   UNL     1      12.300   7.955  -2.289  1.00  0.00    -0.014 A 
ATOM     70  C   UNL     1      12.693   8.069  -0.945  1.00  0.00     0.010 A 
ATOM     71  C   UNL     1      13.177   7.357  -3.212  1.00  0.00     0.010 A 
ATOM     72  C   UNL     1      13.941   7.593  -0.531  1.00  0.00     0.020 A 
ATOM     73  C   UNL     1      14.413   6.857  -2.798  1.00  0.00     0.020 A 
ATOM     74  C   UNL     1      14.792   6.987  -1.460  1.00  0.00     0.054 A 
BRANCH  74  75
ATOM     75  S   UNL     1      16.375   6.298  -0.899  1.00  0.00     0.124 S 
ATOM     76  O   UNL     1      17.238   7.474  -0.914  1.00  0.00    -0.237 OA
ATOM     77  O   UNL     1      16.047   5.769   0.423  1.00  0.00    -0.237 OA
ATOM     78  O   UNL     1      16.675   5.283  -1.908  1.00  0.00    -0.744 OA
ENDBRANCH  74  75
ENDBRANCH  46  69
BRANCH  58  79
ATOM     79  C   UNL     1       9.616  14.268  -3.455  1.00  0.00    -0.014 A 
ATOM     80  C   UNL     1      10.480  14.739  -4.460  1.00  0.00     0.010 A 
ATOM     81  C   UNL     1       9.273  15.114  -2.386  1.00  0.00     0.010 A 
ATOM     82  C   UNL     1      11.014  16.028  -4.382  1.00  0.00     0.020 A 
ATOM     83  C   UNL     1       9.793  16.409  -2.314  1.00  0.00     0.020 A 
ATOM     84  C   UNL     1      10.671  16.853  -3.306  1.00  0.00     0.054 A 
BRANCH  84  85
ATOM     85  S   UNL     1      11.346  18.535  -3.241  1.00  0.00     0.124 S 
ATOM     86  O   UNL     1      12.695  18.301  -2.735  1.00  0.00    -0.237 OA
ATOM     87  O   UNL     1      11.264  18.973  -4.632  1.00  0.00    -0.237 OA
ATOM     88  O   UNL     1      10.446  19.231  -2.323  1.00  0.00    -0.744 OA
ENDBRANCH  84  85
ENDBRANCH  58  79
ENDBRANCH  32  33
ENDBRANCH  25  27
ENDBRANCH  24  25
ENDBRANCH   1  24
TORSDOF 17
