REMARK SMILES COc1cc(CC(=O)OCCOC(=O)c2ccc(-c3c4nc(c(-c5ccc(S(=O)(=O)[O-])cc5)c5ccc([nH]5)c(-c5ccc(S(=O)(=O)[O-])cc5)c5nc(c(-c6ccc(S(=O)(=O)[O-])cc6)c6ccc3[nH]6)C=C5)C=C4)cc2)cc(Br)c1O
REMARK SMILES IDX 11 1 10 2 9 3 7 4 8 5 6 6 5 7 3 8 4 9 78 10 76 11 75 12
REMARK SMILES IDX 77 13 2 14 1 15 79 16 12 18 13 19 14 20 15 21 16 22 74 23
REMARK SMILES IDX 17 24 73 25 18 26 19 27 20 28 67 29 21 30 72 31 66 32 68 33
REMARK SMILES IDX 22 34 71 35 65 36 64 37 23 39 53 40 34 41 52 42 35 43 38 44
REMARK SMILES IDX 51 45 69 46 36 47 37 48 50 50 70 51 39 52 24 53 25 54 33 55
REMARK SMILES IDX 26 56 32 57 27 58 28 59 29 60 30 61 31 62 54 63 55 64 63 65
REMARK SMILES IDX 56 66 62 67 57 68 58 69 59 70 60 71 61 72 40 73 41 74 49 75
REMARK SMILES IDX 42 76 48 77 43 78 44 79 45 80 46 81 47 82
REMARK H PARENT 79 17 68 38 38 49
REMARK Flexibility Score: inf
ROOT
ATOM      1  C   UNL     1      -0.145  -7.745   1.025  1.00  0.00     0.275 C 
ENDROOT
BRANCH   1   2
ATOM      2  C   UNL     1      -1.329  -6.797   0.858  1.00  0.00     0.274 C 
BRANCH   2   3
ATOM      3  O   UNL     1      -1.034  -5.503   1.419  1.00  0.00    -0.462 OA
BRANCH   3   4
ATOM      4  C   UNL     1      -1.472  -5.307   2.691  1.00  0.00     0.310 C 
ATOM      5  O   UNL     1      -2.128  -6.119   3.335  1.00  0.00    -0.252 OA
BRANCH   4   6
ATOM      6  C   UNL     1      -1.151  -3.938   3.237  1.00  0.00     0.158 C 
BRANCH   6   7
ATOM      7  C   UNL     1       0.063  -3.222   2.689  1.00  0.00    -0.032 A 
ATOM      8  C   UNL     1       1.042  -1.242   1.692  1.00  0.00     0.161 A 
ATOM      9  C   UNL     1      -0.082  -1.954   2.109  1.00  0.00     0.054 A 
ATOM     10  C   UNL     1       2.325  -1.755   1.885  1.00  0.00     0.172 A 
ATOM     11  C   UNL     1       2.482  -3.022   2.437  1.00  0.00     0.063 A 
ATOM     12  C   UNL     1       1.356  -3.753   2.837  1.00  0.00     0.024 A 
ATOM     13  Br  UNL     1       4.198  -3.779   2.712  1.00  0.00    -0.047 Br
BRANCH   8  14
ATOM     14  O   UNL     1       0.871   0.008   1.154  1.00  0.00    -0.493 OA
ATOM     15  C   UNL     1       0.860  -0.080  -0.274  1.00  0.00     0.278 C 
ENDBRANCH   8  14
BRANCH  10  16
ATOM     16  O   UNL     1       3.410  -0.990   1.553  1.00  0.00    -0.503 OA
ATOM     17  H   UNL     1       3.287  -0.138   1.182  1.00  0.00     0.293 HD
ENDBRANCH  10  16
ENDBRANCH   6   7
ENDBRANCH   4   6
ENDBRANCH   3   4
ENDBRANCH   2   3
ENDBRANCH   1   2
BRANCH   1  18
ATOM     18  O   UNL     1       0.146  -7.921   2.422  1.00  0.00    -0.458 OA
BRANCH  18  19
ATOM     19  C   UNL     1       1.432  -7.705   2.780  1.00  0.00     0.338 C 
ATOM     20  O   UNL     1       2.366  -7.424   2.051  1.00  0.00    -0.246 OA
BRANCH  19  21
ATOM     21  C   UNL     1       1.575  -7.875   4.235  1.00  0.00     0.060 A 
ATOM     22  C   UNL     1       0.956  -6.986   5.117  1.00  0.00     0.016 A 
ATOM     23  C   UNL     1       2.429  -8.869   4.712  1.00  0.00     0.016 A 
ATOM     24  C   UNL     1       1.236  -7.057   6.482  1.00  0.00     0.010 A 
ATOM     25  C   UNL     1       2.662  -8.975   6.085  1.00  0.00     0.010 A 
ATOM     26  C   UNL     1       2.092  -8.052   6.978  1.00  0.00    -0.014 A 
BRANCH  26  27
ATOM     27  C   UNL     1       2.425  -8.115   8.424  1.00  0.00     0.031 A 
ATOM     28  C   UNL     1       3.827  -7.823   8.889  1.00  0.00     0.074 A 
ATOM     29  C   UNL     1       1.477  -8.452   9.319  1.00  0.00     0.049 A 
ATOM     30  N   UNL     1       4.338  -7.935  10.088  1.00  0.00    -0.248 NA
ATOM     31  C   UNL     1       4.779  -7.350   7.871  1.00  0.00     0.031 C 
ATOM     32  C   UNL     1       0.076  -8.736   9.003  1.00  0.00     0.029 A 
ATOM     33  N   UNL     1       1.552  -8.618  10.679  1.00  0.00    -0.354 N 
ATOM     34  C   UNL     1       5.676  -7.580   9.965  1.00  0.00     0.074 A 
ATOM     35  C   UNL     1       5.901  -7.258   8.572  1.00  0.00     0.031 C 
ATOM     36  C   UNL     1      -0.578  -9.031  10.138  1.00  0.00     0.029 A 
ATOM     37  C   UNL     1       0.365  -9.006  11.252  1.00  0.00     0.049 A 
ATOM     38  H   UNL     1       2.378  -8.473  11.195  1.00  0.00     0.167 HD
ATOM     39  C   UNL     1       6.632  -7.526  10.924  1.00  0.00     0.031 A 
ATOM     40  C   UNL     1       0.072  -9.331  12.525  1.00  0.00     0.031 A 
ATOM     41  C   UNL     1       6.407  -7.831  12.312  1.00  0.00     0.049 A 
ATOM     42  C   UNL     1       1.154  -9.291  13.566  1.00  0.00     0.074 A 
ATOM     43  C   UNL     1       7.311  -7.789  13.361  1.00  0.00     0.029 A 
ATOM     44  N   UNL     1       5.192  -8.229  12.848  1.00  0.00    -0.354 N 
ATOM     45  N   UNL     1       2.417  -8.963  13.428  1.00  0.00    -0.248 NA
ATOM     46  C   UNL     1       0.772  -9.667  14.934  1.00  0.00     0.031 C 
ATOM     47  C   UNL     1       6.649  -8.194  14.526  1.00  0.00     0.029 A 
ATOM     48  C   UNL     1       5.324  -8.449  14.209  1.00  0.00     0.049 A 
ATOM     49  H   UNL     1       4.359  -8.339  12.336  1.00  0.00     0.167 HD
ATOM     50  C   UNL     1       2.977  -9.081  14.695  1.00  0.00     0.074 A 
ATOM     51  C   UNL     1       1.914  -9.495  15.588  1.00  0.00     0.031 C 
ATOM     52  C   UNL     1       4.258  -8.866  15.082  1.00  0.00     0.031 A 
BRANCH  39  53
ATOM     53  C   UNL     1       8.024  -7.150  10.493  1.00  0.00    -0.014 A 
ATOM     54  C   UNL     1       8.354  -5.820  10.177  1.00  0.00     0.010 A 
ATOM     55  C   UNL     1       9.023  -8.138  10.434  1.00  0.00     0.010 A 
ATOM     56  C   UNL     1       9.652  -5.492   9.773  1.00  0.00     0.020 A 
ATOM     57  C   UNL     1      10.326  -7.810  10.050  1.00  0.00     0.020 A 
ATOM     58  C   UNL     1      10.628  -6.491   9.705  1.00  0.00     0.054 A 
BRANCH  58  59
ATOM     59  S   UNL     1      12.310  -6.041   9.195  1.00  0.00     0.124 S 
ATOM     60  O   UNL     1      12.164  -5.924   7.746  1.00  0.00    -0.237 OA
ATOM     61  O   UNL     1      12.540  -4.786   9.906  1.00  0.00    -0.237 OA
ATOM     62  O   UNL     1      13.122  -7.167   9.650  1.00  0.00    -0.744 OA
ENDBRANCH  58  59
ENDBRANCH  39  53
BRANCH  40  63
ATOM     63  C   UNL     1      -1.311  -9.748  12.879  1.00  0.00    -0.014 A 
ATOM     64  C   UNL     1      -2.152  -8.885  13.601  1.00  0.00     0.010 A 
ATOM     65  C   UNL     1      -1.799 -11.002  12.470  1.00  0.00     0.010 A 
ATOM     66  C   UNL     1      -3.457  -9.272  13.917  1.00  0.00     0.020 A 
ATOM     67  C   UNL     1      -3.111 -11.383  12.764  1.00  0.00     0.020 A 
ATOM     68  C   UNL     1      -3.929 -10.519  13.495  1.00  0.00     0.054 A 
BRANCH  68  69
ATOM     69  S   UNL     1      -5.648 -10.978  13.852  1.00  0.00     0.124 S 
ATOM     70  O   UNL     1      -5.563 -11.408  15.244  1.00  0.00    -0.237 OA
ATOM     71  O   UNL     1      -6.369  -9.729  13.618  1.00  0.00    -0.237 OA
ATOM     72  O   UNL     1      -5.924 -12.036  12.883  1.00  0.00    -0.744 OA
ENDBRANCH  68  69
ENDBRANCH  40  63
BRANCH  52  73
ATOM     73  C   UNL     1       4.573  -9.053  16.541  1.00  0.00    -0.014 A 
ATOM     74  C   UNL     1       4.699 -10.338  17.096  1.00  0.00     0.010 A 
ATOM     75  C   UNL     1       4.781  -7.927  17.357  1.00  0.00     0.010 A 
ATOM     76  C   UNL     1       4.997 -10.494  18.452  1.00  0.00     0.020 A 
ATOM     77  C   UNL     1       5.099  -8.079  18.709  1.00  0.00     0.020 A 
ATOM     78  C   UNL     1       5.189  -9.363  19.251  1.00  0.00     0.054 A 
BRANCH  78  79
ATOM     79  S   UNL     1       5.608  -9.585  21.003  1.00  0.00     0.124 S 
ATOM     80  O   UNL     1       4.305  -9.883  21.590  1.00  0.00    -0.237 OA
ATOM     81  O   UNL     1       6.552 -10.700  20.973  1.00  0.00    -0.237 OA
ATOM     82  O   UNL     1       6.186  -8.299  21.384  1.00  0.00    -0.744 OA
ENDBRANCH  78  79
ENDBRANCH  52  73
ENDBRANCH  26  27
ENDBRANCH  19  21
ENDBRANCH  18  19
ENDBRANCH   1  18
TORSDOF 17
