REMARK SMILES Cc1c(NC(=O)c2cccc(-c3cc4ccccc4oc3=O)c2)cccc1C(=O)OCCOC(=O)c1ccc(-c2c3nc(c(-c4ccc(S(=O)(=O)[O-])cc4)c4ccc([nH]4)c(-c4ccc(S(=O)(=O)[O-])cc4)c4nc(c(-c5ccc(S(=O)(=O)[O-])cc5)c5ccc2[nH]5)C=C4)C=C3)cc1
REMARK SMILES IDX 31 1 30 2 28 3 29 4 27 5 1 6 2 7 3 8 24 9 26 10 25 11 4 12
REMARK SMILES IDX 5 13 6 15 7 16 8 17 23 18 9 19 11 20 10 21 12 22 13 23 21 24
REMARK SMILES IDX 14 25 20 26 22 27 15 28 19 29 16 30 18 31 17 32 32 33 33 34
REMARK SMILES IDX 34 35 35 36 36 37 37 38 95 39 38 40 94 41 39 42 40 43 41 44
REMARK SMILES IDX 88 45 42 46 93 47 87 48 89 49 43 50 92 51 86 52 85 53 44 55
REMARK SMILES IDX 74 56 55 57 73 58 56 59 59 60 72 61 90 62 57 63 58 64 71 66
REMARK SMILES IDX 91 67 60 68 45 69 46 70 54 71 47 72 53 73 48 74 49 75 50 76
REMARK SMILES IDX 51 77 52 78 75 79 76 80 84 81 77 82 83 83 78 84 79 85 80 86
REMARK SMILES IDX 81 87 82 88 61 89 62 90 70 91 63 92 69 93 64 94 65 95 66 96
REMARK SMILES IDX 67 97 68 98
REMARK H PARENT 4 14 89 54 59 65
REMARK Flexibility Score: inf
ROOT
ATOM      1  C   UNL     1       3.542   2.643  -2.001  1.00  0.00     0.275 C 
ENDROOT
BRANCH   1   2
ATOM      2  O   UNL     1       2.405   1.851  -1.596  1.00  0.00    -0.458 OA
BRANCH   2   3
ATOM      3  C   UNL     1       2.639   1.058  -0.511  1.00  0.00     0.338 C 
ATOM      4  O   UNL     1       3.669   1.057   0.121  1.00  0.00    -0.246 OA
BRANCH   3   5
ATOM      5  C   UNL     1       1.497   0.117  -0.238  1.00  0.00     0.065 A 
ATOM      6  C   UNL     1       3.102  -1.835   0.134  1.00  0.00     0.047 C 
ATOM      7  C   UNL     1       1.719  -1.235   0.107  1.00  0.00    -0.013 A 
ATOM      8  C   UNL     1       0.594  -2.067   0.362  1.00  0.00     0.045 A 
ATOM      9  C   UNL     1      -0.687  -1.517   0.453  1.00  0.00     0.026 A 
ATOM     10  C   UNL     1       0.181   0.593  -0.293  1.00  0.00     0.016 A 
ATOM     11  C   UNL     1      -0.899  -0.193   0.103  1.00  0.00     0.003 A 
BRANCH   8  12
ATOM     12  N   UNL     1       0.791  -3.453   0.495  1.00  0.00    -0.322 N 
ATOM     13  C   UNL     1       0.002  -4.538   0.177  1.00  0.00     0.255 C 
ATOM     14  H   UNL     1       1.659  -3.696   0.891  1.00  0.00     0.170 HD
ATOM     15  O   UNL     1       0.378  -5.652   0.555  1.00  0.00    -0.269 OA
BRANCH  13  16
ATOM     16  C   UNL     1      -1.212  -4.475  -0.695  1.00  0.00     0.040 A 
ATOM     17  C   UNL     1      -2.146  -5.513  -0.578  1.00  0.00     0.014 A 
ATOM     18  C   UNL     1      -1.394  -3.529  -1.712  1.00  0.00     0.022 A 
ATOM     19  C   UNL     1      -3.261  -5.570  -1.416  1.00  0.00     0.001 A 
ATOM     20  C   UNL     1      -2.529  -3.556  -2.548  1.00  0.00    -0.010 A 
ATOM     21  C   UNL     1      -3.458  -4.588  -2.386  1.00  0.00     0.009 A 
BRANCH  20  22
ATOM     22  C   UNL     1      -2.700  -2.646  -3.718  1.00  0.00     0.068 A 
ATOM     23  C   UNL     1      -2.470  -1.325  -3.574  1.00  0.00     0.028 A 
ATOM     24  C   UNL     1      -2.049  -3.197  -4.950  1.00  0.00     0.344 A 
ATOM     25  C   UNL     1      -1.113  -0.867  -3.911  1.00  0.00     0.018 A 
ATOM     26  O   UNL     1      -0.675  -3.000  -4.999  1.00  0.00    -0.422 OA
ATOM     27  O   UNL     1      -2.663  -3.876  -5.764  1.00  0.00    -0.246 OA
ATOM     28  C   UNL     1      -0.673   0.412  -3.612  1.00  0.00     0.012 A 
ATOM     29  C   UNL     1      -0.214  -1.784  -4.468  1.00  0.00     0.138 A 
ATOM     30  C   UNL     1       0.675   0.717  -3.788  1.00  0.00     0.001 A 
ATOM     31  C   UNL     1       1.146  -1.513  -4.561  1.00  0.00     0.048 A 
ATOM     32  C   UNL     1       1.596  -0.252  -4.196  1.00  0.00     0.004 A 
ENDBRANCH  20  22
ENDBRANCH  13  16
ENDBRANCH   8  12
ENDBRANCH   3   5
ENDBRANCH   2   3
ENDBRANCH   1   2
BRANCH   1  33
ATOM     33  C   UNL     1       3.192   3.645  -3.123  1.00  0.00     0.275 C 
BRANCH  33  34
ATOM     34  O   UNL     1       2.434   4.792  -2.696  1.00  0.00    -0.458 OA
BRANCH  34  35
ATOM     35  C   UNL     1       1.189   4.503  -2.225  1.00  0.00     0.338 C 
ATOM     36  O   UNL     1       0.327   3.941  -2.875  1.00  0.00    -0.246 OA
BRANCH  35  37
ATOM     37  C   UNL     1       1.251   4.612  -0.741  1.00  0.00     0.060 A 
ATOM     38  C   UNL     1       0.301   3.938   0.032  1.00  0.00     0.016 A 
ATOM     39  C   UNL     1       2.441   5.058  -0.160  1.00  0.00     0.016 A 
ATOM     40  C   UNL     1       0.608   3.562   1.341  1.00  0.00     0.010 A 
ATOM     41  C   UNL     1       2.788   4.609   1.091  1.00  0.00     0.010 A 
ATOM     42  C   UNL     1       1.873   3.868   1.848  1.00  0.00    -0.014 A 
BRANCH  42  43
ATOM     43  C   UNL     1       2.199   3.843   3.267  1.00  0.00     0.031 A 
ATOM     44  C   UNL     1       2.746   2.669   3.979  1.00  0.00     0.074 A 
ATOM     45  C   UNL     1       2.055   5.069   3.822  1.00  0.00     0.049 A 
ATOM     46  N   UNL     1       2.897   2.622   5.257  1.00  0.00    -0.248 NA
ATOM     47  C   UNL     1       3.153   1.424   3.334  1.00  0.00     0.031 C 
ATOM     48  C   UNL     1       2.453   5.556   5.129  1.00  0.00     0.029 A 
ATOM     49  N   UNL     1       1.250   6.106   3.313  1.00  0.00    -0.354 N 
ATOM     50  C   UNL     1       3.627   1.493   5.576  1.00  0.00     0.074 A 
ATOM     51  C   UNL     1       3.720   0.750   4.346  1.00  0.00     0.031 C 
ATOM     52  C   UNL     1       1.625   6.568   5.457  1.00  0.00     0.029 A 
ATOM     53  C   UNL     1       0.592   6.625   4.421  1.00  0.00     0.049 A 
ATOM     54  H   UNL     1       1.171   6.399   2.377  1.00  0.00     0.167 HD
ATOM     55  C   UNL     1       4.152   1.393   6.831  1.00  0.00     0.031 A 
ATOM     56  C   UNL     1      -0.741   6.386   4.613  1.00  0.00     0.031 A 
ATOM     57  C   UNL     1       3.550   2.405   7.696  1.00  0.00     0.049 A 
ATOM     58  C   UNL     1      -0.941   5.651   5.919  1.00  0.00     0.074 A 
ATOM     59  C   UNL     1       3.955   3.672   8.078  1.00  0.00     0.029 A 
ATOM     60  N   UNL     1       2.186   2.323   7.959  1.00  0.00    -0.354 N 
ATOM     61  N   UNL     1      -0.111   4.763   6.402  1.00  0.00    -0.248 NA
ATOM     62  C   UNL     1      -2.057   5.941   6.809  1.00  0.00     0.031 C 
ATOM     63  C   UNL     1       2.782   4.407   8.409  1.00  0.00     0.029 A 
ATOM     64  C   UNL     1       1.685   3.569   8.278  1.00  0.00     0.049 A 
ATOM     65  H   UNL     1       1.655   1.495   7.923  1.00  0.00     0.167 HD
ATOM     66  C   UNL     1      -0.480   4.478   7.691  1.00  0.00     0.074 A 
ATOM     67  C   UNL     1      -1.731   5.198   7.880  1.00  0.00     0.031 C 
ATOM     68  C   UNL     1       0.270   3.742   8.563  1.00  0.00     0.031 A 
BRANCH  55  69
ATOM     69  C   UNL     1       5.368   0.574   7.222  1.00  0.00    -0.014 A 
ATOM     70  C   UNL     1       6.099   0.951   8.373  1.00  0.00     0.010 A 
ATOM     71  C   UNL     1       5.912  -0.485   6.471  1.00  0.00     0.010 A 
ATOM     72  C   UNL     1       7.334   0.368   8.708  1.00  0.00     0.020 A 
ATOM     73  C   UNL     1       7.149  -1.078   6.794  1.00  0.00     0.020 A 
ATOM     74  C   UNL     1       7.865  -0.631   7.900  1.00  0.00     0.054 A 
BRANCH  74  75
ATOM     75  S   UNL     1       9.500  -1.312   8.297  1.00  0.00     0.124 S 
ATOM     76  O   UNL     1      10.368  -0.145   8.161  1.00  0.00    -0.237 OA
ATOM     77  O   UNL     1       9.319  -1.805   9.660  1.00  0.00    -0.237 OA
ATOM     78  O   UNL     1       9.700  -2.350   7.286  1.00  0.00    -0.744 OA
ENDBRANCH  74  75
ENDBRANCH  55  69
BRANCH  56  79
ATOM     79  C   UNL     1      -1.607   6.220   3.394  1.00  0.00    -0.014 A 
ATOM     80  C   UNL     1      -1.562   7.219   2.392  1.00  0.00     0.010 A 
ATOM     81  C   UNL     1      -2.299   5.032   3.096  1.00  0.00     0.010 A 
ATOM     82  C   UNL     1      -2.088   7.004   1.111  1.00  0.00     0.020 A 
ATOM     83  C   UNL     1      -2.849   4.818   1.814  1.00  0.00     0.020 A 
ATOM     84  C   UNL     1      -2.714   5.794   0.821  1.00  0.00     0.054 A 
BRANCH  84  85
ATOM     85  S   UNL     1      -3.152   5.431  -0.912  1.00  0.00     0.124 S 
ATOM     86  O   UNL     1      -4.458   6.067  -1.042  1.00  0.00    -0.237 OA
ATOM     87  O   UNL     1      -2.061   6.068  -1.646  1.00  0.00    -0.237 OA
ATOM     88  O   UNL     1      -3.151   3.969  -0.953  1.00  0.00    -0.744 OA
ENDBRANCH  84  85
ENDBRANCH  56  79
BRANCH  68  89
ATOM     89  C   UNL     1      -0.253   3.203   9.866  1.00  0.00    -0.014 A 
ATOM     90  C   UNL     1      -1.605   2.887  10.070  1.00  0.00     0.010 A 
ATOM     91  C   UNL     1       0.662   2.840  10.881  1.00  0.00     0.010 A 
ATOM     92  C   UNL     1      -2.039   2.313  11.268  1.00  0.00     0.020 A 
ATOM     93  C   UNL     1       0.246   2.220  12.058  1.00  0.00     0.020 A 
ATOM     94  C   UNL     1      -1.111   1.988  12.257  1.00  0.00     0.054 A 
BRANCH  94  95
ATOM     95  S   UNL     1      -1.668   1.192  13.781  1.00  0.00     0.124 S 
ATOM     96  O   UNL     1      -1.895   2.343  14.651  1.00  0.00    -0.237 OA
ATOM     97  O   UNL     1      -2.873   0.478  13.361  1.00  0.00    -0.237 OA
ATOM     98  O   UNL     1      -0.542   0.337  14.147  1.00  0.00    -0.744 OA
ENDBRANCH  94  95
ENDBRANCH  68  89
ENDBRANCH  42  43
ENDBRANCH  35  37
ENDBRANCH  34  35
ENDBRANCH  33  34
ENDBRANCH   1  33
TORSDOF 17
