REMARK SMILES CC(C)[C@H]1CC[C@@H](C)/C(=C/c2ccc(NC(=O)CCC(=O)OCCOC(=O)c3ccc(-c4c5nc(c(-c6ccc(S(=O)(=O)[O-])cc6)c6ccc([nH]6)c(-c6ccc(S(=O)(=O)[O-])cc6)c6nc(c(-c7ccc(S(=O)(=O)[O-])cc7)c7ccc4[nH]7)C=C6)C=C5)cc3)cc2)C1=O
REMARK SMILES IDX 23 1 22 2 20 3 21 4 19 5 18 6 16 7 15 8 17 10 14 11 11 12
REMARK SMILES IDX 12 13 89 14 13 15 88 16 10 17 4 18 5 19 90 20 6 21 9 22
REMARK SMILES IDX 91 23 7 24 8 25 2 26 1 27 3 28 24 29 25 30 26 31 27 32 28 33
REMARK SMILES IDX 29 34 87 35 30 36 86 37 31 38 32 39 33 40 80 41 34 42 85 43
REMARK SMILES IDX 79 44 81 45 35 46 84 47 78 48 77 49 36 51 66 52 47 53 65 54
REMARK SMILES IDX 48 55 51 56 64 57 82 58 49 59 50 60 63 62 83 63 52 64 37 65
REMARK SMILES IDX 38 66 46 67 39 68 45 69 40 70 41 71 42 72 43 73 44 74 67 75
REMARK SMILES IDX 68 76 76 77 69 78 75 79 70 80 71 81 72 82 73 83 74 84 53 85
REMARK SMILES IDX 54 86 62 87 55 88 61 89 56 90 57 91 58 92 59 93 60 94
REMARK H PARENT 15 9 81 50 51 61
REMARK Flexibility Score: inf
ROOT
ATOM      1  C   UNL     1       3.831   2.183   3.438  1.00  0.00     0.274 C 
ENDROOT
BRANCH   1   2
ATOM      2  O   UNL     1       3.433   1.762   4.763  1.00  0.00    -0.462 OA
BRANCH   2   3
ATOM      3  C   UNL     1       3.205   2.758   5.661  1.00  0.00     0.306 C 
ATOM      4  O   UNL     1       3.353   3.952   5.423  1.00  0.00    -0.252 OA
BRANCH   3   5
ATOM      5  C   UNL     1       2.838   2.242   7.036  1.00  0.00     0.132 C 
BRANCH   5   6
ATOM      6  C   UNL     1       1.647   1.285   7.104  1.00  0.00     0.112 C 
BRANCH   6   7
ATOM      7  C   UNL     1       2.077  -0.160   6.966  1.00  0.00     0.224 C 
ATOM      8  N   UNL     1       1.632  -0.988   5.977  1.00  0.00    -0.326 N 
ATOM      9  H   UNL     1       2.021  -1.892   6.006  1.00  0.00     0.169 HD
ATOM     10  O   UNL     1       2.928  -0.617   7.741  1.00  0.00    -0.275 OA
BRANCH   8  11
ATOM     11  C   UNL     1       0.722  -0.791   4.928  1.00  0.00     0.041 A 
ATOM     12  C   UNL     1      -0.642  -0.015   2.610  1.00  0.00    -0.025 A 
ATOM     13  C   UNL     1      -1.141   0.338   3.864  1.00  0.00     0.010 A 
ATOM     14  C   UNL     1       0.414  -0.928   2.532  1.00  0.00     0.010 A 
ATOM     15  C   UNL     1      -0.457  -0.054   5.026  1.00  0.00     0.027 A 
ATOM     16  C   UNL     1       1.077  -1.336   3.691  1.00  0.00     0.027 A 
BRANCH  12  17
ATOM     17  C   UNL     1      -1.008   0.757   1.415  1.00  0.00     0.015 C 
ATOM     18  C   UNL     1      -1.477  -1.940  -0.587  1.00  0.00     0.063 C 
ATOM     19  C   UNL     1      -1.682  -1.362  -2.002  1.00  0.00     0.013 C 
ATOM     20  C   UNL     1      -2.268  -1.026   0.326  1.00  0.00     0.162 C 
ATOM     21  C   UNL     1      -1.198   0.102  -2.086  1.00  0.00     0.009 C 
ATOM     22  C   UNL     1      -1.709   0.346   0.351  1.00  0.00    -0.001 C 
ATOM     23  O   UNL     1      -3.317  -1.293   0.894  1.00  0.00    -0.294 OA
ATOM     24  C   UNL     1      -1.760   1.042  -0.987  1.00  0.00     0.020 C 
ATOM     25  C   UNL     1      -3.170   1.539  -1.316  1.00  0.00     0.013 C 
BRANCH  18  26
ATOM     26  C   UNL     1      -1.755  -3.453  -0.471  1.00  0.00    -0.007 C 
ATOM     27  C   UNL     1      -0.490  -4.222  -0.889  1.00  0.00     0.008 C 
ATOM     28  C   UNL     1      -2.135  -3.916   0.941  1.00  0.00     0.008 C 
ENDBRANCH  18  26
ENDBRANCH  12  17
ENDBRANCH   8  11
ENDBRANCH   6   7
ENDBRANCH   5   6
ENDBRANCH   3   5
ENDBRANCH   2   3
ENDBRANCH   1   2
BRANCH   1  29
ATOM     29  C   UNL     1       2.676   2.198   2.425  1.00  0.00     0.275 C 
BRANCH  29  30
ATOM     30  O   UNL     1       1.799   3.341   2.512  1.00  0.00    -0.458 OA
BRANCH  30  31
ATOM     31  C   UNL     1       0.907   3.266   3.517  1.00  0.00     0.338 C 
ATOM     32  O   UNL     1       0.838   2.395   4.364  1.00  0.00    -0.246 OA
BRANCH  31  33
ATOM     33  C   UNL     1      -0.048   4.362   3.552  1.00  0.00     0.060 A 
ATOM     34  C   UNL     1      -0.021   5.205   4.666  1.00  0.00     0.016 A 
ATOM     35  C   UNL     1      -1.070   4.437   2.604  1.00  0.00     0.016 A 
ATOM     36  C   UNL     1      -0.997   6.181   4.799  1.00  0.00     0.010 A 
ATOM     37  C   UNL     1      -2.050   5.412   2.741  1.00  0.00     0.010 A 
ATOM     38  C   UNL     1      -1.994   6.307   3.819  1.00  0.00    -0.014 A 
BRANCH  38  39
ATOM     39  C   UNL     1      -2.813   7.529   3.775  1.00  0.00     0.031 A 
ATOM     40  C   UNL     1      -4.224   7.558   4.259  1.00  0.00     0.074 A 
ATOM     41  C   UNL     1      -2.228   8.608   3.223  1.00  0.00     0.049 A 
ATOM     42  N   UNL     1      -5.042   8.575   4.310  1.00  0.00    -0.248 NA
ATOM     43  C   UNL     1      -4.797   6.291   4.735  1.00  0.00     0.031 C 
ATOM     44  C   UNL     1      -0.863   8.635   2.683  1.00  0.00     0.029 A 
ATOM     45  N   UNL     1      -2.693   9.875   3.018  1.00  0.00    -0.354 N 
ATOM     46  C   UNL     1      -6.231   8.078   4.825  1.00  0.00     0.074 A 
ATOM     47  C   UNL     1      -6.033   6.660   5.050  1.00  0.00     0.031 C 
ATOM     48  C   UNL     1      -0.598   9.863   2.219  1.00  0.00     0.029 A 
ATOM     49  C   UNL     1      -1.775  10.698   2.412  1.00  0.00     0.049 A 
ATOM     50  H   UNL     1      -3.596  10.169   3.277  1.00  0.00     0.167 HD
ATOM     51  C   UNL     1      -7.376   8.756   5.082  1.00  0.00     0.031 A 
ATOM     52  C   UNL     1      -1.871  11.989   2.055  1.00  0.00     0.031 A 
ATOM     53  C   UNL     1      -7.547  10.162   4.816  1.00  0.00     0.049 A 
ATOM     54  C   UNL     1      -3.137  12.718   2.374  1.00  0.00     0.074 A 
ATOM     55  C   UNL     1      -8.648  10.962   5.067  1.00  0.00     0.029 A 
ATOM     56  N   UNL     1      -6.590  10.976   4.224  1.00  0.00    -0.354 N 
ATOM     57  N   UNL     1      -4.229  12.253   2.935  1.00  0.00    -0.248 NA
ATOM     58  C   UNL     1      -3.183  14.143   2.034  1.00  0.00     0.031 C 
ATOM     59  C   UNL     1      -8.370  12.250   4.592  1.00  0.00     0.029 A 
ATOM     60  C   UNL     1      -7.081  12.264   4.082  1.00  0.00     0.049 A 
ATOM     61  H   UNL     1      -5.693  10.681   3.946  1.00  0.00     0.167 HD
ATOM     62  C   UNL     1      -5.094  13.332   3.024  1.00  0.00     0.074 A 
ATOM     63  C   UNL     1      -4.389  14.476   2.476  1.00  0.00     0.031 C 
ATOM     64  C   UNL     1      -6.358  13.374   3.512  1.00  0.00     0.031 A 
BRANCH  51  65
ATOM     65  C   UNL     1      -8.531   7.980   5.656  1.00  0.00    -0.014 A 
ATOM     66  C   UNL     1      -8.520   7.549   6.995  1.00  0.00     0.010 A 
ATOM     67  C   UNL     1      -9.658   7.706   4.860  1.00  0.00     0.010 A 
ATOM     68  C   UNL     1      -9.597   6.826   7.517  1.00  0.00     0.020 A 
ATOM     69  C   UNL     1     -10.746   6.999   5.383  1.00  0.00     0.020 A 
ATOM     70  C   UNL     1     -10.700   6.548   6.704  1.00  0.00     0.054 A 
BRANCH  70  71
ATOM     71  S   UNL     1     -12.092   5.616   7.405  1.00  0.00     0.124 S 
ATOM     72  O   UNL     1     -11.571   4.252   7.403  1.00  0.00    -0.237 OA
ATOM     73  O   UNL     1     -12.256   6.222   8.724  1.00  0.00    -0.237 OA
ATOM     74  O   UNL     1     -13.184   5.868   6.468  1.00  0.00    -0.744 OA
ENDBRANCH  70  71
ENDBRANCH  51  65
BRANCH  52  75
ATOM     75  C   UNL     1      -0.713  12.643   1.399  1.00  0.00    -0.014 A 
ATOM     76  C   UNL     1       0.127  13.501   2.128  1.00  0.00     0.010 A 
ATOM     77  C   UNL     1      -0.381  12.321   0.070  1.00  0.00     0.010 A 
ATOM     78  C   UNL     1       1.281  14.025   1.541  1.00  0.00     0.020 A 
ATOM     79  C   UNL     1       0.782  12.827  -0.514  1.00  0.00     0.020 A 
ATOM     80  C   UNL     1       1.605  13.680   0.225  1.00  0.00     0.054 A 
BRANCH  80  81
ATOM     81  S   UNL     1       3.157  14.290  -0.490  1.00  0.00     0.124 S 
ATOM     82  O   UNL     1       2.800  15.653  -0.871  1.00  0.00    -0.237 OA
ATOM     83  O   UNL     1       4.093  14.170   0.626  1.00  0.00    -0.237 OA
ATOM     84  O   UNL     1       3.404  13.371  -1.599  1.00  0.00    -0.744 OA
ENDBRANCH  80  81
ENDBRANCH  52  75
BRANCH  64  85
ATOM     85  C   UNL     1      -7.047  14.706   3.463  1.00  0.00    -0.014 A 
ATOM     86  C   UNL     1      -7.562  15.203   2.252  1.00  0.00     0.010 A 
ATOM     87  C   UNL     1      -7.197  15.458   4.641  1.00  0.00     0.010 A 
ATOM     88  C   UNL     1      -8.190  16.448   2.215  1.00  0.00     0.020 A 
ATOM     89  C   UNL     1      -7.842  16.695   4.610  1.00  0.00     0.020 A 
ATOM     90  C   UNL     1      -8.321  17.189   3.394  1.00  0.00     0.054 A 
BRANCH  90  91
ATOM     91  S   UNL     1      -9.166  18.792   3.331  1.00  0.00     0.124 S 
ATOM     92  O   UNL     1      -8.121  19.665   2.804  1.00  0.00    -0.237 OA
ATOM     93  O   UNL     1     -10.285  18.534   2.428  1.00  0.00    -0.237 OA
ATOM     94  O   UNL     1      -9.542  19.036   4.722  1.00  0.00    -0.744 OA
ENDBRANCH  90  91
ENDBRANCH  64  85
ENDBRANCH  38  39
ENDBRANCH  31  33
ENDBRANCH  30  31
ENDBRANCH  29  30
ENDBRANCH   1  29
TORSDOF 19
