REMARK SMILES Cc1c(NCc2ccccn2)cccc1C(=O)N1CCOC[C@@H]1CC(=O)OCCOC(=O)c1ccc(-c2c3nc(c(-c4ccc(S(=O)(=O)[O-])cc4)c4ccc([nH]4)c(-c4ccc(S(=O)(=O)[O-])cc4)c4nc(c(-c5ccc(S(=O)(=O)[O-])cc5)c5ccc2[nH]5)C=C4)C=C3)cc1
REMARK SMILES IDX 27 1 25 2 26 3 24 4 23 5 18 6 19 7 20 8 22 9 21 10 16 11
REMARK SMILES IDX 17 12 15 13 1 14 2 15 3 16 12 17 14 18 13 19 4 20 5 22 6 23
REMARK SMILES IDX 7 24 11 25 8 26 10 27 9 28 28 29 29 30 30 31 31 32 32 33
REMARK SMILES IDX 33 34 34 35 92 36 35 37 91 38 36 39 37 40 38 41 85 42 39 43
REMARK SMILES IDX 90 44 84 45 86 46 40 47 89 48 83 49 82 50 41 52 71 53 52 54
REMARK SMILES IDX 70 55 53 56 56 57 69 58 87 59 54 60 55 61 68 63 88 64 57 65
REMARK SMILES IDX 42 66 43 67 51 68 44 69 50 70 45 71 46 72 47 73 48 74 49 75
REMARK SMILES IDX 72 76 73 77 81 78 74 79 80 80 75 81 76 82 77 83 78 84 79 85
REMARK SMILES IDX 58 86 59 87 67 88 60 89 66 90 61 91 62 92 63 93 64 94 65 95
REMARK H PARENT 4 21 86 51 56 62
REMARK Flexibility Score: inf
ROOT
ATOM      1  O   UNL     1       0.573   0.882   1.676  1.00  0.00    -0.462 OA
ENDROOT
BRANCH   1   2
ATOM      2  C   UNL     1       1.794   1.226   1.212  1.00  0.00     0.308 C 
ATOM      3  O   UNL     1       2.729   0.448   1.171  1.00  0.00    -0.252 OA
BRANCH   2   4
ATOM      4  C   UNL     1       1.861   2.656   0.729  1.00  0.00     0.150 C 
BRANCH   4   5
ATOM      5  C   UNL     1       2.943   2.789  -0.341  1.00  0.00     0.122 C 
ATOM      6  N   UNL     1       2.721   1.855  -1.468  1.00  0.00    -0.330 N 
ATOM      7  C   UNL     1       3.846   1.776  -2.390  1.00  0.00     0.148 C 
ATOM      8  C   UNL     1       5.156   1.549  -1.634  1.00  0.00     0.181 C 
ATOM      9  C   UNL     1       4.375   2.662   0.274  1.00  0.00     0.185 C 
ATOM     10  O   UNL     1       5.388   2.652  -0.749  1.00  0.00    -0.377 OA
BRANCH   6  11
ATOM     11  C   UNL     1       1.449   1.756  -2.022  1.00  0.00     0.254 C 
ATOM     12  O   UNL     1       1.006   2.634  -2.758  1.00  0.00    -0.269 OA
BRANCH  11  13
ATOM     13  C   UNL     1       0.572   0.601  -1.588  1.00  0.00     0.045 A 
ATOM     14  C   UNL     1       2.456  -1.110  -1.160  1.00  0.00     0.047 C 
ATOM     15  C   UNL     1       1.008  -0.676  -1.133  1.00  0.00    -0.015 A 
ATOM     16  C   UNL     1       0.042  -1.624  -0.679  1.00  0.00     0.038 A 
ATOM     17  C   UNL     1      -1.322  -1.306  -0.760  1.00  0.00     0.026 A 
ATOM     18  C   UNL     1      -0.807   0.891  -1.593  1.00  0.00     0.014 A 
ATOM     19  C   UNL     1      -1.745  -0.054  -1.192  1.00  0.00     0.003 A 
BRANCH  16  20
ATOM     20  N   UNL     1       0.450  -2.830  -0.121  1.00  0.00    -0.379 N 
ATOM     21  H   UNL     1       1.273  -2.819   0.421  1.00  0.00     0.160 HD
BRANCH  20  22
ATOM     22  C   UNL     1      -0.229  -4.106  -0.266  1.00  0.00     0.169 C 
BRANCH  22  23
ATOM     23  C   UNL     1       0.220  -4.860  -1.504  1.00  0.00     0.059 A 
ATOM     24  C   UNL     1       0.660  -4.195  -2.651  1.00  0.00     0.026 A 
ATOM     25  N   UNL     1       0.141  -6.215  -1.453  1.00  0.00    -0.259 NA
ATOM     26  C   UNL     1       1.050  -4.926  -3.764  1.00  0.00     0.004 A 
ATOM     27  C   UNL     1       0.514  -6.900  -2.557  1.00  0.00     0.111 A 
ATOM     28  C   UNL     1       0.972  -6.307  -3.721  1.00  0.00     0.020 A 
ENDBRANCH  22  23
ENDBRANCH  20  22
ENDBRANCH  16  20
ENDBRANCH  11  13
ENDBRANCH   6  11
ENDBRANCH   4   5
ENDBRANCH   2   4
ENDBRANCH   1   2
BRANCH   1  29
ATOM     29  C   UNL     1       0.403  -0.397   2.337  1.00  0.00     0.274 C 
BRANCH  29  30
ATOM     30  C   UNL     1       1.610  -1.120   3.002  1.00  0.00     0.275 C 
BRANCH  30  31
ATOM     31  O   UNL     1       2.321  -0.514   4.126  1.00  0.00    -0.458 OA
BRANCH  31  32
ATOM     32  C   UNL     1       3.011   0.671   3.998  1.00  0.00     0.338 C 
ATOM     33  O   UNL     1       4.125   0.773   3.529  1.00  0.00    -0.246 OA
BRANCH  32  34
ATOM     34  C   UNL     1       2.093   1.810   4.302  1.00  0.00     0.060 A 
ATOM     35  C   UNL     1       2.350   3.168   4.043  1.00  0.00     0.016 A 
ATOM     36  C   UNL     1       0.795   1.419   4.507  1.00  0.00     0.016 A 
ATOM     37  C   UNL     1       1.269   4.067   3.932  1.00  0.00     0.010 A 
ATOM     38  C   UNL     1      -0.168   2.143   3.876  1.00  0.00     0.010 A 
ATOM     39  C   UNL     1      -0.002   3.516   3.806  1.00  0.00    -0.014 A 
BRANCH  39  40
ATOM     40  C   UNL     1      -1.320   4.108   4.016  1.00  0.00     0.031 A 
ATOM     41  C   UNL     1      -2.108   4.663   2.915  1.00  0.00     0.074 A 
ATOM     42  C   UNL     1      -1.857   3.626   5.173  1.00  0.00     0.049 A 
ATOM     43  N   UNL     1      -3.000   5.574   3.070  1.00  0.00    -0.248 NA
ATOM     44  C   UNL     1      -1.985   4.211   1.526  1.00  0.00     0.031 C 
ATOM     45  C   UNL     1      -3.199   3.471   5.695  1.00  0.00     0.029 A 
ATOM     46  N   UNL     1      -1.084   3.053   6.201  1.00  0.00    -0.354 N 
ATOM     47  C   UNL     1      -3.803   5.516   1.949  1.00  0.00     0.074 A 
ATOM     48  C   UNL     1      -3.027   4.824   0.946  1.00  0.00     0.031 C 
ATOM     49  C   UNL     1      -3.098   3.233   7.029  1.00  0.00     0.029 A 
ATOM     50  C   UNL     1      -1.682   3.311   7.414  1.00  0.00     0.049 A 
ATOM     51  H   UNL     1      -0.249   2.547   6.072  1.00  0.00     0.167 HD
ATOM     52  C   UNL     1      -5.136   5.782   2.062  1.00  0.00     0.031 A 
ATOM     53  C   UNL     1      -1.000   4.271   8.111  1.00  0.00     0.031 A 
ATOM     54  C   UNL     1      -5.506   5.911   3.482  1.00  0.00     0.049 A 
ATOM     55  C   UNL     1      -1.717   5.598   7.944  1.00  0.00     0.074 A 
ATOM     56  C   UNL     1      -6.163   5.072   4.367  1.00  0.00     0.029 A 
ATOM     57  N   UNL     1      -4.847   6.842   4.271  1.00  0.00    -0.354 N 
ATOM     58  N   UNL     1      -2.761   5.766   7.176  1.00  0.00    -0.248 NA
ATOM     59  C   UNL     1      -1.320   6.836   8.597  1.00  0.00     0.031 C 
ATOM     60  C   UNL     1      -5.839   5.486   5.699  1.00  0.00     0.029 A 
ATOM     61  C   UNL     1      -4.990   6.576   5.623  1.00  0.00     0.049 A 
ATOM     62  H   UNL     1      -4.337   7.604   3.913  1.00  0.00     0.167 HD
ATOM     63  C   UNL     1      -3.203   7.045   7.231  1.00  0.00     0.074 A 
ATOM     64  C   UNL     1      -2.243   7.692   8.118  1.00  0.00     0.031 C 
ATOM     65  C   UNL     1      -4.322   7.467   6.568  1.00  0.00     0.031 A 
BRANCH  52  66
ATOM     66  C   UNL     1      -6.147   5.615   0.944  1.00  0.00    -0.014 A 
ATOM     67  C   UNL     1      -7.503   5.394   1.261  1.00  0.00     0.010 A 
ATOM     68  C   UNL     1      -5.842   5.729  -0.430  1.00  0.00     0.010 A 
ATOM     69  C   UNL     1      -8.491   5.242   0.277  1.00  0.00     0.020 A 
ATOM     70  C   UNL     1      -6.821   5.558  -1.431  1.00  0.00     0.020 A 
ATOM     71  C   UNL     1      -8.143   5.315  -1.068  1.00  0.00     0.054 A 
BRANCH  71  72
ATOM     72  S   UNL     1      -9.450   5.126  -2.313  1.00  0.00     0.124 S 
ATOM     73  O   UNL     1      -9.984   3.801  -2.009  1.00  0.00    -0.237 OA
ATOM     74  O   UNL     1     -10.337   6.246  -2.010  1.00  0.00    -0.237 OA
ATOM     75  O   UNL     1      -8.736   5.226  -3.585  1.00  0.00    -0.744 OA
ENDBRANCH  71  72
ENDBRANCH  52  66
BRANCH  53  76
ATOM     76  C   UNL     1       0.519   4.037   8.099  1.00  0.00    -0.014 A 
ATOM     77  C   UNL     1       1.001   2.750   8.475  1.00  0.00     0.010 A 
ATOM     78  C   UNL     1       1.447   4.889   7.470  1.00  0.00     0.010 A 
ATOM     79  C   UNL     1       2.302   2.308   8.169  1.00  0.00     0.020 A 
ATOM     80  C   UNL     1       2.771   4.462   7.189  1.00  0.00     0.020 A 
ATOM     81  C   UNL     1       3.185   3.169   7.525  1.00  0.00     0.054 A 
BRANCH  81  82
ATOM     82  S   UNL     1       4.805   2.529   6.963  1.00  0.00     0.124 S 
ATOM     83  O   UNL     1       5.675   2.864   8.085  1.00  0.00    -0.237 OA
ATOM     84  O   UNL     1       4.536   1.103   6.782  1.00  0.00    -0.237 OA
ATOM     85  O   UNL     1       5.049   3.280   5.735  1.00  0.00    -0.744 OA
ENDBRANCH  81  82
ENDBRANCH  53  76
BRANCH  65  86
ATOM     86  C   UNL     1      -4.884   8.842   6.752  1.00  0.00    -0.014 A 
ATOM     87  C   UNL     1      -4.820   9.511   7.980  1.00  0.00     0.010 A 
ATOM     88  C   UNL     1      -5.599   9.463   5.705  1.00  0.00     0.010 A 
ATOM     89  C   UNL     1      -5.309  10.809   8.110  1.00  0.00     0.020 A 
ATOM     90  C   UNL     1      -6.123  10.743   5.832  1.00  0.00     0.020 A 
ATOM     91  C   UNL     1      -5.934  11.425   7.025  1.00  0.00     0.054 A 
BRANCH  91  92
ATOM     92  S   UNL     1      -6.527  13.116   7.203  1.00  0.00     0.124 S 
ATOM     93  O   UNL     1      -7.194  13.082   8.502  1.00  0.00    -0.237 OA
ATOM     94  O   UNL     1      -5.280  13.873   7.155  1.00  0.00    -0.237 OA
ATOM     95  O   UNL     1      -7.414  13.296   6.056  1.00  0.00    -0.744 OA
ENDBRANCH  91  92
ENDBRANCH  65  86
ENDBRANCH  39  40
ENDBRANCH  32  34
ENDBRANCH  31  32
ENDBRANCH  30  31
ENDBRANCH  29  30
ENDBRANCH   1  29
TORSDOF 20
