REMARK SMILES O=C(OCCOC(=O)c1ccc([C@@H]2CC(O)=Nc3c2ncn3-c2cccc(Cl)c2)cc1)c1ccc(-c2c3nc(c(-c4ccc(S(=O)(=O)[O-])cc4)c4ccc([nH]4)c(-c4ccc(S(=O)(=O)[O-])cc4)c4nc(c(-c5ccc(S(=O)(=O)[O-])cc5)c5ccc2[nH]5)C=C4)C=C3)cc1
REMARK SMILES IDX 4 1 3 2 2 3 1 4 32 5 33 6 91 7 34 8 90 9 35 10 36 11 37 12
REMARK SMILES IDX 84 13 38 14 89 15 83 16 85 17 39 18 88 19 82 20 81 21 40 23
REMARK SMILES IDX 70 24 51 25 69 26 52 27 55 28 68 29 86 30 53 31 54 32 67 34
REMARK SMILES IDX 87 35 56 36 41 37 42 38 50 39 43 40 49 41 44 42 45 43 46 44
REMARK SMILES IDX 47 45 48 46 71 47 72 48 80 49 73 50 79 51 74 52 75 53 76 54
REMARK SMILES IDX 77 55 78 56 57 57 58 58 66 59 59 60 65 61 60 62 61 63 62 64
REMARK SMILES IDX 63 65 64 66 5 67 6 68 7 69 8 70 9 71 10 72 31 73 11 74 30 75
REMARK SMILES IDX 12 76 13 77 14 78 19 79 15 80 18 81 20 82 17 83 22 84 21 85
REMARK SMILES IDX 16 86 23 88 24 89 29 90 25 91 27 92 26 93 28 94
REMARK H PARENT 85 22 55 33 16 87
REMARK Flexibility Score: inf
ROOT
ATOM      1  C   UNL     1       4.613  -0.115   1.000  1.00  0.00     0.275 C 
ENDROOT
BRANCH   1   2
ATOM      2  O   UNL     1       3.432   0.655   1.309  1.00  0.00    -0.458 OA
BRANCH   2   3
ATOM      3  C   UNL     1       2.345   0.542   0.512  1.00  0.00     0.338 C 
ATOM      4  O   UNL     1       1.483  -0.314   0.636  1.00  0.00    -0.246 OA
BRANCH   3   5
ATOM      5  C   UNL     1       2.208   1.707  -0.393  1.00  0.00     0.060 A 
ATOM      6  C   UNL     1       3.321   2.407  -0.863  1.00  0.00     0.016 A 
ATOM      7  C   UNL     1       0.920   2.092  -0.792  1.00  0.00     0.016 A 
ATOM      8  C   UNL     1       3.146   3.515  -1.682  1.00  0.00     0.010 A 
ATOM      9  C   UNL     1       0.746   3.198  -1.621  1.00  0.00     0.010 A 
ATOM     10  C   UNL     1       1.858   3.928  -2.044  1.00  0.00    -0.014 A 
BRANCH  10  11
ATOM     11  C   UNL     1       1.750   5.087  -2.930  1.00  0.00     0.031 A 
ATOM     12  C   UNL     1       2.440   4.974  -4.248  1.00  0.00     0.074 A 
ATOM     13  C   UNL     1       1.009   6.186  -2.692  1.00  0.00     0.049 A 
ATOM     14  N   UNL     1       3.478   5.623  -4.668  1.00  0.00    -0.248 NA
ATOM     15  C   UNL     1       1.938   3.968  -5.190  1.00  0.00     0.031 C 
ATOM     16  C   UNL     1       0.012   6.418  -1.647  1.00  0.00     0.029 A 
ATOM     17  N   UNL     1       0.947   7.327  -3.437  1.00  0.00    -0.354 N 
ATOM     18  C   UNL     1       3.675   5.231  -5.992  1.00  0.00     0.074 A 
ATOM     19  C   UNL     1       2.760   4.142  -6.225  1.00  0.00     0.031 C 
ATOM     20  C   UNL     1      -0.708   7.522  -1.958  1.00  0.00     0.029 A 
ATOM     21  C   UNL     1      -0.121   8.154  -3.128  1.00  0.00     0.049 A 
ATOM     22  H   UNL     1       1.605   7.543  -4.136  1.00  0.00     0.167 HD
ATOM     23  C   UNL     1       4.464   5.927  -6.861  1.00  0.00     0.031 A 
ATOM     24  C   UNL     1      -0.514   9.254  -3.816  1.00  0.00     0.031 A 
ATOM     25  C   UNL     1       5.294   6.892  -6.190  1.00  0.00     0.049 A 
ATOM     26  C   UNL     1       0.641   9.722  -4.620  1.00  0.00     0.074 A 
ATOM     27  C   UNL     1       6.265   6.831  -5.210  1.00  0.00     0.029 A 
ATOM     28  N   UNL     1       4.919   8.213  -6.258  1.00  0.00    -0.354 N 
ATOM     29  N   UNL     1       1.720  10.235  -4.100  1.00  0.00    -0.248 NA
ATOM     30  C   UNL     1       0.771   9.254  -5.990  1.00  0.00     0.031 C 
ATOM     31  C   UNL     1       6.035   7.983  -4.401  1.00  0.00     0.029 A 
ATOM     32  C   UNL     1       4.980   8.695  -4.975  1.00  0.00     0.049 A 
ATOM     33  H   UNL     1       4.658   8.713  -7.065  1.00  0.00     0.167 HD
ATOM     34  C   UNL     1       2.755   9.781  -4.903  1.00  0.00     0.074 A 
ATOM     35  C   UNL     1       2.102   9.267  -6.105  1.00  0.00     0.031 C 
ATOM     36  C   UNL     1       4.021   9.621  -4.413  1.00  0.00     0.031 A 
BRANCH  23  37
ATOM     37  C   UNL     1       4.260   5.972  -8.356  1.00  0.00    -0.014 A 
ATOM     38  C   UNL     1       5.205   6.649  -9.158  1.00  0.00     0.010 A 
ATOM     39  C   UNL     1       3.042   5.617  -8.968  1.00  0.00     0.010 A 
ATOM     40  C   UNL     1       4.911   7.021 -10.477  1.00  0.00     0.020 A 
ATOM     41  C   UNL     1       2.756   5.944 -10.297  1.00  0.00     0.020 A 
ATOM     42  C   UNL     1       3.678   6.681 -11.030  1.00  0.00     0.054 A 
BRANCH  42  43
ATOM     43  S   UNL     1       3.256   7.277 -12.687  1.00  0.00     0.124 S 
ATOM     44  O   UNL     1       3.146   8.716 -12.468  1.00  0.00    -0.237 OA
ATOM     45  O   UNL     1       4.406   6.842 -13.476  1.00  0.00    -0.237 OA
ATOM     46  O   UNL     1       2.003   6.590 -12.989  1.00  0.00    -0.744 OA
ENDBRANCH  42  43
ENDBRANCH  23  37
BRANCH  24  47
ATOM     47  C   UNL     1      -1.888   9.765  -4.030  1.00  0.00    -0.014 A 
ATOM     48  C   UNL     1      -2.107  11.060  -4.536  1.00  0.00     0.010 A 
ATOM     49  C   UNL     1      -2.979   8.872  -4.011  1.00  0.00     0.010 A 
ATOM     50  C   UNL     1      -3.355  11.425  -5.067  1.00  0.00     0.020 A 
ATOM     51  C   UNL     1      -4.227   9.232  -4.531  1.00  0.00     0.020 A 
ATOM     52  C   UNL     1      -4.402  10.500  -5.082  1.00  0.00     0.054 A 
BRANCH  52  53
ATOM     53  S   UNL     1      -5.947  10.912  -5.945  1.00  0.00     0.124 S 
ATOM     54  O   UNL     1      -6.544  11.904  -5.056  1.00  0.00    -0.237 OA
ATOM     55  O   UNL     1      -5.469  11.419  -7.228  1.00  0.00    -0.237 OA
ATOM     56  O   UNL     1      -6.654   9.634  -6.013  1.00  0.00    -0.744 OA
ENDBRANCH  52  53
ENDBRANCH  24  47
BRANCH  36  57
ATOM     57  C   UNL     1       4.372  10.220  -3.071  1.00  0.00    -0.014 A 
ATOM     58  C   UNL     1       3.670   9.945  -1.881  1.00  0.00     0.010 A 
ATOM     59  C   UNL     1       5.551  10.983  -2.988  1.00  0.00     0.010 A 
ATOM     60  C   UNL     1       4.115  10.453  -0.651  1.00  0.00     0.020 A 
ATOM     61  C   UNL     1       6.013  11.472  -1.765  1.00  0.00     0.020 A 
ATOM     62  C   UNL     1       5.285  11.217  -0.603  1.00  0.00     0.054 A 
BRANCH  62  63
ATOM     63  S   UNL     1       5.877  11.842   0.994  1.00  0.00     0.124 S 
ATOM     64  O   UNL     1       4.879  12.855   1.327  1.00  0.00    -0.237 OA
ATOM     65  O   UNL     1       5.867  10.647   1.836  1.00  0.00    -0.237 OA
ATOM     66  O   UNL     1       7.210  12.363   0.693  1.00  0.00    -0.744 OA
ENDBRANCH  62  63
ENDBRANCH  36  57
ENDBRANCH  10  11
ENDBRANCH   3   5
ENDBRANCH   2   3
ENDBRANCH   1   2
BRANCH   1  67
ATOM     67  C   UNL     1       4.410  -1.469   0.323  1.00  0.00     0.275 C 
BRANCH  67  68
ATOM     68  O   UNL     1       3.933  -1.274  -1.018  1.00  0.00    -0.458 OA
BRANCH  68  69
ATOM     69  C   UNL     1       2.943  -2.111  -1.408  1.00  0.00     0.338 C 
ATOM     70  O   UNL     1       2.474  -3.061  -0.801  1.00  0.00    -0.246 OA
BRANCH  69  71
ATOM     71  C   UNL     1       2.494  -1.692  -2.740  1.00  0.00     0.060 A 
ATOM     72  C   UNL     1       1.296  -0.993  -2.878  1.00  0.00     0.016 A 
ATOM     73  C   UNL     1       3.250  -2.045  -3.857  1.00  0.00     0.016 A 
ATOM     74  C   UNL     1       0.861  -0.624  -4.152  1.00  0.00     0.005 A 
ATOM     75  C   UNL     1       2.794  -1.703  -5.131  1.00  0.00     0.005 A 
ATOM     76  C   UNL     1       1.599  -0.979  -5.299  1.00  0.00    -0.038 A 
BRANCH  76  77
ATOM     77  C   UNL     1       1.008  -0.653  -6.664  1.00  0.00     0.081 C 
ATOM     78  C   UNL     1       0.302  -1.881  -7.273  1.00  0.00     0.111 C 
ATOM     79  C   UNL     1       2.096  -0.170  -7.548  1.00  0.00     0.093 A 
ATOM     80  C   UNL     1       1.048  -2.546  -8.421  1.00  0.00     0.188 C 
ATOM     81  C   UNL     1       2.465  -0.854  -8.687  1.00  0.00     0.164 A 
ATOM     82  N   UNL     1       2.877   0.929  -7.338  1.00  0.00    -0.238 NA
ATOM     83  N   UNL     1       2.018  -2.057  -9.126  1.00  0.00    -0.198 NA
ATOM     84  N   UNL     1       3.518  -0.130  -9.214  1.00  0.00    -0.283 N 
ATOM     85  C   UNL     1       3.738   0.912  -8.336  1.00  0.00     0.206 A 
BRANCH  80  86
ATOM     86  O   UNL     1       0.576  -3.768  -8.741  1.00  0.00    -0.496 OA
ATOM     87  H   UNL     1      -0.125  -4.144  -8.246  1.00  0.00     0.294 HD
ENDBRANCH  80  86
BRANCH  84  88
ATOM     88  C   UNL     1       4.247  -0.392 -10.396  1.00  0.00     0.050 A 
ATOM     89  C   UNL     1       5.636  -0.208 -10.412  1.00  0.00     0.027 A 
ATOM     90  C   UNL     1       3.573  -0.810 -11.550  1.00  0.00     0.047 A 
ATOM     91  C   UNL     1       6.354  -0.470 -11.580  1.00  0.00     0.004 A 
ATOM     92  C   UNL     1       4.296  -1.017 -12.723  1.00  0.00     0.043 A 
ATOM     93  C   UNL     1       5.683  -0.862 -12.739  1.00  0.00     0.020 A 
ATOM     94  Cl  UNL     1       3.474  -1.452 -14.172  1.00  0.00    -0.084 Cl
ENDBRANCH  84  88
ENDBRANCH  76  77
ENDBRANCH  69  71
ENDBRANCH  68  69
ENDBRANCH  67  68
ENDBRANCH   1  67
TORSDOF 17
