REMARK SMILES COC(=O)c1ccc([C@H]2CC(=O)Nc3c(C(=O)OCCOC(=O)c4ccc(-c5c6nc(c(-c7ccc(S(=O)(=O)[O-])cc7)c7ccc([nH]7)c(-c7ccc(S(=O)(=O)[O-])cc7)c7nc(c(-c8ccc(S(=O)(=O)[O-])cc8)c8ccc5[nH]8)C=C7)C=C6)cc4)cn(-c4cc(OC)ccc4OC)c32)cc1
REMARK SMILES IDX 19 1 18 2 16 3 17 4 15 5 9 6 10 7 96 8 11 9 14 10 85 11
REMARK SMILES IDX 12 12 13 13 84 14 8 16 5 17 6 18 98 19 7 20 97 21 3 22 4 23
REMARK SMILES IDX 2 24 1 25 86 26 87 27 93 28 88 29 92 30 91 31 94 32 95 33
REMARK SMILES IDX 89 34 90 35 20 36 21 37 22 38 23 39 24 40 25 41 83 42 26 43
REMARK SMILES IDX 82 44 27 45 28 46 29 47 76 48 30 49 81 50 75 51 77 52 31 53
REMARK SMILES IDX 80 54 74 55 73 56 32 58 62 59 43 60 61 61 44 62 47 63 60 64
REMARK SMILES IDX 78 65 45 66 46 67 59 69 79 70 48 71 33 72 34 73 42 74 35 75
REMARK SMILES IDX 41 76 36 77 37 78 38 79 39 80 40 81 63 82 64 83 72 84 65 85
REMARK SMILES IDX 71 86 66 87 67 88 68 89 69 90 70 91 49 92 50 93 58 94 51 95
REMARK SMILES IDX 57 96 52 97 53 98 54 99 55 100 56 101
REMARK H PARENT 13 15 77 57 47 68
REMARK Flexibility Score: inf
ROOT
ATOM      1  C   UNL     1      -7.646   8.748   0.606  1.00  0.00     0.275 C 
ENDROOT
BRANCH   1   2
ATOM      2  O   UNL     1      -6.256   8.389   0.720  1.00  0.00    -0.458 OA
BRANCH   2   3
ATOM      3  C   UNL     1      -5.415   9.038  -0.150  1.00  0.00     0.341 C 
ATOM      4  O   UNL     1      -5.791   9.723  -1.081  1.00  0.00    -0.246 OA
BRANCH   3   5
ATOM      5  C   UNL     1      -4.005   8.870   0.199  1.00  0.00     0.102 A 
ATOM      6  C   UNL     1      -0.991   7.453   1.913  1.00  0.00     0.078 C 
ATOM      7  C   UNL     1      -1.729   6.606   2.959  1.00  0.00     0.115 C 
ATOM      8  C   UNL     1      -1.995   8.253   1.097  1.00  0.00     0.055 A 
ATOM      9  C   UNL     1      -3.063   6.043   2.490  1.00  0.00     0.225 C 
ATOM     10  C   UNL     1      -3.340   7.940   1.032  1.00  0.00     0.078 A 
ATOM     11  N   UNL     1      -1.798   9.376   0.300  1.00  0.00    -0.314 N 
ATOM     12  O   UNL     1      -3.488   4.963   2.900  1.00  0.00    -0.275 OA
ATOM     13  N   UNL     1      -3.836   6.836   1.682  1.00  0.00    -0.324 N 
ATOM     14  C   UNL     1      -3.011   9.719  -0.260  1.00  0.00     0.109 A 
ATOM     15  H   UNL     1      -4.786   6.605   1.563  1.00  0.00     0.170 HD
BRANCH   6  16
ATOM     16  C   UNL     1       0.127   8.255   2.580  1.00  0.00    -0.038 A 
ATOM     17  C   UNL     1       2.185  10.098   3.065  1.00  0.00     0.060 A 
ATOM     18  C   UNL     1       2.492   8.789   2.677  1.00  0.00     0.016 A 
ATOM     19  C   UNL     1       0.876  10.398   3.444  1.00  0.00     0.016 A 
ATOM     20  C   UNL     1       1.465   7.877   2.414  1.00  0.00     0.005 A 
ATOM     21  C   UNL     1      -0.135   9.448   3.263  1.00  0.00     0.005 A 
BRANCH  17  22
ATOM     22  C   UNL     1       3.231  11.149   2.894  1.00  0.00     0.337 C 
ATOM     23  O   UNL     1       4.405  10.903   2.660  1.00  0.00    -0.246 OA
BRANCH  22  24
ATOM     24  O   UNL     1       2.653  12.376   2.850  1.00  0.00    -0.465 OA
ATOM     25  C   UNL     1       3.496  13.425   2.365  1.00  0.00     0.282 C 
ENDBRANCH  22  24
ENDBRANCH  17  22
ENDBRANCH   6  16
BRANCH  11  26
ATOM     26  C   UNL     1      -0.596  10.076   0.044  1.00  0.00     0.091 A 
ATOM     27  C   UNL     1       0.476   9.335  -0.475  1.00  0.00     0.077 A 
ATOM     28  C   UNL     1      -0.456  11.457   0.255  1.00  0.00     0.143 A 
ATOM     29  C   UNL     1       1.701   9.950  -0.729  1.00  0.00     0.121 A 
ATOM     30  C   UNL     1       0.771  12.063  -0.038  1.00  0.00     0.052 A 
ATOM     31  C   UNL     1       1.848  11.317  -0.517  1.00  0.00     0.050 A 
BRANCH  28  32
ATOM     32  O   UNL     1      -1.368  12.356   0.724  1.00  0.00    -0.495 OA
ATOM     33  C   UNL     1      -2.221  11.941   1.773  1.00  0.00     0.278 C 
ENDBRANCH  28  32
BRANCH  29  34
ATOM     34  O   UNL     1       2.685   9.136  -1.220  1.00  0.00    -0.497 OA
ATOM     35  C   UNL     1       3.984   9.424  -0.712  1.00  0.00     0.278 C 
ENDBRANCH  29  34
ENDBRANCH  11  26
ENDBRANCH   3   5
ENDBRANCH   2   3
ENDBRANCH   1   2
BRANCH   1  36
ATOM     36  C   UNL     1      -8.009   9.927   1.501  1.00  0.00     0.275 C 
BRANCH  36  37
ATOM     37  O   UNL     1      -7.529  11.174   0.992  1.00  0.00    -0.458 OA
BRANCH  37  38
ATOM     38  C   UNL     1      -6.376  11.583   1.563  1.00  0.00     0.338 C 
ATOM     39  O   UNL     1      -5.492  10.872   2.015  1.00  0.00    -0.246 OA
BRANCH  38  40
ATOM     40  C   UNL     1      -6.450  13.019   1.849  1.00  0.00     0.060 A 
ATOM     41  C   UNL     1      -5.274  13.650   2.247  1.00  0.00     0.016 A 
ATOM     42  C   UNL     1      -7.692  13.639   2.017  1.00  0.00     0.016 A 
ATOM     43  C   UNL     1      -5.332  14.814   2.970  1.00  0.00     0.010 A 
ATOM     44  C   UNL     1      -7.757  14.825   2.718  1.00  0.00     0.010 A 
ATOM     45  C   UNL     1      -6.583  15.361   3.245  1.00  0.00    -0.014 A 
BRANCH  45  46
ATOM     46  C   UNL     1      -6.592  16.639   3.924  1.00  0.00     0.031 A 
ATOM     47  C   UNL     1      -5.916  17.691   3.122  1.00  0.00     0.074 A 
ATOM     48  C   UNL     1      -7.242  16.842   5.083  1.00  0.00     0.049 A 
ATOM     49  N   UNL     1      -4.817  18.312   3.396  1.00  0.00    -0.248 NA
ATOM     50  C   UNL     1      -6.397  17.900   1.743  1.00  0.00     0.031 C 
ATOM     51  C   UNL     1      -8.127  15.914   5.790  1.00  0.00     0.029 A 
ATOM     52  N   UNL     1      -7.361  17.986   5.804  1.00  0.00    -0.354 N 
ATOM     53  C   UNL     1      -4.613  19.178   2.328  1.00  0.00     0.074 A 
ATOM     54  C   UNL     1      -5.461  18.715   1.261  1.00  0.00     0.031 C 
ATOM     55  C   UNL     1      -8.895  16.615   6.655  1.00  0.00     0.029 A 
ATOM     56  C   UNL     1      -8.464  18.004   6.650  1.00  0.00     0.049 A 
ATOM     57  H   UNL     1      -6.725  18.734   5.734  1.00  0.00     0.167 HD
ATOM     58  C   UNL     1      -4.023  20.391   2.510  1.00  0.00     0.031 A 
ATOM     59  C   UNL     1      -9.031  19.102   7.214  1.00  0.00     0.031 A 
ATOM     60  C   UNL     1      -3.284  20.438   3.745  1.00  0.00     0.049 A 
ATOM     61  C   UNL     1      -8.027  20.195   7.149  1.00  0.00     0.074 A 
ATOM     62  C   UNL     1      -2.238  19.712   4.280  1.00  0.00     0.029 A 
ATOM     63  N   UNL     1      -3.881  21.087   4.801  1.00  0.00    -0.354 N 
ATOM     64  N   UNL     1      -6.909  20.180   7.821  1.00  0.00    -0.248 NA
ATOM     65  C   UNL     1      -8.039  21.069   5.985  1.00  0.00     0.031 C 
ATOM     66  C   UNL     1      -2.543  19.594   5.667  1.00  0.00     0.029 A 
ATOM     67  C   UNL     1      -3.711  20.316   5.920  1.00  0.00     0.049 A 
ATOM     68  H   UNL     1      -4.348  21.953   4.759  1.00  0.00     0.167 HD
ATOM     69  C   UNL     1      -5.958  20.670   6.937  1.00  0.00     0.074 A 
ATOM     70  C   UNL     1      -6.727  21.291   5.859  1.00  0.00     0.031 C 
ATOM     71  C   UNL     1      -4.652  20.273   7.018  1.00  0.00     0.031 A 
BRANCH  58  72
ATOM     72  C   UNL     1      -4.533  21.641   1.828  1.00  0.00    -0.014 A 
ATOM     73  C   UNL     1      -3.895  22.866   2.104  1.00  0.00     0.010 A 
ATOM     74  C   UNL     1      -5.784  21.707   1.177  1.00  0.00     0.010 A 
ATOM     75  C   UNL     1      -4.520  24.087   1.823  1.00  0.00     0.020 A 
ATOM     76  C   UNL     1      -6.395  22.916   0.851  1.00  0.00     0.020 A 
ATOM     77  C   UNL     1      -5.774  24.101   1.211  1.00  0.00     0.054 A 
BRANCH  77  78
ATOM     78  S   UNL     1      -6.616  25.676   0.941  1.00  0.00     0.124 S 
ATOM     79  O   UNL     1      -6.877  26.113   2.309  1.00  0.00    -0.237 OA
ATOM     80  O   UNL     1      -5.609  26.439   0.209  1.00  0.00    -0.237 OA
ATOM     81  O   UNL     1      -7.796  25.303   0.164  1.00  0.00    -0.744 OA
ENDBRANCH  77  78
ENDBRANCH  58  72
BRANCH  59  82
ATOM     82  C   UNL     1     -10.474  19.359   7.467  1.00  0.00    -0.014 A 
ATOM     83  C   UNL     1     -10.889  20.467   8.232  1.00  0.00     0.010 A 
ATOM     84  C   UNL     1     -11.459  18.676   6.725  1.00  0.00     0.010 A 
ATOM     85  C   UNL     1     -12.223  20.913   8.200  1.00  0.00     0.020 A 
ATOM     86  C   UNL     1     -12.791  19.108   6.696  1.00  0.00     0.020 A 
ATOM     87  C   UNL     1     -13.162  20.242   7.413  1.00  0.00     0.054 A 
BRANCH  87  88
ATOM     88  S   UNL     1     -14.835  20.929   7.225  1.00  0.00     0.124 S 
ATOM     89  O   UNL     1     -15.420  20.689   8.541  1.00  0.00    -0.237 OA
ATOM     90  O   UNL     1     -14.571  22.326   6.895  1.00  0.00    -0.237 OA
ATOM     91  O   UNL     1     -15.412  20.138   6.139  1.00  0.00    -0.744 OA
ENDBRANCH  87  88
ENDBRANCH  59  82
BRANCH  71  92
ATOM     92  C   UNL     1      -4.194  19.552   8.264  1.00  0.00    -0.014 A 
ATOM     93  C   UNL     1      -4.721  18.324   8.712  1.00  0.00     0.010 A 
ATOM     94  C   UNL     1      -3.080  20.087   8.933  1.00  0.00     0.010 A 
ATOM     95  C   UNL     1      -4.168  17.674   9.827  1.00  0.00     0.020 A 
ATOM     96  C   UNL     1      -2.512  19.435  10.027  1.00  0.00     0.020 A 
ATOM     97  C   UNL     1      -3.067  18.239  10.480  1.00  0.00     0.054 A 
BRANCH  97  98
ATOM     98  S   UNL     1      -2.340  17.392  11.910  1.00  0.00     0.124 S 
ATOM     99  O   UNL     1      -3.390  17.511  12.917  1.00  0.00    -0.237 OA
ATOM    100  O   UNL     1      -2.103  16.042  11.402  1.00  0.00    -0.237 OA
ATOM    101  O   UNL     1      -1.127  18.160  12.190  1.00  0.00    -0.744 OA
ENDBRANCH  97  98
ENDBRANCH  71  92
ENDBRANCH  45  46
ENDBRANCH  38  40
ENDBRANCH  37  38
ENDBRANCH  36  37
ENDBRANCH   1  36
TORSDOF 20
