REMARK SMILES Cc1cc(Cl)cc2c1O[C@H](C(F)(F)F)C(C(=O)OCCOC(=O)c1ccc(-c3c4nc(c(-c5ccc(S(=O)(=O)[O-])cc5)c5ccc([nH]5)c(-c5ccc(S(=O)(=O)[O-])cc5)c5nc(c(-c6ccc(S(=O)(=O)[O-])cc6)c6ccc3[nH]6)C=C5)C=C4)cc1)=C2
REMARK SMILES IDX 20 1 19 2 18 3 16 4 17 5 15 6 1 7 2 8 3 9 8 10 4 11 7 12
REMARK SMILES IDX 9 13 5 14 6 15 84 16 10 17 11 18 12 19 13 20 14 21 21 22
REMARK SMILES IDX 22 23 23 24 24 25 25 26 83 27 26 28 82 29 27 30 28 31 29 32
REMARK SMILES IDX 76 33 30 34 81 35 75 36 77 37 31 38 80 39 74 40 73 41 32 43
REMARK SMILES IDX 62 44 43 45 61 46 44 47 47 48 60 49 78 50 45 51 46 52 59 54
REMARK SMILES IDX 79 55 48 56 33 57 34 58 42 59 35 60 41 61 36 62 37 63 38 64
REMARK SMILES IDX 39 65 40 66 63 67 64 68 72 69 65 70 71 71 66 72 67 73 68 74
REMARK SMILES IDX 69 75 70 76 49 77 50 78 58 79 51 80 57 81 52 82 53 83 54 84
REMARK SMILES IDX 55 85 56 86
REMARK H PARENT 77 42 47 53
REMARK Flexibility Score: inf
ROOT
ATOM      1  C   UNL     1      -4.470  -0.600  -7.484  1.00  0.00     0.275 C 
ENDROOT
BRANCH   1   2
ATOM      2  C   UNL     1      -3.207  -1.405  -7.173  1.00  0.00     0.275 C 
BRANCH   2   3
ATOM      3  O   UNL     1      -2.680  -1.081  -5.867  1.00  0.00    -0.459 OA
BRANCH   3   4
ATOM      4  C   UNL     1      -1.598  -0.270  -5.866  1.00  0.00     0.338 C 
ATOM      5  O   UNL     1      -1.023   0.175  -6.847  1.00  0.00    -0.246 OA
BRANCH   4   6
ATOM      6  C   UNL     1      -1.169   0.034  -4.489  1.00  0.00     0.087 C 
ATOM      7  C   UNL     1       1.026  -0.155   0.180  1.00  0.00     0.048 C 
ATOM      8  C   UNL     1       0.600   0.905  -0.793  1.00  0.00    -0.007 A 
ATOM      9  C   UNL     1       0.915   2.244  -0.500  1.00  0.00     0.027 A 
ATOM     10  C   UNL     1      -0.050   0.602  -1.999  1.00  0.00     0.131 A 
ATOM     11  C   UNL     1       0.570   3.264  -1.383  1.00  0.00     0.042 A 
ATOM     12  C   UNL     1      -0.377   1.633  -2.885  1.00  0.00     0.019 A 
ATOM     13  O   UNL     1      -0.351  -0.709  -2.251  1.00  0.00    -0.475 OA
ATOM     14  Cl  UNL     1       0.970   4.894  -1.010  1.00  0.00    -0.084 Cl
ATOM     15  C   UNL     1      -0.079   2.965  -2.574  1.00  0.00     0.032 A 
ATOM     16  C   UNL     1      -0.977   1.316  -4.164  1.00  0.00     0.027 C 
ATOM     17  C   UNL     1      -0.817  -1.099  -3.574  1.00  0.00     0.316 C 
BRANCH  17  18
ATOM     18  C   UNL     1       0.228  -2.033  -4.206  1.00  0.00     0.430 C 
ATOM     19  F   UNL     1       0.548  -3.049  -3.368  1.00  0.00    -0.167 F 
ATOM     20  F   UNL     1      -0.237  -2.608  -5.341  1.00  0.00    -0.167 F 
ATOM     21  F   UNL     1       1.375  -1.388  -4.516  1.00  0.00    -0.167 F 
ENDBRANCH  17  18
ENDBRANCH   4   6
ENDBRANCH   3   4
ENDBRANCH   2   3
ENDBRANCH   1   2
BRANCH   1  22
ATOM     22  O   UNL     1      -4.158   0.797  -7.636  1.00  0.00    -0.458 OA
BRANCH  22  23
ATOM     23  C   UNL     1      -4.464   1.565  -6.566  1.00  0.00     0.338 C 
ATOM     24  O   UNL     1      -4.994   1.207  -5.528  1.00  0.00    -0.246 OA
BRANCH  23  25
ATOM     25  C   UNL     1      -3.976   2.938  -6.763  1.00  0.00     0.060 A 
ATOM     26  C   UNL     1      -2.609   3.164  -6.683  1.00  0.00     0.016 A 
ATOM     27  C   UNL     1      -4.861   4.012  -6.783  1.00  0.00     0.016 A 
ATOM     28  C   UNL     1      -2.132   4.443  -6.423  1.00  0.00     0.010 A 
ATOM     29  C   UNL     1      -4.357   5.317  -6.699  1.00  0.00     0.010 A 
ATOM     30  C   UNL     1      -2.991   5.549  -6.453  1.00  0.00    -0.014 A 
BRANCH  30  31
ATOM     31  C   UNL     1      -2.461   6.925  -6.205  1.00  0.00     0.031 A 
ATOM     32  C   UNL     1      -3.090   7.811  -5.154  1.00  0.00     0.074 A 
ATOM     33  C   UNL     1      -1.395   7.379  -6.900  1.00  0.00     0.049 A 
ATOM     34  N   UNL     1      -2.891   9.084  -4.921  1.00  0.00    -0.248 NA
ATOM     35  C   UNL     1      -4.081   7.193  -4.256  1.00  0.00     0.031 C 
ATOM     36  C   UNL     1      -0.642   6.617  -7.902  1.00  0.00     0.029 A 
ATOM     37  N   UNL     1      -0.742   8.587  -6.858  1.00  0.00    -0.354 N 
ATOM     38  C   UNL     1      -3.768   9.429  -3.897  1.00  0.00     0.074 A 
ATOM     39  C   UNL     1      -4.513   8.236  -3.561  1.00  0.00     0.031 C 
ATOM     40  C   UNL     1       0.404   7.343  -8.320  1.00  0.00     0.029 A 
ATOM     41  C   UNL     1       0.327   8.668  -7.722  1.00  0.00     0.049 A 
ATOM     42  H   UNL     1      -1.013   9.326  -6.266  1.00  0.00     0.167 HD
ATOM     43  C   UNL     1      -3.934  10.630  -3.289  1.00  0.00     0.031 A 
ATOM     44  C   UNL     1       1.130   9.699  -8.047  1.00  0.00     0.031 A 
ATOM     45  C   UNL     1      -3.156  11.802  -3.599  1.00  0.00     0.049 A 
ATOM     46  C   UNL     1       0.875  11.038  -7.419  1.00  0.00     0.074 A 
ATOM     47  C   UNL     1      -3.247  13.066  -3.042  1.00  0.00     0.029 A 
ATOM     48  N   UNL     1      -2.131  11.850  -4.533  1.00  0.00    -0.354 N 
ATOM     49  N   UNL     1      -0.008  11.363  -6.506  1.00  0.00    -0.248 NA
ATOM     50  C   UNL     1       1.707  12.156  -7.883  1.00  0.00     0.031 C 
ATOM     51  C   UNL     1      -2.316  13.892  -3.679  1.00  0.00     0.029 A 
ATOM     52  C   UNL     1      -1.599  13.127  -4.585  1.00  0.00     0.049 A 
ATOM     53  H   UNL     1      -1.827  11.088  -5.078  1.00  0.00     0.167 HD
ATOM     54  C   UNL     1       0.169  12.721  -6.277  1.00  0.00     0.074 A 
ATOM     55  C   UNL     1       1.260  13.151  -7.128  1.00  0.00     0.031 C 
ATOM     56  C   UNL     1      -0.516  13.540  -5.441  1.00  0.00     0.031 A 
BRANCH  43  57
ATOM     57  C   UNL     1      -5.018  10.755  -2.248  1.00  0.00    -0.014 A 
ATOM     58  C   UNL     1      -4.898  10.154  -0.983  1.00  0.00     0.010 A 
ATOM     59  C   UNL     1      -6.151  11.547  -2.520  1.00  0.00     0.010 A 
ATOM     60  C   UNL     1      -5.901  10.317  -0.022  1.00  0.00     0.020 A 
ATOM     61  C   UNL     1      -7.143  11.737  -1.552  1.00  0.00     0.020 A 
ATOM     62  C   UNL     1      -7.017  11.109  -0.312  1.00  0.00     0.054 A 
BRANCH  62  63
ATOM     63  S   UNL     1      -8.285  11.328   0.967  1.00  0.00     0.124 S 
ATOM     64  O   UNL     1      -8.870   9.991   1.044  1.00  0.00    -0.237 OA
ATOM     65  O   UNL     1      -7.499  11.736   2.128  1.00  0.00    -0.237 OA
ATOM     66  O   UNL     1      -9.162  12.358   0.417  1.00  0.00    -0.744 OA
ENDBRANCH  62  63
ENDBRANCH  43  57
BRANCH  44  67
ATOM     67  C   UNL     1       2.210   9.511  -9.056  1.00  0.00    -0.014 A 
ATOM     68  C   UNL     1       3.561   9.583  -8.678  1.00  0.00     0.010 A 
ATOM     69  C   UNL     1       1.891   9.224 -10.398  1.00  0.00     0.010 A 
ATOM     70  C   UNL     1       4.572   9.373  -9.621  1.00  0.00     0.020 A 
ATOM     71  C   UNL     1       2.898   8.979 -11.336  1.00  0.00     0.020 A 
ATOM     72  C   UNL     1       4.234   9.064 -10.942  1.00  0.00     0.054 A 
BRANCH  72  73
ATOM     73  S   UNL     1       5.564   8.735 -12.131  1.00  0.00     0.124 S 
ATOM     74  O   UNL     1       6.156  10.058 -12.299  1.00  0.00    -0.237 OA
ATOM     75  O   UNL     1       6.386   7.758 -11.420  1.00  0.00    -0.237 OA
ATOM     76  O   UNL     1       4.859   8.212 -13.300  1.00  0.00    -0.744 OA
ENDBRANCH  72  73
ENDBRANCH  44  67
BRANCH  56  77
ATOM     77  C   UNL     1      -0.095  14.983  -5.390  1.00  0.00    -0.014 A 
ATOM     78  C   UNL     1      -0.381  15.858  -6.452  1.00  0.00     0.010 A 
ATOM     79  C   UNL     1       0.532  15.484  -4.235  1.00  0.00     0.010 A 
ATOM     80  C   UNL     1      -0.027  17.207  -6.368  1.00  0.00     0.020 A 
ATOM     81  C   UNL     1       0.861  16.838  -4.135  1.00  0.00     0.020 A 
ATOM     82  C   UNL     1       0.587  17.689  -5.208  1.00  0.00     0.054 A 
BRANCH  82  83
ATOM     83  S   UNL     1       0.982  19.455  -5.106  1.00  0.00     0.124 S 
ATOM     84  O   UNL     1       2.067  19.582  -6.076  1.00  0.00    -0.237 OA
ATOM     85  O   UNL     1      -0.279  20.086  -5.487  1.00  0.00    -0.237 OA
ATOM     86  O   UNL     1       1.371  19.645  -3.710  1.00  0.00    -0.744 OA
ENDBRANCH  82  83
ENDBRANCH  56  77
ENDBRANCH  30  31
ENDBRANCH  23  25
ENDBRANCH  22  23
ENDBRANCH   1  22
TORSDOF 15
