REMARK SMILES C[C@@H]1C(=O)NC(=O)CN1C(=O)NC1(CC(=O)OCCOC(=O)c2ccc(-c3c4nc(c(-c5ccc(S(=O)(=O)[O-])cc5)c5ccc([nH]5)c(-c5ccc(S(=O)(=O)[O-])cc5)c5nc(c(-c6ccc(S(=O)(=O)[O-])cc6)c6ccc3[nH]6)C=C5)C=C4)cc2)CCC1
REMARK SMILES IDX 18 1 17 2 15 3 16 4 14 5 13 6 83 7 85 8 84 9 12 10 10 11
REMARK SMILES IDX 11 12 9 14 1 15 2 16 3 17 4 18 5 19 8 20 6 21 7 23 19 24
REMARK SMILES IDX 20 25 21 26 22 27 23 28 24 29 82 30 25 31 81 32 26 33 27 34
REMARK SMILES IDX 28 35 75 36 29 37 80 38 74 39 76 40 30 41 79 42 73 43 72 44
REMARK SMILES IDX 31 46 61 47 42 48 60 49 43 50 46 51 59 52 77 53 44 54 45 55
REMARK SMILES IDX 58 57 78 58 47 59 32 60 33 61 41 62 34 63 40 64 35 65 36 66
REMARK SMILES IDX 37 67 38 68 39 69 62 70 63 71 71 72 64 73 70 74 65 75 66 76
REMARK SMILES IDX 67 77 68 78 69 79 48 80 49 81 57 82 50 83 56 84 51 85 52 86
REMARK SMILES IDX 53 87 54 88 55 89
REMARK H PARENT 12 13 5 22 76 45 46 56
REMARK Flexibility Score: inf
ROOT
ATOM      1  C   UNL     1      -0.566  -2.542   2.714  1.00  0.00     0.274 C 
ENDROOT
BRANCH   1   2
ATOM      2  O   UNL     1       0.653  -1.797   3.042  1.00  0.00    -0.462 OA
BRANCH   2   3
ATOM      3  C   UNL     1       1.998  -1.902   2.799  1.00  0.00     0.308 C 
ATOM      4  O   UNL     1       2.574  -2.861   2.273  1.00  0.00    -0.252 OA
BRANCH   3   5
ATOM      5  C   UNL     1       2.704  -0.553   3.148  1.00  0.00     0.151 C 
BRANCH   5   6
ATOM      6  C   UNL     1       1.709   0.262   3.924  1.00  0.00     0.052 C 
ATOM      7  C   UNL     1       1.882   1.434   5.012  1.00  0.00     0.029 C 
ATOM      8  C   UNL     1       1.328  -0.576   5.237  1.00  0.00     0.029 C 
ATOM      9  C   UNL     1       2.264   0.356   6.029  1.00  0.00     0.005 C 
BRANCH   6  10
ATOM     10  N   UNL     1       0.653   0.676   2.990  1.00  0.00    -0.332 N 
ATOM     11  C   UNL     1      -0.005   0.523   1.850  1.00  0.00     0.318 C 
ATOM     12  O   UNL     1      -0.954   1.265   2.128  1.00  0.00    -0.249 OA
ATOM     13  H   UNL     1       0.223   1.448   3.425  1.00  0.00     0.165 HD
BRANCH  11  14
ATOM     14  N   UNL     1       0.086  -0.219   0.686  1.00  0.00    -0.304 N 
ATOM     15  C   UNL     1       1.713  -0.246  -1.191  1.00  0.00     0.042 C 
ATOM     16  C   UNL     1       1.184  -0.983   0.045  1.00  0.00     0.174 C 
ATOM     17  C   UNL     1       0.736  -2.406  -0.468  1.00  0.00     0.249 C 
ATOM     18  O   UNL     1       1.532  -3.294  -0.773  1.00  0.00    -0.272 OA
ATOM     19  N   UNL     1      -0.586  -2.589  -0.794  1.00  0.00    -0.293 N 
ATOM     20  C   UNL     1      -1.065  -0.262  -0.293  1.00  0.00     0.222 C 
ATOM     21  C   UNL     1      -1.535  -1.619  -0.784  1.00  0.00     0.246 C 
ATOM     22  H   UNL     1      -0.867  -3.496  -1.056  1.00  0.00     0.173 HD
ATOM     23  O   UNL     1      -2.644  -1.814  -1.279  1.00  0.00    -0.273 OA
ENDBRANCH  11  14
ENDBRANCH   6  10
ENDBRANCH   5   6
ENDBRANCH   3   5
ENDBRANCH   2   3
ENDBRANCH   1   2
BRANCH   1  24
ATOM     24  C   UNL     1      -1.942  -1.691   2.985  1.00  0.00     0.275 C 
BRANCH  24  25
ATOM     25  O   UNL     1      -2.421  -0.695   1.963  1.00  0.00    -0.458 OA
BRANCH  25  26
ATOM     26  C   UNL     1      -3.499   0.185   2.170  1.00  0.00     0.338 C 
ATOM     27  O   UNL     1      -4.332  -0.047   3.042  1.00  0.00    -0.246 OA
BRANCH  26  28
ATOM     28  C   UNL     1      -3.630   1.536   1.284  1.00  0.00     0.060 A 
ATOM     29  C   UNL     1      -2.575   2.199   0.636  1.00  0.00     0.016 A 
ATOM     30  C   UNL     1      -4.813   2.284   1.210  1.00  0.00     0.016 A 
ATOM     31  C   UNL     1      -2.549   3.489   0.146  1.00  0.00     0.010 A 
ATOM     32  C   UNL     1      -4.860   3.571   0.547  1.00  0.00     0.010 A 
ATOM     33  C   UNL     1      -3.708   4.188   0.013  1.00  0.00    -0.014 A 
BRANCH  33  34
ATOM     34  C   UNL     1      -3.541   5.551  -0.564  1.00  0.00     0.031 A 
ATOM     35  C   UNL     1      -3.861   6.730   0.299  1.00  0.00     0.074 A 
ATOM     36  C   UNL     1      -2.881   5.769  -1.731  1.00  0.00     0.049 A 
ATOM     37  N   UNL     1      -4.021   7.980  -0.037  1.00  0.00    -0.248 NA
ATOM     38  C   UNL     1      -4.000   6.464   1.740  1.00  0.00     0.031 C 
ATOM     39  C   UNL     1      -2.220   4.747  -2.561  1.00  0.00     0.029 A 
ATOM     40  N   UNL     1      -2.618   6.937  -2.412  1.00  0.00    -0.354 N 
ATOM     41  C   UNL     1      -4.389   8.632   1.132  1.00  0.00     0.074 A 
ATOM     42  C   UNL     1      -4.376   7.650   2.194  1.00  0.00     0.031 C 
ATOM     43  C   UNL     1      -1.629   5.333  -3.614  1.00  0.00     0.029 A 
ATOM     44  C   UNL     1      -1.990   6.741  -3.624  1.00  0.00     0.049 A 
ATOM     45  H   UNL     1      -2.856   7.827  -2.067  1.00  0.00     0.167 HD
ATOM     46  C   UNL     1      -4.750   9.927   1.277  1.00  0.00     0.031 A 
ATOM     47  C   UNL     1      -1.817   7.571  -4.673  1.00  0.00     0.031 A 
ATOM     48  C   UNL     1      -4.720  10.875   0.195  1.00  0.00     0.049 A 
ATOM     49  C   UNL     1      -2.397   8.954  -4.571  1.00  0.00     0.074 A 
ATOM     50  C   UNL     1      -5.133  12.194   0.186  1.00  0.00     0.029 A 
ATOM     51  N   UNL     1      -4.234  10.598  -1.076  1.00  0.00    -0.354 N 
ATOM     52  N   UNL     1      -2.941   9.537  -3.529  1.00  0.00    -0.248 NA
ATOM     53  C   UNL     1      -2.386   9.772  -5.789  1.00  0.00     0.031 C 
ATOM     54  C   UNL     1      -4.952  12.694  -1.109  1.00  0.00     0.029 A 
ATOM     55  C   UNL     1      -4.366  11.708  -1.889  1.00  0.00     0.049 A 
ATOM     56  H   UNL     1      -3.850   9.736  -1.357  1.00  0.00     0.167 HD
ATOM     57  C   UNL     1      -3.338  10.794  -3.964  1.00  0.00     0.074 A 
ATOM     58  C   UNL     1      -2.947  10.894  -5.358  1.00  0.00     0.031 C 
ATOM     59  C   UNL     1      -3.975  11.774  -3.276  1.00  0.00     0.031 A 
BRANCH  46  60
ATOM     60  C   UNL     1      -5.336  10.328   2.602  1.00  0.00    -0.014 A 
ATOM     61  C   UNL     1      -4.561  10.439   3.768  1.00  0.00     0.010 A 
ATOM     62  C   UNL     1      -6.723  10.557   2.678  1.00  0.00     0.010 A 
ATOM     63  C   UNL     1      -5.171  10.721   4.996  1.00  0.00     0.020 A 
ATOM     64  C   UNL     1      -7.332  10.868   3.895  1.00  0.00     0.020 A 
ATOM     65  C   UNL     1      -6.554  10.925   5.052  1.00  0.00     0.054 A 
BRANCH  65  66
ATOM     66  S   UNL     1      -7.324  11.275   6.656  1.00  0.00     0.124 S 
ATOM     67  O   UNL     1      -7.259   9.971   7.312  1.00  0.00    -0.237 OA
ATOM     68  O   UNL     1      -6.446  12.301   7.215  1.00  0.00    -0.237 OA
ATOM     69  O   UNL     1      -8.666  11.730   6.307  1.00  0.00    -0.744 OA
ENDBRANCH  65  66
ENDBRANCH  46  60
BRANCH  47  70
ATOM     70  C   UNL     1      -1.215   7.072  -5.947  1.00  0.00    -0.014 A 
ATOM     71  C   UNL     1       0.002   7.585  -6.425  1.00  0.00     0.010 A 
ATOM     72  C   UNL     1      -1.859   6.059  -6.688  1.00  0.00     0.010 A 
ATOM     73  C   UNL     1       0.569   7.086  -7.606  1.00  0.00     0.020 A 
ATOM     74  C   UNL     1      -1.282   5.537  -7.850  1.00  0.00     0.020 A 
ATOM     75  C   UNL     1      -0.070   6.057  -8.304  1.00  0.00     0.054 A 
BRANCH  75  76
ATOM     76  S   UNL     1       0.728   5.367  -9.782  1.00  0.00     0.124 S 
ATOM     77  O   UNL     1       0.562   6.446 -10.751  1.00  0.00    -0.237 OA
ATOM     78  O   UNL     1       2.095   5.136  -9.320  1.00  0.00    -0.237 OA
ATOM     79  O   UNL     1      -0.042   4.155 -10.054  1.00  0.00    -0.744 OA
ENDBRANCH  75  76
ENDBRANCH  47  70
BRANCH  59  80
ATOM     80  C   UNL     1      -4.268  13.048  -4.017  1.00  0.00    -0.014 A 
ATOM     81  C   UNL     1      -5.291  13.108  -4.979  1.00  0.00     0.010 A 
ATOM     82  C   UNL     1      -3.550  14.214  -3.697  1.00  0.00     0.010 A 
ATOM     83  C   UNL     1      -5.578  14.312  -5.623  1.00  0.00     0.020 A 
ATOM     84  C   UNL     1      -3.854  15.426  -4.318  1.00  0.00     0.020 A 
ATOM     85  C   UNL     1      -4.861  15.464  -5.284  1.00  0.00     0.054 A 
BRANCH  85  86
ATOM     86  S   UNL     1      -5.297  17.029  -6.090  1.00  0.00     0.124 S 
ATOM     87  O   UNL     1      -4.778  16.830  -7.440  1.00  0.00    -0.237 OA
ATOM     88  O   UNL     1      -6.753  17.053  -5.973  1.00  0.00    -0.237 OA
ATOM     89  O   UNL     1      -4.598  18.035  -5.294  1.00  0.00    -0.744 OA
ENDBRANCH  85  86
ENDBRANCH  59  80
ENDBRANCH  33  34
ENDBRANCH  26  28
ENDBRANCH  25  26
ENDBRANCH  24  25
ENDBRANCH   1  24
TORSDOF 17
