REMARK SMILES COc1cccc(CSc2nc3ccccc3c(=O)n2CCC(=O)OCCOC(=O)c2ccc(-c3c4nc(c(-c5ccc(S(=O)(=O)[O-])cc5)c5ccc([nH]5)c(-c5ccc(S(=O)(=O)[O-])cc5)c5nc(c(-c6ccc(S(=O)(=O)[O-])cc6)c6ccc3[nH]6)C=C5)C=C4)cc2)c1
REMARK SMILES IDX 25 1 23 2 24 3 22 4 21 5 20 6 10 7 11 8 12 9 18 10 13 11
REMARK SMILES IDX 17 12 19 13 14 14 16 15 15 16 9 17 8 18 7 19 3 20 4 21 91 22
REMARK SMILES IDX 5 23 6 24 2 25 1 26 26 27 27 28 28 29 29 30 30 31 31 32
REMARK SMILES IDX 32 33 90 34 33 35 89 36 34 37 35 38 36 39 83 40 37 41 88 42
REMARK SMILES IDX 82 43 84 44 38 45 87 46 81 47 80 48 39 50 69 51 50 52 68 53
REMARK SMILES IDX 51 54 54 55 67 56 85 57 52 58 53 59 66 61 86 62 55 63 40 64
REMARK SMILES IDX 41 65 49 66 42 67 48 68 43 69 44 70 45 71 46 72 47 73 70 74
REMARK SMILES IDX 71 75 79 76 72 77 78 78 73 79 74 80 75 81 76 82 77 83 56 84
REMARK SMILES IDX 57 85 65 86 58 87 64 88 59 89 60 90 61 91 62 92 63 93
REMARK H PARENT 84 49 54 60
REMARK Flexibility Score: inf
ROOT
ATOM      1  O   UNL     1       5.965   2.217  -3.700  1.00  0.00    -0.462 OA
ENDROOT
BRANCH   1   2
ATOM      2  C   UNL     1       6.494   1.016  -3.367  1.00  0.00     0.307 C 
ATOM      3  O   UNL     1       7.682   0.732  -3.467  1.00  0.00    -0.252 OA
BRANCH   2   4
ATOM      4  C   UNL     1       5.488   0.065  -2.756  1.00  0.00     0.144 C 
BRANCH   4   5
ATOM      5  C   UNL     1       4.010   0.135  -3.158  1.00  0.00     0.140 C 
BRANCH   5   6
ATOM      6  N   UNL     1       3.694   0.076  -4.580  1.00  0.00    -0.286 N 
ATOM      7  C   UNL     1       3.997   1.038  -5.509  1.00  0.00     0.171 A 
ATOM      8  N   UNL     1       4.582   0.728  -6.627  1.00  0.00    -0.224 NA
ATOM      9  C   UNL     1       4.689  -0.639  -6.938  1.00  0.00     0.079 A 
ATOM     10  C   UNL     1       3.220  -1.133  -5.070  1.00  0.00     0.262 A 
ATOM     11  C   UNL     1       5.548  -1.095  -7.935  1.00  0.00     0.029 A 
ATOM     12  C   UNL     1       3.812  -1.550  -6.351  1.00  0.00     0.066 A 
ATOM     13  O   UNL     1       2.442  -1.872  -4.478  1.00  0.00    -0.269 OA
ATOM     14  C   UNL     1       5.459  -2.420  -8.385  1.00  0.00     0.002 A 
ATOM     15  C   UNL     1       3.652  -2.845  -6.843  1.00  0.00     0.016 A 
ATOM     16  C   UNL     1       4.478  -3.276  -7.878  1.00  0.00     0.001 A 
BRANCH   7  17
ATOM     17  S   UNL     1       3.421   2.688  -5.419  1.00  0.00    -0.083 SA
BRANCH  17  18
ATOM     18  C   UNL     1       2.892   3.153  -3.763  1.00  0.00     0.113 C 
BRANCH  18  19
ATOM     19  C   UNL     1       1.508   2.716  -3.354  1.00  0.00    -0.034 A 
ATOM     20  C   UNL     1       0.025   1.440  -1.894  1.00  0.00     0.119 A 
ATOM     21  C   UNL     1      -1.054   1.809  -2.694  1.00  0.00     0.046 A 
ATOM     22  C   UNL     1       1.289   1.946  -2.193  1.00  0.00     0.051 A 
ATOM     23  C   UNL     1      -0.877   2.673  -3.774  1.00  0.00     0.004 A 
ATOM     24  C   UNL     1       0.399   3.116  -4.109  1.00  0.00     0.005 A 
BRANCH  20  25
ATOM     25  O   UNL     1      -0.280   0.575  -0.881  1.00  0.00    -0.497 OA
ATOM     26  C   UNL     1       0.761   0.194   0.009  1.00  0.00     0.278 C 
ENDBRANCH  20  25
ENDBRANCH  18  19
ENDBRANCH  17  18
ENDBRANCH   7  17
ENDBRANCH   5   6
ENDBRANCH   4   5
ENDBRANCH   2   4
ENDBRANCH   1   2
BRANCH   1  27
ATOM     27  C   UNL     1       6.907   3.178  -4.227  1.00  0.00     0.274 C 
BRANCH  27  28
ATOM     28  C   UNL     1       6.279   4.582  -4.308  1.00  0.00     0.275 C 
BRANCH  28  29
ATOM     29  O   UNL     1       5.371   4.910  -3.236  1.00  0.00    -0.458 OA
BRANCH  29  30
ATOM     30  C   UNL     1       5.799   4.664  -1.982  1.00  0.00     0.338 C 
ATOM     31  O   UNL     1       6.918   4.311  -1.641  1.00  0.00    -0.246 OA
BRANCH  30  32
ATOM     32  C   UNL     1       4.655   4.703  -1.055  1.00  0.00     0.060 A 
ATOM     33  C   UNL     1       4.438   3.586  -0.242  1.00  0.00     0.016 A 
ATOM     34  C   UNL     1       3.874   5.852  -0.907  1.00  0.00     0.016 A 
ATOM     35  C   UNL     1       3.495   3.648   0.782  1.00  0.00     0.010 A 
ATOM     36  C   UNL     1       2.982   5.937   0.169  1.00  0.00     0.010 A 
ATOM     37  C   UNL     1       2.838   4.860   1.061  1.00  0.00    -0.014 A 
BRANCH  37  38
ATOM     38  C   UNL     1       2.244   5.072   2.413  1.00  0.00     0.031 A 
ATOM     39  C   UNL     1       0.783   5.332   2.628  1.00  0.00     0.074 A 
ATOM     40  C   UNL     1       3.087   5.081   3.470  1.00  0.00     0.049 A 
ATOM     41  N   UNL     1       0.153   5.566   3.753  1.00  0.00    -0.248 NA
ATOM     42  C   UNL     1      -0.080   5.344   1.440  1.00  0.00     0.031 C 
ATOM     43  C   UNL     1       4.539   4.880   3.393  1.00  0.00     0.029 A 
ATOM     44  N   UNL     1       2.856   5.260   4.811  1.00  0.00    -0.354 N 
ATOM     45  C   UNL     1      -1.179   5.765   3.414  1.00  0.00     0.074 A 
ATOM     46  C   UNL     1      -1.260   5.647   1.970  1.00  0.00     0.031 C 
ATOM     47  C   UNL     1       5.057   4.897   4.628  1.00  0.00     0.029 A 
ATOM     48  C   UNL     1       3.995   5.185   5.582  1.00  0.00     0.049 A 
ATOM     49  H   UNL     1       1.962   5.426   5.187  1.00  0.00     0.167 HD
ATOM     50  C   UNL     1      -2.233   6.019   4.230  1.00  0.00     0.031 A 
ATOM     51  C   UNL     1       4.183   5.351   6.905  1.00  0.00     0.031 A 
ATOM     52  C   UNL     1      -2.144   6.152   5.665  1.00  0.00     0.049 A 
ATOM     53  C   UNL     1       3.003   5.665   7.777  1.00  0.00     0.074 A 
ATOM     54  C   UNL     1      -3.168   6.372   6.572  1.00  0.00     0.029 A 
ATOM     55  N   UNL     1      -0.971   6.091   6.404  1.00  0.00    -0.354 N 
ATOM     56  N   UNL     1       1.744   5.798   7.438  1.00  0.00    -0.248 NA
ATOM     57  C   UNL     1       3.269   5.846   9.209  1.00  0.00     0.031 C 
ATOM     58  C   UNL     1      -2.609   6.504   7.848  1.00  0.00     0.029 A 
ATOM     59  C   UNL     1      -1.244   6.297   7.749  1.00  0.00     0.049 A 
ATOM     60  H   UNL     1      -0.076   5.925   6.029  1.00  0.00     0.167 HD
ATOM     61  C   UNL     1       1.062   6.058   8.621  1.00  0.00     0.074 A 
ATOM     62  C   UNL     1       2.046   6.040   9.684  1.00  0.00     0.031 C 
ATOM     63  C   UNL     1      -0.261   6.290   8.805  1.00  0.00     0.031 A 
BRANCH  50  64
ATOM     64  C   UNL     1      -3.587   6.200   3.590  1.00  0.00    -0.014 A 
ATOM     65  C   UNL     1      -4.275   5.115   3.016  1.00  0.00     0.010 A 
ATOM     66  C   UNL     1      -4.212   7.461   3.620  1.00  0.00     0.010 A 
ATOM     67  C   UNL     1      -5.541   5.296   2.451  1.00  0.00     0.020 A 
ATOM     68  C   UNL     1      -5.490   7.641   3.082  1.00  0.00     0.020 A 
ATOM     69  C   UNL     1      -6.139   6.559   2.484  1.00  0.00     0.054 A 
BRANCH  69  70
ATOM     70  S   UNL     1      -7.790   6.760   1.758  1.00  0.00     0.124 S 
ATOM     71  O   UNL     1      -7.504   6.655   0.329  1.00  0.00    -0.237 OA
ATOM     72  O   UNL     1      -8.532   5.642   2.334  1.00  0.00    -0.237 OA
ATOM     73  O   UNL     1      -8.211   8.084   2.212  1.00  0.00    -0.744 OA
ENDBRANCH  69  70
ENDBRANCH  50  64
BRANCH  51  74
ATOM     74  C   UNL     1       5.551   5.233   7.479  1.00  0.00    -0.014 A 
ATOM     75  C   UNL     1       5.886   4.157   8.319  1.00  0.00     0.010 A 
ATOM     76  C   UNL     1       6.535   6.192   7.172  1.00  0.00     0.010 A 
ATOM     77  C   UNL     1       7.173   4.052   8.855  1.00  0.00     0.020 A 
ATOM     78  C   UNL     1       7.831   6.072   7.678  1.00  0.00     0.020 A 
ATOM     79  C   UNL     1       8.138   5.009   8.528  1.00  0.00     0.054 A 
BRANCH  79  80
ATOM     80  S   UNL     1       9.814   4.824   9.197  1.00  0.00     0.124 S 
ATOM     81  O   UNL     1       9.622   5.181  10.598  1.00  0.00    -0.237 OA
ATOM     82  O   UNL     1      10.104   3.417   8.934  1.00  0.00    -0.237 OA
ATOM     83  O   UNL     1      10.601   5.772   8.411  1.00  0.00    -0.744 OA
ENDBRANCH  79  80
ENDBRANCH  51  74
BRANCH  63  84
ATOM     84  C   UNL     1      -0.729   6.508  10.221  1.00  0.00    -0.014 A 
ATOM     85  C   UNL     1      -0.402   7.679  10.930  1.00  0.00     0.010 A 
ATOM     86  C   UNL     1      -1.529   5.534  10.845  1.00  0.00     0.010 A 
ATOM     87  C   UNL     1      -0.832   7.850  12.250  1.00  0.00     0.020 A 
ATOM     88  C   UNL     1      -1.987   5.715  12.153  1.00  0.00     0.020 A 
ATOM     89  C   UNL     1      -1.620   6.866  12.854  1.00  0.00     0.054 A 
BRANCH  89  90
ATOM     90  S   UNL     1      -2.188   7.124  14.557  1.00  0.00     0.124 S 
ATOM     91  O   UNL     1      -0.961   6.918  15.321  1.00  0.00    -0.237 OA
ATOM     92  O   UNL     1      -2.685   8.497  14.524  1.00  0.00    -0.237 OA
ATOM     93  O   UNL     1      -3.215   6.100  14.739  1.00  0.00    -0.744 OA
ENDBRANCH  89  90
ENDBRANCH  63  84
ENDBRANCH  37  38
ENDBRANCH  30  32
ENDBRANCH  29  30
ENDBRANCH  28  29
ENDBRANCH  27  28
ENDBRANCH   1  27
TORSDOF 20
