REMARK SMILES CCN(CCC#N)C(=O)c1ccncc1/C=C/C(=O)OCCOC(=O)c1ccc(-c2c3nc(c(-c4ccc(S(=O)(=O)[O-])cc4)c4ccc([nH]4)c(-c4ccc(S(=O)(=O)[O-])cc4)c4nc(c(-c5ccc(S(=O)(=O)[O-])cc5)c5ccc2[nH]5)C=C4)C=C3)cc1
REMARK SMILES IDX 20 1 18 2 19 3 17 4 16 5 15 6 10 7 11 8 12 9 14 10 13 11
REMARK SMILES IDX 8 12 9 13 3 14 2 15 1 16 4 17 5 18 6 19 7 20 21 21 22 22
REMARK SMILES IDX 23 23 24 24 25 25 26 26 27 27 85 28 28 29 84 30 29 31 30 32
REMARK SMILES IDX 31 33 78 34 32 35 83 36 77 37 79 38 33 39 82 40 76 41 75 42
REMARK SMILES IDX 34 44 64 45 45 46 63 47 46 48 49 49 62 50 80 51 47 52 48 53
REMARK SMILES IDX 61 55 81 56 50 57 35 58 36 59 44 60 37 61 43 62 38 63 39 64
REMARK SMILES IDX 40 65 41 66 42 67 65 68 66 69 74 70 67 71 73 72 68 73 69 74
REMARK SMILES IDX 70 75 71 76 72 77 51 78 52 79 60 80 53 81 59 82 54 83 55 84
REMARK SMILES IDX 56 85 57 86 58 87
REMARK H PARENT 79 43 49 54
REMARK Flexibility Score: inf
ROOT
ATOM      1  O   UNL     1       5.992   1.023   2.674  1.00  0.00    -0.459 OA
ENDROOT
BRANCH   1   2
ATOM      2  C   UNL     1       6.708  -0.031   3.125  1.00  0.00     0.330 C 
ATOM      3  O   UNL     1       7.875  -0.009   3.489  1.00  0.00    -0.247 OA
BRANCH   2   4
ATOM      4  C   UNL     1       5.904  -1.261   3.237  1.00  0.00     0.094 C 
ATOM      5  C   UNL     1       4.584  -1.394   3.017  1.00  0.00     0.018 C 
BRANCH   5   6
ATOM      6  C   UNL     1       3.952  -2.705   3.236  1.00  0.00     0.006 A 
ATOM      7  C   UNL     1       3.208  -3.390   2.274  1.00  0.00     0.050 A 
ATOM      8  C   UNL     1       2.977  -4.756   2.424  1.00  0.00     0.034 A 
ATOM      9  C   UNL     1       3.260  -5.346   3.637  1.00  0.00     0.112 A 
ATOM     10  C   UNL     1       4.157  -3.389   4.436  1.00  0.00     0.119 A 
ATOM     11  N   UNL     1       3.795  -4.672   4.668  1.00  0.00    -0.264 NA
BRANCH   7  12
ATOM     12  C   UNL     1       2.636  -2.720   1.085  1.00  0.00     0.254 C 
ATOM     13  O   UNL     1       3.408  -2.214   0.276  1.00  0.00    -0.269 OA
BRANCH  12  14
ATOM     14  N   UNL     1       1.232  -2.659   0.948  1.00  0.00    -0.338 N 
BRANCH  14  15
ATOM     15  C   UNL     1       0.715  -1.818  -0.138  1.00  0.00     0.116 C 
ATOM     16  C   UNL     1       0.909  -0.328   0.128  1.00  0.00     0.027 C 
ENDBRANCH  14  15
BRANCH  14  17
ATOM     17  C   UNL     1       0.229  -3.230   1.880  1.00  0.00     0.135 C 
BRANCH  17  18
ATOM     18  C   UNL     1      -0.601  -4.389   1.299  1.00  0.00     0.141 C 
BRANCH  18  19
ATOM     19  C   UNL     1       0.021  -5.711   1.445  1.00  0.00     0.064 C 
ATOM     20  N   UNL     1       0.481  -6.769   1.552  1.00  0.00    -0.198 NA
ENDBRANCH  18  19
ENDBRANCH  17  18
ENDBRANCH  14  17
ENDBRANCH  12  14
ENDBRANCH   7  12
ENDBRANCH   5   6
ENDBRANCH   2   4
ENDBRANCH   1   2
BRANCH   1  21
ATOM     21  C   UNL     1       6.655   2.295   2.778  1.00  0.00     0.275 C 
BRANCH  21  22
ATOM     22  C   UNL     1       6.213   3.047   4.038  1.00  0.00     0.275 C 
BRANCH  22  23
ATOM     23  O   UNL     1       6.633   2.392   5.252  1.00  0.00    -0.458 OA
BRANCH  23  24
ATOM     24  C   UNL     1       5.738   1.512   5.762  1.00  0.00     0.338 C 
ATOM     25  O   UNL     1       4.638   1.241   5.305  1.00  0.00    -0.246 OA
BRANCH  24  26
ATOM     26  C   UNL     1       6.294   0.801   6.926  1.00  0.00     0.060 A 
ATOM     27  C   UNL     1       6.300  -0.595   6.885  1.00  0.00     0.016 A 
ATOM     28  C   UNL     1       6.670   1.470   8.092  1.00  0.00     0.016 A 
ATOM     29  C   UNL     1       6.632  -1.330   8.018  1.00  0.00     0.010 A 
ATOM     30  C   UNL     1       7.034   0.727   9.225  1.00  0.00     0.010 A 
ATOM     31  C   UNL     1       6.990  -0.679   9.207  1.00  0.00    -0.014 A 
BRANCH  31  32
ATOM     32  C   UNL     1       7.274  -1.496  10.419  1.00  0.00     0.031 A 
ATOM     33  C   UNL     1       6.341  -1.463  11.601  1.00  0.00     0.074 A 
ATOM     34  C   UNL     1       8.338  -2.324  10.427  1.00  0.00     0.049 A 
ATOM     35  N   UNL     1       6.401  -2.142  12.720  1.00  0.00    -0.248 NA
ATOM     36  C   UNL     1       5.192  -0.548  11.518  1.00  0.00     0.031 C 
ATOM     37  C   UNL     1       9.298  -2.473   9.331  1.00  0.00     0.029 A 
ATOM     38  N   UNL     1       8.777  -3.214  11.375  1.00  0.00    -0.354 N 
ATOM     39  C   UNL     1       5.309  -1.729  13.477  1.00  0.00     0.074 A 
ATOM     40  C   UNL     1       4.628  -0.712  12.706  1.00  0.00     0.031 C 
ATOM     41  C   UNL     1      10.186  -3.425   9.652  1.00  0.00     0.029 A 
ATOM     42  C   UNL     1       9.899  -3.913  10.997  1.00  0.00     0.049 A 
ATOM     43  H   UNL     1       8.331  -3.340  12.244  1.00  0.00     0.167 HD
ATOM     44  C   UNL     1       4.906  -2.164  14.697  1.00  0.00     0.031 A 
ATOM     45  C   UNL     1      10.626  -4.834  11.659  1.00  0.00     0.031 A 
ATOM     46  C   UNL     1       5.598  -3.168  15.466  1.00  0.00     0.049 A 
ATOM     47  C   UNL     1      10.197  -5.248  13.040  1.00  0.00     0.074 A 
ATOM     48  C   UNL     1       5.265  -3.683  16.708  1.00  0.00     0.029 A 
ATOM     49  N   UNL     1       6.766  -3.807  15.073  1.00  0.00    -0.354 N 
ATOM     50  N   UNL     1       9.155  -4.856  13.734  1.00  0.00    -0.248 NA
ATOM     51  C   UNL     1      11.038  -6.240  13.722  1.00  0.00     0.031 C 
ATOM     52  C   UNL     1       6.270  -4.576  17.097  1.00  0.00     0.029 A 
ATOM     53  C   UNL     1       7.183  -4.687  16.061  1.00  0.00     0.049 A 
ATOM     54  H   UNL     1       7.231  -3.657  14.219  1.00  0.00     0.167 HD
ATOM     55  C   UNL     1       9.195  -5.582  14.920  1.00  0.00     0.074 A 
ATOM     56  C   UNL     1      10.354  -6.448  14.838  1.00  0.00     0.031 C 
ATOM     57  C   UNL     1       8.344  -5.540  15.977  1.00  0.00     0.031 A 
BRANCH  44  58
ATOM     58  C   UNL     1       3.677  -1.522  15.298  1.00  0.00    -0.014 A 
ATOM     59  C   UNL     1       2.398  -1.715  14.742  1.00  0.00     0.010 A 
ATOM     60  C   UNL     1       3.800  -0.739  16.461  1.00  0.00     0.010 A 
ATOM     61  C   UNL     1       1.278  -1.098  15.308  1.00  0.00     0.020 A 
ATOM     62  C   UNL     1       2.677  -0.149  17.050  1.00  0.00     0.020 A 
ATOM     63  C   UNL     1       1.425  -0.317  16.458  1.00  0.00     0.054 A 
BRANCH  63  64
ATOM     64  S   UNL     1      -0.048   0.463  17.174  1.00  0.00     0.124 S 
ATOM     65  O   UNL     1      -0.375   1.472  16.169  1.00  0.00    -0.237 OA
ATOM     66  O   UNL     1      -0.985  -0.653  17.270  1.00  0.00    -0.237 OA
ATOM     67  O   UNL     1       0.423   0.990  18.453  1.00  0.00    -0.744 OA
ENDBRANCH  63  64
ENDBRANCH  44  58
BRANCH  45  68
ATOM     68  C   UNL     1      11.842  -5.420  11.025  1.00  0.00    -0.014 A 
ATOM     69  C   UNL     1      11.892  -6.782  10.678  1.00  0.00     0.010 A 
ATOM     70  C   UNL     1      12.961  -4.609  10.760  1.00  0.00     0.010 A 
ATOM     71  C   UNL     1      13.043  -7.324  10.097  1.00  0.00     0.020 A 
ATOM     72  C   UNL     1      14.098  -5.137  10.144  1.00  0.00     0.020 A 
ATOM     73  C   UNL     1      14.136  -6.496   9.828  1.00  0.00     0.054 A 
BRANCH  73  74
ATOM     74  S   UNL     1      15.598  -7.210   9.026  1.00  0.00     0.124 S 
ATOM     75  O   UNL     1      16.138  -8.062  10.081  1.00  0.00    -0.237 OA
ATOM     76  O   UNL     1      15.018  -7.909   7.882  1.00  0.00    -0.237 OA
ATOM     77  O   UNL     1      16.410  -6.043   8.688  1.00  0.00    -0.744 OA
ENDBRANCH  73  74
ENDBRANCH  45  68
BRANCH  57  78
ATOM     78  C   UNL     1       8.605  -6.500  17.111  1.00  0.00    -0.014 A 
ATOM     79  C   UNL     1       9.740  -6.390  17.934  1.00  0.00     0.010 A 
ATOM     80  C   UNL     1       7.680  -7.531  17.364  1.00  0.00     0.010 A 
ATOM     81  C   UNL     1       9.976  -7.326  18.947  1.00  0.00     0.020 A 
ATOM     82  C   UNL     1       7.889  -8.444  18.401  1.00  0.00     0.020 A 
ATOM     83  C   UNL     1       9.049  -8.349  19.171  1.00  0.00     0.054 A 
BRANCH  83  84
ATOM     84  S   UNL     1       9.374  -9.546  20.493  1.00  0.00     0.124 S 
ATOM     85  O   UNL     1      10.489 -10.313  19.944  1.00  0.00    -0.237 OA
ATOM     86  O   UNL     1       9.701  -8.687  21.628  1.00  0.00    -0.237 OA
ATOM     87  O   UNL     1       8.116 -10.279  20.616  1.00  0.00    -0.744 OA
ENDBRANCH  83  84
ENDBRANCH  57  78
ENDBRANCH  31  32
ENDBRANCH  24  26
ENDBRANCH  23  24
ENDBRANCH  22  23
ENDBRANCH  21  22
ENDBRANCH   1  21
TORSDOF 21
