REMARK SMILES Cc1n[nH]c2c1[C@@]1(C(=O)N([C@@H](C)C(=O)OCCOC(=O)c3ccc(-c4c5nc(c(-c6ccc(S(=O)(=O)[O-])cc6)c6ccc([nH]6)c(-c6ccc(S(=O)(=O)[O-])cc6)c6nc(c(-c7ccc(S(=O)(=O)[O-])cc7)c7ccc4[nH]7)C=C6)C=C5)cc3)c3ccccc31)C(C#N)=C(N)O2
REMARK SMILES IDX 17 1 16 2 15 3 13 4 14 5 11 6 12 7 10 8 1 9 2 10 3 11 6 12
REMARK SMILES IDX 4 13 5 14 7 15 92 17 8 18 86 19 87 20 90 21 9 22 81 23 85 24
REMARK SMILES IDX 82 25 84 26 83 27 88 28 89 29 91 30 18 33 19 34 20 35 21 36
REMARK SMILES IDX 22 37 80 38 23 39 79 40 24 41 25 42 26 43 73 44 27 45 78 46
REMARK SMILES IDX 72 47 74 48 28 49 77 50 71 51 70 52 29 54 59 55 40 56 58 57
REMARK SMILES IDX 41 58 44 59 57 60 75 61 42 62 43 63 56 65 76 66 45 67 30 68
REMARK SMILES IDX 31 69 39 70 32 71 38 72 33 73 34 74 35 75 36 76 37 77 60 78
REMARK SMILES IDX 61 79 69 80 62 81 68 82 63 83 64 84 65 85 66 86 67 87 46 88
REMARK SMILES IDX 47 89 55 90 48 91 54 92 49 93 50 94 51 95 52 96 53 97
REMARK H PARENT 4 16 91 31 91 32 74 53 44 64
REMARK Flexibility Score: inf
ROOT
ATOM      1  C   UNL     1       3.627  -0.141  -7.449  1.00  0.00     0.275 C 
ENDROOT
BRANCH   1   2
ATOM      2  C   UNL     1       4.268  -0.301  -6.067  1.00  0.00     0.274 C 
BRANCH   2   3
ATOM      3  O   UNL     1       3.348   0.116  -5.029  1.00  0.00    -0.461 OA
BRANCH   3   4
ATOM      4  C   UNL     1       3.839   0.972  -4.086  1.00  0.00     0.329 C 
ATOM      5  O   UNL     1       4.950   1.485  -4.156  1.00  0.00    -0.250 OA
BRANCH   4   6
ATOM      6  C   UNL     1       2.863   1.239  -2.904  1.00  0.00     0.197 C 
ATOM      7  C   UNL     1       3.587   1.007  -1.578  1.00  0.00     0.044 C 
BRANCH   6   8
ATOM      8  N   UNL     1       1.618   0.501  -2.958  1.00  0.00    -0.297 N 
ATOM      9  C   UNL     1       0.747  -0.225   0.372  1.00  0.00     0.069 C 
ATOM     10  C   UNL     1       0.152  -1.485  -0.143  1.00  0.00     0.068 A 
ATOM     11  N   UNL     1      -0.225  -2.438   0.726  1.00  0.00    -0.177 NA
ATOM     12  C   UNL     1      -0.059  -1.907  -1.484  1.00  0.00     0.063 A 
ATOM     13  N   UNL     1      -0.630  -3.460  -0.050  1.00  0.00    -0.246 N 
ATOM     14  C   UNL     1      -0.552  -3.177  -1.374  1.00  0.00     0.222 A 
ATOM     15  C   UNL     1       0.212  -1.353  -2.842  1.00  0.00     0.149 C 
ATOM     16  H   UNL     1      -0.949  -4.321   0.305  1.00  0.00     0.193 HD
ATOM     17  O   UNL     1      -0.849  -4.013  -2.358  1.00  0.00    -0.422 OA
ATOM     18  C   UNL     1       1.654  -0.898  -2.914  1.00  0.00     0.248 C 
ATOM     19  C   UNL     1      -0.592  -0.102  -2.950  1.00  0.00     0.002 A 
ATOM     20  C   UNL     1      -0.070  -2.324  -3.939  1.00  0.00     0.114 C 
ATOM     21  C   UNL     1      -0.571  -3.570  -3.667  1.00  0.00     0.208 C 
ATOM     22  O   UNL     1       2.641  -1.619  -2.898  1.00  0.00    -0.273 OA
ATOM     23  C   UNL     1       0.284   0.981  -2.959  1.00  0.00     0.050 A 
ATOM     24  C   UNL     1      -1.977   0.033  -3.030  1.00  0.00     0.008 A 
ATOM     25  C   UNL     1      -0.253   2.249  -2.937  1.00  0.00     0.027 A 
ATOM     26  C   UNL     1      -2.503   1.312  -3.115  1.00  0.00     0.001 A 
ATOM     27  C   UNL     1      -1.645   2.415  -3.056  1.00  0.00     0.002 A 
BRANCH  20  28
ATOM     28  C   UNL     1       0.248  -2.032  -5.396  1.00  0.00     0.102 C 
ATOM     29  N   UNL     1       0.512  -1.790  -6.605  1.00  0.00    -0.193 NA
ENDBRANCH  20  28
BRANCH  21  30
ATOM     30  N   UNL     1      -0.851  -4.532  -4.594  1.00  0.00    -0.369 N 
ATOM     31  H   UNL     1      -0.701  -4.353  -5.551  1.00  0.00     0.159 HD
ATOM     32  H   UNL     1      -1.202  -5.406  -4.306  1.00  0.00     0.159 HD
ENDBRANCH  21  30
ENDBRANCH   6   8
ENDBRANCH   4   6
ENDBRANCH   3   4
ENDBRANCH   2   3
ENDBRANCH   1   2
BRANCH   1  33
ATOM     33  O   UNL     1       3.518   1.259  -7.752  1.00  0.00    -0.458 OA
BRANCH  33  34
ATOM     34  C   UNL     1       2.329   1.825  -7.441  1.00  0.00     0.338 C 
ATOM     35  O   UNL     1       1.223   1.307  -7.500  1.00  0.00    -0.246 OA
BRANCH  34  36
ATOM     36  C   UNL     1       2.634   3.032  -6.646  1.00  0.00     0.060 A 
ATOM     37  C   UNL     1       3.811   3.772  -6.809  1.00  0.00     0.016 A 
ATOM     38  C   UNL     1       1.826   3.248  -5.539  1.00  0.00     0.016 A 
ATOM     39  C   UNL     1       4.282   4.572  -5.762  1.00  0.00     0.010 A 
ATOM     40  C   UNL     1       2.308   4.049  -4.517  1.00  0.00     0.010 A 
ATOM     41  C   UNL     1       3.581   4.617  -4.558  1.00  0.00    -0.014 A 
BRANCH  41  42
ATOM     42  C   UNL     1       3.962   5.476  -3.428  1.00  0.00     0.031 A 
ATOM     43  C   UNL     1       3.269   6.775  -3.533  1.00  0.00     0.074 A 
ATOM     44  C   UNL     1       4.702   5.210  -2.326  1.00  0.00     0.049 A 
ATOM     45  N   UNL     1       3.723   7.782  -4.200  1.00  0.00    -0.248 NA
ATOM     46  C   UNL     1       1.861   6.905  -3.124  1.00  0.00     0.031 C 
ATOM     47  C   UNL     1       5.316   3.956  -1.906  1.00  0.00     0.029 A 
ATOM     48  N   UNL     1       5.025   6.044  -1.284  1.00  0.00    -0.354 N 
ATOM     49  C   UNL     1       2.768   8.768  -4.045  1.00  0.00     0.074 A 
ATOM     50  C   UNL     1       1.559   8.087  -3.667  1.00  0.00     0.031 C 
ATOM     51  C   UNL     1       5.729   4.036  -0.613  1.00  0.00     0.029 A 
ATOM     52  C   UNL     1       5.590   5.413  -0.172  1.00  0.00     0.049 A 
ATOM     53  H   UNL     1       4.871   7.016  -1.318  1.00  0.00     0.167 HD
ATOM     54  C   UNL     1       3.145  10.063  -3.878  1.00  0.00     0.031 A 
ATOM     55  C   UNL     1       6.065   5.991   0.965  1.00  0.00     0.031 A 
ATOM     56  C   UNL     1       4.570  10.206  -4.057  1.00  0.00     0.049 A 
ATOM     57  C   UNL     1       6.453   7.369   0.602  1.00  0.00     0.074 A 
ATOM     58  C   UNL     1       5.457  10.170  -5.109  1.00  0.00     0.029 A 
ATOM     59  N   UNL     1       5.289  10.008  -2.903  1.00  0.00    -0.354 N 
ATOM     60  N   UNL     1       7.452   7.639  -0.189  1.00  0.00    -0.248 NA
ATOM     61  C   UNL     1       5.519   8.460   0.838  1.00  0.00     0.031 C 
ATOM     62  C   UNL     1       6.704   9.757  -4.558  1.00  0.00     0.029 A 
ATOM     63  C   UNL     1       6.566   9.601  -3.179  1.00  0.00     0.049 A 
ATOM     64  H   UNL     1       4.932  10.142  -1.995  1.00  0.00     0.167 HD
ATOM     65  C   UNL     1       7.029   8.749  -0.891  1.00  0.00     0.074 A 
ATOM     66  C   UNL     1       5.930   9.305  -0.110  1.00  0.00     0.031 C 
ATOM     67  C   UNL     1       7.392   8.931  -2.191  1.00  0.00     0.031 A 
BRANCH  54  68
ATOM     68  C   UNL     1       2.367  11.085  -3.087  1.00  0.00    -0.014 A 
ATOM     69  C   UNL     1       1.268  10.784  -2.260  1.00  0.00     0.010 A 
ATOM     70  C   UNL     1       2.904  12.386  -2.983  1.00  0.00     0.010 A 
ATOM     71  C   UNL     1       0.719  11.722  -1.387  1.00  0.00     0.020 A 
ATOM     72  C   UNL     1       2.385  13.324  -2.083  1.00  0.00     0.020 A 
ATOM     73  C   UNL     1       1.287  12.986  -1.298  1.00  0.00     0.054 A 
BRANCH  73  74
ATOM     74  S   UNL     1       0.583  14.148  -0.110  1.00  0.00     0.124 S 
ATOM     75  O   UNL     1      -0.737  14.397  -0.686  1.00  0.00    -0.237 OA
ATOM     76  O   UNL     1       0.594  13.372   1.126  1.00  0.00    -0.237 OA
ATOM     77  O   UNL     1       1.506  15.279  -0.148  1.00  0.00    -0.744 OA
ENDBRANCH  73  74
ENDBRANCH  54  68
BRANCH  55  78
ATOM     78  C   UNL     1       5.886   5.616   2.398  1.00  0.00    -0.014 A 
ATOM     79  C   UNL     1       4.746   4.894   2.795  1.00  0.00     0.010 A 
ATOM     80  C   UNL     1       6.620   6.283   3.407  1.00  0.00     0.010 A 
ATOM     81  C   UNL     1       4.286   4.938   4.122  1.00  0.00     0.020 A 
ATOM     82  C   UNL     1       6.165   6.330   4.739  1.00  0.00     0.020 A 
ATOM     83  C   UNL     1       4.972   5.694   5.075  1.00  0.00     0.054 A 
BRANCH  83  84
ATOM     84  S   UNL     1       4.217   5.913   6.718  1.00  0.00     0.124 S 
ATOM     85  O   UNL     1       3.035   6.711   6.405  1.00  0.00    -0.237 OA
ATOM     86  O   UNL     1       3.951   4.536   7.129  1.00  0.00    -0.237 OA
ATOM     87  O   UNL     1       5.250   6.600   7.489  1.00  0.00    -0.744 OA
ENDBRANCH  83  84
ENDBRANCH  55  78
BRANCH  67  88
ATOM     88  C   UNL     1       8.650   8.268  -2.688  1.00  0.00    -0.014 A 
ATOM     89  C   UNL     1       9.633   9.125  -3.217  1.00  0.00     0.010 A 
ATOM     90  C   UNL     1       8.840   6.878  -2.789  1.00  0.00     0.010 A 
ATOM     91  C   UNL     1      10.743   8.619  -3.886  1.00  0.00     0.020 A 
ATOM     92  C   UNL     1       9.975   6.360  -3.438  1.00  0.00     0.020 A 
ATOM     93  C   UNL     1      10.901   7.238  -4.008  1.00  0.00     0.054 A 
BRANCH  93  94
ATOM     94  S   UNL     1      12.325   6.635  -4.953  1.00  0.00     0.124 S 
ATOM     95  O   UNL     1      11.963   6.998  -6.322  1.00  0.00    -0.237 OA
ATOM     96  O   UNL     1      13.436   7.394  -4.382  1.00  0.00    -0.237 OA
ATOM     97  O   UNL     1      12.352   5.200  -4.678  1.00  0.00    -0.744 OA
ENDBRANCH  93  94
ENDBRANCH  67  88
ENDBRANCH  41  42
ENDBRANCH  34  36
ENDBRANCH  33  34
ENDBRANCH   1  33
TORSDOF 17
