REMARK SMILES Cc1ccccc1CN1C(=O)[C@H](CC(=O)OCCOC(=O)c2ccc(-c3c4nc(c(-c5ccc(S(=O)(=O)[O-])cc5)c5ccc([nH]5)c(-c5ccc(S(=O)(=O)[O-])cc5)c5nc(c(-c6ccc(S(=O)(=O)[O-])cc6)c6ccc3[nH]6)C=C5)C=C4)cc2)n2c(nc3ccccc32)[C@H]1C
REMARK SMILES IDX 17 1 16 2 14 3 15 4 13 5 12 6 9 7 10 8 91 9 11 10 83 11
REMARK SMILES IDX 92 12 82 13 84 14 90 15 85 16 89 17 86 18 88 19 87 20 8 21
REMARK SMILES IDX 7 22 1 23 2 24 3 25 4 26 6 27 5 28 18 29 19 30 20 31 21 32
REMARK SMILES IDX 22 33 23 34 81 35 24 36 80 37 25 38 26 39 27 40 74 41 28 42
REMARK SMILES IDX 79 43 73 44 75 45 29 46 78 47 72 48 71 49 30 51 60 52 41 53
REMARK SMILES IDX 59 54 42 55 45 56 58 57 76 58 43 59 44 60 57 62 77 63 46 64
REMARK SMILES IDX 31 65 32 66 40 67 33 68 39 69 34 70 35 71 36 72 37 73 38 74
REMARK SMILES IDX 61 75 62 76 70 77 63 78 69 79 64 80 65 81 66 82 67 83 68 84
REMARK SMILES IDX 47 85 48 86 56 87 49 88 55 89 50 90 51 91 52 92 53 93 54 94
REMARK H PARENT 75 50 45 61
REMARK Flexibility Score: inf
ROOT
ATOM      1  C   UNL     1       5.747   3.991  -2.913  1.00  0.00     0.274 C 
ENDROOT
BRANCH   1   2
ATOM      2  O   UNL     1       4.477   4.483  -3.386  1.00  0.00    -0.462 OA
BRANCH   2   3
ATOM      3  C   UNL     1       3.489   3.560  -3.337  1.00  0.00     0.308 C 
ATOM      4  O   UNL     1       3.613   2.419  -2.901  1.00  0.00    -0.252 OA
BRANCH   3   5
ATOM      5  C   UNL     1       2.193   4.100  -3.891  1.00  0.00     0.158 C 
BRANCH   5   6
ATOM      6  C   UNL     1       1.116   3.262  -3.211  1.00  0.00     0.189 C 
ATOM      7  N   UNL     1       0.081   3.096  -1.009  1.00  0.00    -0.327 N 
ATOM      8  C   UNL     1       1.179   3.560  -1.706  1.00  0.00     0.247 C 
ATOM      9  C   UNL     1      -1.152   3.786  -1.416  1.00  0.00     0.149 C 
ATOM     10  O   UNL     1       2.115   4.112  -1.134  1.00  0.00    -0.272 OA
ATOM     11  C   UNL     1      -1.329   3.577  -2.903  1.00  0.00     0.133 A 
ATOM     12  C   UNL     1      -2.429   3.450  -0.665  1.00  0.00     0.040 C 
ATOM     13  N   UNL     1      -0.239   3.386  -3.727  1.00  0.00    -0.313 N 
ATOM     14  N   UNL     1      -2.454   3.505  -3.588  1.00  0.00    -0.231 NA
ATOM     15  C   UNL     1      -0.704   2.991  -4.962  1.00  0.00     0.069 A 
ATOM     16  C   UNL     1      -2.089   3.105  -4.850  1.00  0.00     0.089 A 
ATOM     17  C   UNL     1      -0.085   2.517  -6.128  1.00  0.00     0.028 A 
ATOM     18  C   UNL     1      -2.904   2.774  -5.945  1.00  0.00     0.030 A 
ATOM     19  C   UNL     1      -0.917   2.178  -7.204  1.00  0.00     0.002 A 
ATOM     20  C   UNL     1      -2.304   2.309  -7.120  1.00  0.00     0.002 A 
BRANCH   7  21
ATOM     21  C   UNL     1       0.342   2.536   0.322  1.00  0.00     0.156 C 
BRANCH  21  22
ATOM     22  C   UNL     1       0.001   1.054   0.365  1.00  0.00    -0.026 A 
ATOM     23  C   UNL     1       2.373   0.161  -0.183  1.00  0.00     0.044 C 
ATOM     24  C   UNL     1       0.885   0.008   0.011  1.00  0.00    -0.046 A 
ATOM     25  C   UNL     1       0.378  -1.304  -0.102  1.00  0.00     0.004 A 
ATOM     26  C   UNL     1      -0.966  -1.587   0.131  1.00  0.00     0.000 A 
ATOM     27  C   UNL     1      -1.322   0.717   0.701  1.00  0.00     0.006 A 
ATOM     28  C   UNL     1      -1.812  -0.577   0.555  1.00  0.00     0.000 A 
ENDBRANCH  21  22
ENDBRANCH   7  21
ENDBRANCH   5   6
ENDBRANCH   3   5
ENDBRANCH   2   3
ENDBRANCH   1   2
BRANCH   1  29
ATOM     29  C   UNL     1       6.295   2.868  -3.810  1.00  0.00     0.275 C 
BRANCH  29  30
ATOM     30  O   UNL     1       6.409   3.360  -5.164  1.00  0.00    -0.458 OA
BRANCH  30  31
ATOM     31  C   UNL     1       5.293   3.425  -5.925  1.00  0.00     0.338 C 
ATOM     32  O   UNL     1       4.354   2.628  -5.930  1.00  0.00    -0.246 OA
BRANCH  31  33
ATOM     33  C   UNL     1       5.283   4.721  -6.670  1.00  0.00     0.060 A 
ATOM     34  C   UNL     1       4.298   5.001  -7.622  1.00  0.00     0.016 A 
ATOM     35  C   UNL     1       6.180   5.739  -6.330  1.00  0.00     0.016 A 
ATOM     36  C   UNL     1       4.231   6.283  -8.218  1.00  0.00     0.010 A 
ATOM     37  C   UNL     1       6.122   7.004  -6.934  1.00  0.00     0.010 A 
ATOM     38  C   UNL     1       5.142   7.314  -7.880  1.00  0.00    -0.014 A 
BRANCH  38  39
ATOM     39  C   UNL     1       4.776   8.748  -8.183  1.00  0.00     0.031 A 
ATOM     40  C   UNL     1       4.031   9.280  -6.924  1.00  0.00     0.074 A 
ATOM     41  C   UNL     1       5.487   9.755  -8.820  1.00  0.00     0.049 A 
ATOM     42  N   UNL     1       4.660   9.400  -5.788  1.00  0.00    -0.248 NA
ATOM     43  C   UNL     1       2.592   9.504  -6.723  1.00  0.00     0.031 C 
ATOM     44  C   UNL     1       4.815  10.942  -9.376  1.00  0.00     0.029 A 
ATOM     45  N   UNL     1       6.853  10.060  -9.117  1.00  0.00    -0.354 N 
ATOM     46  C   UNL     1       3.879  10.182  -4.940  1.00  0.00     0.074 A 
ATOM     47  C   UNL     1       2.543  10.005  -5.463  1.00  0.00     0.031 C 
ATOM     48  C   UNL     1       5.713  11.904  -9.690  1.00  0.00     0.029 A 
ATOM     49  C   UNL     1       7.057  11.486  -9.286  1.00  0.00     0.049 A 
ATOM     50  H   UNL     1       7.566   9.386  -9.196  1.00  0.00     0.167 HD
ATOM     51  C   UNL     1       4.492  11.116  -4.124  1.00  0.00     0.031 A 
ATOM     52  C   UNL     1       8.056  12.394  -8.937  1.00  0.00     0.031 A 
ATOM     53  C   UNL     1       5.843  11.290  -4.603  1.00  0.00     0.049 A 
ATOM     54  C   UNL     1       9.203  11.907  -8.060  1.00  0.00     0.074 A 
ATOM     55  C   UNL     1       6.099  11.684  -5.895  1.00  0.00     0.029 A 
ATOM     56  N   UNL     1       7.053  10.924  -4.015  1.00  0.00    -0.354 N 
ATOM     57  N   UNL     1       9.269  12.162  -6.780  1.00  0.00    -0.248 NA
ATOM     58  C   UNL     1      10.306  11.044  -8.484  1.00  0.00     0.031 C 
ATOM     59  C   UNL     1       7.112  10.807  -6.163  1.00  0.00     0.029 A 
ATOM     60  C   UNL     1       7.932  10.742  -5.068  1.00  0.00     0.049 A 
ATOM     61  H   UNL     1       7.243  10.818  -3.055  1.00  0.00     0.167 HD
ATOM     62  C   UNL     1       9.919  11.071  -6.220  1.00  0.00     0.074 A 
ATOM     63  C   UNL     1      10.775  10.604  -7.299  1.00  0.00     0.031 C 
ATOM     64  C   UNL     1       9.322  10.346  -5.197  1.00  0.00     0.031 A 
BRANCH  51  65
ATOM     65  C   UNL     1       3.981  12.255  -3.285  1.00  0.00    -0.014 A 
ATOM     66  C   UNL     1       4.693  13.487  -3.381  1.00  0.00     0.010 A 
ATOM     67  C   UNL     1       3.036  12.140  -2.266  1.00  0.00     0.010 A 
ATOM     68  C   UNL     1       4.579  14.504  -2.441  1.00  0.00     0.020 A 
ATOM     69  C   UNL     1       2.890  13.183  -1.322  1.00  0.00     0.020 A 
ATOM     70  C   UNL     1       3.695  14.331  -1.391  1.00  0.00     0.054 A 
BRANCH  70  71
ATOM     71  S   UNL     1       3.677  15.601  -0.097  1.00  0.00     0.124 S 
ATOM     72  O   UNL     1       5.001  15.454   0.503  1.00  0.00    -0.237 OA
ATOM     73  O   UNL     1       3.456  16.831  -0.852  1.00  0.00    -0.237 OA
ATOM     74  O   UNL     1       2.563  15.198   0.760  1.00  0.00    -0.744 OA
ENDBRANCH  70  71
ENDBRANCH  51  65
BRANCH  52  75
ATOM     75  C   UNL     1       7.830  13.911  -8.767  1.00  0.00    -0.014 A 
ATOM     76  C   UNL     1       8.130  14.884  -9.737  1.00  0.00     0.010 A 
ATOM     77  C   UNL     1       7.486  14.410  -7.484  1.00  0.00     0.010 A 
ATOM     78  C   UNL     1       8.068  16.273  -9.430  1.00  0.00     0.020 A 
ATOM     79  C   UNL     1       7.435  15.777  -7.163  1.00  0.00     0.020 A 
ATOM     80  C   UNL     1       7.715  16.711  -8.146  1.00  0.00     0.054 A 
BRANCH  80  81
ATOM     81  S   UNL     1       7.624  18.496  -7.777  1.00  0.00     0.124 S 
ATOM     82  O   UNL     1       8.966  18.964  -8.117  1.00  0.00    -0.237 OA
ATOM     83  O   UNL     1       6.565  18.941  -8.681  1.00  0.00    -0.237 OA
ATOM     84  O   UNL     1       7.292  18.552  -6.357  1.00  0.00    -0.744 OA
ENDBRANCH  80  81
ENDBRANCH  52  75
BRANCH  64  85
ATOM     85  C   UNL     1       9.748   8.967  -4.797  1.00  0.00    -0.014 A 
ATOM     86  C   UNL     1      11.090   8.571  -4.745  1.00  0.00     0.010 A 
ATOM     87  C   UNL     1       8.768   8.018  -4.424  1.00  0.00     0.010 A 
ATOM     88  C   UNL     1      11.442   7.280  -4.330  1.00  0.00     0.020 A 
ATOM     89  C   UNL     1       9.111   6.739  -3.989  1.00  0.00     0.020 A 
ATOM     90  C   UNL     1      10.450   6.381  -3.931  1.00  0.00     0.054 A 
BRANCH  90  91
ATOM     91  S   UNL     1      10.933   4.788  -3.223  1.00  0.00     0.124 S 
ATOM     92  O   UNL     1      11.584   4.130  -4.351  1.00  0.00    -0.237 OA
ATOM     93  O   UNL     1      11.816   5.193  -2.133  1.00  0.00    -0.237 OA
ATOM     94  O   UNL     1       9.663   4.194  -2.805  1.00  0.00    -0.744 OA
ENDBRANCH  90  91
ENDBRANCH  64  85
ENDBRANCH  38  39
ENDBRANCH  31  33
ENDBRANCH  30  31
ENDBRANCH  29  30
ENDBRANCH   1  29
TORSDOF 17
