REMARK SMILES CC(C)(C)OC(=O)N1CCC(n2c(=S)[nH]c3cc(C(=O)OCCOC(=O)c4ccc(-c5c6nc(c(-c7ccc(S(=O)(=O)[O-])cc7)c7ccc([nH]7)c(-c7ccc(S(=O)(=O)[O-])cc7)c7nc(c(-c8ccc(S(=O)(=O)[O-])cc8)c8ccc5[nH]8)C=C7)C=C6)cc4)ccc3c2=O)CC1
REMARK SMILES IDX 22 1 21 2 19 3 20 4 18 5 12 6 13 7 90 8 14 9 15 10 89 11
REMARK SMILES IDX 91 12 16 13 88 15 17 16 87 17 11 18 6 19 7 20 8 21 9 22
REMARK SMILES IDX 93 23 10 24 92 25 5 26 2 27 1 28 3 29 4 30 23 31 24 32 25 33
REMARK SMILES IDX 26 34 27 35 28 36 86 37 29 38 85 39 30 40 31 41 32 42 79 43
REMARK SMILES IDX 33 44 84 45 78 46 80 47 34 48 83 49 77 50 76 51 35 53 65 54
REMARK SMILES IDX 46 55 64 56 47 57 50 58 63 59 81 60 48 61 49 62 62 64 82 65
REMARK SMILES IDX 51 66 36 67 37 68 45 69 38 70 44 71 39 72 40 73 41 74 42 75
REMARK SMILES IDX 43 76 66 77 67 78 75 79 68 80 74 81 69 82 70 83 71 84 72 85
REMARK SMILES IDX 73 86 52 87 53 88 61 89 54 90 60 91 55 92 56 93 57 94 58 95
REMARK SMILES IDX 59 96
REMARK H PARENT 15 14 80 52 50 63
REMARK Flexibility Score: inf
ROOT
ATOM      1  C   UNL     1       6.729  -0.745 -14.538  1.00  0.00     0.275 C 
ENDROOT
BRANCH   1   2
ATOM      2  O   UNL     1       6.208  -0.546 -13.207  1.00  0.00    -0.458 OA
BRANCH   2   3
ATOM      3  C   UNL     1       6.061   0.747 -12.842  1.00  0.00     0.338 C 
ATOM      4  O   UNL     1       6.364   1.730 -13.500  1.00  0.00    -0.246 OA
BRANCH   3   5
ATOM      5  C   UNL     1       5.426   0.872 -11.515  1.00  0.00     0.062 A 
ATOM      6  N   UNL     1       2.901   2.924  -7.641  1.00  0.00    -0.282 N 
ATOM      7  C   UNL     1       2.464   3.584  -8.803  1.00  0.00     0.180 A 
ATOM      8  C   UNL     1       3.960   1.994  -7.679  1.00  0.00     0.262 A 
ATOM      9  S   UNL     1       1.435   4.908  -8.918  1.00  0.00    -0.040 S 
ATOM     10  N   UNL     1       2.924   3.105  -9.996  1.00  0.00    -0.332 N 
ATOM     11  C   UNL     1       4.452   1.554  -8.993  1.00  0.00     0.064 A 
ATOM     12  O   UNL     1       4.562   1.538  -6.710  1.00  0.00    -0.269 OA
ATOM     13  C   UNL     1       3.890   2.116 -10.117  1.00  0.00     0.054 A 
ATOM     14  H   UNL     1       2.548   3.486 -10.822  1.00  0.00     0.169 HD
ATOM     15  C   UNL     1       5.491   0.616  -9.122  1.00  0.00     0.017 A 
ATOM     16  C   UNL     1       4.351   1.757 -11.373  1.00  0.00     0.042 A 
ATOM     17  C   UNL     1       5.989   0.280 -10.386  1.00  0.00     0.016 A 
BRANCH   6  18
ATOM     18  C   UNL     1       2.201   3.199  -6.342  1.00  0.00     0.097 C 
ATOM     19  C   UNL     1       0.300   1.245  -3.407  1.00  0.00     0.410 C 
ATOM     20  O   UNL     1      -0.576   0.550  -3.902  1.00  0.00    -0.224 OA
ATOM     21  N   UNL     1       0.738   2.425  -3.981  1.00  0.00    -0.308 N 
ATOM     22  C   UNL     1       0.013   2.952  -5.117  1.00  0.00     0.125 C 
ATOM     23  C   UNL     1       2.067   2.984  -3.784  1.00  0.00     0.125 C 
ATOM     24  C   UNL     1       0.768   2.610  -6.389  1.00  0.00     0.047 C 
ATOM     25  C   UNL     1       2.901   2.723  -5.041  1.00  0.00     0.047 C 
BRANCH  19  26
ATOM     26  O   UNL     1       0.910   0.982  -2.222  1.00  0.00    -0.444 OA
BRANCH  26  27
ATOM     27  C   UNL     1       0.461  -0.140  -1.415  1.00  0.00     0.106 C 
ATOM     28  C   UNL     1       1.123   0.068  -0.045  1.00  0.00     0.056 C 
ATOM     29  C   UNL     1       0.959  -1.457  -2.018  1.00  0.00     0.056 C 
ATOM     30  C   UNL     1      -1.062  -0.151  -1.200  1.00  0.00     0.056 C 
ENDBRANCH  26  27
ENDBRANCH  19  26
ENDBRANCH   6  18
ENDBRANCH   3   5
ENDBRANCH   2   3
ENDBRANCH   1   2
BRANCH   1  31
ATOM     31  C   UNL     1       5.616  -1.025 -15.552  1.00  0.00     0.275 C 
BRANCH  31  32
ATOM     32  O   UNL     1       4.871   0.165 -15.873  1.00  0.00    -0.458 OA
BRANCH  32  33
ATOM     33  C   UNL     1       3.743   0.340 -15.152  1.00  0.00     0.338 C 
ATOM     34  O   UNL     1       3.302  -0.390 -14.278  1.00  0.00    -0.246 OA
BRANCH  33  35
ATOM     35  C   UNL     1       3.123   1.630 -15.477  1.00  0.00     0.060 A 
ATOM     36  C   UNL     1       2.092   1.728 -16.404  1.00  0.00     0.016 A 
ATOM     37  C   UNL     1       3.451   2.725 -14.686  1.00  0.00     0.016 A 
ATOM     38  C   UNL     1       1.403   2.941 -16.523  1.00  0.00     0.010 A 
ATOM     39  C   UNL     1       2.650   3.857 -14.678  1.00  0.00     0.010 A 
ATOM     40  C   UNL     1       1.641   4.007 -15.630  1.00  0.00    -0.014 A 
BRANCH  40  41
ATOM     41  C   UNL     1       0.869   5.281 -15.696  1.00  0.00     0.031 A 
ATOM     42  C   UNL     1       1.579   6.612 -15.817  1.00  0.00     0.074 A 
ATOM     43  C   UNL     1      -0.479   5.247 -15.618  1.00  0.00     0.049 A 
ATOM     44  N   UNL     1       1.063   7.811 -15.921  1.00  0.00    -0.248 NA
ATOM     45  C   UNL     1       3.054   6.611 -15.778  1.00  0.00     0.031 C 
ATOM     46  C   UNL     1      -1.280   4.039 -15.405  1.00  0.00     0.029 A 
ATOM     47  N   UNL     1      -1.416   6.245 -15.737  1.00  0.00    -0.354 N 
ATOM     48  C   UNL     1       2.142   8.690 -15.942  1.00  0.00     0.074 A 
ATOM     49  C   UNL     1       3.335   7.905 -15.747  1.00  0.00     0.031 C 
ATOM     50  C   UNL     1      -2.581   4.349 -15.506  1.00  0.00     0.029 A 
ATOM     51  C   UNL     1      -2.714   5.785 -15.732  1.00  0.00     0.049 A 
ATOM     52  H   UNL     1      -1.182   7.197 -15.818  1.00  0.00     0.167 HD
ATOM     53  C   UNL     1       2.147  10.025 -16.163  1.00  0.00     0.031 A 
ATOM     54  C   UNL     1      -3.883   6.435 -15.911  1.00  0.00     0.031 A 
ATOM     55  C   UNL     1       0.958  10.791 -16.419  1.00  0.00     0.049 A 
ATOM     56  C   UNL     1      -3.856   7.913 -16.188  1.00  0.00     0.074 A 
ATOM     57  C   UNL     1       0.860  12.134 -16.737  1.00  0.00     0.029 A 
ATOM     58  N   UNL     1      -0.332  10.285 -16.404  1.00  0.00    -0.354 N 
ATOM     59  N   UNL     1      -2.817   8.707 -16.297  1.00  0.00    -0.248 NA
ATOM     60  C   UNL     1      -5.149   8.583 -16.378  1.00  0.00     0.031 C 
ATOM     61  C   UNL     1      -0.493  12.454 -16.845  1.00  0.00     0.029 A 
ATOM     62  C   UNL     1      -1.236  11.296 -16.677  1.00  0.00     0.049 A 
ATOM     63  H   UNL     1      -0.570   9.346 -16.225  1.00  0.00     0.167 HD
ATOM     64  C   UNL     1      -3.330   9.968 -16.580  1.00  0.00     0.074 A 
ATOM     65  C   UNL     1      -4.770   9.825 -16.654  1.00  0.00     0.031 C 
ATOM     66  C   UNL     1      -2.668  11.137 -16.753  1.00  0.00     0.031 A 
BRANCH  53  67
ATOM     67  C   UNL     1       3.474  10.745 -16.204  1.00  0.00    -0.014 A 
ATOM     68  C   UNL     1       3.754  11.764 -15.275  1.00  0.00     0.010 A 
ATOM     69  C   UNL     1       4.393  10.502 -17.243  1.00  0.00     0.010 A 
ATOM     70  C   UNL     1       4.903  12.550 -15.405  1.00  0.00     0.020 A 
ATOM     71  C   UNL     1       5.561  11.261 -17.355  1.00  0.00     0.020 A 
ATOM     72  C   UNL     1       5.794  12.300 -16.452  1.00  0.00     0.054 A 
BRANCH  72  73
ATOM     73  S   UNL     1       7.254  13.360 -16.635  1.00  0.00     0.124 S 
ATOM     74  O   UNL     1       6.672  14.603 -17.131  1.00  0.00    -0.237 OA
ATOM     75  O   UNL     1       7.786  13.409 -15.275  1.00  0.00    -0.237 OA
ATOM     76  O   UNL     1       8.087  12.634 -17.593  1.00  0.00    -0.744 OA
ENDBRANCH  72  73
ENDBRANCH  53  67
BRANCH  54  77
ATOM     77  C   UNL     1      -5.155   5.657 -15.912  1.00  0.00    -0.014 A 
ATOM     78  C   UNL     1      -5.605   5.013 -14.744  1.00  0.00     0.010 A 
ATOM     79  C   UNL     1      -5.867   5.464 -17.110  1.00  0.00     0.010 A 
ATOM     80  C   UNL     1      -6.695   4.138 -14.787  1.00  0.00     0.020 A 
ATOM     81  C   UNL     1      -6.980   4.616 -17.150  1.00  0.00     0.020 A 
ATOM     82  C   UNL     1      -7.364   3.932 -15.996  1.00  0.00     0.054 A 
BRANCH  82  83
ATOM     83  S   UNL     1      -8.724   2.731 -16.044  1.00  0.00     0.124 S 
ATOM     84  O   UNL     1      -8.004   1.462 -15.970  1.00  0.00    -0.237 OA
ATOM     85  O   UNL     1      -9.503   3.083 -14.861  1.00  0.00    -0.237 OA
ATOM     86  O   UNL     1      -9.377   3.003 -17.322  1.00  0.00    -0.744 OA
ENDBRANCH  82  83
ENDBRANCH  54  77
BRANCH  66  87
ATOM     87  C   UNL     1      -3.471  12.382 -17.030  1.00  0.00    -0.014 A 
ATOM     88  C   UNL     1      -3.326  13.046 -18.262  1.00  0.00     0.010 A 
ATOM     89  C   UNL     1      -4.234  12.981 -16.012  1.00  0.00     0.010 A 
ATOM     90  C   UNL     1      -3.883  14.312 -18.454  1.00  0.00     0.020 A 
ATOM     91  C   UNL     1      -4.823  14.232 -16.214  1.00  0.00     0.020 A 
ATOM     92  C   UNL     1      -4.617  14.902 -17.422  1.00  0.00     0.054 A 
BRANCH  92  93
ATOM     93  S   UNL     1      -5.278  16.573 -17.668  1.00  0.00     0.124 S 
ATOM     94  O   UNL     1      -4.076  17.396 -17.579  1.00  0.00    -0.237 OA
ATOM     95  O   UNL     1      -5.884  16.484 -18.995  1.00  0.00    -0.237 OA
ATOM     96  O   UNL     1      -6.226  16.732 -16.568  1.00  0.00    -0.744 OA
ENDBRANCH  92  93
ENDBRANCH  66  87
ENDBRANCH  40  41
ENDBRANCH  33  35
ENDBRANCH  32  33
ENDBRANCH  31  32
ENDBRANCH   1  31
TORSDOF 17
