REMARK SMILES C[C@H](CC(=O)NC[C@@]1(C)CCCO1)CC(=O)OCCOC(=O)c1ccc(-c2c3nc(c(-c4ccc(S(=O)(=O)[O-])cc4)c4ccc([nH]4)c(-c4ccc(S(=O)(=O)[O-])cc4)c4nc(c(-c5ccc(S(=O)(=O)[O-])cc5)c5ccc2[nH]5)C=C4)C=C3)cc1
REMARK SMILES IDX 18 1 17 2 15 3 16 4 14 5 2 6 1 7 3 8 4 9 5 10 6 11 7 13 8 14
REMARK SMILES IDX 9 15 10 16 13 17 11 18 12 19 19 20 20 21 21 22 22 23 23 24
REMARK SMILES IDX 24 25 82 26 25 27 81 28 26 29 27 30 28 31 75 32 29 33 80 34
REMARK SMILES IDX 74 35 76 36 30 37 79 38 73 39 72 40 31 42 61 43 42 44 60 45
REMARK SMILES IDX 43 46 46 47 59 48 77 49 44 50 45 51 58 53 78 54 47 55 32 56
REMARK SMILES IDX 33 57 41 58 34 59 40 60 35 61 36 62 37 63 38 64 39 65 62 66
REMARK SMILES IDX 63 67 71 68 64 69 70 70 65 71 66 72 67 73 68 74 69 75 48 76
REMARK SMILES IDX 49 77 57 78 50 79 56 80 51 81 52 82 53 83 54 84 55 85
REMARK H PARENT 6 12 76 41 46 52
REMARK Flexibility Score: inf
ROOT
ATOM      1  C   UNL     1      -1.766   1.321   2.568  1.00  0.00     0.274 C 
ENDROOT
BRANCH   1   2
ATOM      2  O   UNL     1      -1.064   0.811   1.421  1.00  0.00    -0.462 OA
BRANCH   2   3
ATOM      3  C   UNL     1      -1.786   0.683   0.279  1.00  0.00     0.306 C 
ATOM      4  O   UNL     1      -3.005   0.789   0.206  1.00  0.00    -0.252 OA
BRANCH   3   5
ATOM      5  C   UNL     1      -0.926   0.395  -0.935  1.00  0.00     0.126 C 
BRANCH   5   6
ATOM      6  C   UNL     1       0.591   0.522  -0.719  1.00  0.00     0.006 C 
ATOM      7  C   UNL     1       1.306   0.947  -2.002  1.00  0.00     0.009 C 
BRANCH   6   8
ATOM      8  C   UNL     1       1.154  -0.749  -0.055  1.00  0.00     0.104 C 
BRANCH   8   9
ATOM      9  C   UNL     1       2.070  -1.615  -0.892  1.00  0.00     0.220 C 
ATOM     10  O   UNL     1       3.294  -1.555  -0.752  1.00  0.00    -0.275 OA
ATOM     11  N   UNL     1       1.588  -2.499  -1.800  1.00  0.00    -0.353 N 
ATOM     12  H   UNL     1       2.290  -2.972  -2.302  1.00  0.00     0.163 HD
BRANCH  11  13
ATOM     13  C   UNL     1       0.234  -2.887  -2.180  1.00  0.00     0.151 C 
BRANCH  13  14
ATOM     14  C   UNL     1      -0.170  -2.533  -3.644  1.00  0.00     0.083 C 
ATOM     15  C   UNL     1       1.041  -2.302  -4.561  1.00  0.00     0.044 C 
ATOM     16  C   UNL     1      -1.101  -3.604  -4.223  1.00  0.00     0.039 C 
ATOM     17  O   UNL     1      -0.959  -1.323  -3.668  1.00  0.00    -0.373 OA
ATOM     18  C   UNL     1      -1.913  -2.840  -5.239  1.00  0.00     0.031 C 
ATOM     19  C   UNL     1      -2.067  -1.489  -4.573  1.00  0.00     0.161 C 
ENDBRANCH  13  14
ENDBRANCH  11  13
ENDBRANCH   8   9
ENDBRANCH   6   8
ENDBRANCH   5   6
ENDBRANCH   3   5
ENDBRANCH   2   3
ENDBRANCH   1   2
BRANCH   1  20
ATOM     20  C   UNL     1      -1.451   2.805   2.745  1.00  0.00     0.275 C 
BRANCH  20  21
ATOM     21  O   UNL     1      -1.942   3.548   1.615  1.00  0.00    -0.458 OA
BRANCH  21  22
ATOM     22  C   UNL     1      -1.002   4.099   0.811  1.00  0.00     0.338 C 
ATOM     23  O   UNL     1       0.206   4.086   0.957  1.00  0.00    -0.246 OA
BRANCH  22  24
ATOM     24  C   UNL     1      -1.676   4.737  -0.329  1.00  0.00     0.060 A 
ATOM     25  C   UNL     1      -2.211   3.943  -1.343  1.00  0.00     0.016 A 
ATOM     26  C   UNL     1      -1.734   6.125  -0.416  1.00  0.00     0.016 A 
ATOM     27  C   UNL     1      -2.784   4.530  -2.466  1.00  0.00     0.010 A 
ATOM     28  C   UNL     1      -2.379   6.715  -1.507  1.00  0.00     0.010 A 
ATOM     29  C   UNL     1      -2.909   5.922  -2.542  1.00  0.00    -0.014 A 
BRANCH  29  30
ATOM     30  C   UNL     1      -3.634   6.551  -3.674  1.00  0.00     0.031 A 
ATOM     31  C   UNL     1      -2.918   7.485  -4.606  1.00  0.00     0.074 A 
ATOM     32  C   UNL     1      -4.951   6.311  -3.833  1.00  0.00     0.049 A 
ATOM     33  N   UNL     1      -3.416   8.279  -5.518  1.00  0.00    -0.248 NA
ATOM     34  C   UNL     1      -1.452   7.542  -4.492  1.00  0.00     0.031 C 
ATOM     35  C   UNL     1      -5.751   5.389  -3.020  1.00  0.00     0.029 A 
ATOM     36  N   UNL     1      -5.855   6.832  -4.725  1.00  0.00    -0.354 N 
ATOM     37  C   UNL     1      -2.333   8.962  -6.058  1.00  0.00     0.074 A 
ATOM     38  C   UNL     1      -1.150   8.488  -5.371  1.00  0.00     0.031 C 
ATOM     39  C   UNL     1      -7.020   5.405  -3.455  1.00  0.00     0.029 A 
ATOM     40  C   UNL     1      -7.142   6.394  -4.519  1.00  0.00     0.049 A 
ATOM     41  H   UNL     1      -5.606   7.458  -5.443  1.00  0.00     0.167 HD
ATOM     42  C   UNL     1      -2.331   9.903  -7.032  1.00  0.00     0.031 A 
ATOM     43  C   UNL     1      -8.303   6.782  -5.081  1.00  0.00     0.031 A 
ATOM     44  C   UNL     1      -3.514  10.355  -7.717  1.00  0.00     0.049 A 
ATOM     45  C   UNL     1      -8.284   7.879  -6.106  1.00  0.00     0.074 A 
ATOM     46  C   UNL     1      -3.615  11.286  -8.736  1.00  0.00     0.029 A 
ATOM     47  N   UNL     1      -4.800   9.911  -7.451  1.00  0.00    -0.354 N 
ATOM     48  N   UNL     1      -7.254   8.528  -6.594  1.00  0.00    -0.248 NA
ATOM     49  C   UNL     1      -9.583   8.310  -6.640  1.00  0.00     0.031 C 
ATOM     50  C   UNL     1      -4.970  11.440  -9.053  1.00  0.00     0.029 A 
ATOM     51  C   UNL     1      -5.706  10.570  -8.264  1.00  0.00     0.049 A 
ATOM     52  H   UNL     1      -5.035   9.227  -6.783  1.00  0.00     0.167 HD
ATOM     53  C   UNL     1      -7.780   9.445  -7.495  1.00  0.00     0.074 A 
ATOM     54  C   UNL     1      -9.217   9.251  -7.500  1.00  0.00     0.031 C 
ATOM     55  C   UNL     1      -7.133  10.370  -8.244  1.00  0.00     0.031 A 
BRANCH  42  56
ATOM     56  C   UNL     1      -1.015  10.543  -7.382  1.00  0.00    -0.014 A 
ATOM     57  C   UNL     1      -0.040   9.855  -8.126  1.00  0.00     0.010 A 
ATOM     58  C   UNL     1      -0.768  11.873  -6.993  1.00  0.00     0.010 A 
ATOM     59  C   UNL     1       1.172  10.475  -8.445  1.00  0.00     0.020 A 
ATOM     60  C   UNL     1       0.434  12.503  -7.329  1.00  0.00     0.020 A 
ATOM     61  C   UNL     1       1.403  11.793  -8.040  1.00  0.00     0.054 A 
BRANCH  61  62
ATOM     62  S   UNL     1       2.976  12.582  -8.484  1.00  0.00     0.124 S 
ATOM     63  O   UNL     1       3.905  11.944  -7.554  1.00  0.00    -0.237 OA
ATOM     64  O   UNL     1       3.138  12.210  -9.887  1.00  0.00    -0.237 OA
ATOM     65  O   UNL     1       2.732  14.002  -8.244  1.00  0.00    -0.744 OA
ENDBRANCH  61  62
ENDBRANCH  42  56
BRANCH  43  66
ATOM     66  C   UNL     1      -9.582   6.174  -4.626  1.00  0.00    -0.014 A 
ATOM     67  C   UNL     1     -10.293   5.295  -5.460  1.00  0.00     0.010 A 
ATOM     68  C   UNL     1     -10.079   6.447  -3.337  1.00  0.00     0.010 A 
ATOM     69  C   UNL     1     -11.478   4.702  -5.015  1.00  0.00     0.020 A 
ATOM     70  C   UNL     1     -11.248   5.836  -2.879  1.00  0.00     0.020 A 
ATOM     71  C   UNL     1     -11.947   4.973  -3.726  1.00  0.00     0.054 A 
BRANCH  71  72
ATOM     72  S   UNL     1     -13.448   4.139  -3.141  1.00  0.00     0.124 S 
ATOM     73  O   UNL     1     -14.498   4.899  -3.811  1.00  0.00    -0.237 OA
ATOM     74  O   UNL     1     -13.257   2.770  -3.615  1.00  0.00    -0.237 OA
ATOM     75  O   UNL     1     -13.384   4.300  -1.690  1.00  0.00    -0.744 OA
ENDBRANCH  71  72
ENDBRANCH  43  66
BRANCH  55  76
ATOM     76  C   UNL     1      -7.973  11.239  -9.137  1.00  0.00    -0.014 A 
ATOM     77  C   UNL     1      -8.724  12.302  -8.606  1.00  0.00     0.010 A 
ATOM     78  C   UNL     1      -7.967  11.025 -10.527  1.00  0.00     0.010 A 
ATOM     79  C   UNL     1      -9.469  13.128  -9.450  1.00  0.00     0.020 A 
ATOM     80  C   UNL     1      -8.694  11.863 -11.376  1.00  0.00     0.020 A 
ATOM     81  C   UNL     1      -9.449  12.904 -10.830  1.00  0.00     0.054 A 
BRANCH  81  82
ATOM     82  S   UNL     1     -10.379  14.024 -11.911  1.00  0.00     0.124 S 
ATOM     83  O   UNL     1     -11.752  13.576 -11.704  1.00  0.00    -0.237 OA
ATOM     84  O   UNL     1     -10.058  15.341 -11.364  1.00  0.00    -0.237 OA
ATOM     85  O   UNL     1      -9.829  13.758 -13.239  1.00  0.00    -0.744 OA
ENDBRANCH  81  82
ENDBRANCH  55  76
ENDBRANCH  29  30
ENDBRANCH  22  24
ENDBRANCH  21  22
ENDBRANCH  20  21
ENDBRANCH   1  20
TORSDOF 19
