REMARK SMILES Cn1cc(/C=C/C(=O)N(CC(=O)OCCOC(=O)c2ccc(-c3c4nc(c(-c5ccc(S(=O)(=O)[O-])cc5)c5ccc([nH]5)c(-c5ccc(S(=O)(=O)[O-])cc5)c5nc(c(-c6ccc(S(=O)(=O)[O-])cc6)c6ccc3[nH]6)C=C5)C=C4)cc2)C(C)(C)C)cn1
REMARK SMILES IDX 14 1 13 2 11 3 12 4 10 5 9 6 7 7 8 8 6 9 5 10 4 11 1 12 2 13
REMARK SMILES IDX 3 14 84 15 83 16 79 17 80 18 81 19 82 20 15 21 16 22 17 23
REMARK SMILES IDX 18 24 19 25 20 26 78 27 21 28 77 29 22 30 23 31 24 32 71 33
REMARK SMILES IDX 25 34 76 35 70 36 72 37 26 38 75 39 69 40 68 41 27 43 57 44
REMARK SMILES IDX 38 45 56 46 39 47 42 48 55 49 73 50 40 51 41 52 54 54 74 55
REMARK SMILES IDX 43 56 28 57 29 58 37 59 30 60 36 61 31 62 32 63 33 64 34 65
REMARK SMILES IDX 35 66 58 67 59 68 67 69 60 70 66 71 61 72 62 73 63 74 64 75
REMARK SMILES IDX 65 76 44 77 45 78 53 79 46 80 52 81 47 82 48 83 49 84 50 85
REMARK SMILES IDX 51 86
REMARK H PARENT 72 42 42 53
REMARK Flexibility Score: inf
ROOT
ATOM      1  C   UNL     1       3.405  -4.708  -3.425  1.00  0.00     0.274 C 
ENDROOT
BRANCH   1   2
ATOM      2  O   UNL     1       4.044  -4.128  -2.269  1.00  0.00    -0.461 OA
BRANCH   2   3
ATOM      3  C   UNL     1       3.332  -4.198  -1.110  1.00  0.00     0.325 C 
ATOM      4  O   UNL     1       2.211  -4.688  -1.015  1.00  0.00    -0.250 OA
BRANCH   3   5
ATOM      5  C   UNL     1       4.081  -3.648   0.108  1.00  0.00     0.243 C 
BRANCH   5   6
ATOM      6  N   UNL     1       5.255  -2.807  -0.184  1.00  0.00    -0.323 N 
BRANCH   6   7
ATOM      7  C   UNL     1       5.105  -1.452  -0.499  1.00  0.00     0.247 C 
ATOM      8  O   UNL     1       6.020  -0.725  -0.883  1.00  0.00    -0.270 OA
BRANCH   7   9
ATOM      9  C   UNL     1       3.818  -0.763  -0.200  1.00  0.00     0.072 C 
ATOM     10  C   UNL     1       2.619  -1.016  -0.746  1.00  0.00     0.017 C 
BRANCH  10  11
ATOM     11  C   UNL     1       1.425  -0.313  -0.422  1.00  0.00     0.013 A 
ATOM     12  C   UNL     1      -2.114   0.101   0.085  1.00  0.00     0.173 C 
ATOM     13  N   UNL     1      -0.678   0.164  -0.051  1.00  0.00    -0.275 N 
ATOM     14  C   UNL     1       0.162  -0.858  -0.393  1.00  0.00     0.116 A 
ATOM     15  N   UNL     1      -0.046   1.339   0.136  1.00  0.00    -0.181 NA
ATOM     16  C   UNL     1       1.239   1.041  -0.077  1.00  0.00     0.143 A 
ENDBRANCH  10  11
ENDBRANCH   7   9
ENDBRANCH   6   7
BRANCH   6  17
ATOM     17  C   UNL     1       6.648  -3.395  -0.101  1.00  0.00     0.035 C 
ATOM     18  C   UNL     1       7.381  -3.311  -1.456  1.00  0.00     0.034 C 
ATOM     19  C   UNL     1       7.458  -2.643   0.982  1.00  0.00     0.034 C 
ATOM     20  C   UNL     1       6.689  -4.888   0.311  1.00  0.00     0.034 C 
ENDBRANCH   6  17
ENDBRANCH   5   6
ENDBRANCH   3   5
ENDBRANCH   2   3
ENDBRANCH   1   2
BRANCH   1  21
ATOM     21  C   UNL     1       3.891  -6.137  -3.665  1.00  0.00     0.275 C 
BRANCH  21  22
ATOM     22  O   UNL     1       3.769  -6.899  -2.452  1.00  0.00    -0.458 OA
BRANCH  22  23
ATOM     23  C   UNL     1       4.872  -7.578  -2.067  1.00  0.00     0.338 C 
ATOM     24  O   UNL     1       5.907  -7.715  -2.711  1.00  0.00    -0.246 OA
BRANCH  23  25
ATOM     25  C   UNL     1       4.696  -8.130  -0.706  1.00  0.00     0.060 A 
ATOM     26  C   UNL     1       3.931  -7.466   0.257  1.00  0.00     0.016 A 
ATOM     27  C   UNL     1       5.389  -9.289  -0.350  1.00  0.00     0.016 A 
ATOM     28  C   UNL     1       3.917  -7.908   1.578  1.00  0.00     0.010 A 
ATOM     29  C   UNL     1       5.289  -9.790   0.951  1.00  0.00     0.010 A 
ATOM     30  C   UNL     1       4.569  -9.096   1.937  1.00  0.00    -0.014 A 
BRANCH  30  31
ATOM     31  C   UNL     1       4.478  -9.628   3.325  1.00  0.00     0.031 A 
ATOM     32  C   UNL     1       5.723  -9.883   4.134  1.00  0.00     0.074 A 
ATOM     33  C   UNL     1       3.272  -9.918   3.856  1.00  0.00     0.049 A 
ATOM     34  N   UNL     1       5.851 -10.514   5.273  1.00  0.00    -0.248 NA
ATOM     35  C   UNL     1       6.991  -9.376   3.584  1.00  0.00     0.031 C 
ATOM     36  C   UNL     1       1.978  -9.703   3.201  1.00  0.00     0.029 A 
ATOM     37  N   UNL     1       2.938 -10.459   5.073  1.00  0.00    -0.354 N 
ATOM     38  C   UNL     1       7.213 -10.533   5.549  1.00  0.00     0.074 A 
ATOM     39  C   UNL     1       7.872  -9.845   4.458  1.00  0.00     0.031 C 
ATOM     40  C   UNL     1       0.995 -10.073   4.034  1.00  0.00     0.029 A 
ATOM     41  C   UNL     1       1.584 -10.631   5.245  1.00  0.00     0.049 A 
ATOM     42  H   UNL     1       3.603 -10.701   5.757  1.00  0.00     0.167 HD
ATOM     43  C   UNL     1       7.857 -11.080   6.609  1.00  0.00     0.031 A 
ATOM     44  C   UNL     1       0.887 -11.213   6.239  1.00  0.00     0.031 A 
ATOM     45  C   UNL     1       7.201 -11.733   7.711  1.00  0.00     0.049 A 
ATOM     46  C   UNL     1       1.622 -11.826   7.393  1.00  0.00     0.074 A 
ATOM     47  C   UNL     1       7.771 -12.297   8.840  1.00  0.00     0.029 A 
ATOM     48  N   UNL     1       5.830 -11.900   7.831  1.00  0.00    -0.354 N 
ATOM     49  N   UNL     1       2.914 -11.874   7.611  1.00  0.00    -0.248 NA
ATOM     50  C   UNL     1       0.806 -12.479   8.424  1.00  0.00     0.031 C 
ATOM     51  C   UNL     1       6.746 -12.836   9.627  1.00  0.00     0.029 A 
ATOM     52  C   UNL     1       5.536 -12.570   9.008  1.00  0.00     0.049 A 
ATOM     53  H   UNL     1       5.164 -11.588   7.177  1.00  0.00     0.167 HD
ATOM     54  C   UNL     1       3.066 -12.565   8.807  1.00  0.00     0.074 A 
ATOM     55  C   UNL     1       1.735 -12.892   9.276  1.00  0.00     0.031 C 
ATOM     56  C   UNL     1       4.208 -12.904   9.453  1.00  0.00     0.031 A 
BRANCH  43  57
ATOM     57  C   UNL     1       9.361 -11.030   6.610  1.00  0.00    -0.014 A 
ATOM     58  C   UNL     1      10.055  -9.841   6.898  1.00  0.00     0.010 A 
ATOM     59  C   UNL     1      10.091 -12.207   6.363  1.00  0.00     0.010 A 
ATOM     60  C   UNL     1      11.453  -9.825   6.906  1.00  0.00     0.020 A 
ATOM     61  C   UNL     1      11.488 -12.199   6.391  1.00  0.00     0.020 A 
ATOM     62  C   UNL     1      12.161 -11.003   6.646  1.00  0.00     0.054 A 
BRANCH  62  63
ATOM     63  S   UNL     1      13.975 -10.963   6.684  1.00  0.00     0.124 S 
ATOM     64  O   UNL     1      14.287 -10.343   5.398  1.00  0.00    -0.237 OA
ATOM     65  O   UNL     1      14.256 -10.143   7.860  1.00  0.00    -0.237 OA
ATOM     66  O   UNL     1      14.349 -12.370   6.806  1.00  0.00    -0.744 OA
ENDBRANCH  62  63
ENDBRANCH  43  57
BRANCH  44  67
ATOM     67  C   UNL     1      -0.595 -11.278   6.153  1.00  0.00    -0.014 A 
ATOM     68  C   UNL     1      -1.391 -10.454   6.966  1.00  0.00     0.010 A 
ATOM     69  C   UNL     1      -1.215 -12.131   5.221  1.00  0.00     0.010 A 
ATOM     70  C   UNL     1      -2.783 -10.479   6.846  1.00  0.00     0.020 A 
ATOM     71  C   UNL     1      -2.604 -12.140   5.081  1.00  0.00     0.020 A 
ATOM     72  C   UNL     1      -3.381 -11.317   5.900  1.00  0.00     0.054 A 
BRANCH  72  73
ATOM     73  S   UNL     1      -5.183 -11.270   5.692  1.00  0.00     0.124 S 
ATOM     74  O   UNL     1      -5.636 -12.118   6.788  1.00  0.00    -0.237 OA
ATOM     75  O   UNL     1      -5.483  -9.846   5.825  1.00  0.00    -0.237 OA
ATOM     76  O   UNL     1      -5.381 -11.814   4.350  1.00  0.00    -0.744 OA
ENDBRANCH  72  73
ENDBRANCH  44  67
BRANCH  56  77
ATOM     77  C   UNL     1       4.059 -13.659  10.744  1.00  0.00    -0.014 A 
ATOM     78  C   UNL     1       3.725 -15.024  10.746  1.00  0.00     0.010 A 
ATOM     79  C   UNL     1       4.271 -12.998  11.967  1.00  0.00     0.010 A 
ATOM     80  C   UNL     1       3.568 -15.709  11.954  1.00  0.00     0.020 A 
ATOM     81  C   UNL     1       4.133 -13.685  13.176  1.00  0.00     0.020 A 
ATOM     82  C   UNL     1       3.765 -15.032  13.162  1.00  0.00     0.054 A 
BRANCH  82  83
ATOM     83  S   UNL     1       3.572 -15.941  14.719  1.00  0.00     0.124 S 
ATOM     84  O   UNL     1       2.120 -15.979  14.870  1.00  0.00    -0.237 OA
ATOM     85  O   UNL     1       4.207 -17.224  14.427  1.00  0.00    -0.237 OA
ATOM     86  O   UNL     1       4.280 -15.111  15.692  1.00  0.00    -0.744 OA
ENDBRANCH  82  83
ENDBRANCH  56  77
ENDBRANCH  30  31
ENDBRANCH  23  25
ENDBRANCH  22  23
ENDBRANCH  21  22
ENDBRANCH   1  21
TORSDOF 19
