REMARK SMILES COc1cc([C@H]2CC(c3ccc(S(C)(=O)=O)cc3)=NN2c2ccc(C(=O)OCCOC(=O)c3ccc(-c4c5nc(c(-c6ccc(S(=O)(=O)[O-])cc6)c6ccc([nH]6)c(-c6ccc(S(=O)(=O)[O-])cc6)c6nc(c(-c7ccc(S(=O)(=O)[O-])cc7)c7ccc4[nH]7)C=C6)C=C5)cc3)cc2)cc(OC)c1OC
REMARK SMILES IDX 28 1 27 2 25 3 26 4 24 5 21 6 22 7 94 8 23 9 93 10 20 11
REMARK SMILES IDX 6 12 7 13 8 14 19 15 5 16 3 17 4 18 99 19 96 20 95 21 2 22
REMARK SMILES IDX 1 23 100 24 101 25 97 26 98 27 9 28 10 29 18 30 11 31 17 32
REMARK SMILES IDX 12 33 13 34 14 35 15 36 16 37 29 38 30 39 31 40 32 41 33 42
REMARK SMILES IDX 34 43 92 44 35 45 91 46 36 47 37 48 38 49 85 50 39 51 90 52
REMARK SMILES IDX 84 53 86 54 40 55 89 56 83 57 82 58 41 60 71 61 52 62 70 63
REMARK SMILES IDX 53 64 56 65 69 66 87 67 54 68 55 69 68 71 88 72 57 73 42 74
REMARK SMILES IDX 43 75 51 76 44 77 50 78 45 79 46 80 47 81 48 82 49 83 72 84
REMARK SMILES IDX 73 85 81 86 74 87 80 88 75 89 76 90 77 91 78 92 79 93 58 94
REMARK SMILES IDX 59 95 67 96 60 97 66 98 61 99 62 100 63 101 64 102 65 103
REMARK H PARENT 86 59 56 70
REMARK Flexibility Score: inf
ROOT
ATOM      1  C   UNL     1       0.710  -7.426  -5.921  1.00  0.00     0.275 C 
ENDROOT
BRANCH   1   2
ATOM      2  O   UNL     1       0.277  -6.075  -6.184  1.00  0.00    -0.458 OA
BRANCH   2   3
ATOM      3  C   UNL     1       1.159  -5.108  -5.832  1.00  0.00     0.338 C 
ATOM      4  O   UNL     1       2.256  -5.281  -5.322  1.00  0.00    -0.246 OA
BRANCH   3   5
ATOM      5  C   UNL     1       0.658  -3.765  -6.197  1.00  0.00     0.060 A 
ATOM      6  C   UNL     1      -0.128  -1.110  -6.708  1.00  0.00     0.060 A 
ATOM      7  C   UNL     1       1.136  -1.565  -7.088  1.00  0.00     0.029 A 
ATOM      8  C   UNL     1      -1.010  -2.018  -6.103  1.00  0.00     0.029 A 
ATOM      9  C   UNL     1       1.539  -2.862  -6.796  1.00  0.00     0.018 A 
ATOM     10  C   UNL     1      -0.633  -3.348  -5.868  1.00  0.00     0.018 A 
BRANCH   6  11
ATOM     11  N   UNL     1      -0.460   0.228  -6.884  1.00  0.00    -0.257 N 
ATOM     12  C   UNL     1      -0.582   1.171  -5.763  1.00  0.00     0.144 C 
ATOM     13  C   UNL     1      -0.495   2.538  -6.470  1.00  0.00     0.091 C 
ATOM     14  C   UNL     1      -0.207   2.102  -7.881  1.00  0.00     0.071 C 
ATOM     15  N   UNL     1      -0.183   0.822  -8.078  1.00  0.00    -0.176 NA
BRANCH  12  16
ATOM     16  C   UNL     1       0.455   0.954  -4.663  1.00  0.00    -0.015 A 
ATOM     17  C   UNL     1       1.060   0.026  -2.474  1.00  0.00     0.164 A 
ATOM     18  C   UNL     1       0.102   0.309  -3.467  1.00  0.00     0.056 A 
ATOM     19  C   UNL     1       2.415   0.361  -2.652  1.00  0.00     0.203 A 
ATOM     20  C   UNL     1       2.773   1.027  -3.843  1.00  0.00     0.164 A 
ATOM     21  C   UNL     1       1.801   1.302  -4.826  1.00  0.00     0.056 A 
BRANCH  17  22
ATOM     22  O   UNL     1       0.624  -0.704  -1.396  1.00  0.00    -0.493 OA
ATOM     23  C   UNL     1       0.019   0.124  -0.403  1.00  0.00     0.278 C 
ENDBRANCH  17  22
BRANCH  19  24
ATOM     24  O   UNL     1       3.437   0.072  -1.794  1.00  0.00    -0.490 OA
ATOM     25  C   UNL     1       3.207  -0.445  -0.498  1.00  0.00     0.278 C 
ENDBRANCH  19  24
BRANCH  20  26
ATOM     26  O   UNL     1       4.010   1.483  -4.232  1.00  0.00    -0.493 OA
ATOM     27  C   UNL     1       5.143   1.231  -3.413  1.00  0.00     0.278 C 
ENDBRANCH  20  26
ENDBRANCH  12  16
BRANCH  14  28
ATOM     28  C   UNL     1      -0.062   3.070  -8.984  1.00  0.00    -0.002 A 
ATOM     29  C   UNL     1      -0.753   2.816 -10.177  1.00  0.00     0.011 A 
ATOM     30  C   UNL     1       0.716   4.223  -8.853  1.00  0.00     0.011 A 
ATOM     31  C   UNL     1      -0.708   3.736 -11.226  1.00  0.00     0.021 A 
ATOM     32  C   UNL     1       0.785   5.136  -9.913  1.00  0.00     0.021 A 
ATOM     33  C   UNL     1       0.064   4.893 -11.088  1.00  0.00     0.067 A 
BRANCH  33  34
ATOM     34  S   UNL     1       0.046   6.102 -12.395  1.00  0.00     0.175 S 
ATOM     35  C   UNL     1       0.753   5.273 -13.794  1.00  0.00     0.163 C 
ATOM     36  O   UNL     1      -1.351   6.376 -12.681  1.00  0.00    -0.224 OA
ATOM     37  O   UNL     1       0.943   7.176 -12.011  1.00  0.00    -0.224 OA
ENDBRANCH  33  34
ENDBRANCH  14  28
ENDBRANCH   6  11
ENDBRANCH   3   5
ENDBRANCH   2   3
ENDBRANCH   1   2
BRANCH   1  38
ATOM     38  C   UNL     1       1.267  -8.106  -7.173  1.00  0.00     0.275 C 
BRANCH  38  39
ATOM     39  O   UNL     1       2.515  -7.512  -7.574  1.00  0.00    -0.458 OA
BRANCH  39  40
ATOM     40  C   UNL     1       2.445  -6.728  -8.674  1.00  0.00     0.338 C 
ATOM     41  O   UNL     1       1.464  -6.506  -9.363  1.00  0.00    -0.246 OA
BRANCH  40  42
ATOM     42  C   UNL     1       3.748  -6.100  -8.940  1.00  0.00     0.060 A 
ATOM     43  C   UNL     1       4.128  -5.014  -8.162  1.00  0.00     0.016 A 
ATOM     44  C   UNL     1       4.485  -6.440 -10.069  1.00  0.00     0.016 A 
ATOM     45  C   UNL     1       5.139  -4.162  -8.595  1.00  0.00     0.010 A 
ATOM     46  C   UNL     1       5.600  -5.666 -10.420  1.00  0.00     0.010 A 
ATOM     47  C   UNL     1       5.910  -4.484  -9.720  1.00  0.00    -0.014 A 
BRANCH  47  48
ATOM     48  C   UNL     1       7.014  -3.585 -10.172  1.00  0.00     0.031 A 
ATOM     49  C   UNL     1       7.050  -3.075 -11.594  1.00  0.00     0.074 A 
ATOM     50  C   UNL     1       7.992  -3.220  -9.315  1.00  0.00     0.049 A 
ATOM     51  N   UNL     1       8.017  -2.461 -12.229  1.00  0.00    -0.248 NA
ATOM     52  C   UNL     1       5.849  -3.301 -12.415  1.00  0.00     0.031 C 
ATOM     53  C   UNL     1       8.066  -3.585  -7.898  1.00  0.00     0.029 A 
ATOM     54  N   UNL     1       9.117  -2.453  -9.511  1.00  0.00    -0.354 N 
ATOM     55  C   UNL     1       7.568  -2.288 -13.535  1.00  0.00     0.074 A 
ATOM     56  C   UNL     1       6.244  -2.867 -13.604  1.00  0.00     0.031 C 
ATOM     57  C   UNL     1       9.144  -3.012  -7.346  1.00  0.00     0.029 A 
ATOM     58  C   UNL     1       9.902  -2.331  -8.387  1.00  0.00     0.049 A 
ATOM     59  H   UNL     1       9.340  -2.033 -10.372  1.00  0.00     0.167 HD
ATOM     60  C   UNL     1       8.202  -1.703 -14.581  1.00  0.00     0.031 A 
ATOM     61  C   UNL     1      11.121  -1.784  -8.212  1.00  0.00     0.031 A 
ATOM     62  C   UNL     1       9.503  -1.089 -14.493  1.00  0.00     0.049 A 
ATOM     63  C   UNL     1      11.826  -1.186  -9.395  1.00  0.00     0.074 A 
ATOM     64  C   UNL     1      10.226  -0.456 -15.490  1.00  0.00     0.029 A 
ATOM     65  N   UNL     1      10.270  -1.019 -13.339  1.00  0.00    -0.354 N 
ATOM     66  N   UNL     1      11.409  -1.078 -10.633  1.00  0.00    -0.248 NA
ATOM     67  C   UNL     1      13.173  -0.648  -9.160  1.00  0.00     0.031 C 
ATOM     68  C   UNL     1      11.450  -0.048 -14.951  1.00  0.00     0.029 A 
ATOM     69  C   UNL     1      11.465  -0.369 -13.604  1.00  0.00     0.049 A 
ATOM     70  H   UNL     1      10.005  -1.378 -12.461  1.00  0.00     0.167 HD
ATOM     71  C   UNL     1      12.433  -0.439 -11.322  1.00  0.00     0.074 A 
ATOM     72  C   UNL     1      13.482  -0.172 -10.359  1.00  0.00     0.031 C 
ATOM     73  C   UNL     1      12.497  -0.105 -12.633  1.00  0.00     0.031 A 
BRANCH  60  74
ATOM     74  C   UNL     1       7.521  -1.733 -15.927  1.00  0.00    -0.014 A 
ATOM     75  C   UNL     1       6.378  -0.959 -16.197  1.00  0.00     0.010 A 
ATOM     76  C   UNL     1       8.066  -2.522 -16.958  1.00  0.00     0.010 A 
ATOM     77  C   UNL     1       5.771  -1.006 -17.456  1.00  0.00     0.020 A 
ATOM     78  C   UNL     1       7.481  -2.549 -18.228  1.00  0.00     0.020 A 
ATOM     79  C   UNL     1       6.325  -1.804 -18.463  1.00  0.00     0.054 A 
BRANCH  79  80
ATOM     80  S   UNL     1       5.527  -1.830 -20.093  1.00  0.00     0.124 S 
ATOM     81  O   UNL     1       4.319  -2.605 -19.824  1.00  0.00    -0.237 OA
ATOM     82  O   UNL     1       5.313  -0.411 -20.368  1.00  0.00    -0.237 OA
ATOM     83  O   UNL     1       6.510  -2.486 -20.951  1.00  0.00    -0.744 OA
ENDBRANCH  79  80
ENDBRANCH  60  74
BRANCH  61  84
ATOM     84  C   UNL     1      11.770  -1.833  -6.872  1.00  0.00    -0.014 A 
ATOM     85  C   UNL     1      11.972  -0.657  -6.129  1.00  0.00     0.010 A 
ATOM     86  C   UNL     1      12.166  -3.066  -6.318  1.00  0.00     0.010 A 
ATOM     87  C   UNL     1      12.565  -0.713  -4.864  1.00  0.00     0.020 A 
ATOM     88  C   UNL     1      12.727  -3.129  -5.041  1.00  0.00     0.020 A 
ATOM     89  C   UNL     1      12.935  -1.949  -4.326  1.00  0.00     0.054 A 
BRANCH  89  90
ATOM     90  S   UNL     1      13.648  -2.002  -2.658  1.00  0.00     0.124 S 
ATOM     91  O   UNL     1      14.989  -1.473  -2.886  1.00  0.00    -0.237 OA
ATOM     92  O   UNL     1      12.747  -1.137  -1.901  1.00  0.00    -0.237 OA
ATOM     93  O   UNL     1      13.585  -3.417  -2.303  1.00  0.00    -0.744 OA
ENDBRANCH  89  90
ENDBRANCH  61  84
BRANCH  73  94
ATOM     94  C   UNL     1      13.723   0.633 -13.099  1.00  0.00    -0.014 A 
ATOM     95  C   UNL     1      14.962  -0.018 -13.233  1.00  0.00     0.010 A 
ATOM     96  C   UNL     1      13.616   1.989 -13.457  1.00  0.00     0.010 A 
ATOM     97  C   UNL     1      16.080   0.684 -13.694  1.00  0.00     0.020 A 
ATOM     98  C   UNL     1      14.724   2.686 -13.944  1.00  0.00     0.020 A 
ATOM     99  C   UNL     1      15.953   2.031 -14.048  1.00  0.00     0.054 A 
BRANCH  99 100
ATOM    100  S   UNL     1      17.405   2.906 -14.692  1.00  0.00     0.124 S 
ATOM    101  O   UNL     1      18.212   3.083 -13.488  1.00  0.00    -0.237 OA
ATOM    102  O   UNL     1      17.938   1.963 -15.673  1.00  0.00    -0.237 OA
ATOM    103  O   UNL     1      16.849   4.134 -15.255  1.00  0.00    -0.744 OA
ENDBRANCH  99 100
ENDBRANCH  73  94
ENDBRANCH  47  48
ENDBRANCH  40  42
ENDBRANCH  39  40
ENDBRANCH  38  39
ENDBRANCH   1  38
TORSDOF 21
