REMARK SMILES Nc1ncc(C(=O)OCCOC(=O)c2ccc(-c3c4nc(c(-c5ccc(S(=O)(=O)[O-])cc5)c5ccc([nH]5)c(-c5ccc(S(=O)(=O)[O-])cc5)c5nc(c(-c6ccc(S(=O)(=O)[O-])cc6)c6ccc3[nH]6)C=C5)C=C4)cc2)c(-c2ccccc2)n1
REMARK SMILES IDX 10 1 9 2 8 3 6 4 7 5 5 6 2 7 3 8 81 9 4 10 74 11 1 12 75 15
REMARK SMILES IDX 76 16 80 17 77 18 79 19 78 20 11 21 12 22 13 23 14 24 15 25
REMARK SMILES IDX 73 26 16 27 72 28 17 29 18 30 19 31 66 32 20 33 71 34 65 35
REMARK SMILES IDX 67 36 21 37 70 38 64 39 63 40 22 42 52 43 33 44 51 45 34 46
REMARK SMILES IDX 37 47 50 48 68 49 35 50 36 51 49 53 69 54 38 55 23 56 24 57
REMARK SMILES IDX 32 58 25 59 31 60 26 61 27 62 28 63 29 64 30 65 53 66 54 67
REMARK SMILES IDX 62 68 55 69 61 70 56 71 57 72 58 73 59 74 60 75 39 76 40 77
REMARK SMILES IDX 48 78 41 79 47 80 42 81 43 82 44 83 45 84 46 85
REMARK H PARENT 1 13 1 14 67 41 37 52
REMARK Flexibility Score: inf
ROOT
ATOM      1  C   UNL     1       5.901  -0.361  -1.150  1.00  0.00     0.275 C 
ENDROOT
BRANCH   1   2
ATOM      2  C   UNL     1       5.192  -0.995   0.046  1.00  0.00     0.275 C 
BRANCH   2   3
ATOM      3  O   UNL     1       3.761  -0.994  -0.140  1.00  0.00    -0.458 OA
BRANCH   3   4
ATOM      4  C   UNL     1       3.023  -0.259   0.726  1.00  0.00     0.342 C 
ATOM      5  O   UNL     1       3.449   0.480   1.593  1.00  0.00    -0.246 OA
BRANCH   4   6
ATOM      6  C   UNL     1       1.582  -0.410   0.466  1.00  0.00     0.104 A 
ATOM      7  C   UNL     1      -1.097  -0.526   0.054  1.00  0.00     0.220 A 
ATOM      8  N   UNL     1      -0.562   0.667   0.306  1.00  0.00    -0.221 NA
ATOM      9  N   UNL     1      -0.410  -1.673   0.011  1.00  0.00    -0.212 NA
ATOM     10  C   UNL     1       0.766   0.697   0.524  1.00  0.00     0.133 A 
ATOM     11  C   UNL     1       0.934  -1.608   0.224  1.00  0.00     0.090 A 
BRANCH   7  12
ATOM     12  N   UNL     1      -2.446  -0.563  -0.129  1.00  0.00    -0.368 N 
ATOM     13  H   UNL     1      -2.970   0.270  -0.101  1.00  0.00     0.159 HD
ATOM     14  H   UNL     1      -2.898  -1.423  -0.290  1.00  0.00     0.159 HD
ENDBRANCH   7  12
BRANCH  11  15
ATOM     15  C   UNL     1       1.630  -2.903   0.190  1.00  0.00     0.001 A 
ATOM     16  C   UNL     1       2.438  -3.332   1.260  1.00  0.00     0.010 A 
ATOM     17  C   UNL     1       1.582  -3.697  -0.966  1.00  0.00     0.010 A 
ATOM     18  C   UNL     1       3.240  -4.468   1.140  1.00  0.00     0.001 A 
ATOM     19  C   UNL     1       2.374  -4.841  -1.080  1.00  0.00     0.001 A 
ATOM     20  C   UNL     1       3.217  -5.213  -0.035  1.00  0.00     0.000 A 
ENDBRANCH  11  15
ENDBRANCH   4   6
ENDBRANCH   3   4
ENDBRANCH   2   3
ENDBRANCH   1   2
BRANCH   1  21
ATOM     21  O   UNL     1       5.627   1.050  -1.205  1.00  0.00    -0.458 OA
BRANCH  21  22
ATOM     22  C   UNL     1       4.562   1.376  -1.970  1.00  0.00     0.338 C 
ATOM     23  O   UNL     1       3.880   0.632  -2.656  1.00  0.00    -0.246 OA
BRANCH  22  24
ATOM     24  C   UNL     1       4.207   2.780  -1.750  1.00  0.00     0.060 A 
ATOM     25  C   UNL     1       3.252   3.047  -0.776  1.00  0.00     0.016 A 
ATOM     26  C   UNL     1       4.652   3.787  -2.597  1.00  0.00     0.016 A 
ATOM     27  C   UNL     1       2.638   4.288  -0.717  1.00  0.00     0.010 A 
ATOM     28  C   UNL     1       4.115   5.072  -2.461  1.00  0.00     0.010 A 
ATOM     29  C   UNL     1       3.071   5.326  -1.548  1.00  0.00    -0.014 A 
BRANCH  29  30
ATOM     30  C   UNL     1       2.416   6.661  -1.480  1.00  0.00     0.031 A 
ATOM     31  C   UNL     1       1.793   7.260  -2.715  1.00  0.00     0.074 A 
ATOM     32  C   UNL     1       2.373   7.334  -0.312  1.00  0.00     0.049 A 
ATOM     33  N   UNL     1       1.343   8.473  -2.908  1.00  0.00    -0.248 NA
ATOM     34  C   UNL     1       1.676   6.385  -3.894  1.00  0.00     0.031 C 
ATOM     35  C   UNL     1       2.885   6.845   0.973  1.00  0.00     0.029 A 
ATOM     36  N   UNL     1       1.873   8.577  -0.011  1.00  0.00    -0.354 N 
ATOM     37  C   UNL     1       0.947   8.525  -4.240  1.00  0.00     0.074 A 
ATOM     38  C   UNL     1       1.221   7.226  -4.813  1.00  0.00     0.031 C 
ATOM     39  C   UNL     1       2.640   7.758   1.924  1.00  0.00     0.029 A 
ATOM     40  C   UNL     1       2.053   8.938   1.304  1.00  0.00     0.049 A 
ATOM     41  H   UNL     1       1.427   9.154  -0.672  1.00  0.00     0.167 HD
ATOM     42  C   UNL     1       0.409   9.566  -4.922  1.00  0.00     0.031 A 
ATOM     43  C   UNL     1       1.827  10.105   1.937  1.00  0.00     0.031 A 
ATOM     44  C   UNL     1       0.113  10.844  -4.328  1.00  0.00     0.049 A 
ATOM     45  C   UNL     1       1.286  11.262   1.147  1.00  0.00     0.074 A 
ATOM     46  C   UNL     1      -0.447  11.961  -4.924  1.00  0.00     0.029 A 
ATOM     47  N   UNL     1       0.344  11.175  -3.000  1.00  0.00    -0.354 N 
ATOM     48  N   UNL     1       0.955  11.308  -0.121  1.00  0.00    -0.248 NA
ATOM     49  C   UNL     1       1.095  12.525   1.870  1.00  0.00     0.031 C 
ATOM     50  C   UNL     1      -0.500  12.984  -3.973  1.00  0.00     0.029 A 
ATOM     51  C   UNL     1      -0.041  12.484  -2.764  1.00  0.00     0.049 A 
ATOM     52  H   UNL     1       0.724  10.568  -2.325  1.00  0.00     0.167 HD
ATOM     53  C   UNL     1       0.490  12.599  -0.343  1.00  0.00     0.074 A 
ATOM     54  C   UNL     1       0.569  13.294   0.927  1.00  0.00     0.031 C 
ATOM     55  C   UNL     1       0.040  13.158  -1.492  1.00  0.00     0.031 A 
BRANCH  42  56
ATOM     56  C   UNL     1       0.148   9.384  -6.396  1.00  0.00    -0.014 A 
ATOM     57  C   UNL     1      -0.868   8.536  -6.871  1.00  0.00     0.010 A 
ATOM     58  C   UNL     1       0.910  10.118  -7.326  1.00  0.00     0.010 A 
ATOM     59  C   UNL     1      -1.090   8.395  -8.245  1.00  0.00     0.020 A 
ATOM     60  C   UNL     1       0.671  10.005  -8.699  1.00  0.00     0.020 A 
ATOM     61  C   UNL     1      -0.317   9.130  -9.150  1.00  0.00     0.054 A 
BRANCH  61  62
ATOM     62  S   UNL     1      -0.644   8.946 -10.926  1.00  0.00     0.124 S 
ATOM     63  O   UNL     1      -0.141   7.600 -11.187  1.00  0.00    -0.237 OA
ATOM     64  O   UNL     1      -2.095   9.100 -11.001  1.00  0.00    -0.237 OA
ATOM     65  O   UNL     1       0.127  10.027 -11.536  1.00  0.00    -0.744 OA
ENDBRANCH  61  62
ENDBRANCH  42  56
BRANCH  43  66
ATOM     66  C   UNL     1       2.166  10.246   3.381  1.00  0.00    -0.014 A 
ATOM     67  C   UNL     1       1.156  10.426   4.342  1.00  0.00     0.010 A 
ATOM     68  C   UNL     1       3.507  10.181   3.806  1.00  0.00     0.010 A 
ATOM     69  C   UNL     1       1.481  10.554   5.696  1.00  0.00     0.020 A 
ATOM     70  C   UNL     1       3.833  10.271   5.162  1.00  0.00     0.020 A 
ATOM     71  C   UNL     1       2.818  10.471   6.097  1.00  0.00     0.054 A 
BRANCH  71  72
ATOM     72  S   UNL     1       3.211  10.591   7.864  1.00  0.00     0.124 S 
ATOM     73  O   UNL     1       2.971  12.006   8.133  1.00  0.00    -0.237 OA
ATOM     74  O   UNL     1       2.256   9.662   8.463  1.00  0.00    -0.237 OA
ATOM     75  O   UNL     1       4.608  10.168   7.934  1.00  0.00    -0.744 OA
ENDBRANCH  71  72
ENDBRANCH  43  66
BRANCH  55  76
ATOM     76  C   UNL     1      -0.456  14.577  -1.421  1.00  0.00    -0.014 A 
ATOM     77  C   UNL     1       0.428  15.656  -1.248  1.00  0.00     0.010 A 
ATOM     78  C   UNL     1      -1.831  14.834  -1.581  1.00  0.00     0.010 A 
ATOM     79  C   UNL     1      -0.059  16.965  -1.206  1.00  0.00     0.020 A 
ATOM     80  C   UNL     1      -2.316  16.143  -1.573  1.00  0.00     0.020 A 
ATOM     81  C   UNL     1      -1.427  17.200  -1.371  1.00  0.00     0.054 A 
BRANCH  81  82
ATOM     82  S   UNL     1      -2.026  18.912  -1.362  1.00  0.00     0.124 S 
ATOM     83  O   UNL     1      -1.892  19.273   0.047  1.00  0.00    -0.237 OA
ATOM     84  O   UNL     1      -1.100  19.579  -2.273  1.00  0.00    -0.237 OA
ATOM     85  O   UNL     1      -3.400  18.802  -1.848  1.00  0.00    -0.744 OA
ENDBRANCH  81  82
ENDBRANCH  55  76
ENDBRANCH  29  30
ENDBRANCH  22  24
ENDBRANCH  21  22
ENDBRANCH   1  21
TORSDOF 16
