REMARK SMILES C[C@@H](C(=O)OCCOC(=O)c1ccc(-c2c3nc(c(-c4ccc(S(=O)(=O)[O-])cc4)c4ccc([nH]4)c(-c4ccc(S(=O)(=O)[O-])cc4)c4nc(c(-c5ccc(S(=O)(=O)[O-])cc5)c5ccc2[nH]5)C=C4)C=C3)cc1)N(C)c1ccc(C(N)=O)nn1
REMARK SMILES IDX 6 1 5 2 3 3 4 4 2 5 1 6 71 7 72 8 73 9 74 10 81 11 75 12
REMARK SMILES IDX 80 13 76 14 77 15 78 16 79 17 7 20 8 21 9 22 10 23 11 24
REMARK SMILES IDX 12 25 70 26 13 27 69 28 14 29 15 30 16 31 63 32 17 33 68 34
REMARK SMILES IDX 62 35 64 36 18 37 67 38 61 39 60 40 19 42 49 43 30 44 48 45
REMARK SMILES IDX 31 46 34 47 47 48 65 49 32 50 33 51 46 53 66 54 35 55 20 56
REMARK SMILES IDX 21 57 29 58 22 59 28 60 23 61 24 62 25 63 26 64 27 65 50 66
REMARK SMILES IDX 51 67 59 68 52 69 58 70 53 71 54 72 55 73 56 74 57 75 36 76
REMARK SMILES IDX 37 77 45 78 38 79 44 80 39 81 40 82 41 83 42 84 43 85
REMARK H PARENT 78 18 78 19 64 41 34 52
REMARK Flexibility Score: inf
ROOT
ATOM      1  C   UNL     1       2.526  -1.742  -3.309  1.00  0.00     0.274 C 
ENDROOT
BRANCH   1   2
ATOM      2  O   UNL     1       2.147  -1.121  -2.063  1.00  0.00    -0.461 OA
BRANCH   2   3
ATOM      3  C   UNL     1       1.161  -0.182  -2.128  1.00  0.00     0.328 C 
ATOM      4  O   UNL     1       0.555   0.114  -3.154  1.00  0.00    -0.250 OA
BRANCH   3   5
ATOM      5  C   UNL     1       0.924   0.529  -0.782  1.00  0.00     0.190 C 
ATOM      6  C   UNL     1       2.060   0.396   0.225  1.00  0.00     0.044 C 
BRANCH   5   7
ATOM      7  N   UNL     1      -0.433   0.285  -0.218  1.00  0.00    -0.345 N 
ATOM      8  C   UNL     1      -1.502   1.101  -0.815  1.00  0.00     0.146 C 
BRANCH   7   9
ATOM      9  C   UNL     1      -0.855  -0.964   0.233  1.00  0.00     0.151 A 
ATOM     10  C   UNL     1      -0.077  -1.798   1.026  1.00  0.00     0.051 A 
ATOM     11  N   UNL     1      -2.095  -1.401  -0.068  1.00  0.00    -0.132 NA
ATOM     12  C   UNL     1      -0.512  -3.079   1.391  1.00  0.00     0.040 A 
ATOM     13  N   UNL     1      -2.539  -2.678   0.263  1.00  0.00    -0.143 NA
ATOM     14  C   UNL     1      -1.744  -3.505   0.957  1.00  0.00     0.150 A 
BRANCH  14  15
ATOM     15  C   UNL     1      -2.233  -4.884   1.234  1.00  0.00     0.269 C 
ATOM     16  N   UNL     1      -3.379  -5.278   0.599  1.00  0.00    -0.364 N 
ATOM     17  O   UNL     1      -1.627  -5.641   1.983  1.00  0.00    -0.268 OA
ATOM     18  H   UNL     1      -3.850  -4.654   0.001  1.00  0.00     0.160 HD
ATOM     19  H   UNL     1      -3.732  -6.187   0.739  1.00  0.00     0.160 HD
ENDBRANCH  14  15
ENDBRANCH   7   9
ENDBRANCH   5   7
ENDBRANCH   3   5
ENDBRANCH   2   3
ENDBRANCH   1   2
BRANCH   1  20
ATOM     20  C   UNL     1       1.913  -3.132  -3.433  1.00  0.00     0.275 C 
BRANCH  20  21
ATOM     21  O   UNL     1       0.487  -3.012  -3.570  1.00  0.00    -0.458 OA
BRANCH  21  22
ATOM     22  C   UNL     1      -0.254  -3.759  -2.727  1.00  0.00     0.338 C 
ATOM     23  O   UNL     1       0.170  -4.575  -1.908  1.00  0.00    -0.246 OA
BRANCH  22  24
ATOM     24  C   UNL     1      -1.690  -3.470  -2.894  1.00  0.00     0.060 A 
ATOM     25  C   UNL     1      -2.137  -2.155  -3.030  1.00  0.00     0.016 A 
ATOM     26  C   UNL     1      -2.617  -4.507  -2.746  1.00  0.00     0.016 A 
ATOM     27  C   UNL     1      -3.497  -1.868  -2.895  1.00  0.00     0.010 A 
ATOM     28  C   UNL     1      -3.986  -4.221  -2.688  1.00  0.00     0.010 A 
ATOM     29  C   UNL     1      -4.438  -2.893  -2.715  1.00  0.00    -0.014 A 
BRANCH  29  30
ATOM     30  C   UNL     1      -5.886  -2.588  -2.563  1.00  0.00     0.031 A 
ATOM     31  C   UNL     1      -6.640  -2.982  -1.325  1.00  0.00     0.074 A 
ATOM     32  C   UNL     1      -6.551  -1.948  -3.538  1.00  0.00     0.049 A 
ATOM     33  N   UNL     1      -7.901  -3.286  -1.170  1.00  0.00    -0.248 NA
ATOM     34  C   UNL     1      -5.858  -3.066  -0.092  1.00  0.00     0.031 C 
ATOM     35  C   UNL     1      -5.959  -1.404  -4.759  1.00  0.00     0.029 A 
ATOM     36  N   UNL     1      -7.882  -1.647  -3.641  1.00  0.00    -0.354 N 
ATOM     37  C   UNL     1      -8.023  -3.738   0.144  1.00  0.00     0.074 A 
ATOM     38  C   UNL     1      -6.712  -3.637   0.747  1.00  0.00     0.031 C 
ATOM     39  C   UNL     1      -6.919  -0.805  -5.477  1.00  0.00     0.029 A 
ATOM     40  C   UNL     1      -8.202  -1.023  -4.819  1.00  0.00     0.049 A 
ATOM     41  H   UNL     1      -8.542  -1.856  -2.941  1.00  0.00     0.167 HD
ATOM     42  C   UNL     1      -9.138  -4.176   0.779  1.00  0.00     0.031 A 
ATOM     43  C   UNL     1      -9.403  -0.721  -5.343  1.00  0.00     0.031 A 
ATOM     44  C   UNL     1     -10.460  -4.022   0.227  1.00  0.00     0.049 A 
ATOM     45  C   UNL     1     -10.640  -1.104  -4.591  1.00  0.00     0.074 A 
ATOM     46  C   UNL     1     -11.679  -4.394   0.766  1.00  0.00     0.029 A 
ATOM     47  N   UNL     1     -10.736  -3.346  -0.954  1.00  0.00    -0.354 N 
ATOM     48  N   UNL     1     -10.743  -1.779  -3.470  1.00  0.00    -0.248 NA
ATOM     49  C   UNL     1     -11.921  -0.698  -5.177  1.00  0.00     0.031 C 
ATOM     50  C   UNL     1     -12.693  -3.921  -0.078  1.00  0.00     0.029 A 
ATOM     51  C   UNL     1     -12.103  -3.238  -1.131  1.00  0.00     0.049 A 
ATOM     52  H   UNL     1     -10.058  -2.994  -1.574  1.00  0.00     0.167 HD
ATOM     53  C   UNL     1     -12.104  -1.887  -3.219  1.00  0.00     0.074 A 
ATOM     54  C   UNL     1     -12.781  -1.179  -4.289  1.00  0.00     0.031 C 
ATOM     55  C   UNL     1     -12.741  -2.525  -2.206  1.00  0.00     0.031 A 
BRANCH  42  56
ATOM     56  C   UNL     1      -8.995  -4.865   2.114  1.00  0.00    -0.014 A 
ATOM     57  C   UNL     1      -8.666  -4.177   3.294  1.00  0.00     0.010 A 
ATOM     58  C   UNL     1      -9.270  -6.246   2.193  1.00  0.00     0.010 A 
ATOM     59  C   UNL     1      -8.578  -4.859   4.515  1.00  0.00     0.020 A 
ATOM     60  C   UNL     1      -9.214  -6.926   3.415  1.00  0.00     0.020 A 
ATOM     61  C   UNL     1      -8.850  -6.230   4.568  1.00  0.00     0.054 A 
BRANCH  61  62
ATOM     62  S   UNL     1      -8.784  -7.088   6.168  1.00  0.00     0.124 S 
ATOM     63  O   UNL     1      -7.352  -7.331   6.321  1.00  0.00    -0.237 OA
ATOM     64  O   UNL     1      -9.356  -6.109   7.089  1.00  0.00    -0.237 OA
ATOM     65  O   UNL     1      -9.599  -8.282   5.952  1.00  0.00    -0.744 OA
ENDBRANCH  61  62
ENDBRANCH  42  56
BRANCH  43  66
ATOM     66  C   UNL     1      -9.449  -0.069  -6.674  1.00  0.00    -0.014 A 
ATOM     67  C   UNL     1      -9.717   1.305  -6.784  1.00  0.00     0.010 A 
ATOM     68  C   UNL     1      -9.088  -0.797  -7.823  1.00  0.00     0.010 A 
ATOM     69  C   UNL     1      -9.604   1.945  -8.021  1.00  0.00     0.020 A 
ATOM     70  C   UNL     1      -8.946  -0.155  -9.054  1.00  0.00     0.020 A 
ATOM     71  C   UNL     1      -9.206   1.214  -9.145  1.00  0.00     0.054 A 
BRANCH  71  72
ATOM     72  S   UNL     1      -8.929   2.086 -10.711  1.00  0.00     0.124 S 
ATOM     73  O   UNL     1     -10.286   2.207 -11.233  1.00  0.00    -0.237 OA
ATOM     74  O   UNL     1      -8.303   3.333 -10.278  1.00  0.00    -0.237 OA
ATOM     75  O   UNL     1      -8.048   1.183 -11.450  1.00  0.00    -0.744 OA
ENDBRANCH  71  72
ENDBRANCH  43  66
BRANCH  55  76
ATOM     76  C   UNL     1     -14.240  -2.457  -2.205  1.00  0.00    -0.014 A 
ATOM     77  C   UNL     1     -14.993  -3.280  -3.059  1.00  0.00     0.010 A 
ATOM     78  C   UNL     1     -14.897  -1.580  -1.325  1.00  0.00     0.010 A 
ATOM     79  C   UNL     1     -16.387  -3.199  -3.059  1.00  0.00     0.020 A 
ATOM     80  C   UNL     1     -16.292  -1.509  -1.312  1.00  0.00     0.020 A 
ATOM     81  C   UNL     1     -17.027  -2.308  -2.192  1.00  0.00     0.054 A 
BRANCH  81  82
ATOM     82  S   UNL     1     -18.838  -2.230  -2.201  1.00  0.00     0.124 S 
ATOM     83  O   UNL     1     -19.101  -1.460  -3.414  1.00  0.00    -0.237 OA
ATOM     84  O   UNL     1     -19.222  -3.639  -2.255  1.00  0.00    -0.237 OA
ATOM     85  O   UNL     1     -19.161  -1.551  -0.948  1.00  0.00    -0.744 OA
ENDBRANCH  81  82
ENDBRANCH  55  76
ENDBRANCH  29  30
ENDBRANCH  22  24
ENDBRANCH  21  22
ENDBRANCH  20  21
ENDBRANCH   1  20
TORSDOF 17
