REMARK SMILES C[C@H]1CC[C@@H]([C@@H](Cc2ccccc2)C(=O)OCCOC(=O)c2ccc(-c3c4nc(c(-c5ccc(S(=O)(=O)[O-])cc5)c5ccc([nH]5)c(-c5ccc(S(=O)(=O)[O-])cc5)c5nc(c(-c6ccc(S(=O)(=O)[O-])cc6)c6ccc3[nH]6)C=C5)C=C4)cc2)C[C@@H]1C
REMARK SMILES IDX 18 1 17 2 16 3 14 4 15 5 6 6 5 7 1 8 2 9 3 10 83 11 4 12
REMARK SMILES IDX 82 13 84 14 7 15 8 16 9 17 13 18 10 19 12 20 11 21 19 22
REMARK SMILES IDX 20 23 21 24 22 25 23 26 81 27 24 28 80 29 25 30 26 31 27 32
REMARK SMILES IDX 74 33 28 34 79 35 73 36 75 37 29 38 78 39 72 40 71 41 30 43
REMARK SMILES IDX 60 44 41 45 59 46 42 47 45 48 58 49 76 50 43 51 44 52 57 54
REMARK SMILES IDX 77 55 46 56 31 57 32 58 40 59 33 60 39 61 34 62 35 63 36 64
REMARK SMILES IDX 37 65 38 66 61 67 62 68 70 69 63 70 69 71 64 72 65 73 66 74
REMARK SMILES IDX 67 75 68 76 47 77 48 78 56 79 49 80 55 81 50 82 51 83 52 84
REMARK SMILES IDX 53 85 54 86
REMARK H PARENT 75 42 45 53
REMARK Flexibility Score: inf
ROOT
ATOM      1  C   UNL     1      -1.773   1.761   6.880  1.00  0.00     0.275 C 
ENDROOT
BRANCH   1   2
ATOM      2  C   UNL     1      -2.422   1.072   5.681  1.00  0.00     0.274 C 
BRANCH   2   3
ATOM      3  O   UNL     1      -1.691   1.323   4.464  1.00  0.00    -0.462 OA
BRANCH   3   4
ATOM      4  C   UNL     1      -2.274   2.163   3.572  1.00  0.00     0.309 C 
ATOM      5  O   UNL     1      -3.315   2.778   3.781  1.00  0.00    -0.252 OA
BRANCH   4   6
ATOM      6  C   UNL     1      -1.556   2.219   2.225  1.00  0.00     0.107 C 
BRANCH   6   7
ATOM      7  C   UNL     1       0.006   2.089   2.281  1.00  0.00     0.004 C 
ATOM      8  C   UNL     1       1.207   1.622  -1.940  1.00  0.00     0.008 C 
ATOM      9  C   UNL     1       1.353   1.744  -0.419  1.00  0.00    -0.011 C 
ATOM     10  C   UNL     1       0.743   3.083   0.033  1.00  0.00     0.004 C 
ATOM     11  C   UNL     1       0.694   0.555   0.313  1.00  0.00    -0.011 C 
ATOM     12  C   UNL     1       0.729   3.242   1.548  1.00  0.00     0.005 C 
ATOM     13  C   UNL     1       0.654   0.772   1.836  1.00  0.00     0.008 C 
ATOM     14  C   UNL     1       1.361  -0.789   0.010  1.00  0.00     0.008 C 
ENDBRANCH   6   7
BRANCH   6  15
ATOM     15  C   UNL     1      -2.406   1.454   1.184  1.00  0.00     0.051 C 
BRANCH  15  16
ATOM     16  C   UNL     1      -2.506  -0.060   1.144  1.00  0.00    -0.047 A 
ATOM     17  C   UNL     1      -2.881  -0.659  -0.072  1.00  0.00     0.004 A 
ATOM     18  C   UNL     1      -2.266  -0.904   2.231  1.00  0.00     0.004 A 
ATOM     19  C   UNL     1      -2.942  -2.048  -0.208  1.00  0.00     0.000 A 
ATOM     20  C   UNL     1      -2.319  -2.294   2.099  1.00  0.00     0.000 A 
ATOM     21  C   UNL     1      -2.648  -2.867   0.877  1.00  0.00     0.000 A 
ENDBRANCH  15  16
ENDBRANCH   6  15
ENDBRANCH   4   6
ENDBRANCH   3   4
ENDBRANCH   2   3
ENDBRANCH   1   2
BRANCH   1  22
ATOM     22  O   UNL     1      -1.928   3.185   6.796  1.00  0.00    -0.458 OA
BRANCH  22  23
ATOM     23  C   UNL     1      -0.953   3.823   6.106  1.00  0.00     0.338 C 
ATOM     24  O   UNL     1       0.076   3.344   5.664  1.00  0.00    -0.246 OA
BRANCH  23  25
ATOM     25  C   UNL     1      -1.399   5.192   5.818  1.00  0.00     0.060 A 
ATOM     26  C   UNL     1      -1.419   5.610   4.484  1.00  0.00     0.016 A 
ATOM     27  C   UNL     1      -1.760   6.061   6.848  1.00  0.00     0.016 A 
ATOM     28  C   UNL     1      -1.796   6.911   4.170  1.00  0.00     0.010 A 
ATOM     29  C   UNL     1      -2.130   7.368   6.533  1.00  0.00     0.010 A 
ATOM     30  C   UNL     1      -2.135   7.801   5.195  1.00  0.00    -0.014 A 
BRANCH  30  31
ATOM     31  C   UNL     1      -2.407   9.221   4.889  1.00  0.00     0.031 A 
ATOM     32  C   UNL     1      -1.337  10.238   5.162  1.00  0.00     0.074 A 
ATOM     33  C   UNL     1      -3.605   9.588   4.399  1.00  0.00     0.049 A 
ATOM     34  N   UNL     1      -1.401  11.540   5.095  1.00  0.00    -0.248 NA
ATOM     35  C   UNL     1      -0.021   9.717   5.571  1.00  0.00     0.031 C 
ATOM     36  C   UNL     1      -4.696   8.674   4.055  1.00  0.00     0.029 A 
ATOM     37  N   UNL     1      -4.108  10.832   4.120  1.00  0.00    -0.354 N 
ATOM     38  C   UNL     1      -0.147  11.998   5.482  1.00  0.00     0.074 A 
ATOM     39  C   UNL     1       0.658  10.835   5.786  1.00  0.00     0.031 C 
ATOM     40  C   UNL     1      -5.747   9.393   3.623  1.00  0.00     0.029 A 
ATOM     41  C   UNL     1      -5.418  10.813   3.704  1.00  0.00     0.049 A 
ATOM     42  H   UNL     1      -3.582  11.659   4.210  1.00  0.00     0.167 HD
ATOM     43  C   UNL     1       0.287  13.276   5.579  1.00  0.00     0.031 A 
ATOM     44  C   UNL     1      -6.262  11.832   3.451  1.00  0.00     0.031 A 
ATOM     45  C   UNL     1      -0.524  14.422   5.268  1.00  0.00     0.049 A 
ATOM     46  C   UNL     1      -5.768  13.245   3.620  1.00  0.00     0.074 A 
ATOM     47  C   UNL     1      -0.175  15.760   5.310  1.00  0.00     0.029 A 
ATOM     48  N   UNL     1      -1.848  14.364   4.859  1.00  0.00    -0.354 N 
ATOM     49  N   UNL     1      -4.575  13.665   3.974  1.00  0.00    -0.248 NA
ATOM     50  C   UNL     1      -6.732  14.321   3.357  1.00  0.00     0.031 C 
ATOM     51  C   UNL     1      -1.303  16.514   4.971  1.00  0.00     0.029 A 
ATOM     52  C   UNL     1      -2.338  15.643   4.666  1.00  0.00     0.049 A 
ATOM     53  H   UNL     1      -2.362  13.536   4.725  1.00  0.00     0.167 HD
ATOM     54  C   UNL     1      -4.640  15.053   3.948  1.00  0.00     0.074 A 
ATOM     55  C   UNL     1      -5.984  15.402   3.533  1.00  0.00     0.031 C 
ATOM     56  C   UNL     1      -3.677  15.961   4.241  1.00  0.00     0.031 A 
BRANCH  43  57
ATOM     57  C   UNL     1       1.687  13.506   6.076  1.00  0.00    -0.014 A 
ATOM     58  C   UNL     1       2.804  13.249   5.262  1.00  0.00     0.010 A 
ATOM     59  C   UNL     1       1.885  14.046   7.360  1.00  0.00     0.010 A 
ATOM     60  C   UNL     1       4.095  13.508   5.731  1.00  0.00     0.020 A 
ATOM     61  C   UNL     1       3.172  14.327   7.825  1.00  0.00     0.020 A 
ATOM     62  C   UNL     1       4.270  14.047   7.010  1.00  0.00     0.054 A 
BRANCH  62  63
ATOM     63  S   UNL     1       5.953  14.421   7.576  1.00  0.00     0.124 S 
ATOM     64  O   UNL     1       6.484  13.086   7.844  1.00  0.00    -0.237 OA
ATOM     65  O   UNL     1       6.534  15.108   6.425  1.00  0.00    -0.237 OA
ATOM     66  O   UNL     1       5.745  15.256   8.756  1.00  0.00    -0.744 OA
ENDBRANCH  62  63
ENDBRANCH  43  57
BRANCH  44  67
ATOM     67  C   UNL     1      -7.669  11.562   3.048  1.00  0.00    -0.014 A 
ATOM     68  C   UNL     1      -8.115  11.873   1.752  1.00  0.00     0.010 A 
ATOM     69  C   UNL     1      -8.581  11.016   3.971  1.00  0.00     0.010 A 
ATOM     70  C   UNL     1      -9.453  11.674   1.395  1.00  0.00     0.020 A 
ATOM     71  C   UNL     1      -9.912  10.789   3.610  1.00  0.00     0.020 A 
ATOM     72  C   UNL     1     -10.344  11.137   2.329  1.00  0.00     0.054 A 
BRANCH  72  73
ATOM     73  S   UNL     1     -12.071  10.868   1.842  1.00  0.00     0.124 S 
ATOM     74  O   UNL     1     -12.612  12.223   1.887  1.00  0.00    -0.237 OA
ATOM     75  O   UNL     1     -11.939  10.284   0.509  1.00  0.00    -0.237 OA
ATOM     76  O   UNL     1     -12.575   9.956   2.866  1.00  0.00    -0.744 OA
ENDBRANCH  72  73
ENDBRANCH  44  67
BRANCH  56  77
ATOM     77  C   UNL     1      -4.026  17.415   4.075  1.00  0.00    -0.014 A 
ATOM     78  C   UNL     1      -4.856  18.075   4.997  1.00  0.00     0.010 A 
ATOM     79  C   UNL     1      -3.465  18.141   3.008  1.00  0.00     0.010 A 
ATOM     80  C   UNL     1      -5.143  19.433   4.838  1.00  0.00     0.020 A 
ATOM     81  C   UNL     1      -3.729  19.504   2.861  1.00  0.00     0.020 A 
ATOM     82  C   UNL     1      -4.579  20.138   3.770  1.00  0.00     0.054 A 
BRANCH  82  83
ATOM     83  S   UNL     1      -4.929  21.910   3.609  1.00  0.00     0.124 S 
ATOM     84  O   UNL     1      -6.290  21.904   3.079  1.00  0.00    -0.237 OA
ATOM     85  O   UNL     1      -4.792  22.392   4.981  1.00  0.00    -0.237 OA
ATOM     86  O   UNL     1      -3.902  22.383   2.684  1.00  0.00    -0.744 OA
ENDBRANCH  82  83
ENDBRANCH  56  77
ENDBRANCH  30  31
ENDBRANCH  23  25
ENDBRANCH  22  23
ENDBRANCH   1  22
TORSDOF 17
