REMARK SMILES C[C@@H](NC(=O)N1CC[N@@H+]2CCCC[C@H]2C1)C(=O)OCCOC(=O)c1ccc(-c2c3nc(c(-c4ccc(S(=O)(=O)[O-])cc4)c4ccc([nH]4)c(-c4ccc(S(=O)(=O)[O-])cc4)c4nc(c(-c5ccc(S(=O)(=O)[O-])cc5)c5ccc2[nH]5)C=C4)C=C3)cc1
REMARK SMILES IDX 20 1 19 2 18 3 16 4 17 5 2 6 1 7 3 8 4 9 5 11 6 12 7 13
REMARK SMILES IDX 15 14 8 15 14 16 9 17 13 18 10 19 12 21 11 22 21 23 22 24
REMARK SMILES IDX 23 25 24 26 25 27 83 28 26 29 82 30 27 31 28 32 29 33 76 34
REMARK SMILES IDX 30 35 81 36 75 37 77 38 31 39 80 40 74 41 73 42 32 44 62 45
REMARK SMILES IDX 43 46 61 47 44 48 47 49 60 50 78 51 45 52 46 53 59 55 79 56
REMARK SMILES IDX 48 57 33 58 34 59 42 60 35 61 41 62 36 63 37 64 38 65 39 66
REMARK SMILES IDX 40 67 63 68 64 69 72 70 65 71 71 72 66 73 67 74 68 75 69 76
REMARK SMILES IDX 70 77 49 78 50 79 58 80 51 81 57 82 52 83 53 84 54 85 55 86
REMARK SMILES IDX 56 87
REMARK H PARENT 3 10 9 20 77 43 47 54
REMARK Flexibility Score: inf
ROOT
ATOM      1  C   UNL     1      -2.683  -1.892   0.519  1.00  0.00     0.275 C 
ENDROOT
BRANCH   1   2
ATOM      2  C   UNL     1      -2.433  -0.781  -0.503  1.00  0.00     0.274 C 
BRANCH   2   3
ATOM      3  O   UNL     1      -1.089  -0.269  -0.582  1.00  0.00    -0.461 OA
BRANCH   3   4
ATOM      4  C   UNL     1      -0.800   0.789   0.233  1.00  0.00     0.328 C 
ATOM      5  O   UNL     1      -1.541   1.197   1.119  1.00  0.00    -0.250 OA
BRANCH   4   6
ATOM      6  C   UNL     1       0.543   1.454  -0.091  1.00  0.00     0.190 C 
ATOM      7  C   UNL     1       1.535   0.497  -0.751  1.00  0.00     0.043 C 
BRANCH   6   8
ATOM      8  N   UNL     1       0.566   2.782  -0.728  1.00  0.00    -0.325 N 
ATOM      9  C   UNL     1      -0.368   3.541  -1.346  1.00  0.00     0.318 C 
ATOM     10  H   UNL     1       1.452   3.209  -0.698  1.00  0.00     0.166 HD
ATOM     11  O   UNL     1       0.006   4.495  -2.026  1.00  0.00    -0.249 OA
BRANCH   9  12
ATOM     12  N   UNL     1      -1.680   3.181  -1.250  1.00  0.00    -0.313 N 
ATOM     13  C   UNL     1      -2.474   3.656  -0.111  1.00  0.00     0.183 C 
ATOM     14  C   UNL     1      -2.454   3.200  -2.480  1.00  0.00     0.186 C 
ATOM     15  C   UNL     1      -3.826   2.904   0.032  1.00  0.00     0.284 C 
ATOM     16  C   UNL     1      -3.641   2.240  -2.332  1.00  0.00     0.203 C 
ATOM     17  N   UNL     1      -4.558   2.627  -1.234  1.00  0.00    -0.330 N 
ATOM     18  C   UNL     1      -4.432   2.125  -3.635  1.00  0.00     0.067 C 
ATOM     19  C   UNL     1      -5.580   1.586  -1.018  1.00  0.00     0.262 C 
ATOM     20  H   UNL     1      -5.021   3.490  -1.518  1.00  0.00     0.348 HD
ATOM     21  C   UNL     1      -5.459   1.006  -3.498  1.00  0.00     0.012 C 
ATOM     22  C   UNL     1      -6.362   1.247  -2.292  1.00  0.00     0.062 C 
ENDBRANCH   9  12
ENDBRANCH   6   8
ENDBRANCH   4   6
ENDBRANCH   3   4
ENDBRANCH   2   3
ENDBRANCH   1   2
BRANCH   1  23
ATOM     23  O   UNL     1      -2.514  -1.436   1.868  1.00  0.00    -0.458 OA
BRANCH  23  24
ATOM     24  C   UNL     1      -1.233  -1.503   2.298  1.00  0.00     0.338 C 
ATOM     25  O   UNL     1      -0.294  -1.994   1.690  1.00  0.00    -0.246 OA
BRANCH  24  26
ATOM     26  C   UNL     1      -1.050  -0.758   3.556  1.00  0.00     0.060 A 
ATOM     27  C   UNL     1       0.157  -0.061   3.696  1.00  0.00     0.016 A 
ATOM     28  C   UNL     1      -1.970  -0.808   4.606  1.00  0.00     0.016 A 
ATOM     29  C   UNL     1       0.492   0.514   4.912  1.00  0.00     0.010 A 
ATOM     30  C   UNL     1      -1.627  -0.240   5.836  1.00  0.00     0.010 A 
ATOM     31  C   UNL     1      -0.371   0.369   6.002  1.00  0.00    -0.014 A 
BRANCH  31  32
ATOM     32  C   UNL     1       0.162   0.641   7.354  1.00  0.00     0.031 A 
ATOM     33  C   UNL     1       0.723  -0.516   8.136  1.00  0.00     0.074 A 
ATOM     34  C   UNL     1       0.217   1.895   7.831  1.00  0.00     0.049 A 
ATOM     35  N   UNL     1       1.248  -0.531   9.331  1.00  0.00    -0.248 NA
ATOM     36  C   UNL     1       0.691  -1.835   7.476  1.00  0.00     0.031 C 
ATOM     37  C   UNL     1      -0.238   3.090   7.122  1.00  0.00     0.029 A 
ATOM     38  N   UNL     1       0.690   2.368   9.027  1.00  0.00    -0.354 N 
ATOM     39  C   UNL     1       1.597  -1.856   9.572  1.00  0.00     0.074 A 
ATOM     40  C   UNL     1       1.208  -2.620   8.409  1.00  0.00     0.031 C 
ATOM     41  C   UNL     1      -0.029   4.164   7.904  1.00  0.00     0.029 A 
ATOM     42  C   UNL     1       0.546   3.726   9.174  1.00  0.00     0.049 A 
ATOM     43  H   UNL     1       1.093   1.790   9.714  1.00  0.00     0.167 HD
ATOM     44  C   UNL     1       2.188  -2.387  10.667  1.00  0.00     0.031 A 
ATOM     45  C   UNL     1       0.832   4.518  10.225  1.00  0.00     0.031 A 
ATOM     46  C   UNL     1       2.558  -1.616  11.822  1.00  0.00     0.049 A 
ATOM     47  C   UNL     1       1.439   3.897  11.455  1.00  0.00     0.074 A 
ATOM     48  C   UNL     1       3.151  -2.048  12.994  1.00  0.00     0.029 A 
ATOM     49  N   UNL     1       2.365  -0.248  11.947  1.00  0.00    -0.354 N 
ATOM     50  N   UNL     1       1.756   2.641  11.673  1.00  0.00    -0.248 NA
ATOM     51  C   UNL     1       1.732   4.797  12.578  1.00  0.00     0.031 C 
ATOM     52  C   UNL     1       3.278  -0.945  13.846  1.00  0.00     0.029 A 
ATOM     53  C   UNL     1       2.811   0.180  13.184  1.00  0.00     0.049 A 
ATOM     54  H   UNL     1       1.969   0.332  11.257  1.00  0.00     0.167 HD
ATOM     55  C   UNL     1       2.303   2.604  12.951  1.00  0.00     0.074 A 
ATOM     56  C   UNL     1       2.287   3.965  13.450  1.00  0.00     0.031 C 
ATOM     57  C   UNL     1       2.776   1.543  13.651  1.00  0.00     0.031 A 
BRANCH  44  58
ATOM     58  C   UNL     1       2.422  -3.873  10.675  1.00  0.00    -0.014 A 
ATOM     59  C   UNL     1       3.426  -4.460   9.883  1.00  0.00     0.010 A 
ATOM     60  C   UNL     1       1.629  -4.696  11.495  1.00  0.00     0.010 A 
ATOM     61  C   UNL     1       3.606  -5.846   9.882  1.00  0.00     0.020 A 
ATOM     62  C   UNL     1       1.822  -6.080  11.514  1.00  0.00     0.020 A 
ATOM     63  C   UNL     1       2.798  -6.649  10.694  1.00  0.00     0.054 A 
BRANCH  63  64
ATOM     64  S   UNL     1       3.058  -8.444  10.684  1.00  0.00     0.124 S 
ATOM     65  O   UNL     1       2.466  -8.827   9.404  1.00  0.00    -0.237 OA
ATOM     66  O   UNL     1       4.512  -8.560  10.762  1.00  0.00    -0.237 OA
ATOM     67  O   UNL     1       2.335  -8.905  11.867  1.00  0.00    -0.744 OA
ENDBRANCH  63  64
ENDBRANCH  44  58
BRANCH  45  68
ATOM     68  C   UNL     1       0.523   5.971  10.163  1.00  0.00    -0.014 A 
ATOM     69  C   UNL     1       1.550   6.926  10.074  1.00  0.00     0.010 A 
ATOM     70  C   UNL     1      -0.816   6.406  10.167  1.00  0.00     0.010 A 
ATOM     71  C   UNL     1       1.245   8.289   9.999  1.00  0.00     0.020 A 
ATOM     72  C   UNL     1      -1.126   7.765  10.067  1.00  0.00     0.020 A 
ATOM     73  C   UNL     1      -0.092   8.700   9.992  1.00  0.00     0.054 A 
BRANCH  73  74
ATOM     74  S   UNL     1      -0.469  10.467   9.826  1.00  0.00     0.124 S 
ATOM     75  O   UNL     1      -0.172  10.968  11.164  1.00  0.00    -0.237 OA
ATOM     76  O   UNL     1       0.450  10.890   8.773  1.00  0.00    -0.237 OA
ATOM     77  O   UNL     1      -1.881  10.480   9.451  1.00  0.00    -0.744 OA
ENDBRANCH  73  74
ENDBRANCH  45  68
BRANCH  57  78
ATOM     78  C   UNL     1       3.336   1.819  15.018  1.00  0.00    -0.014 A 
ATOM     79  C   UNL     1       2.489   2.086  16.108  1.00  0.00     0.010 A 
ATOM     80  C   UNL     1       4.726   1.751  15.224  1.00  0.00     0.010 A 
ATOM     81  C   UNL     1       3.026   2.312  17.377  1.00  0.00     0.020 A 
ATOM     82  C   UNL     1       5.264   1.953  16.497  1.00  0.00     0.020 A 
ATOM     83  C   UNL     1       4.411   2.247  17.562  1.00  0.00     0.054 A 
BRANCH  83  84
ATOM     84  S   UNL     1       5.084   2.503  19.227  1.00  0.00     0.124 S 
ATOM     85  O   UNL     1       5.000   3.954  19.367  1.00  0.00    -0.237 OA
ATOM     86  O   UNL     1       4.168   1.736  20.068  1.00  0.00    -0.237 OA
ATOM     87  O   UNL     1       6.438   1.961  19.139  1.00  0.00    -0.744 OA
ENDBRANCH  83  84
ENDBRANCH  57  78
ENDBRANCH  31  32
ENDBRANCH  24  26
ENDBRANCH  23  24
ENDBRANCH   1  23
TORSDOF 16
