REMARK SMILES COc1cccc(C(=O)N[C@H]2C=C[C@@H](C(=O)OCCOC(=O)c3ccc(-c4c5nc(c(-c6ccc(S(=O)(=O)[O-])cc6)c6ccc([nH]6)c(-c6ccc(S(=O)(=O)[O-])cc6)c6nc(c(-c7ccc(S(=O)(=O)[O-])cc7)c7ccc4[nH]7)C=C6)C=C5)cc3)C2)c1
REMARK SMILES IDX 18 1 17 2 15 3 16 4 14 5 11 6 12 7 83 8 13 9 10 10 8 11 9 12
REMARK SMILES IDX 7 14 3 15 4 16 84 17 5 18 6 19 2 20 1 21 19 22 20 23 21 24
REMARK SMILES IDX 22 25 23 26 24 27 82 28 25 29 81 30 26 31 27 32 28 33 75 34
REMARK SMILES IDX 29 35 80 36 74 37 76 38 30 39 79 40 73 41 72 42 31 44 61 45
REMARK SMILES IDX 42 46 60 47 43 48 46 49 59 50 77 51 44 52 45 53 58 55 78 56
REMARK SMILES IDX 47 57 32 58 33 59 41 60 34 61 40 62 35 63 36 64 37 65 38 66
REMARK SMILES IDX 39 67 62 68 63 69 71 70 64 71 70 72 65 73 66 74 67 75 68 76
REMARK SMILES IDX 69 77 48 78 49 79 57 80 50 81 56 82 51 83 52 84 53 85 54 86
REMARK SMILES IDX 55 87
REMARK H PARENT 10 13 76 43 46 54
REMARK Flexibility Score: inf
ROOT
ATOM      1  C   UNL     1       6.008   2.028   5.048  1.00  0.00     0.274 C 
ENDROOT
BRANCH   1   2
ATOM      2  O   UNL     1       5.614   1.079   4.045  1.00  0.00    -0.462 OA
BRANCH   2   3
ATOM      3  C   UNL     1       4.621   1.513   3.233  1.00  0.00     0.312 C 
ATOM      4  O   UNL     1       4.054   2.598   3.345  1.00  0.00    -0.252 OA
BRANCH   3   5
ATOM      5  C   UNL     1       4.178   0.497   2.210  1.00  0.00     0.124 C 
ATOM      6  C   UNL     1       3.939  -1.808   1.623  1.00  0.00     0.106 C 
ATOM      7  C   UNL     1       2.866  -1.379   2.573  1.00  0.00    -0.006 C 
ATOM      8  C   UNL     1       5.016  -0.763   1.940  1.00  0.00     0.048 C 
ATOM      9  C   UNL     1       2.921  -0.068   2.789  1.00  0.00    -0.014 C 
BRANCH   6  10
ATOM     10  N   UNL     1       4.309  -3.196   1.765  1.00  0.00    -0.346 N 
ATOM     11  C   UNL     1       3.502  -4.303   1.566  1.00  0.00     0.251 C 
ATOM     12  O   UNL     1       3.977  -5.433   1.522  1.00  0.00    -0.269 OA
ATOM     13  H   UNL     1       5.239  -3.375   2.033  1.00  0.00     0.164 HD
BRANCH  11  14
ATOM     14  C   UNL     1       2.027  -4.123   1.559  1.00  0.00     0.043 A 
ATOM     15  C   UNL     1       0.126  -2.784   0.924  1.00  0.00     0.119 A 
ATOM     16  C   UNL     1      -0.552  -3.228   2.065  1.00  0.00     0.046 A 
ATOM     17  C   UNL     1       1.392  -3.290   0.626  1.00  0.00     0.060 A 
ATOM     18  C   UNL     1       0.042  -4.145   2.935  1.00  0.00     0.005 A 
ATOM     19  C   UNL     1       1.339  -4.589   2.688  1.00  0.00     0.014 A 
BRANCH  15  20
ATOM     20  O   UNL     1      -0.517  -1.817   0.201  1.00  0.00    -0.497 OA
ATOM     21  C   UNL     1       0.317  -0.823  -0.393  1.00  0.00     0.278 C 
ENDBRANCH  15  20
ENDBRANCH  11  14
ENDBRANCH   6  10
ENDBRANCH   3   5
ENDBRANCH   2   3
ENDBRANCH   1   2
BRANCH   1  22
ATOM     22  C   UNL     1       7.161   2.914   4.566  1.00  0.00     0.275 C 
BRANCH  22  23
ATOM     23  O   UNL     1       6.802   3.768   3.462  1.00  0.00    -0.458 OA
BRANCH  23  24
ATOM     24  C   UNL     1       6.952   3.221   2.229  1.00  0.00     0.338 C 
ATOM     25  O   UNL     1       7.355   2.102   1.963  1.00  0.00    -0.246 OA
BRANCH  24  26
ATOM     26  C   UNL     1       6.412   4.130   1.206  1.00  0.00     0.060 A 
ATOM     27  C   UNL     1       5.251   3.753   0.526  1.00  0.00     0.016 A 
ATOM     28  C   UNL     1       7.088   5.295   0.851  1.00  0.00     0.016 A 
ATOM     29  C   UNL     1       4.753   4.530  -0.512  1.00  0.00     0.010 A 
ATOM     30  C   UNL     1       6.578   6.089  -0.182  1.00  0.00     0.010 A 
ATOM     31  C   UNL     1       5.408   5.711  -0.867  1.00  0.00    -0.014 A 
BRANCH  31  32
ATOM     32  C   UNL     1       4.870   6.556  -1.957  1.00  0.00     0.031 A 
ATOM     33  C   UNL     1       5.628   6.682  -3.244  1.00  0.00     0.074 A 
ATOM     34  C   UNL     1       3.709   7.214  -1.777  1.00  0.00     0.049 A 
ATOM     35  N   UNL     1       5.441   7.518  -4.230  1.00  0.00    -0.248 NA
ATOM     36  C   UNL     1       6.744   5.743  -3.448  1.00  0.00     0.031 C 
ATOM     37  C   UNL     1       2.845   7.102  -0.599  1.00  0.00     0.029 A 
ATOM     38  N   UNL     1       3.063   8.120  -2.578  1.00  0.00    -0.354 N 
ATOM     39  C   UNL     1       6.438   7.236  -5.156  1.00  0.00     0.074 A 
ATOM     40  C   UNL     1       7.225   6.149  -4.616  1.00  0.00     0.031 C 
ATOM     41  C   UNL     1       1.786   7.912  -0.753  1.00  0.00     0.029 A 
ATOM     42  C   UNL     1       1.938   8.657  -1.998  1.00  0.00     0.049 A 
ATOM     43  H   UNL     1       3.374   8.362  -3.481  1.00  0.00     0.167 HD
ATOM     44  C   UNL     1       6.675   7.843  -6.343  1.00  0.00     0.031 A 
ATOM     45  C   UNL     1       1.155   9.679  -2.392  1.00  0.00     0.031 A 
ATOM     46  C   UNL     1       5.878   8.923  -6.862  1.00  0.00     0.049 A 
ATOM     47  C   UNL     1       1.503  10.409  -3.658  1.00  0.00     0.074 A 
ATOM     48  C   UNL     1       6.028   9.609  -8.054  1.00  0.00     0.029 A 
ATOM     49  N   UNL     1       4.781   9.475  -6.217  1.00  0.00    -0.354 N 
ATOM     50  N   UNL     1       2.468  10.160  -4.511  1.00  0.00    -0.248 NA
ATOM     51  C   UNL     1       0.673  11.571  -4.004  1.00  0.00     0.031 C 
ATOM     52  C   UNL     1       5.054  10.612  -8.104  1.00  0.00     0.029 A 
ATOM     53  C   UNL     1       4.265  10.516  -6.968  1.00  0.00     0.049 A 
ATOM     54  H   UNL     1       4.423   9.171  -5.352  1.00  0.00     0.167 HD
ATOM     55  C   UNL     1       2.360  11.132  -5.498  1.00  0.00     0.074 A 
ATOM     56  C   UNL     1       1.222  11.959  -5.148  1.00  0.00     0.031 C 
ATOM     57  C   UNL     1       3.136  11.329  -6.592  1.00  0.00     0.031 A 
BRANCH  44  58
ATOM     58  C   UNL     1       7.873   7.391  -7.132  1.00  0.00    -0.014 A 
ATOM     59  C   UNL     1       7.882   6.162  -7.814  1.00  0.00     0.010 A 
ATOM     60  C   UNL     1       8.999   8.231  -7.220  1.00  0.00     0.010 A 
ATOM     61  C   UNL     1       9.008   5.766  -8.543  1.00  0.00     0.020 A 
ATOM     62  C   UNL     1      10.117   7.849  -7.966  1.00  0.00     0.020 A 
ATOM     63  C   UNL     1      10.120   6.611  -8.611  1.00  0.00     0.054 A 
BRANCH  63  64
ATOM     64  S   UNL     1      11.560   6.082  -9.579  1.00  0.00     0.124 S 
ATOM     65  O   UNL     1      12.134   5.047  -8.723  1.00  0.00    -0.237 OA
ATOM     66  O   UNL     1      10.955   5.606 -10.821  1.00  0.00    -0.237 OA
ATOM     67  O   UNL     1      12.360   7.298  -9.706  1.00  0.00    -0.744 OA
ENDBRANCH  63  64
ENDBRANCH  44  58
BRANCH  45  68
ATOM     68  C   UNL     1       0.020  10.118  -1.536  1.00  0.00    -0.014 A 
ATOM     69  C   UNL     1      -1.308   9.924  -1.950  1.00  0.00     0.010 A 
ATOM     70  C   UNL     1       0.265  10.719  -0.286  1.00  0.00     0.010 A 
ATOM     71  C   UNL     1      -2.370  10.329  -1.135  1.00  0.00     0.020 A 
ATOM     72  C   UNL     1      -0.792  11.100   0.543  1.00  0.00     0.020 A 
ATOM     73  C   UNL     1      -2.105  10.912   0.108  1.00  0.00     0.054 A 
BRANCH  73  74
ATOM     74  S   UNL     1      -3.497  11.377   1.175  1.00  0.00     0.124 S 
ATOM     75  O   UNL     1      -3.981  12.592   0.528  1.00  0.00    -0.237 OA
ATOM     76  O   UNL     1      -4.375  10.214   1.075  1.00  0.00    -0.237 OA
ATOM     77  O   UNL     1      -2.876  11.566   2.484  1.00  0.00    -0.744 OA
ENDBRANCH  73  74
ENDBRANCH  45  68
BRANCH  57  78
ATOM     78  C   UNL     1       2.774  12.476  -7.493  1.00  0.00    -0.014 A 
ATOM     79  C   UNL     1       3.069  13.800  -7.126  1.00  0.00     0.010 A 
ATOM     80  C   UNL     1       2.195  12.220  -8.749  1.00  0.00     0.010 A 
ATOM     81  C   UNL     1       2.777  14.853  -7.996  1.00  0.00     0.020 A 
ATOM     82  C   UNL     1       1.924  13.268  -9.631  1.00  0.00     0.020 A 
ATOM     83  C   UNL     1       2.209  14.580  -9.245  1.00  0.00     0.054 A 
BRANCH  83  84
ATOM     84  S   UNL     1       1.902  15.958 -10.382  1.00  0.00     0.124 S 
ATOM     85  O   UNL     1       0.732  16.592  -9.782  1.00  0.00    -0.237 OA
ATOM     86  O   UNL     1       3.143  16.724 -10.301  1.00  0.00    -0.237 OA
ATOM     87  O   UNL     1       1.666  15.301 -11.666  1.00  0.00    -0.744 OA
ENDBRANCH  83  84
ENDBRANCH  57  78
ENDBRANCH  31  32
ENDBRANCH  24  26
ENDBRANCH  23  24
ENDBRANCH  22  23
ENDBRANCH   1  22
TORSDOF 17
