REMARK SMILES CC[NH2+][C@]1(C(=O)OCCOC(=O)c2ccc(-c3c4nc(c(-c5ccc(S(=O)(=O)[O-])cc5)c5ccc([nH]5)c(-c5ccc(S(=O)(=O)[O-])cc5)c5nc(c(-c6ccc(S(=O)(=O)[O-])cc6)c6ccc3[nH]6)C=C5)C=C4)cc2)CCC[C@@H]([N@@H+](C)CC2CCCC2)C1
REMARK SMILES IDX 8 1 7 2 5 3 6 4 4 5 73 6 85 7 74 8 76 9 75 10 3 11 2 14 1 15
REMARK SMILES IDX 77 16 78 17 79 19 80 20 81 21 84 22 82 23 83 24 9 25 10 26
REMARK SMILES IDX 11 27 12 28 13 29 14 30 72 31 15 32 71 33 16 34 17 35 18 36
REMARK SMILES IDX 65 37 19 38 70 39 64 40 66 41 20 42 69 43 63 44 62 45 21 47
REMARK SMILES IDX 51 48 32 49 50 50 33 51 36 52 49 53 67 54 34 55 35 56 48 58
REMARK SMILES IDX 68 59 37 60 22 61 23 62 31 63 24 64 30 65 25 66 26 67 27 68
REMARK SMILES IDX 28 69 29 70 52 71 53 72 61 73 54 74 60 75 55 76 56 77 57 78
REMARK SMILES IDX 58 79 59 80 38 81 39 82 47 83 40 84 46 85 41 86 42 87 43 88
REMARK SMILES IDX 44 89 45 90
REMARK H PARENT 3 12 3 13 77 18 66 46 36 57
REMARK Flexibility Score: inf
ROOT
ATOM      1  C   UNL     1       2.636  -0.493  -0.572  1.00  0.00     0.274 C 
ENDROOT
BRANCH   1   2
ATOM      2  O   UNL     1       2.220  -0.002  -1.863  1.00  0.00    -0.457 OA
BRANCH   2   3
ATOM      3  C   UNL     1       1.719  -0.942  -2.722  1.00  0.00     0.368 C 
ATOM      4  O   UNL     1       1.590  -2.127  -2.433  1.00  0.00    -0.245 OA
BRANCH   3   5
ATOM      5  C   UNL     1       1.371  -0.339  -4.119  1.00  0.00     0.200 C 
ATOM      6  C   UNL     1       0.343  -1.306  -4.775  1.00  0.00     0.081 C 
ATOM      7  C   UNL     1       0.717   1.066  -3.973  1.00  0.00     0.146 C 
ATOM      8  C   UNL     1      -0.237  -0.792  -6.087  1.00  0.00     0.013 C 
ATOM      9  C   UNL     1       0.065   1.601  -5.273  1.00  0.00     0.190 C 
ATOM     10  C   UNL     1      -0.888   0.561  -5.866  1.00  0.00     0.065 C 
BRANCH   5  11
ATOM     11  N   UNL     1       2.563  -0.398  -5.003  1.00  0.00    -0.332 N 
ATOM     12  H   UNL     1       2.877  -1.368  -5.029  1.00  0.00     0.347 HD
ATOM     13  H   UNL     1       2.244  -0.019  -5.895  1.00  0.00     0.347 HD
BRANCH  11  14
ATOM     14  C   UNL     1       3.708   0.420  -4.643  1.00  0.00     0.257 C 
ATOM     15  C   UNL     1       4.826   0.084  -5.623  1.00  0.00     0.071 C 
ENDBRANCH  11  14
ENDBRANCH   5  11
BRANCH   9  16
ATOM     16  N   UNL     1      -0.540   2.939  -5.122  1.00  0.00    -0.334 N 
ATOM     17  C   UNL     1      -0.660   3.679  -6.367  1.00  0.00     0.332 C 
ATOM     18  H   UNL     1       0.208   3.369  -4.577  1.00  0.00     0.348 HD
BRANCH  16  19
ATOM     19  C   UNL     1      -1.602   3.187  -4.141  1.00  0.00     0.265 C 
BRANCH  19  20
ATOM     20  C   UNL     1      -3.131   3.104  -4.394  1.00  0.00     0.044 C 
ATOM     21  C   UNL     1      -3.778   4.088  -5.374  1.00  0.00     0.009 C 
ATOM     22  C   UNL     1      -3.728   1.774  -4.828  1.00  0.00     0.009 C 
ATOM     23  C   UNL     1      -5.156   3.487  -5.703  1.00  0.00     0.001 C 
ATOM     24  C   UNL     1      -5.195   2.114  -5.037  1.00  0.00     0.001 C 
ENDBRANCH  19  20
ENDBRANCH  16  19
ENDBRANCH   9  16
ENDBRANCH   3   5
ENDBRANCH   2   3
ENDBRANCH   1   2
BRANCH   1  25
ATOM     25  C   UNL     1       1.607  -0.147   0.499  1.00  0.00     0.275 C 
BRANCH  25  26
ATOM     26  O   UNL     1       0.347  -0.756   0.173  1.00  0.00    -0.458 OA
BRANCH  26  27
ATOM     27  C   UNL     1      -0.730   0.060   0.233  1.00  0.00     0.338 C 
ATOM     28  O   UNL     1      -0.759   1.223   0.594  1.00  0.00    -0.246 OA
BRANCH  27  29
ATOM     29  C   UNL     1      -1.926  -0.668  -0.226  1.00  0.00     0.060 A 
ATOM     30  C   UNL     1      -1.947  -1.230  -1.501  1.00  0.00     0.016 A 
ATOM     31  C   UNL     1      -3.073  -0.684   0.565  1.00  0.00     0.016 A 
ATOM     32  C   UNL     1      -3.138  -1.733  -2.026  1.00  0.00     0.010 A 
ATOM     33  C   UNL     1      -4.245  -1.267   0.069  1.00  0.00     0.010 A 
ATOM     34  C   UNL     1      -4.306  -1.758  -1.249  1.00  0.00    -0.014 A 
BRANCH  34  35
ATOM     35  C   UNL     1      -5.603  -2.225  -1.824  1.00  0.00     0.031 A 
ATOM     36  C   UNL     1      -6.793  -1.295  -1.856  1.00  0.00     0.074 A 
ATOM     37  C   UNL     1      -5.734  -3.471  -2.325  1.00  0.00     0.049 A 
ATOM     38  N   UNL     1      -8.043  -1.559  -2.143  1.00  0.00    -0.248 NA
ATOM     39  C   UNL     1      -6.546   0.112  -1.502  1.00  0.00     0.031 C 
ATOM     40  C   UNL     1      -4.671  -4.474  -2.405  1.00  0.00     0.029 A 
ATOM     41  N   UNL     1      -6.826  -4.103  -2.872  1.00  0.00    -0.354 N 
ATOM     42  C   UNL     1      -8.741  -0.373  -1.935  1.00  0.00     0.074 A 
ATOM     43  C   UNL     1      -7.773   0.613  -1.504  1.00  0.00     0.031 C 
ATOM     44  C   UNL     1      -5.149  -5.575  -3.006  1.00  0.00     0.029 A 
ATOM     45  C   UNL     1      -6.571  -5.391  -3.281  1.00  0.00     0.049 A 
ATOM     46  H   UNL     1      -7.707  -3.674  -2.963  1.00  0.00     0.167 HD
ATOM     47  C   UNL     1     -10.065  -0.127  -2.083  1.00  0.00     0.031 A 
ATOM     48  C   UNL     1      -7.388  -6.335  -3.788  1.00  0.00     0.031 A 
ATOM     49  C   UNL     1     -11.023  -1.086  -2.567  1.00  0.00     0.049 A 
ATOM     50  C   UNL     1      -8.852  -6.037  -3.955  1.00  0.00     0.074 A 
ATOM     51  C   UNL     1     -12.385  -0.922  -2.760  1.00  0.00     0.029 A 
ATOM     52  N   UNL     1     -10.719  -2.380  -2.959  1.00  0.00    -0.354 N 
ATOM     53  N   UNL     1      -9.504  -4.932  -3.686  1.00  0.00    -0.248 NA
ATOM     54  C   UNL     1      -9.693  -7.123  -4.479  1.00  0.00     0.031 C 
ATOM     55  C   UNL     1     -12.909  -2.126  -3.245  1.00  0.00     0.029 A 
ATOM     56  C   UNL     1     -11.866  -3.026  -3.391  1.00  0.00     0.049 A 
ATOM     57  H   UNL     1      -9.820  -2.781  -2.934  1.00  0.00     0.167 HD
ATOM     58  C   UNL     1     -10.831  -5.188  -4.011  1.00  0.00     0.074 A 
ATOM     59  C   UNL     1     -10.885  -6.543  -4.521  1.00  0.00     0.031 C 
ATOM     60  C   UNL     1     -11.909  -4.375  -3.890  1.00  0.00     0.031 A 
BRANCH  47  61
ATOM     61  C   UNL     1     -10.568   1.232  -1.673  1.00  0.00    -0.014 A 
ATOM     62  C   UNL     1     -10.326   2.375  -2.456  1.00  0.00     0.010 A 
ATOM     63  C   UNL     1     -11.323   1.358  -0.492  1.00  0.00     0.010 A 
ATOM     64  C   UNL     1     -10.795   3.626  -2.042  1.00  0.00     0.020 A 
ATOM     65  C   UNL     1     -11.814   2.603  -0.088  1.00  0.00     0.020 A 
ATOM     66  C   UNL     1     -11.530   3.732  -0.857  1.00  0.00     0.054 A 
BRANCH  66  67
ATOM     67  S   UNL     1     -12.138   5.364  -0.345  1.00  0.00     0.124 S 
ATOM     68  O   UNL     1     -10.930   5.976   0.203  1.00  0.00    -0.237 OA
ATOM     69  O   UNL     1     -12.619   5.938  -1.599  1.00  0.00    -0.237 OA
ATOM     70  O   UNL     1     -13.179   5.053   0.632  1.00  0.00    -0.744 OA
ENDBRANCH  66  67
ENDBRANCH  47  61
BRANCH  48  71
ATOM     71  C   UNL     1      -6.841  -7.673  -4.140  1.00  0.00    -0.014 A 
ATOM     72  C   UNL     1      -6.704  -8.057  -5.485  1.00  0.00     0.010 A 
ATOM     73  C   UNL     1      -6.434  -8.562  -3.128  1.00  0.00     0.010 A 
ATOM     74  C   UNL     1      -6.172  -9.308  -5.812  1.00  0.00     0.020 A 
ATOM     75  C   UNL     1      -5.878  -9.802  -3.452  1.00  0.00     0.020 A 
ATOM     76  C   UNL     1      -5.758 -10.171  -4.793  1.00  0.00     0.054 A 
BRANCH  76  77
ATOM     77  S   UNL     1      -4.998 -11.758  -5.235  1.00  0.00     0.124 S 
ATOM     78  O   UNL     1      -6.166 -12.579  -5.539  1.00  0.00    -0.237 OA
ATOM     79  O   UNL     1      -4.159 -11.405  -6.377  1.00  0.00    -0.237 OA
ATOM     80  O   UNL     1      -4.266 -12.131  -4.027  1.00  0.00    -0.744 OA
ENDBRANCH  76  77
ENDBRANCH  48  71
BRANCH  60  81
ATOM     81  C   UNL     1     -13.235  -4.924  -4.338  1.00  0.00    -0.014 A 
ATOM     82  C   UNL     1     -13.931  -5.866  -3.559  1.00  0.00     0.010 A 
ATOM     83  C   UNL     1     -13.804  -4.474  -5.543  1.00  0.00     0.010 A 
ATOM     84  C   UNL     1     -15.157  -6.375  -3.996  1.00  0.00     0.020 A 
ATOM     85  C   UNL     1     -15.039  -4.966  -5.973  1.00  0.00     0.020 A 
ATOM     86  C   UNL     1     -15.700  -5.927  -5.205  1.00  0.00     0.054 A 
BRANCH  86  87
ATOM     87  S   UNL     1     -17.302  -6.585  -5.746  1.00  0.00     0.124 S 
ATOM     88  O   UNL     1     -16.928  -7.891  -6.281  1.00  0.00    -0.237 OA
ATOM     89  O   UNL     1     -18.077  -6.612  -4.507  1.00  0.00    -0.237 OA
ATOM     90  O   UNL     1     -17.757  -5.611  -6.736  1.00  0.00    -0.744 OA
ENDBRANCH  86  87
ENDBRANCH  60  81
ENDBRANCH  34  35
ENDBRANCH  27  29
ENDBRANCH  26  27
ENDBRANCH  25  26
ENDBRANCH   1  25
TORSDOF 19
