REMARK SMILES COc1ccc(-c2nc3ccc(C)cc3[nH]2)c(C(=O)OCCOC(=O)c2ccc(-c3c4nc(c(-c5ccc(S(=O)(=O)[O-])cc5)c5ccc([nH]5)c(-c5ccc(S(=O)(=O)[O-])cc5)c5nc(c(-c6ccc(S(=O)(=O)[O-])cc6)c6ccc3[nH]6)C=C5)C=C4)cc2)c1OC
REMARK SMILES IDX 22 1 21 2 20 3 18 4 19 5 17 6 3 7 4 8 86 9 5 10 6 11 2 12
REMARK SMILES IDX 1 13 87 14 88 15 7 16 8 17 16 18 9 19 15 20 10 22 14 23
REMARK SMILES IDX 11 24 12 25 13 26 23 27 24 28 25 29 26 30 27 31 85 32 28 33
REMARK SMILES IDX 84 34 29 35 30 36 31 37 78 38 32 39 83 40 77 41 79 42 33 43
REMARK SMILES IDX 82 44 76 45 75 46 34 48 64 49 45 50 63 51 46 52 49 53 62 54
REMARK SMILES IDX 80 55 47 56 48 57 61 59 81 60 50 61 35 62 36 63 44 64 37 65
REMARK SMILES IDX 43 66 38 67 39 68 40 69 41 70 42 71 65 72 66 73 74 74 67 75
REMARK SMILES IDX 73 76 68 77 69 78 70 79 71 80 72 81 51 82 52 83 60 84 53 85
REMARK SMILES IDX 59 86 54 87 55 88 56 89 57 90 58 91
REMARK H PARENT 16 21 79 47 49 58
REMARK Flexibility Score: inf
ROOT
ATOM      1  C   UNL     1       6.801   3.972  -2.822  1.00  0.00     0.275 C 
ENDROOT
BRANCH   1   2
ATOM      2  C   UNL     1       6.426   3.806  -1.347  1.00  0.00     0.275 C 
BRANCH   2   3
ATOM      3  O   UNL     1       5.087   3.318  -1.300  1.00  0.00    -0.458 OA
BRANCH   3   4
ATOM      4  C   UNL     1       4.417   3.572  -0.155  1.00  0.00     0.342 C 
ATOM      5  O   UNL     1       4.858   3.857   0.935  1.00  0.00    -0.246 OA
BRANCH   4   6
ATOM      6  C   UNL     1       2.983   3.531  -0.493  1.00  0.00     0.116 A 
ATOM      7  C   UNL     1       1.033   2.222  -1.011  1.00  0.00     0.161 A 
ATOM      8  C   UNL     1       0.289   3.406  -1.108  1.00  0.00     0.051 A 
ATOM      9  C   UNL     1       2.397   2.279  -0.735  1.00  0.00     0.176 A 
ATOM     10  C   UNL     1       0.900   4.663  -0.922  1.00  0.00     0.017 A 
ATOM     11  C   UNL     1       2.266   4.747  -0.613  1.00  0.00     0.036 A 
BRANCH   7  12
ATOM     12  O   UNL     1       0.419   1.044  -1.342  1.00  0.00    -0.493 OA
ATOM     13  C   UNL     1      -0.075   0.368  -0.186  1.00  0.00     0.278 C 
ENDBRANCH   7  12
BRANCH   9  14
ATOM     14  O   UNL     1       3.225   1.208  -0.950  1.00  0.00    -0.492 OA
ATOM     15  C   UNL     1       3.172   0.193   0.037  1.00  0.00     0.278 C 
ENDBRANCH   9  14
BRANCH  11  16
ATOM     16  C   UNL     1       3.020   6.017  -0.672  1.00  0.00     0.139 A 
ATOM     17  N   UNL     1       4.234   6.076  -1.184  1.00  0.00    -0.228 NA
ATOM     18  N   UNL     1       2.620   7.288  -0.307  1.00  0.00    -0.338 N 
ATOM     19  C   UNL     1       4.590   7.384  -1.249  1.00  0.00     0.089 A 
ATOM     20  C   UNL     1       3.606   8.181  -0.696  1.00  0.00     0.066 A 
ATOM     21  H   UNL     1       1.780   7.519   0.152  1.00  0.00     0.168 HD
ATOM     22  C   UNL     1       5.730   7.955  -1.826  1.00  0.00     0.031 A 
ATOM     23  C   UNL     1       3.711   9.578  -0.691  1.00  0.00     0.031 A 
ATOM     24  C   UNL     1       5.784   9.340  -1.960  1.00  0.00     0.006 A 
ATOM     25  C   UNL     1       4.770  10.146  -1.432  1.00  0.00    -0.049 A 
ATOM     26  C   UNL     1       4.796  11.616  -1.741  1.00  0.00     0.044 C 
ENDBRANCH  11  16
ENDBRANCH   4   6
ENDBRANCH   3   4
ENDBRANCH   2   3
ENDBRANCH   1   2
BRANCH   1  27
ATOM     27  O   UNL     1       6.028   5.019  -3.455  1.00  0.00    -0.458 OA
BRANCH  27  28
ATOM     28  C   UNL     1       4.856   4.647  -4.040  1.00  0.00     0.338 C 
ATOM     29  O   UNL     1       4.472   3.505  -4.235  1.00  0.00    -0.246 OA
BRANCH  28  30
ATOM     30  C   UNL     1       4.031   5.846  -4.360  1.00  0.00     0.060 A 
ATOM     31  C   UNL     1       2.643   5.782  -4.164  1.00  0.00     0.016 A 
ATOM     32  C   UNL     1       4.599   7.041  -4.809  1.00  0.00     0.016 A 
ATOM     33  C   UNL     1       1.839   6.918  -4.346  1.00  0.00     0.010 A 
ATOM     34  C   UNL     1       3.794   8.176  -4.993  1.00  0.00     0.010 A 
ATOM     35  C   UNL     1       2.407   8.133  -4.751  1.00  0.00    -0.014 A 
BRANCH  35  36
ATOM     36  C   UNL     1       1.573   9.339  -5.031  1.00  0.00     0.031 A 
ATOM     37  C   UNL     1       1.182   9.644  -6.443  1.00  0.00     0.074 A 
ATOM     38  C   UNL     1       1.149  10.177  -4.062  1.00  0.00     0.049 A 
ATOM     39  N   UNL     1       0.496  10.661  -6.893  1.00  0.00    -0.248 NA
ATOM     40  C   UNL     1       1.546   8.650  -7.464  1.00  0.00     0.031 C 
ATOM     41  C   UNL     1       1.250   9.922  -2.637  1.00  0.00     0.029 A 
ATOM     42  N   UNL     1       0.572  11.426  -4.122  1.00  0.00    -0.354 N 
ATOM     43  C   UNL     1       0.278  10.396  -8.234  1.00  0.00     0.074 A 
ATOM     44  C   UNL     1       0.970   9.162  -8.543  1.00  0.00     0.031 C 
ATOM     45  C   UNL     1       0.893  11.024  -1.953  1.00  0.00     0.029 A 
ATOM     46  C   UNL     1       0.513  12.061  -2.899  1.00  0.00     0.049 A 
ATOM     47  H   UNL     1       0.235  11.827  -4.956  1.00  0.00     0.167 HD
ATOM     48  C   UNL     1      -0.471  11.099  -9.113  1.00  0.00     0.031 A 
ATOM     49  C   UNL     1       0.208  13.333  -2.570  1.00  0.00     0.031 A 
ATOM     50  C   UNL     1      -1.117  12.350  -8.819  1.00  0.00     0.049 A 
ATOM     51  C   UNL     1      -0.351  14.230  -3.635  1.00  0.00     0.074 A 
ATOM     52  C   UNL     1      -1.897  13.128  -9.656  1.00  0.00     0.029 A 
ATOM     53  N   UNL     1      -1.032  13.026  -7.612  1.00  0.00    -0.354 N 
ATOM     54  N   UNL     1      -0.599  13.943  -4.889  1.00  0.00    -0.248 NA
ATOM     55  C   UNL     1      -0.741  15.589  -3.235  1.00  0.00     0.031 C 
ATOM     56  C   UNL     1      -2.216  14.312  -8.982  1.00  0.00     0.029 A 
ATOM     57  C   UNL     1      -1.693  14.241  -7.702  1.00  0.00     0.049 A 
ATOM     58  H   UNL     1      -0.570  12.693  -6.809  1.00  0.00     0.167 HD
ATOM     59  C   UNL     1      -1.255  15.051  -5.405  1.00  0.00     0.074 A 
ATOM     60  C   UNL     1      -1.338  16.026  -4.336  1.00  0.00     0.031 C 
ATOM     61  C   UNL     1      -1.774  15.218  -6.644  1.00  0.00     0.031 A 
BRANCH  48  62
ATOM     62  C   UNL     1      -0.609  10.529 -10.494  1.00  0.00    -0.014 A 
ATOM     63  C   UNL     1      -1.427   9.410 -10.735  1.00  0.00     0.010 A 
ATOM     64  C   UNL     1       0.058  11.143 -11.567  1.00  0.00     0.010 A 
ATOM     65  C   UNL     1      -1.558   8.902 -12.028  1.00  0.00     0.020 A 
ATOM     66  C   UNL     1      -0.088  10.650 -12.864  1.00  0.00     0.020 A 
ATOM     67  C   UNL     1      -0.888   9.526 -13.085  1.00  0.00     0.054 A 
BRANCH  67  68
ATOM     68  S   UNL     1      -1.105   8.869 -14.759  1.00  0.00     0.124 S 
ATOM     69  O   UNL     1      -0.365   7.611 -14.688  1.00  0.00    -0.237 OA
ATOM     70  O   UNL     1      -2.556   8.739 -14.865  1.00  0.00    -0.237 OA
ATOM     71  O   UNL     1      -0.510   9.893 -15.614  1.00  0.00    -0.744 OA
ENDBRANCH  67  68
ENDBRANCH  48  62
BRANCH  49  72
ATOM     72  C   UNL     1       0.418  13.851  -1.187  1.00  0.00    -0.014 A 
ATOM     73  C   UNL     1      -0.664  14.145  -0.340  1.00  0.00     0.010 A 
ATOM     74  C   UNL     1       1.723  14.134  -0.740  1.00  0.00     0.010 A 
ATOM     75  C   UNL     1      -0.446  14.737   0.911  1.00  0.00     0.020 A 
ATOM     76  C   UNL     1       1.948  14.698   0.521  1.00  0.00     0.020 A 
ATOM     77  C   UNL     1       0.859  15.012   1.333  1.00  0.00     0.054 A 
BRANCH  77  78
ATOM     78  S   UNL     1       1.112  15.786   2.956  1.00  0.00     0.124 S 
ATOM     79  O   UNL     1       0.595  17.132   2.736  1.00  0.00    -0.237 OA
ATOM     80  O   UNL     1       0.313  14.935   3.834  1.00  0.00    -0.237 OA
ATOM     81  O   UNL     1       2.557  15.694   3.157  1.00  0.00    -0.744 OA
ENDBRANCH  77  78
ENDBRANCH  49  72
BRANCH  61  82
ATOM     82  C   UNL     1      -2.532  16.491  -6.910  1.00  0.00    -0.014 A 
ATOM     83  C   UNL     1      -1.874  17.728  -7.007  1.00  0.00     0.010 A 
ATOM     84  C   UNL     1      -3.924  16.436  -7.107  1.00  0.00     0.010 A 
ATOM     85  C   UNL     1      -2.599  18.893  -7.269  1.00  0.00     0.020 A 
ATOM     86  C   UNL     1      -4.648  17.593  -7.403  1.00  0.00     0.020 A 
ATOM     87  C   UNL     1      -3.981  18.817  -7.469  1.00  0.00     0.054 A 
BRANCH  87  88
ATOM     88  S   UNL     1      -4.889  20.336  -7.864  1.00  0.00     0.124 S 
ATOM     89  O   UNL     1      -4.904  21.025  -6.577  1.00  0.00    -0.237 OA
ATOM     90  O   UNL     1      -4.055  20.948  -8.896  1.00  0.00    -0.237 OA
ATOM     91  O   UNL     1      -6.188  19.853  -8.327  1.00  0.00    -0.744 OA
ENDBRANCH  87  88
ENDBRANCH  61  82
ENDBRANCH  35  36
ENDBRANCH  28  30
ENDBRANCH  27  28
ENDBRANCH   1  27
TORSDOF 17
