REMARK SMILES [NH3+][C@H](Cc1ccc2nsnc2c1)C(=O)OCCOC(=O)c1ccc(-c2c3nc(c(-c4ccc(S(=O)(=O)[O-])cc4)c4ccc([nH]4)c(-c4ccc(S(=O)(=O)[O-])cc4)c4nc(c(-c5ccc(S(=O)(=O)[O-])cc5)c5ccc2[nH]5)C=C4)C=C3)cc1
REMARK SMILES IDX 17 1 16 2 15 3 13 4 14 5 2 6 1 7 3 11 4 12 5 13 12 14 6 15
REMARK SMILES IDX 11 16 7 17 10 18 8 19 9 20 18 21 19 22 20 23 21 24 22 25
REMARK SMILES IDX 80 26 23 27 79 28 24 29 25 30 26 31 73 32 27 33 78 34 72 35
REMARK SMILES IDX 74 36 28 37 77 38 71 39 70 40 29 42 59 43 40 44 58 45 41 46
REMARK SMILES IDX 44 47 57 48 75 49 42 50 43 51 56 53 76 54 45 55 30 56 31 57
REMARK SMILES IDX 39 58 32 59 38 60 33 61 34 62 35 63 36 64 37 65 60 66 61 67
REMARK SMILES IDX 69 68 62 69 68 70 63 71 64 72 65 73 66 74 67 75 46 76 47 77
REMARK SMILES IDX 55 78 48 79 54 80 49 81 50 82 51 83 52 84 53 85
REMARK H PARENT 1 8 1 9 1 10 74 41 44 52
REMARK Flexibility Score: inf
ROOT
ATOM      1  C   UNL     1      -3.739  -0.672   0.351  1.00  0.00     0.275 C 
ENDROOT
BRANCH   1   2
ATOM      2  C   UNL     1      -3.221   0.443   1.262  1.00  0.00     0.274 C 
BRANCH   2   3
ATOM      3  O   UNL     1      -1.833   0.712   0.994  1.00  0.00    -0.458 OA
BRANCH   3   4
ATOM      4  C   UNL     1      -0.919   0.382   1.940  1.00  0.00     0.365 C 
ATOM      5  O   UNL     1      -1.206  -0.114   3.024  1.00  0.00    -0.245 OA
BRANCH   4   6
ATOM      6  C   UNL     1       0.531   0.725   1.528  1.00  0.00     0.296 C 
BRANCH   6   7
ATOM      7  N   UNL     1       0.994   1.983   2.162  1.00  0.00    -0.346 N 
ATOM      8  H   UNL     1       0.728   1.985   3.147  1.00  0.00     0.345 HD
ATOM      9  H   UNL     1       0.565   2.779   1.692  1.00  0.00     0.345 HD
ATOM     10  H   UNL     1       2.009   2.049   2.084  1.00  0.00     0.345 HD
ENDBRANCH   6   7
BRANCH   6  11
ATOM     11  C   UNL     1       0.886   0.621   0.027  1.00  0.00     0.113 C 
BRANCH  11  12
ATOM     12  C   UNL     1       0.181   1.443  -1.046  1.00  0.00    -0.039 A 
ATOM     13  C   UNL     1      -0.622   2.581  -0.756  1.00  0.00     0.006 A 
ATOM     14  C   UNL     1       0.342   0.987  -2.381  1.00  0.00     0.035 A 
ATOM     15  C   UNL     1      -1.373   3.286  -1.718  1.00  0.00     0.032 A 
ATOM     16  C   UNL     1      -0.388   1.660  -3.390  1.00  0.00     0.105 A 
ATOM     17  C   UNL     1      -1.273   2.824  -3.048  1.00  0.00     0.104 A 
ATOM     18  N   UNL     1      -0.390   1.362  -4.699  1.00  0.00    -0.173 NA
ATOM     19  N   UNL     1      -1.920   3.332  -4.109  1.00  0.00    -0.173 NA
ATOM     20  S   UNL     1      -1.449   2.420  -5.417  1.00  0.00     0.069 S 
ENDBRANCH  11  12
ENDBRANCH   6  11
ENDBRANCH   4   6
ENDBRANCH   3   4
ENDBRANCH   2   3
ENDBRANCH   1   2
BRANCH   1  21
ATOM     21  O   UNL     1      -3.223  -1.948   0.769  1.00  0.00    -0.458 OA
BRANCH  21  22
ATOM     22  C   UNL     1      -2.035  -2.291   0.221  1.00  0.00     0.338 C 
ATOM     23  O   UNL     1      -1.432  -1.702  -0.664  1.00  0.00    -0.246 OA
BRANCH  22  24
ATOM     24  C   UNL     1      -1.446  -3.398   0.988  1.00  0.00     0.060 A 
ATOM     25  C   UNL     1      -0.149  -3.222   1.477  1.00  0.00     0.016 A 
ATOM     26  C   UNL     1      -2.133  -4.594   1.205  1.00  0.00     0.016 A 
ATOM     27  C   UNL     1       0.471  -4.242   2.188  1.00  0.00     0.010 A 
ATOM     28  C   UNL     1      -1.508  -5.621   1.919  1.00  0.00     0.010 A 
ATOM     29  C   UNL     1      -0.200  -5.452   2.407  1.00  0.00    -0.014 A 
BRANCH  29  30
ATOM     30  C   UNL     1       0.504  -6.543   3.117  1.00  0.00     0.031 A 
ATOM     31  C   UNL     1       1.058  -7.702   2.341  1.00  0.00     0.074 A 
ATOM     32  C   UNL     1       0.695  -6.452   4.447  1.00  0.00     0.049 A 
ATOM     33  N   UNL     1       1.714  -8.747   2.777  1.00  0.00    -0.248 NA
ATOM     34  C   UNL     1       0.854  -7.683   0.884  1.00  0.00     0.031 C 
ATOM     35  C   UNL     1       0.232  -5.351   5.294  1.00  0.00     0.029 A 
ATOM     36  N   UNL     1       1.338  -7.295   5.316  1.00  0.00    -0.354 N 
ATOM     37  C   UNL     1       2.000  -9.510   1.652  1.00  0.00     0.074 A 
ATOM     38  C   UNL     1       1.422  -8.824   0.516  1.00  0.00     0.031 C 
ATOM     39  C   UNL     1       0.614  -5.583   6.561  1.00  0.00     0.029 A 
ATOM     40  C   UNL     1       1.314  -6.863   6.620  1.00  0.00     0.049 A 
ATOM     41  H   UNL     1       1.776  -8.131   5.033  1.00  0.00     0.167 HD
ATOM     42  C   UNL     1       2.688 -10.674   1.574  1.00  0.00     0.031 A 
ATOM     43  C   UNL     1       1.788  -7.443   7.740  1.00  0.00     0.031 A 
ATOM     44  C   UNL     1       3.247 -11.358   2.711  1.00  0.00     0.049 A 
ATOM     45  C   UNL     1       2.499  -8.765   7.630  1.00  0.00     0.074 A 
ATOM     46  C   UNL     1       3.948 -12.552   2.739  1.00  0.00     0.029 A 
ATOM     47  N   UNL     1       3.170 -10.910   4.021  1.00  0.00    -0.354 N 
ATOM     48  N   UNL     1       2.757  -9.475   6.557  1.00  0.00    -0.248 NA
ATOM     49  C   UNL     1       2.989  -9.359   8.881  1.00  0.00     0.031 C 
ATOM     50  C   UNL     1       4.257 -12.846   4.072  1.00  0.00     0.029 A 
ATOM     51  C   UNL     1       3.796 -11.809   4.867  1.00  0.00     0.049 A 
ATOM     52  H   UNL     1       2.734 -10.075   4.307  1.00  0.00     0.167 HD
ATOM     53  C   UNL     1       3.451 -10.594   7.003  1.00  0.00     0.074 A 
ATOM     54  C   UNL     1       3.598 -10.449   8.438  1.00  0.00     0.031 C 
ATOM     55  C   UNL     1       3.919 -11.651   6.294  1.00  0.00     0.031 A 
BRANCH  42  56
ATOM     56  C   UNL     1       2.856 -11.293   0.212  1.00  0.00    -0.014 A 
ATOM     57  C   UNL     1       3.743 -10.742  -0.730  1.00  0.00     0.010 A 
ATOM     58  C   UNL     1       2.155 -12.468  -0.113  1.00  0.00     0.010 A 
ATOM     59  C   UNL     1       3.907 -11.342  -1.982  1.00  0.00     0.020 A 
ATOM     60  C   UNL     1       2.333 -13.084  -1.355  1.00  0.00     0.020 A 
ATOM     61  C   UNL     1       3.200 -12.509  -2.287  1.00  0.00     0.054 A 
BRANCH  61  62
ATOM     62  S   UNL     1       3.462 -13.287  -3.905  1.00  0.00     0.124 S 
ATOM     63  O   UNL     1       2.762 -12.367  -4.798  1.00  0.00    -0.237 OA
ATOM     64  O   UNL     1       4.917 -13.294  -4.026  1.00  0.00    -0.237 OA
ATOM     65  O   UNL     1       2.845 -14.604  -3.760  1.00  0.00    -0.744 OA
ENDBRANCH  61  62
ENDBRANCH  42  56
BRANCH  43  66
ATOM     66  C   UNL     1       1.573  -6.799   9.065  1.00  0.00    -0.014 A 
ATOM     67  C   UNL     1       2.651  -6.278   9.801  1.00  0.00     0.010 A 
ATOM     68  C   UNL     1       0.275  -6.720   9.604  1.00  0.00     0.010 A 
ATOM     69  C   UNL     1       2.439  -5.717  11.065  1.00  0.00     0.020 A 
ATOM     70  C   UNL     1       0.056  -6.134  10.853  1.00  0.00     0.020 A 
ATOM     71  C   UNL     1       1.143  -5.652  11.584  1.00  0.00     0.054 A 
BRANCH  71  72
ATOM     72  S   UNL     1       0.883  -4.896  13.213  1.00  0.00     0.124 S 
ATOM     73  O   UNL     1       1.342  -5.949  14.112  1.00  0.00    -0.237 OA
ATOM     74  O   UNL     1       1.726  -3.704  13.149  1.00  0.00    -0.237 OA
ATOM     75  O   UNL     1      -0.554  -4.631  13.240  1.00  0.00    -0.744 OA
ENDBRANCH  71  72
ENDBRANCH  43  66
BRANCH  55  76
ATOM     76  C   UNL     1       4.649 -12.719   7.065  1.00  0.00    -0.014 A 
ATOM     77  C   UNL     1       3.960 -13.593   7.925  1.00  0.00     0.010 A 
ATOM     78  C   UNL     1       6.041 -12.855   6.918  1.00  0.00     0.010 A 
ATOM     79  C   UNL     1       4.658 -14.551   8.664  1.00  0.00     0.020 A 
ATOM     80  C   UNL     1       6.739 -13.831   7.633  1.00  0.00     0.020 A 
ATOM     81  C   UNL     1       6.045 -14.658   8.519  1.00  0.00     0.054 A 
BRANCH  81  82
ATOM     82  S   UNL     1       6.931 -15.913   9.484  1.00  0.00     0.124 S 
ATOM     83  O   UNL     1       6.969 -15.303  10.811  1.00  0.00    -0.237 OA
ATOM     84  O   UNL     1       6.070 -17.086   9.357  1.00  0.00    -0.237 OA
ATOM     85  O   UNL     1       8.222 -16.019   8.809  1.00  0.00    -0.744 OA
ENDBRANCH  81  82
ENDBRANCH  55  76
ENDBRANCH  29  30
ENDBRANCH  22  24
ENDBRANCH  21  22
ENDBRANCH   1  21
TORSDOF 17
