REMARK SMILES O=C(OCCOC(=O)c1ccc(-c2c3nc(c(-c4ccc(S(=O)(=O)[O-])cc4)c4ccc([nH]4)c(-c4ccc(S(=O)(=O)[O-])cc4)c4nc(c(-c5ccc(S(=O)(=O)[O-])cc5)c5ccc2[nH]5)C=C4)C=C3)cc1)C1=Cc2ccc(Cl)c(Cl)c2O[C@@H]1C(F)(F)F
REMARK SMILES IDX 5 1 4 2 3 3 2 4 1 5 69 6 70 7 80 8 71 9 79 10 72 11 78 12
REMARK SMILES IDX 73 13 76 14 74 15 77 16 75 17 81 18 82 19 83 20 84 21 6 22
REMARK SMILES IDX 7 23 8 24 9 25 10 26 68 27 11 28 67 29 12 30 13 31 14 32
REMARK SMILES IDX 61 33 15 34 66 35 60 36 62 37 16 38 65 39 59 40 58 41 17 43
REMARK SMILES IDX 47 44 28 45 46 46 29 47 32 48 45 49 63 50 30 51 31 52 44 54
REMARK SMILES IDX 64 55 33 56 18 57 19 58 27 59 20 60 26 61 21 62 22 63 23 64
REMARK SMILES IDX 24 65 25 66 48 67 49 68 57 69 50 70 56 71 51 72 52 73 53 74
REMARK SMILES IDX 54 75 55 76 34 77 35 78 43 79 36 80 42 81 37 82 38 83 39 84
REMARK SMILES IDX 40 85 41 86
REMARK H PARENT 62 42 32 53
REMARK Flexibility Score: inf
ROOT
ATOM      1  C   UNL     1       4.639  -0.552   0.675  1.00  0.00     0.275 C 
ENDROOT
BRANCH   1   2
ATOM      2  C   UNL     1       3.837  -0.088  -1.297  1.00  0.00     0.275 C 
BRANCH   2   3
ATOM      3  O   UNL     1       3.065  -1.061  -2.224  1.00  0.00    -0.459 OA
BRANCH   3   4
ATOM      4  C   UNL     1       3.322  -2.351  -1.979  1.00  0.00     0.338 C 
ATOM      5  O   UNL     1       2.831  -3.346  -2.441  1.00  0.00    -0.246 OA
BRANCH   4   6
ATOM      6  C   UNL     1       4.104  -2.105  -0.793  1.00  0.00     0.087 C 
ATOM      7  C   UNL     1       5.464  -1.639  -1.136  1.00  0.00     0.027 C 
ATOM      8  C   UNL     1       2.766  -1.057   0.127  1.00  0.00     0.316 C 
ATOM      9  C   UNL     1       6.015   0.071  -0.897  1.00  0.00     0.019 A 
ATOM     10  O   UNL     1       3.321   0.772   0.356  1.00  0.00    -0.474 OA
ATOM     11  C   UNL     1       7.186   0.448  -1.492  1.00  0.00     0.013 A 
ATOM     12  C   UNL     1       4.966   1.302  -0.242  1.00  0.00     0.148 A 
ATOM     13  C   UNL     1       7.402   1.835  -1.528  1.00  0.00     0.023 A 
ATOM     14  C   UNL     1       5.270   2.638  -0.316  1.00  0.00     0.102 A 
ATOM     15  C   UNL     1       6.507   2.866  -0.985  1.00  0.00     0.063 A 
ATOM     16  Cl  UNL     1       4.241   3.874   0.242  1.00  0.00    -0.079 Cl
ATOM     17  Cl  UNL     1       7.061   4.493  -1.289  1.00  0.00    -0.083 Cl
BRANCH   8  18
ATOM     18  C   UNL     1       2.260  -2.157   1.125  1.00  0.00     0.430 C 
ATOM     19  F   UNL     1       1.024  -1.904   1.570  1.00  0.00    -0.167 F 
ATOM     20  F   UNL     1       2.135  -3.327   0.427  1.00  0.00    -0.167 F 
ATOM     21  F   UNL     1       3.087  -2.495   2.128  1.00  0.00    -0.167 F 
ENDBRANCH   8  18
ENDBRANCH   4   6
ENDBRANCH   3   4
ENDBRANCH   2   3
ENDBRANCH   1   2
BRANCH   1  22
ATOM     22  O   UNL     1       3.822  -0.368   2.145  1.00  0.00    -0.458 OA
BRANCH  22  23
ATOM     23  C   UNL     1       3.032   0.484   2.866  1.00  0.00     0.338 C 
ATOM     24  O   UNL     1       2.707   1.632   2.638  1.00  0.00    -0.246 OA
BRANCH  23  25
ATOM     25  C   UNL     1       2.332  -0.406   3.840  1.00  0.00     0.060 A 
ATOM     26  C   UNL     1       0.947  -0.605   3.704  1.00  0.00     0.016 A 
ATOM     27  C   UNL     1       3.095  -1.294   4.602  1.00  0.00     0.016 A 
ATOM     28  C   UNL     1       0.368  -1.796   4.177  1.00  0.00     0.010 A 
ATOM     29  C   UNL     1       2.516  -2.477   5.069  1.00  0.00     0.010 A 
ATOM     30  C   UNL     1       1.159  -2.758   4.824  1.00  0.00    -0.014 A 
BRANCH  30  31
ATOM     31  C   UNL     1       0.520  -3.882   5.555  1.00  0.00     0.031 A 
ATOM     32  C   UNL     1       0.124  -3.559   6.968  1.00  0.00     0.074 A 
ATOM     33  C   UNL     1       0.333  -5.119   5.049  1.00  0.00     0.049 A 
ATOM     34  N   UNL     1      -0.460  -4.303   7.865  1.00  0.00    -0.248 NA
ATOM     35  C   UNL     1       0.463  -2.200   7.434  1.00  0.00     0.031 C 
ATOM     36  C   UNL     1       0.692  -5.569   3.703  1.00  0.00     0.029 A 
ATOM     37  N   UNL     1      -0.215  -6.242   5.631  1.00  0.00    -0.354 N 
ATOM     38  C   UNL     1      -0.564  -3.495   8.990  1.00  0.00     0.074 A 
ATOM     39  C   UNL     1       0.086  -2.243   8.696  1.00  0.00     0.031 C 
ATOM     40  C   UNL     1       0.349  -6.868   3.563  1.00  0.00     0.029 A 
ATOM     41  C   UNL     1      -0.250  -7.349   4.808  1.00  0.00     0.049 A 
ATOM     42  H   UNL     1      -0.552  -6.254   6.556  1.00  0.00     0.167 HD
ATOM     43  C   UNL     1      -1.179  -3.753  10.163  1.00  0.00     0.031 A 
ATOM     44  C   UNL     1      -0.728  -8.592   5.040  1.00  0.00     0.031 A 
ATOM     45  C   UNL     1      -1.788  -5.010  10.470  1.00  0.00     0.049 A 
ATOM     46  C   UNL     1      -1.365  -8.882   6.386  1.00  0.00     0.074 A 
ATOM     47  C   UNL     1      -2.438  -5.394  11.625  1.00  0.00     0.029 A 
ATOM     48  N   UNL     1      -1.804  -6.097   9.608  1.00  0.00    -0.354 N 
ATOM     49  N   UNL     1      -1.531  -8.080   7.415  1.00  0.00    -0.248 NA
ATOM     50  C   UNL     1      -1.906 -10.235   6.593  1.00  0.00     0.031 C 
ATOM     51  C   UNL     1      -2.805  -6.735  11.481  1.00  0.00     0.029 A 
ATOM     52  C   UNL     1      -2.445  -7.160  10.210  1.00  0.00     0.049 A 
ATOM     53  H   UNL     1      -1.417  -6.107   8.703  1.00  0.00     0.167 HD
ATOM     54  C   UNL     1      -2.244  -8.813   8.362  1.00  0.00     0.074 A 
ATOM     55  C   UNL     1      -2.477 -10.121   7.785  1.00  0.00     0.031 C 
ATOM     56  C   UNL     1      -2.679  -8.441   9.593  1.00  0.00     0.031 A 
BRANCH  43  57
ATOM     57  C   UNL     1      -1.174  -2.643  11.174  1.00  0.00    -0.014 A 
ATOM     58  C   UNL     1      -1.896  -1.455  10.943  1.00  0.00     0.010 A 
ATOM     59  C   UNL     1      -0.377  -2.752  12.324  1.00  0.00     0.010 A 
ATOM     60  C   UNL     1      -1.769  -0.372  11.812  1.00  0.00     0.020 A 
ATOM     61  C   UNL     1      -0.276  -1.682  13.216  1.00  0.00     0.020 A 
ATOM     62  C   UNL     1      -0.955  -0.491  12.942  1.00  0.00     0.054 A 
BRANCH  62  63
ATOM     63  S   UNL     1      -0.805   0.931  14.055  1.00  0.00     0.124 S 
ATOM     64  O   UNL     1       0.028   1.840  13.271  1.00  0.00    -0.237 OA
ATOM     65  O   UNL     1      -2.194   1.346  14.230  1.00  0.00    -0.237 OA
ATOM     66  O   UNL     1      -0.169   0.373  15.245  1.00  0.00    -0.744 OA
ENDBRANCH  62  63
ENDBRANCH  43  57
BRANCH  44  67
ATOM     67  C   UNL     1      -0.683  -9.663   3.992  1.00  0.00    -0.014 A 
ATOM     68  C   UNL     1      -1.872 -10.154   3.415  1.00  0.00     0.010 A 
ATOM     69  C   UNL     1       0.536 -10.250   3.608  1.00  0.00     0.010 A 
ATOM     70  C   UNL     1      -1.847 -11.224   2.509  1.00  0.00     0.020 A 
ATOM     71  C   UNL     1       0.569 -11.303   2.681  1.00  0.00     0.020 A 
ATOM     72  C   UNL     1      -0.625 -11.793   2.147  1.00  0.00     0.054 A 
BRANCH  72  73
ATOM     73  S   UNL     1      -0.614 -13.163   0.952  1.00  0.00     0.124 S 
ATOM     74  O   UNL     1      -1.194 -14.254   1.730  1.00  0.00    -0.237 OA
ATOM     75  O   UNL     1      -1.448 -12.645  -0.129  1.00  0.00    -0.237 OA
ATOM     76  O   UNL     1       0.801 -13.318   0.620  1.00  0.00    -0.744 OA
ENDBRANCH  72  73
ENDBRANCH  44  67
BRANCH  56  77
ATOM     77  C   UNL     1      -3.521  -9.420  10.368  1.00  0.00    -0.014 A 
ATOM     78  C   UNL     1      -2.973 -10.583  10.935  1.00  0.00     0.010 A 
ATOM     79  C   UNL     1      -4.875  -9.113  10.602  1.00  0.00     0.010 A 
ATOM     80  C   UNL     1      -3.776 -11.441  11.691  1.00  0.00     0.020 A 
ATOM     81  C   UNL     1      -5.671  -9.949  11.385  1.00  0.00     0.020 A 
ATOM     82  C   UNL     1      -5.120 -11.118  11.911  1.00  0.00     0.054 A 
BRANCH  82  83
ATOM     83  S   UNL     1      -6.131 -12.226  12.929  1.00  0.00     0.124 S 
ATOM     84  O   UNL     1      -6.341 -13.357  12.029  1.00  0.00    -0.237 OA
ATOM     85  O   UNL     1      -5.265 -12.488  14.076  1.00  0.00    -0.237 OA
ATOM     86  O   UNL     1      -7.323 -11.435  13.225  1.00  0.00    -0.744 OA
ENDBRANCH  82  83
ENDBRANCH  56  77
ENDBRANCH  30  31
ENDBRANCH  23  25
ENDBRANCH  22  23
ENDBRANCH   1  22
TORSDOF 15
