REMARK SMILES Cc1cccc(C(=O)Nc2ccc(C(=O)NNC(=O)c3ccccc3C(=O)OCCOC(=O)c3ccc(-c4c5nc(c(-c6ccc(S(=O)(=O)[O-])cc6)c6ccc([nH]6)c(-c6ccc(S(=O)(=O)[O-])cc6)c6nc(c(-c7ccc(S(=O)(=O)[O-])cc7)c7ccc4[nH]7)C=C6)C=C5)cc3)cc2)c1
REMARK SMILES IDX 29 1 28 2 26 3 27 4 25 5 20 6 21 7 22 8 24 9 23 10 18 11
REMARK SMILES IDX 17 12 19 14 16 15 14 16 15 17 13 19 10 20 11 21 95 22 12 23
REMARK SMILES IDX 94 24 9 25 7 26 8 27 6 29 1 30 2 31 3 32 96 33 4 34 5 35
REMARK SMILES IDX 30 36 31 37 32 38 33 39 34 40 35 41 93 42 36 43 92 44 37 45
REMARK SMILES IDX 38 46 39 47 86 48 40 49 91 50 85 51 87 52 41 53 90 54 84 55
REMARK SMILES IDX 83 56 42 58 72 59 53 60 71 61 54 62 57 63 70 64 88 65 55 66
REMARK SMILES IDX 56 67 69 69 89 70 58 71 43 72 44 73 52 74 45 75 51 76 46 77
REMARK SMILES IDX 47 78 48 79 49 80 50 81 73 82 74 83 82 84 75 85 81 86 76 87
REMARK SMILES IDX 77 88 78 89 79 90 80 91 59 92 60 93 68 94 61 95 67 96 62 97
REMARK SMILES IDX 63 98 64 99 65 100 66 101
REMARK H PARENT 17 13 16 18 9 28 87 57 57 68
REMARK Flexibility Score: inf
ROOT
ATOM      1  C   UNL     1       3.364   1.546   2.003  1.00  0.00     0.275 C 
ENDROOT
BRANCH   1   2
ATOM      2  O   UNL     1       3.804   0.913   0.523  1.00  0.00    -0.458 OA
BRANCH   2   3
ATOM      3  C   UNL     1       4.516   1.317  -0.579  1.00  0.00     0.339 C 
ATOM      4  O   UNL     1       4.851   2.486  -0.726  1.00  0.00    -0.246 OA
BRANCH   3   5
ATOM      5  C   UNL     1       4.946   0.261  -1.707  1.00  0.00     0.072 A 
ATOM      6  C   UNL     1       5.123   0.567  -3.091  1.00  0.00     0.056 A 
ATOM      7  C   UNL     1       5.885  -0.269  -3.971  1.00  0.00     0.015 A 
ATOM      8  C   UNL     1       6.557  -1.383  -3.509  1.00  0.00     0.001 A 
ATOM      9  C   UNL     1       5.498  -0.981  -1.348  1.00  0.00     0.016 A 
ATOM     10  C   UNL     1       6.354  -1.741  -2.192  1.00  0.00     0.001 A 
BRANCH   6  11
ATOM     11  C   UNL     1       4.663   1.787  -3.786  1.00  0.00     0.270 C 
ATOM     12  N   UNL     1       3.642   2.490  -3.215  1.00  0.00    -0.263 N 
ATOM     13  H   UNL     1       2.896   2.058  -2.739  1.00  0.00     0.191 HD
ATOM     14  O   UNL     1       5.216   2.173  -4.815  1.00  0.00    -0.267 OA
BRANCH  12  15
ATOM     15  N   UNL     1       3.749   3.884  -3.367  1.00  0.00    -0.263 N 
ATOM     16  C   UNL     1       3.365   4.712  -2.337  1.00  0.00     0.269 C 
ATOM     17  O   UNL     1       4.028   5.689  -2.010  1.00  0.00    -0.267 OA
ATOM     18  H   UNL     1       4.098   4.266  -4.205  1.00  0.00     0.191 HD
BRANCH  16  19
ATOM     19  C   UNL     1       2.090   4.399  -1.642  1.00  0.00     0.041 A 
ATOM     20  C   UNL     1      -0.263   3.793  -0.277  1.00  0.00     0.041 A 
ATOM     21  C   UNL     1      -0.101   3.365  -1.594  1.00  0.00     0.027 A 
ATOM     22  C   UNL     1       0.704   4.606   0.323  1.00  0.00     0.027 A 
ATOM     23  C   UNL     1       1.070   3.677  -2.280  1.00  0.00     0.016 A 
ATOM     24  C   UNL     1       1.896   4.880  -0.346  1.00  0.00     0.016 A 
BRANCH  20  25
ATOM     25  N   UNL     1      -1.379   3.441   0.486  1.00  0.00    -0.322 N 
ATOM     26  C   UNL     1      -2.132   2.288   0.512  1.00  0.00     0.255 C 
ATOM     27  O   UNL     1      -3.267   2.357   0.991  1.00  0.00    -0.269 OA
ATOM     28  H   UNL     1      -1.679   4.138   1.113  1.00  0.00     0.170 HD
BRANCH  26  29
ATOM     29  C   UNL     1      -1.594   0.941   0.117  1.00  0.00     0.040 A 
ATOM     30  C   UNL     1       1.601  -0.892  -0.876  1.00  0.00     0.044 C 
ATOM     31  C   UNL     1       0.172  -0.632  -0.503  1.00  0.00    -0.050 A 
ATOM     32  C   UNL     1      -0.750  -1.677  -0.506  1.00  0.00     0.003 A 
ATOM     33  C   UNL     1      -0.242   0.652  -0.112  1.00  0.00     0.017 A 
ATOM     34  C   UNL     1      -2.085  -1.428  -0.204  1.00  0.00     0.001 A 
ATOM     35  C   UNL     1      -2.507  -0.125   0.077  1.00  0.00     0.014 A 
ENDBRANCH  26  29
ENDBRANCH  20  25
ENDBRANCH  16  19
ENDBRANCH  12  15
ENDBRANCH   6  11
ENDBRANCH   3   5
ENDBRANCH   2   3
ENDBRANCH   1   2
BRANCH   1  36
ATOM     36  C   UNL     1       3.902   0.841   3.704  1.00  0.00     0.275 C 
BRANCH  36  37
ATOM     37  O   UNL     1       5.673   0.727   4.328  1.00  0.00    -0.458 OA
BRANCH  37  38
ATOM     38  C   UNL     1       7.303   0.503   3.835  1.00  0.00     0.338 C 
ATOM     39  O   UNL     1       8.054   0.416   4.823  1.00  0.00    -0.246 OA
BRANCH  38  40
ATOM     40  C   UNL     1       8.262   0.592   2.219  1.00  0.00     0.060 A 
ATOM     41  C   UNL     1       9.462   1.328   2.209  1.00  0.00     0.016 A 
ATOM     42  C   UNL     1       7.853   0.602   0.787  1.00  0.00     0.016 A 
ATOM     43  C   UNL     1       9.771   2.347   1.107  1.00  0.00     0.010 A 
ATOM     44  C   UNL     1       8.210   1.489  -0.321  1.00  0.00     0.010 A 
ATOM     45  C   UNL     1       8.940   2.606  -0.039  1.00  0.00    -0.014 A 
BRANCH  45  46
ATOM     46  C   UNL     1       8.395   4.004  -0.600  1.00  0.00     0.031 A 
ATOM     47  C   UNL     1       8.542   4.449  -2.018  1.00  0.00     0.074 A 
ATOM     48  C   UNL     1       7.452   4.880  -0.072  1.00  0.00     0.049 A 
ATOM     49  N   UNL     1       9.133   5.548  -2.370  1.00  0.00    -0.248 NA
ATOM     50  C   UNL     1       7.704   3.893  -3.080  1.00  0.00     0.031 C 
ATOM     51  C   UNL     1       7.144   6.293  -0.386  1.00  0.00     0.029 A 
ATOM     52  N   UNL     1       6.670   4.806   1.056  1.00  0.00    -0.354 N 
ATOM     53  C   UNL     1       8.466   6.024  -3.504  1.00  0.00     0.074 A 
ATOM     54  C   UNL     1       7.722   4.878  -3.993  1.00  0.00     0.031 C 
ATOM     55  C   UNL     1       6.812   6.952   0.750  1.00  0.00     0.029 A 
ATOM     56  C   UNL     1       6.779   5.983   1.818  1.00  0.00     0.049 A 
ATOM     57  H   UNL     1       6.109   4.034   1.298  1.00  0.00     0.167 HD
ATOM     58  C   UNL     1       8.390   7.375  -3.783  1.00  0.00     0.031 A 
ATOM     59  C   UNL     1       7.537   5.884   2.961  1.00  0.00     0.031 A 
ATOM     60  C   UNL     1       8.809   8.220  -2.635  1.00  0.00     0.049 A 
ATOM     61  C   UNL     1       8.970   6.424   2.604  1.00  0.00     0.074 A 
ATOM     62  C   UNL     1       8.248   9.265  -1.907  1.00  0.00     0.029 A 
ATOM     63  N   UNL     1       9.904   7.832  -1.897  1.00  0.00    -0.354 N 
ATOM     64  N   UNL     1       9.208   7.418   1.778  1.00  0.00    -0.248 NA
ATOM     65  C   UNL     1      10.230   5.779   3.023  1.00  0.00     0.031 C 
ATOM     66  C   UNL     1       8.989   9.419  -0.688  1.00  0.00     0.029 A 
ATOM     67  C   UNL     1      10.003   8.484  -0.688  1.00  0.00     0.049 A 
ATOM     68  H   UNL     1      10.552   7.156  -2.203  1.00  0.00     0.167 HD
ATOM     69  C   UNL     1      10.531   7.355   1.354  1.00  0.00     0.074 A 
ATOM     70  C   UNL     1      11.144   6.376   2.233  1.00  0.00     0.031 C 
ATOM     71  C   UNL     1      11.018   7.980   0.229  1.00  0.00     0.031 A 
BRANCH  58  72
ATOM     72  C   UNL     1       7.791   8.027  -5.033  1.00  0.00    -0.014 A 
ATOM     73  C   UNL     1       7.871   9.434  -5.185  1.00  0.00     0.010 A 
ATOM     74  C   UNL     1       7.242   7.341  -6.133  1.00  0.00     0.010 A 
ATOM     75  C   UNL     1       7.411  10.112  -6.328  1.00  0.00     0.020 A 
ATOM     76  C   UNL     1       6.771   8.005  -7.287  1.00  0.00     0.020 A 
ATOM     77  C   UNL     1       6.858   9.390  -7.377  1.00  0.00     0.054 A 
BRANCH  77  78
ATOM     78  S   UNL     1       6.299  10.275  -8.860  1.00  0.00     0.124 S 
ATOM     79  O   UNL     1       5.248  11.142  -8.333  1.00  0.00    -0.237 OA
ATOM     80  O   UNL     1       7.512  10.957  -9.302  1.00  0.00    -0.237 OA
ATOM     81  O   UNL     1       5.832   9.210  -9.747  1.00  0.00    -0.744 OA
ENDBRANCH  77  78
ENDBRANCH  58  72
BRANCH  59  82
ATOM     82  C   UNL     1       7.186   4.496   3.583  1.00  0.00    -0.014 A 
ATOM     83  C   UNL     1       5.939   4.152   4.058  1.00  0.00     0.010 A 
ATOM     84  C   UNL     1       7.677   3.442   2.868  1.00  0.00     0.010 A 
ATOM     85  C   UNL     1       5.289   2.872   3.642  1.00  0.00     0.020 A 
ATOM     86  C   UNL     1       6.778   2.476   2.129  1.00  0.00     0.020 A 
ATOM     87  C   UNL     1       5.680   1.828   2.543  1.00  0.00     0.054 A 
BRANCH  87  88
ATOM     88  S   UNL     1       5.370  -0.514   2.321  1.00  0.00     0.124 S 
ATOM     89  O   UNL     1       5.504  -1.229   3.598  1.00  0.00    -0.237 OA
ATOM     90  O   UNL     1       4.033  -0.781   1.817  1.00  0.00    -0.237 OA
ATOM     91  O   UNL     1       6.377  -1.123   1.455  1.00  0.00    -0.744 OA
ENDBRANCH  87  88
ENDBRANCH  59  82
BRANCH  71  92
ATOM     92  C   UNL     1      12.486   8.056  -0.223  1.00  0.00    -0.014 A 
ATOM     93  C   UNL     1      13.566   8.043   0.673  1.00  0.00     0.010 A 
ATOM     94  C   UNL     1      12.822   8.339  -1.578  1.00  0.00     0.010 A 
ATOM     95  C   UNL     1      14.889   8.275   0.240  1.00  0.00     0.020 A 
ATOM     96  C   UNL     1      14.129   8.572  -2.023  1.00  0.00     0.020 A 
ATOM     97  C   UNL     1      15.162   8.543  -1.104  1.00  0.00     0.054 A 
BRANCH  97  98
ATOM     98  S   UNL     1      16.847   8.971  -1.616  1.00  0.00     0.124 S 
ATOM     99  O   UNL     1      17.235   9.971  -0.623  1.00  0.00    -0.237 OA
ATOM    100  O   UNL     1      17.535   7.687  -1.514  1.00  0.00    -0.237 OA
ATOM    101  O   UNL     1      16.685   9.485  -2.974  1.00  0.00    -0.744 OA
ENDBRANCH  97  98
ENDBRANCH  71  92
ENDBRANCH  45  46
ENDBRANCH  38  40
ENDBRANCH  37  38
ENDBRANCH  36  37
ENDBRANCH   1  36
TORSDOF 19
