REMARK SMILES CC(C)Oc1ccc([C@H](O)[C@H](F)C(=O)OCCOC(=O)c2ccc(-c3c4nc(c(-c5ccc(S(=O)(=O)[O-])cc5)c5ccc([nH]5)c(-c5ccc(S(=O)(=O)[O-])cc5)c5nc(c(-c6ccc(S(=O)(=O)[O-])cc6)c6ccc3[nH]6)C=C5)C=C4)cc2)cc1
REMARK SMILES IDX 16 1 15 2 13 3 14 4 11 5 12 6 9 7 8 8 5 9 6 10 82 11 7 12
REMARK SMILES IDX 81 13 4 14 2 15 1 16 3 17 10 18 17 20 18 21 19 22 20 23
REMARK SMILES IDX 21 24 22 25 80 26 23 27 79 28 24 29 25 30 26 31 73 32 27 33
REMARK SMILES IDX 78 34 72 35 74 36 28 37 77 38 71 39 70 40 29 42 59 43 40 44
REMARK SMILES IDX 58 45 41 46 44 47 57 48 75 49 42 50 43 51 56 53 76 54 45 55
REMARK SMILES IDX 30 56 31 57 39 58 32 59 38 60 33 61 34 62 35 63 36 64 37 65
REMARK SMILES IDX 60 66 61 67 69 68 62 69 68 70 63 71 64 72 65 73 66 74 67 75
REMARK SMILES IDX 46 76 47 77 55 78 48 79 54 80 49 81 50 82 51 83 52 84 53 85
REMARK H PARENT 10 19 74 41 44 52
REMARK Flexibility Score: inf
ROOT
ATOM      1  C   UNL     1      -4.846   0.482  -8.335  1.00  0.00     0.274 C 
ENDROOT
BRANCH   1   2
ATOM      2  O   UNL     1      -4.229   0.726  -7.059  1.00  0.00    -0.460 OA
BRANCH   2   3
ATOM      3  C   UNL     1      -3.650   1.943  -6.874  1.00  0.00     0.343 C 
ATOM      4  O   UNL     1      -3.544   2.810  -7.734  1.00  0.00    -0.249 OA
BRANCH   3   5
ATOM      5  C   UNL     1      -3.101   2.098  -5.474  1.00  0.00     0.308 C 
ATOM      6  F   UNL     1      -3.660   1.236  -4.572  1.00  0.00    -0.232 F 
BRANCH   5   7
ATOM      7  C   UNL     1      -1.573   1.940  -5.492  1.00  0.00     0.190 C 
BRANCH   7   8
ATOM      8  C   UNL     1      -1.086   0.573  -5.935  1.00  0.00    -0.016 A 
ATOM      9  C   UNL     1      -0.260  -1.942  -6.873  1.00  0.00     0.119 A 
ATOM     10  C   UNL     1       0.316  -0.783  -7.388  1.00  0.00     0.047 A 
ATOM     11  C   UNL     1      -1.178  -1.859  -5.835  1.00  0.00     0.047 A 
ATOM     12  C   UNL     1      -0.101   0.469  -6.929  1.00  0.00     0.010 A 
ATOM     13  C   UNL     1      -1.592  -0.609  -5.371  1.00  0.00     0.010 A 
BRANCH   9  14
ATOM     14  O   UNL     1       0.186  -3.145  -7.340  1.00  0.00    -0.491 OA
BRANCH  14  15
ATOM     15  C   UNL     1      -0.726  -3.876  -8.182  1.00  0.00     0.167 C 
ATOM     16  C   UNL     1      -1.806  -4.612  -7.393  1.00  0.00     0.052 C 
ATOM     17  C   UNL     1      -1.309  -3.064  -9.339  1.00  0.00     0.052 C 
ENDBRANCH  14  15
ENDBRANCH   9  14
ENDBRANCH   7   8
BRANCH   7  18
ATOM     18  O   UNL     1      -0.997   2.206  -4.208  1.00  0.00    -0.385 OA
ATOM     19  H   UNL     1      -1.302   1.540  -3.572  1.00  0.00     0.211 HD
ENDBRANCH   7  18
ENDBRANCH   5   7
ENDBRANCH   3   5
ENDBRANCH   2   3
ENDBRANCH   1   2
BRANCH   1  20
ATOM     20  C   UNL     1      -6.280  -0.007  -8.130  1.00  0.00     0.275 C 
BRANCH  20  21
ATOM     21  O   UNL     1      -7.030   0.960  -7.372  1.00  0.00    -0.458 OA
BRANCH  21  22
ATOM     22  C   UNL     1      -7.099   0.701  -6.041  1.00  0.00     0.338 C 
ATOM     23  O   UNL     1      -6.715  -0.300  -5.463  1.00  0.00    -0.246 OA
BRANCH  22  24
ATOM     24  C   UNL     1      -7.572   1.905  -5.340  1.00  0.00     0.060 A 
ATOM     25  C   UNL     1      -6.715   2.488  -4.404  1.00  0.00     0.016 A 
ATOM     26  C   UNL     1      -8.850   2.425  -5.554  1.00  0.00     0.016 A 
ATOM     27  C   UNL     1      -7.128   3.602  -3.680  1.00  0.00     0.010 A 
ATOM     28  C   UNL     1      -9.270   3.537  -4.815  1.00  0.00     0.010 A 
ATOM     29  C   UNL     1      -8.414   4.125  -3.867  1.00  0.00    -0.014 A 
BRANCH  29  30
ATOM     30  C   UNL     1      -8.854   5.258  -3.018  1.00  0.00     0.031 A 
ATOM     31  C   UNL     1      -9.743   5.010  -1.834  1.00  0.00     0.074 A 
ATOM     32  C   UNL     1      -8.401   6.498  -3.277  1.00  0.00     0.049 A 
ATOM     33  N   UNL     1     -10.171   5.857  -0.933  1.00  0.00    -0.248 NA
ATOM     34  C   UNL     1     -10.213   3.630  -1.639  1.00  0.00     0.031 C 
ATOM     35  C   UNL     1      -7.522   6.858  -4.390  1.00  0.00     0.029 A 
ATOM     36  N   UNL     1      -8.609   7.681  -2.615  1.00  0.00    -0.354 N 
ATOM     37  C   UNL     1     -10.972   5.118  -0.070  1.00  0.00     0.074 A 
ATOM     38  C   UNL     1     -10.985   3.759  -0.569  1.00  0.00     0.031 C 
ATOM     39  C   UNL     1      -7.255   8.173  -4.325  1.00  0.00     0.029 A 
ATOM     40  C   UNL     1      -7.962   8.750  -3.185  1.00  0.00     0.049 A 
ATOM     41  H   UNL     1      -9.168   7.756  -1.808  1.00  0.00     0.167 HD
ATOM     42  C   UNL     1     -11.637   5.535   1.035  1.00  0.00     0.031 A 
ATOM     43  C   UNL     1      -7.944  10.050  -2.833  1.00  0.00     0.031 A 
ATOM     44  C   UNL     1     -11.631   6.890   1.522  1.00  0.00     0.049 A 
ATOM     45  C   UNL     1      -8.691  10.491  -1.606  1.00  0.00     0.074 A 
ATOM     46  C   UNL     1     -12.253   7.405   2.647  1.00  0.00     0.029 A 
ATOM     47  N   UNL     1     -10.980   7.950   0.907  1.00  0.00    -0.354 N 
ATOM     48  N   UNL     1      -9.415   9.772  -0.780  1.00  0.00    -0.248 NA
ATOM     49  C   UNL     1      -8.606  11.914  -1.254  1.00  0.00     0.031 C 
ATOM     50  C   UNL     1     -12.017   8.785   2.685  1.00  0.00     0.029 A 
ATOM     51  C   UNL     1     -11.205   9.121   1.613  1.00  0.00     0.049 A 
ATOM     52  H   UNL     1     -10.438   7.880   0.088  1.00  0.00     0.167 HD
ATOM     53  C   UNL     1      -9.867  10.655   0.194  1.00  0.00     0.074 A 
ATOM     54  C   UNL     1      -9.311  11.954  -0.132  1.00  0.00     0.031 C 
ATOM     55  C   UNL     1     -10.669  10.412   1.262  1.00  0.00     0.031 A 
BRANCH  42  56
ATOM     56  C   UNL     1     -12.470   4.511   1.760  1.00  0.00    -0.014 A 
ATOM     57  C   UNL     1     -11.878   3.480   2.512  1.00  0.00     0.010 A 
ATOM     58  C   UNL     1     -13.873   4.583   1.684  1.00  0.00     0.010 A 
ATOM     59  C   UNL     1     -12.672   2.509   3.129  1.00  0.00     0.020 A 
ATOM     60  C   UNL     1     -14.671   3.629   2.320  1.00  0.00     0.020 A 
ATOM     61  C   UNL     1     -14.065   2.583   3.019  1.00  0.00     0.054 A 
BRANCH  61  62
ATOM     62  S   UNL     1     -15.076   1.305   3.814  1.00  0.00     0.124 S 
ATOM     63  O   UNL     1     -14.902   0.175   2.904  1.00  0.00    -0.237 OA
ATOM     64  O   UNL     1     -14.443   1.159   5.123  1.00  0.00    -0.237 OA
ATOM     65  O   UNL     1     -16.416   1.887   3.836  1.00  0.00    -0.744 OA
ENDBRANCH  61  62
ENDBRANCH  42  56
BRANCH  43  66
ATOM     66  C   UNL     1      -7.187  11.020  -3.668  1.00  0.00    -0.014 A 
ATOM     67  C   UNL     1      -5.975  11.569  -3.217  1.00  0.00     0.010 A 
ATOM     68  C   UNL     1      -7.658  11.356  -4.951  1.00  0.00     0.010 A 
ATOM     69  C   UNL     1      -5.243  12.434  -4.038  1.00  0.00     0.020 A 
ATOM     70  C   UNL     1      -6.918  12.200  -5.782  1.00  0.00     0.020 A 
ATOM     71  C   UNL     1      -5.715  12.736  -5.319  1.00  0.00     0.054 A 
BRANCH  71  72
ATOM     72  S   UNL     1      -4.702  13.777  -6.406  1.00  0.00     0.124 S 
ATOM     73  O   UNL     1      -4.942  15.110  -5.862  1.00  0.00    -0.237 OA
ATOM     74  O   UNL     1      -3.359  13.240  -6.198  1.00  0.00    -0.237 OA
ATOM     75  O   UNL     1      -5.262  13.530  -7.733  1.00  0.00    -0.744 OA
ENDBRANCH  71  72
ENDBRANCH  43  66
BRANCH  55  76
ATOM     76  C   UNL     1     -10.984  11.583   2.155  1.00  0.00    -0.014 A 
ATOM     77  C   UNL     1     -11.847  12.610   1.731  1.00  0.00     0.010 A 
ATOM     78  C   UNL     1     -10.413  11.654   3.439  1.00  0.00     0.010 A 
ATOM     79  C   UNL     1     -12.089  13.714   2.553  1.00  0.00     0.020 A 
ATOM     80  C   UNL     1     -10.674  12.744   4.274  1.00  0.00     0.020 A 
ATOM     81  C   UNL     1     -11.491  13.779   3.815  1.00  0.00     0.054 A 
BRANCH  81  82
ATOM     82  S   UNL     1     -11.812  15.223   4.865  1.00  0.00     0.124 S 
ATOM     83  O   UNL     1     -10.937  16.230   4.271  1.00  0.00    -0.237 OA
ATOM     84  O   UNL     1     -13.244  15.447   4.681  1.00  0.00    -0.237 OA
ATOM     85  O   UNL     1     -11.426  14.771   6.200  1.00  0.00    -0.744 OA
ENDBRANCH  81  82
ENDBRANCH  55  76
ENDBRANCH  29  30
ENDBRANCH  22  24
ENDBRANCH  21  22
ENDBRANCH  20  21
ENDBRANCH   1  20
TORSDOF 19
