REMARK SMILES CCc1ccc(Oc2ncnc(N3CCC(C(=O)OCCOC(=O)c4ccc(-c5c6nc(c(-c7ccc(S(=O)(=O)[O-])cc7)c7ccc([nH]7)c(-c7ccc(S(=O)(=O)[O-])cc7)c7nc(c(-c8ccc(S(=O)(=O)[O-])cc8)c8ccc5[nH]8)C=C7)C=C6)cc4)CC3)c2[N+](=O)[O-])cc1
REMARK SMILES IDX 20 1 19 2 17 3 18 4 16 5 13 6 14 7 86 8 15 9 85 10 12 11
REMARK SMILES IDX 8 12 9 13 87 14 10 15 11 16 7 17 6 18 3 19 4 20 92 21 5 22
REMARK SMILES IDX 91 23 2 24 1 25 88 26 89 27 90 28 21 29 22 30 23 31 24 32
REMARK SMILES IDX 25 33 26 34 84 35 27 36 83 37 28 38 29 39 30 40 77 41 31 42
REMARK SMILES IDX 82 43 76 44 78 45 32 46 81 47 75 48 74 49 33 51 63 52 44 53
REMARK SMILES IDX 62 54 45 55 48 56 61 57 79 58 46 59 47 60 60 62 80 63 49 64
REMARK SMILES IDX 34 65 35 66 43 67 36 68 42 69 37 70 38 71 39 72 40 73 41 74
REMARK SMILES IDX 64 75 65 76 73 77 66 78 72 79 67 80 68 81 69 82 70 83 71 84
REMARK SMILES IDX 50 85 51 86 59 87 52 88 58 89 53 90 54 91 55 92 56 93 57 94
REMARK H PARENT 78 50 48 61
REMARK Flexibility Score: inf
ROOT
ATOM      1  C   UNL     1      11.307  -4.360  -9.583  1.00  0.00     0.274 C 
ENDROOT
BRANCH   1   2
ATOM      2  O   UNL     1      10.149  -3.999  -8.807  1.00  0.00    -0.462 OA
BRANCH   2   3
ATOM      3  C   UNL     1      10.299  -4.033  -7.459  1.00  0.00     0.309 C 
ATOM      4  O   UNL     1      11.306  -4.423  -6.878  1.00  0.00    -0.252 OA
BRANCH   3   5
ATOM      5  C   UNL     1       9.079  -3.544  -6.708  1.00  0.00     0.103 C 
ATOM      6  N   UNL     1       6.353  -3.345  -5.924  1.00  0.00    -0.351 N 
ATOM      7  C   UNL     1       6.951  -2.231  -6.656  1.00  0.00     0.119 C 
ATOM      8  C   UNL     1       7.231  -4.203  -5.138  1.00  0.00     0.119 C 
ATOM      9  C   UNL     1       8.079  -2.739  -7.544  1.00  0.00     0.037 C 
ATOM     10  C   UNL     1       8.371  -4.714  -6.020  1.00  0.00     0.037 C 
BRANCH   6  11
ATOM     11  C   UNL     1       5.021  -3.618  -6.126  1.00  0.00     0.215 A 
ATOM     12  C   UNL     1       2.774  -3.993  -5.480  1.00  0.00     0.305 A 
ATOM     13  N   UNL     1       2.363  -4.053  -6.763  1.00  0.00    -0.195 NA
ATOM     14  C   UNL     1       4.097  -3.833  -5.123  1.00  0.00     0.373 A 
ATOM     15  C   UNL     1       3.320  -3.871  -7.675  1.00  0.00     0.228 A 
ATOM     16  N   UNL     1       4.614  -3.633  -7.416  1.00  0.00    -0.212 NA
BRANCH  12  17
ATOM     17  O   UNL     1       1.760  -4.114  -4.558  1.00  0.00    -0.434 OA
BRANCH  17  18
ATOM     18  C   UNL     1       1.391  -2.983  -3.857  1.00  0.00     0.129 A 
ATOM     19  C   UNL     1       0.629  -0.852  -2.188  1.00  0.00    -0.048 A 
ATOM     20  C   UNL     1       0.207  -2.159  -1.912  1.00  0.00     0.007 A 
ATOM     21  C   UNL     1       1.401  -0.619  -3.332  1.00  0.00     0.007 A 
ATOM     22  C   UNL     1       0.591  -3.217  -2.738  1.00  0.00     0.047 A 
ATOM     23  C   UNL     1       1.765  -1.674  -4.174  1.00  0.00     0.047 A 
BRANCH  19  24
ATOM     24  C   UNL     1       0.267   0.287  -1.267  1.00  0.00     0.032 C 
ATOM     25  C   UNL     1       0.925   0.161   0.101  1.00  0.00     0.009 C 
ENDBRANCH  19  24
ENDBRANCH  17  18
ENDBRANCH  12  17
BRANCH  14  26
ATOM     26  N   UNL     1       4.459  -3.805  -3.744  1.00  0.00     0.072 N 
ATOM     27  O   UNL     1       4.839  -2.727  -3.269  1.00  0.00    -0.258 OA
ATOM     28  O   UNL     1       4.371  -4.874  -3.122  1.00  0.00    -0.258 OA
ENDBRANCH  14  26
ENDBRANCH   6  11
ENDBRANCH   3   5
ENDBRANCH   2   3
ENDBRANCH   1   2
BRANCH   1  29
ATOM     29  C   UNL     1      11.992  -3.123 -10.172  1.00  0.00     0.275 C 
BRANCH  29  30
ATOM     30  O   UNL     1      12.533  -2.268  -9.146  1.00  0.00    -0.458 OA
BRANCH  30  31
ATOM     31  C   UNL     1      11.712  -1.263  -8.761  1.00  0.00     0.338 C 
ATOM     32  O   UNL     1      10.606  -1.007  -9.208  1.00  0.00    -0.246 OA
BRANCH  31  33
ATOM     33  C   UNL     1      12.276  -0.544  -7.606  1.00  0.00     0.060 A 
ATOM     34  C   UNL     1      11.503  -0.479  -6.444  1.00  0.00     0.016 A 
ATOM     35  C   UNL     1      13.472   0.171  -7.701  1.00  0.00     0.016 A 
ATOM     36  C   UNL     1      11.906   0.319  -5.378  1.00  0.00     0.010 A 
ATOM     37  C   UNL     1      13.873   0.982  -6.631  1.00  0.00     0.010 A 
ATOM     38  C   UNL     1      13.077   1.082  -5.476  1.00  0.00    -0.014 A 
BRANCH  38  39
ATOM     39  C   UNL     1      13.376   2.073  -4.412  1.00  0.00     0.031 A 
ATOM     40  C   UNL     1      13.053   3.525  -4.646  1.00  0.00     0.074 A 
ATOM     41  C   UNL     1      13.844   1.669  -3.217  1.00  0.00     0.049 A 
ATOM     42  N   UNL     1      13.226   4.549  -3.850  1.00  0.00    -0.248 NA
ATOM     43  C   UNL     1      12.448   3.867  -5.944  1.00  0.00     0.031 C 
ATOM     44  C   UNL     1      14.139   0.285  -2.845  1.00  0.00     0.029 A 
ATOM     45  N   UNL     1      14.138   2.389  -2.087  1.00  0.00    -0.354 N 
ATOM     46  C   UNL     1      12.754   5.655  -4.548  1.00  0.00     0.074 A 
ATOM     47  C   UNL     1      12.311   5.182  -5.842  1.00  0.00     0.031 C 
ATOM     48  C   UNL     1      14.563   0.256  -1.569  1.00  0.00     0.029 A 
ATOM     49  C   UNL     1      14.597   1.619  -1.045  1.00  0.00     0.049 A 
ATOM     50  H   UNL     1      14.030   3.366  -2.027  1.00  0.00     0.167 HD
ATOM     51  C   UNL     1      12.685   6.947  -4.146  1.00  0.00     0.031 A 
ATOM     52  C   UNL     1      15.009   1.974   0.187  1.00  0.00     0.031 A 
ATOM     53  C   UNL     1      13.132   7.423  -2.864  1.00  0.00     0.049 A 
ATOM     54  C   UNL     1      14.977   3.426   0.586  1.00  0.00     0.074 A 
ATOM     55  C   UNL     1      13.150   8.722  -2.384  1.00  0.00     0.029 A 
ATOM     56  N   UNL     1      13.625   6.616  -1.852  1.00  0.00    -0.354 N 
ATOM     57  N   UNL     1      14.567   4.463  -0.104  1.00  0.00    -0.248 NA
ATOM     58  C   UNL     1      15.458   3.751   1.937  1.00  0.00     0.031 C 
ATOM     59  C   UNL     1      13.677   8.702  -1.087  1.00  0.00     0.029 A 
ATOM     60  C   UNL     1      13.948   7.387  -0.748  1.00  0.00     0.049 A 
ATOM     61  H   UNL     1      13.730   5.639  -1.909  1.00  0.00     0.167 HD
ATOM     62  C   UNL     1      14.722   5.560   0.737  1.00  0.00     0.074 A 
ATOM     63  C   UNL     1      15.242   5.058   1.992  1.00  0.00     0.031 C 
ATOM     64  C   UNL     1      14.460   6.868   0.493  1.00  0.00     0.031 A 
BRANCH  51  65
ATOM     65  C   UNL     1      12.118   7.943  -5.119  1.00  0.00    -0.014 A 
ATOM     66  C   UNL     1      10.733   8.013  -5.353  1.00  0.00     0.010 A 
ATOM     67  C   UNL     1      12.973   8.843  -5.780  1.00  0.00     0.010 A 
ATOM     68  C   UNL     1      10.216   8.948  -6.253  1.00  0.00     0.020 A 
ATOM     69  C   UNL     1      12.457   9.793  -6.666  1.00  0.00     0.020 A 
ATOM     70  C   UNL     1      11.082   9.830  -6.907  1.00  0.00     0.054 A 
BRANCH  70  71
ATOM     71  S   UNL     1      10.382  11.052  -8.052  1.00  0.00     0.124 S 
ATOM     72  O   UNL     1      10.077  10.229  -9.219  1.00  0.00    -0.237 OA
ATOM     73  O   UNL     1       9.224  11.555  -7.318  1.00  0.00    -0.237 OA
ATOM     74  O   UNL     1      11.466  12.014  -8.234  1.00  0.00    -0.744 OA
ENDBRANCH  70  71
ENDBRANCH  51  65
BRANCH  52  75
ATOM     75  C   UNL     1      15.521   0.948   1.135  1.00  0.00    -0.014 A 
ATOM     76  C   UNL     1      14.797   0.610   2.292  1.00  0.00     0.010 A 
ATOM     77  C   UNL     1      16.767   0.337   0.903  1.00  0.00     0.010 A 
ATOM     78  C   UNL     1      15.328  -0.291   3.220  1.00  0.00     0.020 A 
ATOM     79  C   UNL     1      17.288  -0.584   1.816  1.00  0.00     0.020 A 
ATOM     80  C   UNL     1      16.575  -0.875   2.980  1.00  0.00     0.054 A 
BRANCH  80  81
ATOM     81  S   UNL     1      17.250  -2.050   4.187  1.00  0.00     0.124 S 
ATOM     82  O   UNL     1      17.811  -1.157   5.195  1.00  0.00    -0.237 OA
ATOM     83  O   UNL     1      16.069  -2.806   4.596  1.00  0.00    -0.237 OA
ATOM     84  O   UNL     1      18.226  -2.809   3.408  1.00  0.00    -0.744 OA
ENDBRANCH  80  81
ENDBRANCH  52  75
BRANCH  64  85
ATOM     85  C   UNL     1      14.697   7.835   1.621  1.00  0.00    -0.014 A 
ATOM     86  C   UNL     1      15.999   8.206   2.000  1.00  0.00     0.010 A 
ATOM     87  C   UNL     1      13.599   8.387   2.304  1.00  0.00     0.010 A 
ATOM     88  C   UNL     1      16.200   9.078   3.073  1.00  0.00     0.020 A 
ATOM     89  C   UNL     1      13.795   9.277   3.363  1.00  0.00     0.020 A 
ATOM     90  C   UNL     1      15.096   9.600   3.754  1.00  0.00     0.054 A 
BRANCH  90  91
ATOM     91  S   UNL     1      15.375  10.739   5.138  1.00  0.00     0.124 S 
ATOM     92  O   UNL     1      15.699   9.821   6.226  1.00  0.00    -0.237 OA
ATOM     93  O   UNL     1      16.482  11.566   4.663  1.00  0.00    -0.237 OA
ATOM     94  O   UNL     1      14.098  11.438   5.270  1.00  0.00    -0.744 OA
ENDBRANCH  90  91
ENDBRANCH  64  85
ENDBRANCH  38  39
ENDBRANCH  31  33
ENDBRANCH  30  31
ENDBRANCH  29  30
ENDBRANCH   1  29
TORSDOF 19
