REMARK SMILES O=C(C[C@@H]([NH2+]Cc1ccccc1)C(=O)OCCOC(=O)c1ccc(-c2c3nc(c(-c4ccc(S(=O)(=O)[O-])cc4)c4ccc([nH]4)c(-c4ccc(S(=O)(=O)[O-])cc4)c4nc(c(-c5ccc(S(=O)(=O)[O-])cc5)c5ccc2[nH]5)C=C4)C=C3)cc1)Nc1cccc(Cl)c1Cl
REMARK SMILES IDX 16 1 15 2 13 3 14 4 4 5 3 6 2 7 1 8 81 9 82 11 83 12 88 13
REMARK SMILES IDX 84 14 86 15 89 16 85 17 87 18 5 19 6 22 7 23 8 24 12 25 9 26
REMARK SMILES IDX 11 27 10 28 17 29 18 30 19 31 20 32 21 33 22 34 80 35 23 36
REMARK SMILES IDX 79 37 24 38 25 39 26 40 73 41 27 42 78 43 72 44 74 45 28 46
REMARK SMILES IDX 77 47 71 48 70 49 29 51 59 52 40 53 58 54 41 55 44 56 57 57
REMARK SMILES IDX 75 58 42 59 43 60 56 62 76 63 45 64 30 65 31 66 39 67 32 68
REMARK SMILES IDX 38 69 33 70 34 71 35 72 36 73 37 74 60 75 61 76 69 77 62 78
REMARK SMILES IDX 68 79 63 80 64 81 65 82 66 83 67 84 46 85 47 86 55 87 48 88
REMARK SMILES IDX 54 89 49 90 50 91 51 92 52 93 53 94
REMARK H PARENT 81 10 5 20 5 21 74 50 44 61
REMARK Flexibility Score: inf
ROOT
ATOM      1  C   UNL     1       5.862   3.863   2.089  1.00  0.00     0.274 C 
ENDROOT
BRANCH   1   2
ATOM      2  O   UNL     1       5.251   2.719   1.460  1.00  0.00    -0.458 OA
BRANCH   2   3
ATOM      3  C   UNL     1       5.106   1.631   2.266  1.00  0.00     0.365 C 
ATOM      4  O   UNL     1       5.537   1.595   3.414  1.00  0.00    -0.245 OA
BRANCH   3   5
ATOM      5  C   UNL     1       4.338   0.461   1.611  1.00  0.00     0.303 C 
BRANCH   5   6
ATOM      6  C   UNL     1       3.617   0.905   0.328  1.00  0.00     0.177 C 
BRANCH   6   7
ATOM      7  C   UNL     1       2.528  -0.067  -0.064  1.00  0.00     0.231 C 
ATOM      8  O   UNL     1       1.381   0.042   0.354  1.00  0.00    -0.274 OA
ATOM      9  N   UNL     1       3.003  -1.121  -0.827  1.00  0.00    -0.325 N 
ATOM     10  H   UNL     1       3.971  -1.167  -1.000  1.00  0.00     0.169 HD
BRANCH   9  11
ATOM     11  C   UNL     1       2.184  -2.134  -1.373  1.00  0.00     0.061 A 
ATOM     12  C   UNL     1       2.627  -3.450  -1.177  1.00  0.00     0.028 A 
ATOM     13  C   UNL     1       1.010  -1.895  -2.120  1.00  0.00     0.083 A 
ATOM     14  C   UNL     1       1.882  -4.528  -1.652  1.00  0.00     0.004 A 
ATOM     15  C   UNL     1       0.279  -2.990  -2.612  1.00  0.00     0.061 A 
ATOM     16  Cl  UNL     1       0.583  -0.284  -2.616  1.00  0.00    -0.080 Cl
ATOM     17  C   UNL     1       0.708  -4.299  -2.363  1.00  0.00     0.022 A 
ATOM     18  Cl  UNL     1      -1.141  -2.807  -3.586  1.00  0.00    -0.083 Cl
ENDBRANCH   9  11
ENDBRANCH   6   7
ENDBRANCH   5   6
BRANCH   5  19
ATOM     19  N   UNL     1       5.196  -0.734   1.320  1.00  0.00    -0.330 N 
ATOM     20  H   UNL     1       5.823  -0.494   0.553  1.00  0.00     0.347 HD
ATOM     21  H   UNL     1       4.556  -1.497   1.098  1.00  0.00     0.347 HD
BRANCH  19  22
ATOM     22  C   UNL     1       6.018  -1.204   2.451  1.00  0.00     0.298 C 
BRANCH  22  23
ATOM     23  C   UNL     1       5.225  -1.914   3.524  1.00  0.00     0.006 A 
ATOM     24  C   UNL     1       4.797  -1.235   4.671  1.00  0.00     0.009 A 
ATOM     25  C   UNL     1       4.899  -3.273   3.390  1.00  0.00     0.009 A 
ATOM     26  C   UNL     1       4.059  -1.892   5.655  1.00  0.00     0.001 A 
ATOM     27  C   UNL     1       4.166  -3.930   4.382  1.00  0.00     0.001 A 
ATOM     28  C   UNL     1       3.741  -3.237   5.512  1.00  0.00     0.000 A 
ENDBRANCH  22  23
ENDBRANCH  19  22
ENDBRANCH   5  19
ENDBRANCH   3   5
ENDBRANCH   2   3
ENDBRANCH   1   2
BRANCH   1  29
ATOM     29  C   UNL     1       4.836   4.824   2.707  1.00  0.00     0.275 C 
BRANCH  29  30
ATOM     30  O   UNL     1       4.056   4.226   3.761  1.00  0.00    -0.458 OA
BRANCH  30  31
ATOM     31  C   UNL     1       2.900   3.649   3.352  1.00  0.00     0.338 C 
ATOM     32  O   UNL     1       2.492   3.601   2.200  1.00  0.00    -0.246 OA
BRANCH  31  33
ATOM     33  C   UNL     1       2.224   2.946   4.460  1.00  0.00     0.060 A 
ATOM     34  C   UNL     1       1.701   1.674   4.199  1.00  0.00     0.016 A 
ATOM     35  C   UNL     1       2.018   3.544   5.707  1.00  0.00     0.016 A 
ATOM     36  C   UNL     1       0.982   0.993   5.179  1.00  0.00     0.010 A 
ATOM     37  C   UNL     1       1.264   2.874   6.680  1.00  0.00     0.010 A 
ATOM     38  C   UNL     1       0.730   1.602   6.415  1.00  0.00    -0.014 A 
BRANCH  38  39
ATOM     39  C   UNL     1      -0.192   0.934   7.365  1.00  0.00     0.031 A 
ATOM     40  C   UNL     1      -1.663   1.226   7.288  1.00  0.00     0.074 A 
ATOM     41  C   UNL     1       0.272   0.017   8.232  1.00  0.00     0.049 A 
ATOM     42  N   UNL     1      -2.643   0.717   7.989  1.00  0.00    -0.248 NA
ATOM     43  C   UNL     1      -2.085   2.225   6.293  1.00  0.00     0.031 C 
ATOM     44  C   UNL     1       1.673  -0.373   8.369  1.00  0.00     0.029 A 
ATOM     45  N   UNL     1      -0.386  -0.770   9.143  1.00  0.00    -0.354 N 
ATOM     46  C   UNL     1      -3.799   1.333   7.523  1.00  0.00     0.074 A 
ATOM     47  C   UNL     1      -3.395   2.265   6.492  1.00  0.00     0.031 C 
ATOM     48  C   UNL     1       1.767  -1.359   9.278  1.00  0.00     0.029 A 
ATOM     49  C   UNL     1       0.440  -1.634   9.825  1.00  0.00     0.049 A 
ATOM     50  H   UNL     1      -1.358  -0.722   9.295  1.00  0.00     0.167 HD
ATOM     51  C   UNL     1      -5.079   1.143   7.923  1.00  0.00     0.031 A 
ATOM     52  C   UNL     1       0.156  -2.533  10.788  1.00  0.00     0.031 A 
ATOM     53  C   UNL     1      -5.472   0.240   8.972  1.00  0.00     0.049 A 
ATOM     54  C   UNL     1      -1.269  -2.682  11.255  1.00  0.00     0.074 A 
ATOM     55  C   UNL     1      -6.739   0.007   9.480  1.00  0.00     0.029 A 
ATOM     56  N   UNL     1      -4.603  -0.580   9.677  1.00  0.00    -0.354 N 
ATOM     57  N   UNL     1      -2.348  -2.080  10.816  1.00  0.00    -0.248 NA
ATOM     58  C   UNL     1      -1.512  -3.629  12.353  1.00  0.00     0.031 C 
ATOM     59  C   UNL     1      -6.629  -0.922  10.521  1.00  0.00     0.029 A 
ATOM     60  C   UNL     1      -5.303  -1.309  10.623  1.00  0.00     0.049 A 
ATOM     61  H   UNL     1      -3.632  -0.635   9.526  1.00  0.00     0.167 HD
ATOM     62  C   UNL     1      -3.400  -2.589  11.570  1.00  0.00     0.074 A 
ATOM     63  C   UNL     1      -2.830  -3.562  12.479  1.00  0.00     0.031 C 
ATOM     64  C   UNL     1      -4.719  -2.276  11.519  1.00  0.00     0.031 A 
BRANCH  51  65
ATOM     65  C   UNL     1      -6.140   1.972   7.252  1.00  0.00    -0.014 A 
ATOM     66  C   UNL     1      -6.548   1.702   5.933  1.00  0.00     0.010 A 
ATOM     67  C   UNL     1      -6.752   3.023   7.958  1.00  0.00     0.010 A 
ATOM     68  C   UNL     1      -7.525   2.493   5.321  1.00  0.00     0.020 A 
ATOM     69  C   UNL     1      -7.745   3.801   7.357  1.00  0.00     0.020 A 
ATOM     70  C   UNL     1      -8.113   3.541   6.035  1.00  0.00     0.054 A 
BRANCH  70  71
ATOM     71  S   UNL     1      -9.387   4.546   5.223  1.00  0.00     0.124 S 
ATOM     72  O   UNL     1      -8.591   5.359   4.307  1.00  0.00    -0.237 OA
ATOM     73  O   UNL     1     -10.238   3.539   4.593  1.00  0.00    -0.237 OA
ATOM     74  O   UNL     1     -10.007   5.277   6.326  1.00  0.00    -0.744 OA
ENDBRANCH  70  71
ENDBRANCH  51  65
BRANCH  52  75
ATOM     75  C   UNL     1       1.242  -3.350  11.398  1.00  0.00    -0.014 A 
ATOM     76  C   UNL     1       1.295  -4.741  11.196  1.00  0.00     0.010 A 
ATOM     77  C   UNL     1       2.220  -2.741  12.206  1.00  0.00     0.010 A 
ATOM     78  C   UNL     1       2.290  -5.510  11.809  1.00  0.00     0.020 A 
ATOM     79  C   UNL     1       3.233  -3.502  12.796  1.00  0.00     0.020 A 
ATOM     80  C   UNL     1       3.253  -4.884  12.606  1.00  0.00     0.054 A 
BRANCH  80  81
ATOM     81  S   UNL     1       4.559  -5.891  13.364  1.00  0.00     0.124 S 
ATOM     82  O   UNL     1       3.850  -6.520  14.474  1.00  0.00    -0.237 OA
ATOM     83  O   UNL     1       4.946  -6.783  12.273  1.00  0.00    -0.237 OA
ATOM     84  O   UNL     1       5.571  -4.908  13.742  1.00  0.00    -0.744 OA
ENDBRANCH  80  81
ENDBRANCH  52  75
BRANCH  64  85
ATOM     85  C   UNL     1      -5.643  -3.021  12.445  1.00  0.00    -0.014 A 
ATOM     86  C   UNL     1      -5.664  -2.755  13.826  1.00  0.00     0.010 A 
ATOM     87  C   UNL     1      -6.534  -3.973  11.916  1.00  0.00     0.010 A 
ATOM     88  C   UNL     1      -6.535  -3.455  14.666  1.00  0.00     0.020 A 
ATOM     89  C   UNL     1      -7.423  -4.656  12.750  1.00  0.00     0.020 A 
ATOM     90  C   UNL     1      -7.406  -4.404  14.123  1.00  0.00     0.054 A 
BRANCH  90  91
ATOM     91  S   UNL     1      -8.550  -5.278  15.227  1.00  0.00     0.124 S 
ATOM     92  O   UNL     1      -7.667  -6.242  15.878  1.00  0.00    -0.237 OA
ATOM     93  O   UNL     1      -9.052  -4.207  16.085  1.00  0.00    -0.237 OA
ATOM     94  O   UNL     1      -9.538  -5.853  14.318  1.00  0.00    -0.744 OA
ENDBRANCH  90  91
ENDBRANCH  64  85
ENDBRANCH  38  39
ENDBRANCH  31  33
ENDBRANCH  30  31
ENDBRANCH  29  30
ENDBRANCH   1  29
TORSDOF 20
