REMARK SMILES O=C(NCc1ccc(C(=O)OCCOC(=O)c2ccc(-c3c4nc(c(-c5ccc(S(=O)(=O)[O-])cc5)c5ccc([nH]5)c(-c5ccc(S(=O)(=O)[O-])cc5)c5nc(c(-c6ccc(S(=O)(=O)[O-])cc6)c6ccc3[nH]6)C=C5)C=C4)cc2)cc1)Nc1ccccc1Br
REMARK SMILES IDX 12 1 11 2 9 3 10 4 8 5 5 6 6 7 78 8 7 9 77 10 4 11 3 12 1 13
REMARK SMILES IDX 2 14 79 15 80 18 81 19 85 20 82 21 84 22 86 23 83 24 13 25
REMARK SMILES IDX 14 26 15 27 16 28 17 29 18 30 76 31 19 32 75 33 20 34 21 35
REMARK SMILES IDX 22 36 69 37 23 38 74 39 68 40 70 41 24 42 73 43 67 44 66 45
REMARK SMILES IDX 25 47 55 48 36 49 54 50 37 51 40 52 53 53 71 54 38 55 39 56
REMARK SMILES IDX 52 58 72 59 41 60 26 61 27 62 35 63 28 64 34 65 29 66 30 67
REMARK SMILES IDX 31 68 32 69 33 70 56 71 57 72 65 73 58 74 64 75 59 76 60 77
REMARK SMILES IDX 61 78 62 79 63 80 42 81 43 82 51 83 44 84 50 85 45 86 46 87
REMARK SMILES IDX 47 88 48 89 49 90
REMARK H PARENT 3 16 79 17 70 46 40 57
REMARK Flexibility Score: inf
ROOT
ATOM      1  C   UNL     1       6.745  -2.338   7.489  1.00  0.00     0.275 C 
ENDROOT
BRANCH   1   2
ATOM      2  O   UNL     1       6.295  -1.873   6.200  1.00  0.00    -0.458 OA
BRANCH   2   3
ATOM      3  C   UNL     1       6.707  -2.613   5.141  1.00  0.00     0.338 C 
ATOM      4  O   UNL     1       7.429  -3.597   5.186  1.00  0.00    -0.246 OA
BRANCH   3   5
ATOM      5  C   UNL     1       6.116  -2.123   3.873  1.00  0.00     0.060 A 
ATOM      6  C   UNL     1       5.108  -1.306   1.381  1.00  0.00    -0.029 A 
ATOM      7  C   UNL     1       5.367  -2.656   1.625  1.00  0.00     0.006 A 
ATOM      8  C   UNL     1       5.323  -0.370   2.406  1.00  0.00     0.006 A 
ATOM      9  C   UNL     1       5.897  -3.054   2.849  1.00  0.00     0.016 A 
ATOM     10  C   UNL     1       5.820  -0.776   3.651  1.00  0.00     0.016 A 
BRANCH   6  11
ATOM     11  C   UNL     1       4.619  -0.879   0.024  1.00  0.00     0.153 C 
BRANCH  11  12
ATOM     12  N   UNL     1       3.178  -0.879  -0.049  1.00  0.00    -0.334 N 
ATOM     13  O   UNL     1       1.109  -0.084  -0.254  1.00  0.00    -0.248 OA
ATOM     14  C   UNL     1       2.313   0.148  -0.258  1.00  0.00     0.319 C 
ATOM     15  N   UNL     1       2.884   1.361  -0.522  1.00  0.00    -0.307 N 
ATOM     16  H   UNL     1       2.756  -1.761   0.072  1.00  0.00     0.165 HD
ATOM     17  H   UNL     1       3.847   1.364  -0.728  1.00  0.00     0.171 HD
BRANCH  15  18
ATOM     18  C   UNL     1       2.225   2.609  -0.526  1.00  0.00     0.057 A 
ATOM     19  C   UNL     1       2.692   3.528  -1.481  1.00  0.00     0.027 A 
ATOM     20  C   UNL     1       1.196   3.007   0.344  1.00  0.00     0.041 A 
ATOM     21  C   UNL     1       2.095   4.782  -1.627  1.00  0.00     0.002 A 
ATOM     22  C   UNL     1       0.592   4.263   0.182  1.00  0.00     0.018 A 
ATOM     23  Br  UNL     1       0.692   2.056   1.914  1.00  0.00    -0.049 Br
ATOM     24  C   UNL     1       1.032   5.141  -0.808  1.00  0.00     0.001 A 
ENDBRANCH  15  18
ENDBRANCH  11  12
ENDBRANCH   6  11
ENDBRANCH   3   5
ENDBRANCH   2   3
ENDBRANCH   1   2
BRANCH   1  25
ATOM     25  C   UNL     1       5.664  -3.150   8.204  1.00  0.00     0.275 C 
BRANCH  25  26
ATOM     26  O   UNL     1       5.408  -4.386   7.514  1.00  0.00    -0.458 OA
BRANCH  26  27
ATOM     27  C   UNL     1       4.230  -4.442   6.852  1.00  0.00     0.338 C 
ATOM     28  O   UNL     1       3.370  -3.580   6.794  1.00  0.00    -0.246 OA
BRANCH  27  29
ATOM     29  C   UNL     1       4.110  -5.729   6.152  1.00  0.00     0.060 A 
ATOM     30  C   UNL     1       4.815  -5.921   4.967  1.00  0.00     0.016 A 
ATOM     31  C   UNL     1       3.190  -6.681   6.583  1.00  0.00     0.016 A 
ATOM     32  C   UNL     1       4.534  -7.016   4.152  1.00  0.00     0.010 A 
ATOM     33  C   UNL     1       2.982  -7.831   5.813  1.00  0.00     0.010 A 
ATOM     34  C   UNL     1       3.623  -7.996   4.569  1.00  0.00    -0.014 A 
BRANCH  34  35
ATOM     35  C   UNL     1       3.301  -9.173   3.711  1.00  0.00     0.031 A 
ATOM     36  C   UNL     1       1.870  -9.443   3.317  1.00  0.00     0.074 A 
ATOM     37  C   UNL     1       4.269 -10.020   3.304  1.00  0.00     0.049 A 
ATOM     38  N   UNL     1       1.339 -10.532   2.823  1.00  0.00    -0.248 NA
ATOM     39  C   UNL     1       0.909  -8.347   3.523  1.00  0.00     0.031 C 
ATOM     40  C   UNL     1       5.705  -9.856   3.545  1.00  0.00     0.029 A 
ATOM     41  N   UNL     1       4.187 -11.202   2.606  1.00  0.00    -0.354 N 
ATOM     42  C   UNL     1      -0.026 -10.279   2.728  1.00  0.00     0.074 A 
ATOM     43  C   UNL     1      -0.239  -8.930   3.205  1.00  0.00     0.031 C 
ATOM     44  C   UNL     1       6.366 -10.882   2.989  1.00  0.00     0.029 A 
ATOM     45  C   UNL     1       5.401 -11.828   2.441  1.00  0.00     0.049 A 
ATOM     46  H   UNL     1       3.341 -11.565   2.258  1.00  0.00     0.167 HD
ATOM     47  C   UNL     1      -1.012 -11.103   2.296  1.00  0.00     0.031 A 
ATOM     48  C   UNL     1       5.707 -13.050   1.963  1.00  0.00     0.031 A 
ATOM     49  C   UNL     1      -0.784 -12.429   1.782  1.00  0.00     0.049 A 
ATOM     50  C   UNL     1       4.599 -13.964   1.522  1.00  0.00     0.074 A 
ATOM     51  C   UNL     1      -1.713 -13.345   1.319  1.00  0.00     0.029 A 
ATOM     52  N   UNL     1       0.463 -13.019   1.643  1.00  0.00    -0.354 N 
ATOM     53  N   UNL     1       3.307 -13.743   1.514  1.00  0.00    -0.248 NA
ATOM     54  C   UNL     1       4.988 -15.298   1.044  1.00  0.00     0.031 C 
ATOM     55  C   UNL     1      -1.030 -14.503   0.932  1.00  0.00     0.029 A 
ATOM     56  C   UNL     1       0.328 -14.288   1.106  1.00  0.00     0.049 A 
ATOM     57  H   UNL     1       1.318 -12.598   1.889  1.00  0.00     0.167 HD
ATOM     58  C   UNL     1       2.729 -14.901   1.008  1.00  0.00     0.074 A 
ATOM     59  C   UNL     1       3.812 -15.818   0.715  1.00  0.00     0.031 C 
ATOM     60  C   UNL     1       1.419 -15.179   0.805  1.00  0.00     0.031 A 
BRANCH  47  61
ATOM     61  C   UNL     1      -2.433 -10.618   2.410  1.00  0.00    -0.014 A 
ATOM     62  C   UNL     1      -2.949  -9.629   1.555  1.00  0.00     0.010 A 
ATOM     63  C   UNL     1      -3.282 -11.199   3.372  1.00  0.00     0.010 A 
ATOM     64  C   UNL     1      -4.275  -9.202   1.686  1.00  0.00     0.020 A 
ATOM     65  C   UNL     1      -4.614 -10.794   3.490  1.00  0.00     0.020 A 
ATOM     66  C   UNL     1      -5.098  -9.783   2.657  1.00  0.00     0.054 A 
BRANCH  66  67
ATOM     67  S   UNL     1      -6.819  -9.226   2.797  1.00  0.00     0.124 S 
ATOM     68  O   UNL     1      -6.664  -7.935   3.464  1.00  0.00    -0.237 OA
ATOM     69  O   UNL     1      -7.253  -9.164   1.404  1.00  0.00    -0.237 OA
ATOM     70  O   UNL     1      -7.456 -10.268   3.599  1.00  0.00    -0.744 OA
ENDBRANCH  66  67
ENDBRANCH  47  61
BRANCH  48  71
ATOM     71  C   UNL     1       7.127 -13.496   1.934  1.00  0.00    -0.014 A 
ATOM     72  C   UNL     1       7.809 -13.635   0.714  1.00  0.00     0.010 A 
ATOM     73  C   UNL     1       7.816 -13.752   3.135  1.00  0.00     0.010 A 
ATOM     74  C   UNL     1       9.152 -14.025   0.694  1.00  0.00     0.020 A 
ATOM     75  C   UNL     1       9.166 -14.112   3.121  1.00  0.00     0.020 A 
ATOM     76  C   UNL     1       9.823 -14.256   1.899  1.00  0.00     0.054 A 
BRANCH  76  77
ATOM     77  S   UNL     1      11.585 -14.688   1.855  1.00  0.00     0.124 S 
ATOM     78  O   UNL     1      11.543 -16.091   1.457  1.00  0.00    -0.237 OA
ATOM     79  O   UNL     1      12.115 -13.762   0.856  1.00  0.00    -0.237 OA
ATOM     80  O   UNL     1      12.032 -14.437   3.223  1.00  0.00    -0.744 OA
ENDBRANCH  76  77
ENDBRANCH  48  71
BRANCH  60  81
ATOM     81  C   UNL     1       1.079 -16.505   0.182  1.00  0.00    -0.014 A 
ATOM     82  C   UNL     1       1.113 -17.694   0.930  1.00  0.00     0.010 A 
ATOM     83  C   UNL     1       0.643 -16.543  -1.155  1.00  0.00     0.010 A 
ATOM     84  C   UNL     1       0.732 -18.904   0.344  1.00  0.00     0.020 A 
ATOM     85  C   UNL     1       0.241 -17.747  -1.737  1.00  0.00     0.020 A 
ATOM     86  C   UNL     1       0.296 -18.922  -0.985  1.00  0.00     0.054 A 
BRANCH  86  87
ATOM     87  S   UNL     1      -0.258 -20.493  -1.704  1.00  0.00     0.124 S 
ATOM     88  O   UNL     1       1.008 -21.180  -1.947  1.00  0.00    -0.237 OA
ATOM     89  O   UNL     1      -1.086 -21.059  -0.641  1.00  0.00    -0.237 OA
ATOM     90  O   UNL     1      -0.988 -20.087  -2.903  1.00  0.00    -0.744 OA
ENDBRANCH  86  87
ENDBRANCH  60  81
ENDBRANCH  34  35
ENDBRANCH  27  29
ENDBRANCH  26  27
ENDBRANCH  25  26
ENDBRANCH   1  25
TORSDOF 17
