REMARK SMILES O=C(CCCN1C(=O)/C(=C/c2cc(Br)ccc2O)SC1=S)OCCOC(=O)c1ccc(-c2c3nc(c(-c4ccc(S(=O)(=O)[O-])cc4)c4ccc([nH]4)c(-c4ccc(S(=O)(=O)[O-])cc4)c4nc(c(-c5ccc(S(=O)(=O)[O-])cc5)c5ccc2[nH]5)C=C4)C=C3)cc1
REMARK SMILES IDX 23 1 22 2 2 3 1 4 3 5 4 6 5 7 6 8 7 9 20 10 8 11 9 12 19 13
REMARK SMILES IDX 21 14 10 15 11 16 12 17 17 18 13 19 16 20 14 21 15 22 18 23
REMARK SMILES IDX 24 25 25 26 26 27 27 28 28 29 29 30 87 31 30 32 86 33 31 34
REMARK SMILES IDX 32 35 33 36 80 37 34 38 85 39 79 40 81 41 35 42 84 43 78 44
REMARK SMILES IDX 77 45 36 47 66 48 47 49 65 50 48 51 51 52 64 53 82 54 49 55
REMARK SMILES IDX 50 56 63 58 83 59 52 60 37 61 38 62 46 63 39 64 45 65 40 66
REMARK SMILES IDX 41 67 42 68 43 69 44 70 67 71 68 72 76 73 69 74 75 75 70 76
REMARK SMILES IDX 71 77 72 78 73 79 74 80 53 81 54 82 62 83 55 84 61 85 56 86
REMARK SMILES IDX 57 87 58 88 59 89 60 90
REMARK H PARENT 18 24 81 46 51 57
REMARK Flexibility Score: inf
ROOT
ATOM      1  C   UNL     1       3.690  -0.970  -1.251  1.00  0.00     0.274 C 
ENDROOT
BRANCH   1   2
ATOM      2  O   UNL     1       2.468  -0.966  -0.494  1.00  0.00    -0.462 OA
BRANCH   2   3
ATOM      3  C   UNL     1       2.507  -0.696   0.837  1.00  0.00     0.305 C 
ATOM      4  O   UNL     1       1.898  -1.392   1.642  1.00  0.00    -0.252 OA
BRANCH   3   5
ATOM      5  C   UNL     1       3.216   0.575   1.251  1.00  0.00     0.124 C 
BRANCH   5   6
ATOM      6  C   UNL     1       4.247   0.395   2.362  1.00  0.00     0.034 C 
BRANCH   6   7
ATOM      7  C   UNL     1       5.575  -0.256   1.947  1.00  0.00     0.128 C 
BRANCH   7   8
ATOM      8  N   UNL     1       6.328   0.301   0.806  1.00  0.00    -0.293 N 
ATOM      9  C   UNL     1       6.263   1.641   0.456  1.00  0.00     0.266 C 
ATOM     10  C   UNL     1       7.242  -0.454   0.086  1.00  0.00     0.148 C 
ATOM     11  O   UNL     1       5.681   2.531   1.059  1.00  0.00    -0.268 OA
ATOM     12  C   UNL     1       7.020   1.887  -0.802  1.00  0.00     0.081 C 
ATOM     13  S   UNL     1       7.932   0.499  -1.220  1.00  0.00    -0.054 SA
ATOM     14  S   UNL     1       7.677  -2.051   0.312  1.00  0.00    -0.052 S 
ATOM     15  C   UNL     1       6.930   3.045  -1.471  1.00  0.00     0.033 C 
BRANCH  15  16
ATOM     16  C   UNL     1       7.617   3.361  -2.731  1.00  0.00     0.019 A 
ATOM     17  C   UNL     1       8.700   4.249  -2.693  1.00  0.00     0.027 A 
ATOM     18  C   UNL     1       7.217   2.830  -3.967  1.00  0.00     0.122 A 
ATOM     19  C   UNL     1       9.376   4.576  -3.869  1.00  0.00     0.018 A 
ATOM     20  C   UNL     1       7.898   3.156  -5.142  1.00  0.00     0.048 A 
ATOM     21  Br  UNL     1      10.841   5.769  -3.806  1.00  0.00    -0.051 Br
ATOM     22  C   UNL     1       8.984   4.031  -5.091  1.00  0.00     0.019 A 
BRANCH  18  23
ATOM     23  O   UNL     1       6.139   1.989  -4.023  1.00  0.00    -0.507 OA
ATOM     24  H   UNL     1       5.677   1.766  -3.239  1.00  0.00     0.293 HD
ENDBRANCH  18  23
ENDBRANCH  15  16
ENDBRANCH   7   8
ENDBRANCH   6   7
ENDBRANCH   5   6
ENDBRANCH   3   5
ENDBRANCH   2   3
ENDBRANCH   1   2
BRANCH   1  25
ATOM     25  C   UNL     1       3.699   0.052  -2.388  1.00  0.00     0.275 C 
BRANCH  25  26
ATOM     26  O   UNL     1       3.420   1.372  -1.897  1.00  0.00    -0.458 OA
BRANCH  26  27
ATOM     27  C   UNL     1       2.111   1.730  -1.983  1.00  0.00     0.338 C 
ATOM     28  O   UNL     1       1.236   1.116  -2.565  1.00  0.00    -0.246 OA
BRANCH  27  29
ATOM     29  C   UNL     1       1.837   2.908  -1.127  1.00  0.00     0.060 A 
ATOM     30  C   UNL     1       0.594   2.950  -0.484  1.00  0.00     0.016 A 
ATOM     31  C   UNL     1       2.745   3.959  -0.960  1.00  0.00     0.016 A 
ATOM     32  C   UNL     1       0.236   4.060   0.279  1.00  0.00     0.010 A 
ATOM     33  C   UNL     1       2.386   5.073  -0.187  1.00  0.00     0.010 A 
ATOM     34  C   UNL     1       1.115   5.145   0.407  1.00  0.00    -0.014 A 
BRANCH  34  35
ATOM     35  C   UNL     1       0.625   6.385   1.062  1.00  0.00     0.031 A 
ATOM     36  C   UNL     1       0.124   7.521   0.207  1.00  0.00     0.074 A 
ATOM     37  C   UNL     1       0.538   6.469   2.402  1.00  0.00     0.049 A 
ATOM     38  N   UNL     1      -0.472   8.628   0.571  1.00  0.00    -0.248 NA
ATOM     39  C   UNL     1       0.312   7.388  -1.247  1.00  0.00     0.031 C 
ATOM     40  C   UNL     1       0.976   5.440   3.346  1.00  0.00     0.029 A 
ATOM     41  N   UNL     1       0.035   7.465   3.202  1.00  0.00    -0.354 N 
ATOM     42  C   UNL     1      -0.752   9.311  -0.606  1.00  0.00     0.074 A 
ATOM     43  C   UNL     1      -0.216   8.519  -1.693  1.00  0.00     0.031 C 
ATOM     44  C   UNL     1       0.714   5.856   4.598  1.00  0.00     0.029 A 
ATOM     45  C   UNL     1       0.098   7.181   4.546  1.00  0.00     0.049 A 
ATOM     46  H   UNL     1      -0.337   8.305   2.847  1.00  0.00     0.167 HD
ATOM     47  C   UNL     1      -1.415  10.480  -0.774  1.00  0.00     0.031 A 
ATOM     48  C   UNL     1      -0.300   7.903   5.612  1.00  0.00     0.031 A 
ATOM     49  C   UNL     1      -1.930  11.287   0.300  1.00  0.00     0.049 A 
ATOM     50  C   UNL     1      -0.981   9.231   5.401  1.00  0.00     0.074 A 
ATOM     51  C   UNL     1      -2.620  12.484   0.222  1.00  0.00     0.029 A 
ATOM     52  N   UNL     1      -1.807  10.984   1.646  1.00  0.00    -0.354 N 
ATOM     53  N   UNL     1      -1.285   9.834   4.276  1.00  0.00    -0.248 NA
ATOM     54  C   UNL     1      -1.388   9.967   6.607  1.00  0.00     0.031 C 
ATOM     55  C   UNL     1      -2.874  12.929   1.524  1.00  0.00     0.029 A 
ATOM     56  C   UNL     1      -2.387  11.983   2.411  1.00  0.00     0.049 A 
ATOM     57  H   UNL     1      -1.371  10.178   2.007  1.00  0.00     0.167 HD
ATOM     58  C   UNL     1      -1.940  11.007   4.641  1.00  0.00     0.074 A 
ATOM     59  C   UNL     1      -2.007  11.018   6.087  1.00  0.00     0.031 C 
ATOM     60  C   UNL     1      -2.442  11.987   3.850  1.00  0.00     0.031 A 
BRANCH  47  61
ATOM     61  C   UNL     1      -1.619  10.964  -2.184  1.00  0.00    -0.014 A 
ATOM     62  C   UNL     1      -2.563  10.347  -3.025  1.00  0.00     0.010 A 
ATOM     63  C   UNL     1      -0.903  12.078  -2.657  1.00  0.00     0.010 A 
ATOM     64  C   UNL     1      -2.770  10.820  -4.323  1.00  0.00     0.020 A 
ATOM     65  C   UNL     1      -1.122  12.568  -3.948  1.00  0.00     0.020 A 
ATOM     66  C   UNL     1      -2.046  11.927  -4.777  1.00  0.00     0.054 A 
BRANCH  66  67
ATOM     67  S   UNL     1      -2.360  12.542  -6.454  1.00  0.00     0.124 S 
ATOM     68  O   UNL     1      -1.714  11.521  -7.275  1.00  0.00    -0.237 OA
ATOM     69  O   UNL     1      -3.819  12.569  -6.519  1.00  0.00    -0.237 OA
ATOM     70  O   UNL     1      -1.714  13.852  -6.470  1.00  0.00    -0.744 OA
ENDBRANCH  66  67
ENDBRANCH  47  61
BRANCH  48  71
ATOM     71  C   UNL     1      -0.061   7.396   6.991  1.00  0.00    -0.014 A 
ATOM     72  C   UNL     1      -1.129   6.988   7.809  1.00  0.00     0.010 A 
ATOM     73  C   UNL     1       1.248   7.359   7.507  1.00  0.00     0.010 A 
ATOM     74  C   UNL     1      -0.898   6.588   9.129  1.00  0.00     0.020 A 
ATOM     75  C   UNL     1       1.486   6.935   8.817  1.00  0.00     0.020 A 
ATOM     76  C   UNL     1       0.408   6.569   9.626  1.00  0.00     0.054 A 
BRANCH  76  77
ATOM     77  S   UNL     1       0.694   6.030  11.335  1.00  0.00     0.124 S 
ATOM     78  O   UNL     1       0.286   7.207  12.095  1.00  0.00    -0.237 OA
ATOM     79  O   UNL     1      -0.181   4.866  11.453  1.00  0.00    -0.237 OA
ATOM     80  O   UNL     1       2.124   5.730  11.362  1.00  0.00    -0.744 OA
ENDBRANCH  76  77
ENDBRANCH  48  71
BRANCH  60  81
ATOM     81  C   UNL     1      -3.126  13.144   4.530  1.00  0.00    -0.014 A 
ATOM     82  C   UNL     1      -2.391  14.105   5.246  1.00  0.00     0.010 A 
ATOM     83  C   UNL     1      -4.522  13.287   4.428  1.00  0.00     0.010 A 
ATOM     84  C   UNL     1      -3.043  15.164   5.885  1.00  0.00     0.020 A 
ATOM     85  C   UNL     1      -5.175  14.359   5.043  1.00  0.00     0.020 A 
ATOM     86  C   UNL     1      -4.433  15.280   5.785  1.00  0.00     0.054 A 
BRANCH  86  87
ATOM     87  S   UNL     1      -5.258  16.672   6.606  1.00  0.00     0.124 S 
ATOM     88  O   UNL     1      -5.258  16.243   8.002  1.00  0.00    -0.237 OA
ATOM     89  O   UNL     1      -4.380  17.797   6.295  1.00  0.00    -0.237 OA
ATOM     90  O   UNL     1      -6.571  16.721   5.968  1.00  0.00    -0.744 OA
ENDBRANCH  86  87
ENDBRANCH  60  81
ENDBRANCH  34  35
ENDBRANCH  27  29
ENDBRANCH  26  27
ENDBRANCH  25  26
ENDBRANCH   1  25
TORSDOF 19
