REMARK SMILES C[C@@H]1CC(=O)N([C@@H]2C=C[C@@H](C(=O)OCCOC(=O)c3ccc(-c4c5nc(c(-c6ccc(S(=O)(=O)[O-])cc6)c6ccc([nH]6)c(-c6ccc(S(=O)(=O)[O-])cc6)c6nc(c(-c7ccc(S(=O)(=O)[O-])cc7)c7ccc4[nH]7)C=C6)C=C5)cc3)C2)C1=O
REMARK SMILES IDX 15 1 14 2 13 3 11 4 12 5 10 6 7 7 8 8 79 9 9 10 6 11 1 12
REMARK SMILES IDX 2 13 3 14 80 15 4 16 81 17 5 18 16 19 17 20 18 21 19 22
REMARK SMILES IDX 20 23 78 24 21 25 77 26 22 27 23 28 24 29 71 30 25 31 76 32
REMARK SMILES IDX 70 33 72 34 26 35 75 36 69 37 68 38 27 40 57 41 38 42 56 43
REMARK SMILES IDX 39 44 42 45 55 46 73 47 40 48 41 49 54 51 74 52 43 53 28 54
REMARK SMILES IDX 29 55 37 56 30 57 36 58 31 59 32 60 33 61 34 62 35 63 58 64
REMARK SMILES IDX 59 65 67 66 60 67 66 68 61 69 62 70 63 71 64 72 65 73 44 74
REMARK SMILES IDX 45 75 53 76 46 77 52 78 47 79 48 80 49 81 50 82 51 83
REMARK H PARENT 72 39 42 50
REMARK Flexibility Score: inf
ROOT
ATOM      1  C   UNL     1       6.137   4.338  -1.535  1.00  0.00     0.275 C 
ENDROOT
BRANCH   1   2
ATOM      2  C   UNL     1       5.998   3.464  -0.287  1.00  0.00     0.274 C 
BRANCH   2   3
ATOM      3  O   UNL     1       4.604   3.205  -0.053  1.00  0.00    -0.462 OA
BRANCH   3   4
ATOM      4  C   UNL     1       4.119   3.452   1.190  1.00  0.00     0.312 C 
ATOM      5  O   UNL     1       4.814   3.721   2.163  1.00  0.00    -0.252 OA
BRANCH   4   6
ATOM      6  C   UNL     1       2.593   3.444   1.220  1.00  0.00     0.124 C 
ATOM      7  C   UNL     1       0.664   2.110   0.469  1.00  0.00     0.117 C 
ATOM      8  C   UNL     1       0.967   1.894   1.920  1.00  0.00    -0.005 C 
ATOM      9  C   UNL     1       1.887   2.890  -0.030  1.00  0.00     0.049 C 
ATOM     10  C   UNL     1       2.036   2.591   2.322  1.00  0.00    -0.014 C 
BRANCH   7  11
ATOM     11  N   UNL     1      -0.615   2.781   0.296  1.00  0.00    -0.275 N 
ATOM     12  C   UNL     1      -3.152   3.288  -1.832  1.00  0.00     0.018 C 
ATOM     13  C   UNL     1      -2.848   3.095  -0.352  1.00  0.00     0.085 C 
ATOM     14  C   UNL     1      -2.335   4.365   0.309  1.00  0.00     0.114 C 
ATOM     15  C   UNL     1      -1.714   2.119  -0.176  1.00  0.00     0.233 C 
ATOM     16  C   UNL     1      -0.882   4.093   0.566  1.00  0.00     0.230 C 
ATOM     17  O   UNL     1      -1.787   0.931  -0.459  1.00  0.00    -0.274 OA
ATOM     18  O   UNL     1      -0.105   4.945   0.971  1.00  0.00    -0.274 OA
ENDBRANCH   7  11
ENDBRANCH   4   6
ENDBRANCH   3   4
ENDBRANCH   2   3
ENDBRANCH   1   2
BRANCH   1  19
ATOM     19  O   UNL     1       5.557   5.641  -1.319  1.00  0.00    -0.458 OA
BRANCH  19  20
ATOM     20  C   UNL     1       4.248   5.753  -1.654  1.00  0.00     0.338 C 
ATOM     21  O   UNL     1       3.537   4.899  -2.155  1.00  0.00    -0.246 OA
BRANCH  20  22
ATOM     22  C   UNL     1       3.741   7.064  -1.215  1.00  0.00     0.060 A 
ATOM     23  C   UNL     1       2.696   7.093  -0.288  1.00  0.00     0.016 A 
ATOM     24  C   UNL     1       4.236   8.250  -1.761  1.00  0.00     0.016 A 
ATOM     25  C   UNL     1       2.146   8.309   0.107  1.00  0.00     0.010 A 
ATOM     26  C   UNL     1       3.676   9.471  -1.369  1.00  0.00     0.010 A 
ATOM     27  C   UNL     1       2.624   9.507  -0.438  1.00  0.00    -0.014 A 
BRANCH  27  28
ATOM     28  C   UNL     1       1.988  10.790  -0.054  1.00  0.00     0.031 A 
ATOM     29  C   UNL     1       1.034  11.468  -0.995  1.00  0.00     0.074 A 
ATOM     30  C   UNL     1       2.243  11.325   1.155  1.00  0.00     0.049 A 
ATOM     31  N   UNL     1       0.401  12.604  -0.851  1.00  0.00    -0.248 NA
ATOM     32  C   UNL     1       0.756  10.779  -2.265  1.00  0.00     0.031 C 
ATOM     33  C   UNL     1       3.117  10.738   2.171  1.00  0.00     0.029 A 
ATOM     34  N   UNL     1       1.784  12.481   1.734  1.00  0.00    -0.354 N 
ATOM     35  C   UNL     1      -0.341  12.774  -2.013  1.00  0.00     0.074 A 
ATOM     36  C   UNL     1      -0.066  11.633  -2.860  1.00  0.00     0.031 C 
ATOM     37  C   UNL     1       3.123  11.533   3.254  1.00  0.00     0.029 A 
ATOM     38  C   UNL     1       2.288  12.702   2.993  1.00  0.00     0.049 A 
ATOM     39  H   UNL     1       1.154  13.094   1.290  1.00  0.00     0.167 HD
ATOM     40  C   UNL     1      -1.176  13.789  -2.343  1.00  0.00     0.031 A 
ATOM     41  C   UNL     1       2.111  13.738   3.836  1.00  0.00     0.031 A 
ATOM     42  C   UNL     1      -1.445  14.925  -1.501  1.00  0.00     0.049 A 
ATOM     43  C   UNL     1       1.222  14.878   3.424  1.00  0.00     0.074 A 
ATOM     44  C   UNL     1      -2.280  16.002  -1.746  1.00  0.00     0.029 A 
ATOM     45  N   UNL     1      -0.883  15.133  -0.250  1.00  0.00    -0.354 N 
ATOM     46  N   UNL     1       0.530  15.024   2.319  1.00  0.00    -0.248 NA
ATOM     47  C   UNL     1       1.091  15.992   4.372  1.00  0.00     0.031 C 
ATOM     48  C   UNL     1      -2.190  16.881  -0.661  1.00  0.00     0.029 A 
ATOM     49  C   UNL     1      -1.335  16.330   0.280  1.00  0.00     0.049 A 
ATOM     50  H   UNL     1      -0.255  14.520   0.196  1.00  0.00     0.167 HD
ATOM     51  C   UNL     1      -0.128  16.242   2.444  1.00  0.00     0.074 A 
ATOM     52  C   UNL     1       0.234  16.783   3.739  1.00  0.00     0.031 C 
ATOM     53  C   UNL     1      -0.956  16.859   1.565  1.00  0.00     0.031 A 
BRANCH  40  54
ATOM     54  C   UNL     1      -1.832  13.731  -3.696  1.00  0.00    -0.014 A 
ATOM     55  C   UNL     1      -2.892  12.843  -3.953  1.00  0.00     0.010 A 
ATOM     56  C   UNL     1      -1.398  14.596  -4.716  1.00  0.00     0.010 A 
ATOM     57  C   UNL     1      -3.481  12.795  -5.220  1.00  0.00     0.020 A 
ATOM     58  C   UNL     1      -1.998  14.566  -5.978  1.00  0.00     0.020 A 
ATOM     59  C   UNL     1      -3.025  13.652  -6.227  1.00  0.00     0.054 A 
BRANCH  59  60
ATOM     60  S   UNL     1      -3.809  13.576  -7.861  1.00  0.00     0.124 S 
ATOM     61  O   UNL     1      -3.226  12.358  -8.417  1.00  0.00    -0.237 OA
ATOM     62  O   UNL     1      -5.231  13.499  -7.534  1.00  0.00    -0.237 OA
ATOM     63  O   UNL     1      -3.389  14.819  -8.505  1.00  0.00    -0.744 OA
ENDBRANCH  59  60
ENDBRANCH  40  54
BRANCH  41  64
ATOM     64  C   UNL     1       2.815  13.752   5.146  1.00  0.00    -0.014 A 
ATOM     65  C   UNL     1       2.106  13.558   6.344  1.00  0.00     0.010 A 
ATOM     66  C   UNL     1       4.208  13.944   5.196  1.00  0.00     0.010 A 
ATOM     67  C   UNL     1       2.777  13.565   7.570  1.00  0.00     0.020 A 
ATOM     68  C   UNL     1       4.885  13.928   6.418  1.00  0.00     0.020 A 
ATOM     69  C   UNL     1       4.163  13.749   7.599  1.00  0.00     0.054 A 
BRANCH  69  70
ATOM     70  S   UNL     1       5.026  13.693   9.194  1.00  0.00     0.124 S 
ATOM     71  O   UNL     1       4.739  15.015   9.741  1.00  0.00    -0.237 OA
ATOM     72  O   UNL     1       4.376  12.573   9.871  1.00  0.00    -0.237 OA
ATOM     73  O   UNL     1       6.419  13.459   8.819  1.00  0.00    -0.744 OA
ENDBRANCH  69  70
ENDBRANCH  41  64
BRANCH  53  74
ATOM     74  C   UNL     1      -1.538  18.181   1.983  1.00  0.00    -0.014 A 
ATOM     75  C   UNL     1      -0.754  19.349   1.985  1.00  0.00     0.010 A 
ATOM     76  C   UNL     1      -2.894  18.263   2.345  1.00  0.00     0.010 A 
ATOM     77  C   UNL     1      -1.310  20.571   2.373  1.00  0.00     0.020 A 
ATOM     78  C   UNL     1      -3.459  19.487   2.713  1.00  0.00     0.020 A 
ATOM     79  C   UNL     1      -2.658  20.631   2.740  1.00  0.00     0.054 A 
BRANCH  79  80
ATOM     80  S   UNL     1      -3.368  22.233   3.211  1.00  0.00     0.124 S 
ATOM     81  O   UNL     1      -2.875  22.394   4.575  1.00  0.00    -0.237 OA
ATOM     82  O   UNL     1      -2.795  23.145   2.223  1.00  0.00    -0.237 OA
ATOM     83  O   UNL     1      -4.809  22.020   3.088  1.00  0.00    -0.744 OA
ENDBRANCH  79  80
ENDBRANCH  53  74
ENDBRANCH  27  28
ENDBRANCH  20  22
ENDBRANCH  19  20
ENDBRANCH   1  19
TORSDOF 15
