REMARK SMILES COc1cc(Br)c(OC)c(C(=O)N2CCC[C@@H]2C(=O)OCCOC(=O)c2ccc(-c3c4nc(c(-c5ccc(S(=O)(=O)[O-])cc5)c5ccc([nH]5)c(-c5ccc(S(=O)(=O)[O-])cc5)c5nc(c(-c6ccc(S(=O)(=O)[O-])cc6)c6ccc3[nH]6)C=C5)C=C4)cc2)c1
REMARK SMILES IDX 21 1 20 2 18 3 19 4 17 5 13 6 14 7 15 8 16 9 11 10 12 11
REMARK SMILES IDX 10 12 3 13 4 14 86 15 5 16 6 17 7 18 2 19 1 20 8 21 9 22
REMARK SMILES IDX 22 23 23 24 24 25 25 26 26 27 27 28 85 29 28 30 84 31 29 32
REMARK SMILES IDX 30 33 31 34 78 35 32 36 83 37 77 38 79 39 33 40 82 41 76 42
REMARK SMILES IDX 75 43 34 45 64 46 45 47 63 48 46 49 49 50 62 51 80 52 47 53
REMARK SMILES IDX 48 54 61 56 81 57 50 58 35 59 36 60 44 61 37 62 43 63 38 64
REMARK SMILES IDX 39 65 40 66 41 67 42 68 65 69 66 70 74 71 67 72 73 73 68 74
REMARK SMILES IDX 69 75 70 76 71 77 72 78 51 79 52 80 60 81 53 82 59 83 54 84
REMARK SMILES IDX 55 85 56 86 57 87 58 88
REMARK H PARENT 79 44 49 55
REMARK Flexibility Score: inf
ROOT
ATOM      1  C   UNL     1      -1.404   0.197  -7.229  1.00  0.00     0.274 C 
ENDROOT
BRANCH   1   2
ATOM      2  O   UNL     1      -2.123   0.910  -6.206  1.00  0.00    -0.461 OA
BRANCH   2   3
ATOM      3  C   UNL     1      -1.810   2.230  -6.088  1.00  0.00     0.328 C 
ATOM      4  O   UNL     1      -0.902   2.771  -6.709  1.00  0.00    -0.250 OA
BRANCH   3   5
ATOM      5  C   UNL     1      -2.640   2.959  -5.022  1.00  0.00     0.195 C 
ATOM      6  N   UNL     1      -1.919   3.036  -3.758  1.00  0.00    -0.325 N 
ATOM      7  C   UNL     1      -2.878   3.056  -2.674  1.00  0.00     0.121 C 
ATOM      8  C   UNL     1      -3.950   2.101  -3.159  1.00  0.00     0.024 C 
ATOM      9  C   UNL     1      -4.010   2.360  -4.666  1.00  0.00     0.039 C 
BRANCH   6  10
ATOM     10  C   UNL     1      -0.740   3.768  -3.680  1.00  0.00     0.258 C 
ATOM     11  O   UNL     1      -0.650   4.885  -4.167  1.00  0.00    -0.269 OA
BRANCH  10  12
ATOM     12  C   UNL     1       0.425   3.016  -3.082  1.00  0.00     0.086 A 
ATOM     13  C   UNL     1       1.218   0.971  -2.032  1.00  0.00     0.121 A 
ATOM     14  C   UNL     1       2.512   1.464  -2.013  1.00  0.00     0.066 A 
ATOM     15  C   UNL     1       0.195   1.711  -2.602  1.00  0.00     0.064 A 
ATOM     16  C   UNL     1       2.770   2.754  -2.491  1.00  0.00     0.064 A 
ATOM     17  Br  UNL     1       4.561   3.354  -2.255  1.00  0.00    -0.047 Br
ATOM     18  C   UNL     1       1.734   3.549  -3.027  1.00  0.00     0.146 A 
BRANCH  13  19
ATOM     19  O   UNL     1       0.906  -0.250  -1.503  1.00  0.00    -0.497 OA
ATOM     20  C   UNL     1       1.001  -0.207  -0.076  1.00  0.00     0.278 C 
ENDBRANCH  13  19
BRANCH  18  21
ATOM     21  O   UNL     1       1.916   4.868  -3.351  1.00  0.00    -0.495 OA
ATOM     22  C   UNL     1       2.866   5.133  -4.382  1.00  0.00     0.278 C 
ENDBRANCH  18  21
ENDBRANCH  10  12
ENDBRANCH   6  10
ENDBRANCH   3   5
ENDBRANCH   2   3
ENDBRANCH   1   2
BRANCH   1  23
ATOM     23  C   UNL     1      -2.260   0.010  -8.486  1.00  0.00     0.275 C 
BRANCH  23  24
ATOM     24  O   UNL     1      -2.617   1.264  -9.097  1.00  0.00    -0.458 OA
BRANCH  24  25
ATOM     25  C   UNL     1      -3.790   1.795  -8.676  1.00  0.00     0.338 C 
ATOM     26  O   UNL     1      -4.561   1.325  -7.858  1.00  0.00    -0.246 OA
BRANCH  25  27
ATOM     27  C   UNL     1      -3.965   3.136  -9.252  1.00  0.00     0.060 A 
ATOM     28  C   UNL     1      -3.899   4.234  -8.393  1.00  0.00     0.016 A 
ATOM     29  C   UNL     1      -4.271   3.309 -10.602  1.00  0.00     0.016 A 
ATOM     30  C   UNL     1      -4.128   5.518  -8.875  1.00  0.00     0.010 A 
ATOM     31  C   UNL     1      -4.497   4.601 -11.089  1.00  0.00     0.010 A 
ATOM     32  C   UNL     1      -4.426   5.712 -10.229  1.00  0.00    -0.014 A 
BRANCH  32  33
ATOM     33  C   UNL     1      -4.658   7.083 -10.740  1.00  0.00     0.031 A 
ATOM     34  C   UNL     1      -6.044   7.530 -11.104  1.00  0.00     0.074 A 
ATOM     35  C   UNL     1      -3.615   7.925 -10.866  1.00  0.00     0.049 A 
ATOM     36  N   UNL     1      -6.427   8.646 -11.665  1.00  0.00    -0.248 NA
ATOM     37  C   UNL     1      -7.142   6.601 -10.793  1.00  0.00     0.031 C 
ATOM     38  C   UNL     1      -2.234   7.622 -10.485  1.00  0.00     0.029 A 
ATOM     39  N   UNL     1      -3.554   9.206 -11.353  1.00  0.00    -0.354 N 
ATOM     40  C   UNL     1      -7.807   8.550 -11.797  1.00  0.00     0.074 A 
ATOM     41  C   UNL     1      -8.193   7.260 -11.263  1.00  0.00     0.031 C 
ATOM     42  C   UNL     1      -1.462   8.687 -10.753  1.00  0.00     0.029 A 
ATOM     43  C   UNL     1      -2.281   9.722 -11.377  1.00  0.00     0.049 A 
ATOM     44  H   UNL     1      -4.346   9.706 -11.656  1.00  0.00     0.167 HD
ATOM     45  C   UNL     1      -8.669   9.454 -12.319  1.00  0.00     0.031 A 
ATOM     46  C   UNL     1      -1.817  10.881 -11.882  1.00  0.00     0.031 A 
ATOM     47  C   UNL     1      -8.274  10.732 -12.852  1.00  0.00     0.049 A 
ATOM     48  C   UNL     1      -2.781  11.826 -12.542  1.00  0.00     0.074 A 
ATOM     49  C   UNL     1      -9.072  11.723 -13.395  1.00  0.00     0.029 A 
ATOM     50  N   UNL     1      -6.967  11.193 -12.914  1.00  0.00    -0.354 N 
ATOM     51  N   UNL     1      -4.082  11.716 -12.672  1.00  0.00    -0.248 NA
ATOM     52  C   UNL     1      -2.213  13.043 -13.137  1.00  0.00     0.031 C 
ATOM     53  C   UNL     1      -8.242  12.761 -13.833  1.00  0.00     0.029 A 
ATOM     54  C   UNL     1      -6.932  12.438 -13.518  1.00  0.00     0.049 A 
ATOM     55  H   UNL     1      -6.180  10.706 -12.577  1.00  0.00     0.167 HD
ATOM     56  C   UNL     1      -4.489  12.852 -13.361  1.00  0.00     0.074 A 
ATOM     57  C   UNL     1      -3.301  13.646 -13.600  1.00  0.00     0.031 C 
ATOM     58  C   UNL     1      -5.736  13.204 -13.762  1.00  0.00     0.031 A 
BRANCH  45  59
ATOM     59  C   UNL     1     -10.123   9.071 -12.384  1.00  0.00    -0.014 A 
ATOM     60  C   UNL     1     -10.927   9.051 -11.231  1.00  0.00     0.010 A 
ATOM     61  C   UNL     1     -10.702   8.757 -13.628  1.00  0.00     0.010 A 
ATOM     62  C   UNL     1     -12.275   8.689 -11.315  1.00  0.00     0.020 A 
ATOM     63  C   UNL     1     -12.054   8.415 -13.720  1.00  0.00     0.020 A 
ATOM     64  C   UNL     1     -12.828   8.367 -12.559  1.00  0.00     0.054 A 
BRANCH  64  65
ATOM     65  S   UNL     1     -14.582   7.910 -12.644  1.00  0.00     0.124 S 
ATOM     66  O   UNL     1     -14.567   6.557 -12.092  1.00  0.00    -0.237 OA
ATOM     67  O   UNL     1     -15.220   8.922 -11.806  1.00  0.00    -0.237 OA
ATOM     68  O   UNL     1     -14.895   7.998 -14.068  1.00  0.00    -0.744 OA
ENDBRANCH  64  65
ENDBRANCH  45  59
BRANCH  46  69
ATOM     69  C   UNL     1      -0.360  11.176 -11.835  1.00  0.00    -0.014 A 
ATOM     70  C   UNL     1       0.143  12.177 -10.988  1.00  0.00     0.010 A 
ATOM     71  C   UNL     1       0.537  10.434 -12.627  1.00  0.00     0.010 A 
ATOM     72  C   UNL     1       1.517  12.436 -10.939  1.00  0.00     0.020 A 
ATOM     73  C   UNL     1       1.911  10.673 -12.562  1.00  0.00     0.020 A 
ATOM     74  C   UNL     1       2.393  11.681 -11.725  1.00  0.00     0.054 A 
BRANCH  74  75
ATOM     75  S   UNL     1       4.176  11.991 -11.603  1.00  0.00     0.124 S 
ATOM     76  O   UNL     1       4.325  13.216 -12.383  1.00  0.00    -0.237 OA
ATOM     77  O   UNL     1       4.379  12.129 -10.163  1.00  0.00    -0.237 OA
ATOM     78  O   UNL     1       4.772  10.795 -12.196  1.00  0.00    -0.744 OA
ENDBRANCH  74  75
ENDBRANCH  46  69
BRANCH  58  79
ATOM     79  C   UNL     1      -5.875  14.506 -14.502  1.00  0.00    -0.014 A 
ATOM     80  C   UNL     1      -5.473  14.617 -15.845  1.00  0.00     0.010 A 
ATOM     81  C   UNL     1      -6.462  15.614 -13.865  1.00  0.00     0.010 A 
ATOM     82  C   UNL     1      -5.636  15.822 -16.532  1.00  0.00     0.020 A 
ATOM     83  C   UNL     1      -6.646  16.814 -14.556  1.00  0.00     0.020 A 
ATOM     84  C   UNL     1      -6.221  16.913 -15.883  1.00  0.00     0.054 A 
BRANCH  84  85
ATOM     85  S   UNL     1      -6.469  18.452 -16.811  1.00  0.00     0.124 S 
ATOM     86  O   UNL     1      -5.117  19.004 -16.851  1.00  0.00    -0.237 OA
ATOM     87  O   UNL     1      -6.991  17.977 -18.090  1.00  0.00    -0.237 OA
ATOM     88  O   UNL     1      -7.423  19.199 -15.995  1.00  0.00    -0.744 OA
ENDBRANCH  84  85
ENDBRANCH  58  79
ENDBRANCH  32  33
ENDBRANCH  25  27
ENDBRANCH  24  25
ENDBRANCH  23  24
ENDBRANCH   1  23
TORSDOF 18
