REMARK SMILES CCCn1nc(C(=O)OCCOC(=O)c2ccc(-c3c4nc(c(-c5ccc(S(=O)(=O)[O-])cc5)c5ccc([nH]5)c(-c5ccc(S(=O)(=O)[O-])cc5)c5nc(c(-c6ccc(S(=O)(=O)[O-])cc6)c6ccc3[nH]6)C=C5)C=C4)cc2)c2c1CC[C@@H]([NH+]1CC[NH+](Cc3ccccn3)CC1)C2
REMARK SMILES IDX 10 1 9 2 7 3 8 4 6 5 4 6 5 7 76 8 75 9 77 10 93 11 78 12
REMARK SMILES IDX 79 13 3 14 2 15 1 16 80 17 81 18 92 19 82 21 91 22 83 23
REMARK SMILES IDX 84 25 85 26 86 27 90 28 87 29 89 30 88 31 11 32 12 33 13 34
REMARK SMILES IDX 14 35 15 36 16 37 74 38 17 39 73 40 18 41 19 42 20 43 67 44
REMARK SMILES IDX 21 45 72 46 66 47 68 48 22 49 71 50 65 51 64 52 23 54 53 55
REMARK SMILES IDX 34 56 52 57 35 58 38 59 51 60 69 61 36 62 37 63 50 65 70 66
REMARK SMILES IDX 39 67 24 68 25 69 33 70 26 71 32 72 27 73 28 74 29 75 30 76
REMARK SMILES IDX 31 77 54 78 55 79 63 80 56 81 62 82 57 83 58 84 59 85 60 86
REMARK SMILES IDX 61 87 40 88 41 89 49 90 42 91 48 92 43 93 44 94 45 95 46 96
REMARK SMILES IDX 47 97
REMARK H PARENT 80 20 83 24 68 53 38 64
REMARK Flexibility Score: inf
ROOT
ATOM      1  C   UNL     1       0.914  -8.504   1.492  1.00  0.00     0.275 C 
ENDROOT
BRANCH   1   2
ATOM      2  O   UNL     1       0.994  -7.078   1.420  1.00  0.00    -0.457 OA
BRANCH   2   3
ATOM      3  C   UNL     1       1.722  -6.529   0.391  1.00  0.00     0.359 C 
ATOM      4  O   UNL     1       2.589  -7.123  -0.220  1.00  0.00    -0.244 OA
BRANCH   3   5
ATOM      5  C   UNL     1       1.271  -5.149   0.128  1.00  0.00     0.174 A 
ATOM      6  N   UNL     1       1.197  -3.148  -0.643  1.00  0.00    -0.268 N 
ATOM      7  N   UNL     1       1.925  -4.292  -0.686  1.00  0.00    -0.165 NA
ATOM      8  C   UNL     1       0.241  -3.202   0.332  1.00  0.00     0.043 A 
ATOM      9  C   UNL     1       0.111  -4.530   0.664  1.00  0.00     0.014 A 
ATOM     10  C   UNL     1      -0.590  -2.127   0.907  1.00  0.00     0.062 C 
ATOM     11  C   UNL     1      -0.995  -5.080   1.512  1.00  0.00     0.105 C 
ATOM     12  C   UNL     1      -1.346  -2.662   2.134  1.00  0.00     0.072 C 
ATOM     13  C   UNL     1      -2.057  -4.021   1.914  1.00  0.00     0.189 C 
BRANCH   6  14
ATOM     14  C   UNL     1       1.413  -2.177  -1.705  1.00  0.00     0.144 C 
BRANCH  14  15
ATOM     15  C   UNL     1       1.033  -0.714  -1.468  1.00  0.00     0.020 C 
ATOM     16  C   UNL     1       1.895  -0.028  -0.420  1.00  0.00     0.006 C 
ENDBRANCH  14  15
ENDBRANCH   6  14
BRANCH  13  17
ATOM     17  N   UNL     1      -3.293  -3.985   1.099  1.00  0.00    -0.323 N 
ATOM     18  C   UNL     1      -3.167  -3.801  -0.347  1.00  0.00     0.324 C 
ATOM     19  C   UNL     1      -4.415  -3.319   1.772  1.00  0.00     0.324 C 
ATOM     20  H   UNL     1      -3.568  -4.966   1.064  1.00  0.00     0.348 HD
ATOM     21  C   UNL     1      -4.284  -3.042  -1.106  1.00  0.00     0.324 C 
ATOM     22  C   UNL     1      -5.549  -2.739   0.902  1.00  0.00     0.324 C 
ATOM     23  N   UNL     1      -5.115  -2.119  -0.341  1.00  0.00    -0.321 N 
ATOM     24  H   UNL     1      -5.955  -1.973  -0.902  1.00  0.00     0.348 HD
BRANCH  23  25
ATOM     25  C   UNL     1      -4.745  -0.700  -0.311  1.00  0.00     0.319 C 
BRANCH  25  26
ATOM     26  C   UNL     1      -3.833  -0.140   0.777  1.00  0.00     0.095 A 
ATOM     27  C   UNL     1      -2.606   0.433   0.442  1.00  0.00     0.030 A 
ATOM     28  N   UNL     1      -4.287  -0.123   2.060  1.00  0.00    -0.255 NA
ATOM     29  C   UNL     1      -1.784   0.939   1.453  1.00  0.00     0.004 A 
ATOM     30  C   UNL     1      -3.469   0.367   3.020  1.00  0.00     0.111 A 
ATOM     31  C   UNL     1      -2.212   0.885   2.772  1.00  0.00     0.020 A 
ENDBRANCH  25  26
ENDBRANCH  23  25
ENDBRANCH  13  17
ENDBRANCH   3   5
ENDBRANCH   2   3
ENDBRANCH   1   2
BRANCH   1  32
ATOM     32  C   UNL     1      -0.190  -8.996   0.571  1.00  0.00     0.275 C 
BRANCH  32  33
ATOM     33  O   UNL     1       0.249  -8.893  -0.778  1.00  0.00    -0.458 OA
BRANCH  33  34
ATOM     34  C   UNL     1      -0.254  -7.887  -1.523  1.00  0.00     0.338 C 
ATOM     35  O   UNL     1      -0.888  -6.920  -1.134  1.00  0.00    -0.246 OA
BRANCH  34  36
ATOM     36  C   UNL     1      -0.091  -8.249  -2.931  1.00  0.00     0.060 A 
ATOM     37  C   UNL     1      -0.471  -7.325  -3.910  1.00  0.00     0.016 A 
ATOM     38  C   UNL     1       0.179  -9.590  -3.238  1.00  0.00     0.016 A 
ATOM     39  C   UNL     1      -0.739  -7.795  -5.181  1.00  0.00     0.010 A 
ATOM     40  C   UNL     1      -0.120 -10.059  -4.486  1.00  0.00     0.010 A 
ATOM     41  C   UNL     1      -0.639  -9.169  -5.421  1.00  0.00    -0.014 A 
BRANCH  41  42
ATOM     42  C   UNL     1      -0.978  -9.697  -6.721  1.00  0.00     0.031 A 
ATOM     43  C   UNL     1       0.085  -9.472  -7.725  1.00  0.00     0.074 A 
ATOM     44  C   UNL     1      -2.053 -10.485  -6.909  1.00  0.00     0.049 A 
ATOM     45  N   UNL     1       0.044  -8.684  -8.745  1.00  0.00    -0.248 NA
ATOM     46  C   UNL     1       1.417 -10.046  -7.460  1.00  0.00     0.031 C 
ATOM     47  C   UNL     1      -2.965 -11.030  -5.898  1.00  0.00     0.029 A 
ATOM     48  N   UNL     1      -2.479 -11.079  -8.052  1.00  0.00    -0.354 N 
ATOM     49  C   UNL     1       1.271  -8.835  -9.377  1.00  0.00     0.074 A 
ATOM     50  C   UNL     1       2.137  -9.499  -8.438  1.00  0.00     0.031 C 
ATOM     51  C   UNL     1      -3.672 -12.050  -6.440  1.00  0.00     0.029 A 
ATOM     52  C   UNL     1      -3.361 -12.135  -7.858  1.00  0.00     0.049 A 
ATOM     53  H   UNL     1      -2.187 -10.785  -8.945  1.00  0.00     0.167 HD
ATOM     54  C   UNL     1       1.406  -8.657 -10.718  1.00  0.00     0.031 A 
ATOM     55  C   UNL     1      -3.735 -13.049  -8.791  1.00  0.00     0.031 A 
ATOM     56  C   UNL     1       0.248  -8.024 -11.289  1.00  0.00     0.049 A 
ATOM     57  C   UNL     1      -3.412 -12.468 -10.120  1.00  0.00     0.074 A 
ATOM     58  C   UNL     1      -0.372  -6.803 -11.126  1.00  0.00     0.029 A 
ATOM     59  N   UNL     1      -0.679  -8.858 -11.870  1.00  0.00    -0.354 N 
ATOM     60  N   UNL     1      -4.006 -11.414 -10.607  1.00  0.00    -0.248 NA
ATOM     61  C   UNL     1      -2.115 -12.774 -10.707  1.00  0.00     0.031 C 
ATOM     62  C   UNL     1      -1.767  -7.083 -11.208  1.00  0.00     0.029 A 
ATOM     63  C   UNL     1      -1.928  -8.444 -11.483  1.00  0.00     0.049 A 
ATOM     64  H   UNL     1      -0.481  -9.621 -12.461  1.00  0.00     0.167 HD
ATOM     65  C   UNL     1      -2.996 -10.688 -11.223  1.00  0.00     0.074 A 
ATOM     66  C   UNL     1      -1.879 -11.623 -11.344  1.00  0.00     0.031 C 
ATOM     67  C   UNL     1      -3.065  -9.326 -11.316  1.00  0.00     0.031 A 
BRANCH  54  68
ATOM     68  C   UNL     1       2.388  -9.429 -11.558  1.00  0.00    -0.014 A 
ATOM     69  C   UNL     1       2.546  -9.077 -12.912  1.00  0.00     0.010 A 
ATOM     70  C   UNL     1       2.960 -10.649 -11.138  1.00  0.00     0.010 A 
ATOM     71  C   UNL     1       3.205  -9.928 -13.808  1.00  0.00     0.020 A 
ATOM     72  C   UNL     1       3.657 -11.482 -12.012  1.00  0.00     0.020 A 
ATOM     73  C   UNL     1       3.750 -11.129 -13.351  1.00  0.00     0.054 A 
BRANCH  73  74
ATOM     74  S   UNL     1       4.527 -12.255 -14.532  1.00  0.00     0.124 S 
ATOM     75  O   UNL     1       3.393 -12.653 -15.360  1.00  0.00    -0.237 OA
ATOM     76  O   UNL     1       5.513 -11.392 -15.177  1.00  0.00    -0.237 OA
ATOM     77  O   UNL     1       5.086 -13.307 -13.686  1.00  0.00    -0.744 OA
ENDBRANCH  73  74
ENDBRANCH  54  68
BRANCH  55  78
ATOM     78  C   UNL     1      -4.023 -14.495  -8.607  1.00  0.00    -0.014 A 
ATOM     79  C   UNL     1      -4.627 -15.249  -9.632  1.00  0.00     0.010 A 
ATOM     80  C   UNL     1      -3.437 -15.201  -7.537  1.00  0.00     0.010 A 
ATOM     81  C   UNL     1      -4.582 -16.655  -9.622  1.00  0.00     0.020 A 
ATOM     82  C   UNL     1      -3.394 -16.601  -7.516  1.00  0.00     0.020 A 
ATOM     83  C   UNL     1      -3.944 -17.322  -8.573  1.00  0.00     0.054 A 
BRANCH  83  84
ATOM     84  S   UNL     1      -3.718 -19.125  -8.663  1.00  0.00     0.124 S 
ATOM     85  O   UNL     1      -5.076 -19.620  -8.463  1.00  0.00    -0.237 OA
ATOM     86  O   UNL     1      -3.168 -19.310 -10.003  1.00  0.00    -0.237 OA
ATOM     87  O   UNL     1      -2.787 -19.410  -7.572  1.00  0.00    -0.744 OA
ENDBRANCH  83  84
ENDBRANCH  55  78
BRANCH  67  88
ATOM     88  C   UNL     1      -4.389  -8.659 -11.019  1.00  0.00    -0.014 A 
ATOM     89  C   UNL     1      -5.034  -8.698  -9.765  1.00  0.00     0.010 A 
ATOM     90  C   UNL     1      -4.927  -7.835 -12.022  1.00  0.00     0.010 A 
ATOM     91  C   UNL     1      -6.201  -7.951  -9.537  1.00  0.00     0.020 A 
ATOM     92  C   UNL     1      -6.075  -7.075 -11.795  1.00  0.00     0.020 A 
ATOM     93  C   UNL     1      -6.714  -7.143 -10.557  1.00  0.00     0.054 A 
BRANCH  93  94
ATOM     94  S   UNL     1      -8.200  -6.147 -10.252  1.00  0.00     0.124 S 
ATOM     95  O   UNL     1      -9.245  -7.160 -10.138  1.00  0.00    -0.237 OA
ATOM     96  O   UNL     1      -7.870  -5.440  -9.017  1.00  0.00    -0.237 OA
ATOM     97  O   UNL     1      -8.296  -5.293 -11.436  1.00  0.00    -0.744 OA
ENDBRANCH  93  94
ENDBRANCH  67  88
ENDBRANCH  41  42
ENDBRANCH  34  36
ENDBRANCH  33  34
ENDBRANCH  32  33
ENDBRANCH   1  32
TORSDOF 19
