REMARK SMILES O=C(OCCOC(=O)[C@H]1C[N@H+](Cc2ccc(Cl)c(Cl)c2)CC12CCCCC2)c1ccc(-c2c3nc(c(-c4ccc(S(=O)(=O)[O-])cc4)c4ccc([nH]4)c(-c4ccc(S(=O)(=O)[O-])cc4)c4nc(c(-c5ccc(S(=O)(=O)[O-])cc5)c5ccc2[nH]5)C=C4)C=C3)cc1
REMARK SMILES IDX 4 1 3 2 2 3 1 4 28 5 29 6 87 7 30 8 86 9 31 10 32 11 33 12
REMARK SMILES IDX 80 13 34 14 85 15 79 16 81 17 35 18 84 19 78 20 77 21 36 23
REMARK SMILES IDX 66 24 47 25 65 26 48 27 51 28 64 29 82 30 49 31 50 32 63 34
REMARK SMILES IDX 83 35 52 36 37 37 38 38 46 39 39 40 45 41 40 42 41 43 42 44
REMARK SMILES IDX 43 45 44 46 67 47 68 48 76 49 69 50 75 51 70 52 71 53 72 54
REMARK SMILES IDX 73 55 74 56 53 57 54 58 62 59 55 60 61 61 56 62 57 63 58 64
REMARK SMILES IDX 59 65 60 66 5 67 6 68 7 69 8 70 9 71 10 72 22 73 11 74 21 75
REMARK SMILES IDX 23 76 27 77 24 79 26 80 25 81 12 82 13 83 14 84 20 85 15 86
REMARK SMILES IDX 18 87 16 88 19 89 17 90
REMARK H PARENT 81 22 51 33 11 78
REMARK Flexibility Score: inf
ROOT
ATOM      1  C   UNL     1       4.505   1.726  -1.358  1.00  0.00     0.275 C 
ENDROOT
BRANCH   1   2
ATOM      2  O   UNL     1       4.137   0.428  -1.843  1.00  0.00    -0.458 OA
BRANCH   2   3
ATOM      3  C   UNL     1       4.036  -0.720  -1.139  1.00  0.00     0.338 C 
ATOM      4  O   UNL     1       3.240  -1.573  -1.525  1.00  0.00    -0.246 OA
BRANCH   3   5
ATOM      5  C   UNL     1       4.859  -1.005   0.083  1.00  0.00     0.060 A 
ATOM      6  C   UNL     1       5.949  -0.273   0.562  1.00  0.00     0.016 A 
ATOM      7  C   UNL     1       4.478  -2.126   0.820  1.00  0.00     0.016 A 
ATOM      8  C   UNL     1       6.583  -0.603   1.771  1.00  0.00     0.010 A 
ATOM      9  C   UNL     1       5.066  -2.414   2.056  1.00  0.00     0.010 A 
ATOM     10  C   UNL     1       6.132  -1.662   2.556  1.00  0.00    -0.014 A 
BRANCH  10  11
ATOM     11  C   UNL     1       6.785  -2.036   3.845  1.00  0.00     0.031 A 
ATOM     12  C   UNL     1       7.162  -3.485   4.083  1.00  0.00     0.074 A 
ATOM     13  C   UNL     1       6.931  -1.132   4.842  1.00  0.00     0.049 A 
ATOM     14  N   UNL     1       7.578  -4.064   5.180  1.00  0.00    -0.248 NA
ATOM     15  C   UNL     1       6.976  -4.420   2.956  1.00  0.00     0.031 C 
ATOM     16  C   UNL     1       6.474   0.267   4.815  1.00  0.00     0.029 A 
ATOM     17  N   UNL     1       7.410  -1.283   6.124  1.00  0.00    -0.354 N 
ATOM     18  C   UNL     1       7.676  -5.417   4.867  1.00  0.00     0.074 A 
ATOM     19  C   UNL     1       7.116  -5.592   3.551  1.00  0.00     0.031 C 
ATOM     20  C   UNL     1       6.628   0.813   6.035  1.00  0.00     0.029 A 
ATOM     21  C   UNL     1       7.189  -0.188   6.934  1.00  0.00     0.049 A 
ATOM     22  H   UNL     1       7.869  -2.098   6.434  1.00  0.00     0.167 HD
ATOM     23  C   UNL     1       8.283  -6.415   5.552  1.00  0.00     0.031 A 
ATOM     24  C   UNL     1       7.370  -0.028   8.260  1.00  0.00     0.031 A 
ATOM     25  C   UNL     1       8.889  -6.225   6.837  1.00  0.00     0.049 A 
ATOM     26  C   UNL     1       8.031  -1.137   9.033  1.00  0.00     0.074 A 
ATOM     27  C   UNL     1       9.675  -7.097   7.566  1.00  0.00     0.029 A 
ATOM     28  N   UNL     1       8.769  -5.063   7.583  1.00  0.00    -0.354 N 
ATOM     29  N   UNL     1       8.304  -2.360   8.646  1.00  0.00    -0.248 NA
ATOM     30  C   UNL     1       8.484  -0.816  10.393  1.00  0.00     0.031 C 
ATOM     31  C   UNL     1      10.016  -6.466   8.767  1.00  0.00     0.029 A 
ATOM     32  C   UNL     1       9.482  -5.186   8.759  1.00  0.00     0.049 A 
ATOM     33  H   UNL     1       8.253  -4.269   7.314  1.00  0.00     0.167 HD
ATOM     34  C   UNL     1       9.041  -2.925   9.681  1.00  0.00     0.074 A 
ATOM     35  C   UNL     1       9.147  -1.917  10.717  1.00  0.00     0.031 C 
ATOM     36  C   UNL     1       9.608  -4.154   9.755  1.00  0.00     0.031 A 
BRANCH  23  37
ATOM     37  C   UNL     1       8.418  -7.746   4.852  1.00  0.00    -0.014 A 
ATOM     38  C   UNL     1       9.157  -7.840   3.653  1.00  0.00     0.010 A 
ATOM     39  C   UNL     1       7.822  -8.907   5.371  1.00  0.00     0.010 A 
ATOM     40  C   UNL     1       9.231  -9.040   2.949  1.00  0.00     0.020 A 
ATOM     41  C   UNL     1       7.933 -10.127   4.690  1.00  0.00     0.020 A 
ATOM     42  C   UNL     1       8.617 -10.179   3.472  1.00  0.00     0.054 A 
BRANCH  42  43
ATOM     43  S   UNL     1       8.764 -11.730   2.546  1.00  0.00     0.124 S 
ATOM     44  O   UNL     1       7.874 -11.492   1.412  1.00  0.00    -0.237 OA
ATOM     45  O   UNL     1      10.189 -11.775   2.224  1.00  0.00    -0.237 OA
ATOM     46  O   UNL     1       8.310 -12.745   3.493  1.00  0.00    -0.744 OA
ENDBRANCH  42  43
ENDBRANCH  23  37
BRANCH  24  47
ATOM     47  C   UNL     1       6.995   1.241   8.946  1.00  0.00    -0.014 A 
ATOM     48  C   UNL     1       7.989   2.176   9.289  1.00  0.00     0.010 A 
ATOM     49  C   UNL     1       5.662   1.498   9.316  1.00  0.00     0.010 A 
ATOM     50  C   UNL     1       7.669   3.317  10.029  1.00  0.00     0.020 A 
ATOM     51  C   UNL     1       5.334   2.653  10.039  1.00  0.00     0.020 A 
ATOM     52  C   UNL     1       6.343   3.547  10.405  1.00  0.00     0.054 A 
BRANCH  52  53
ATOM     53  S   UNL     1       5.963   5.040  11.367  1.00  0.00     0.124 S 
ATOM     54  O   UNL     1       6.593   4.746  12.650  1.00  0.00    -0.237 OA
ATOM     55  O   UNL     1       6.599   6.089  10.574  1.00  0.00    -0.237 OA
ATOM     56  O   UNL     1       4.503   5.077  11.379  1.00  0.00    -0.744 OA
ENDBRANCH  52  53
ENDBRANCH  24  47
BRANCH  36  57
ATOM     57  C   UNL     1      10.502  -4.434  10.929  1.00  0.00    -0.014 A 
ATOM     58  C   UNL     1       9.993  -4.623  12.224  1.00  0.00     0.010 A 
ATOM     59  C   UNL     1      11.886  -4.561  10.705  1.00  0.00     0.010 A 
ATOM     60  C   UNL     1      10.860  -4.902  13.282  1.00  0.00     0.020 A 
ATOM     61  C   UNL     1      12.750  -4.876  11.753  1.00  0.00     0.020 A 
ATOM     62  C   UNL     1      12.232  -5.030  13.039  1.00  0.00     0.054 A 
BRANCH  62  63
ATOM     63  S   UNL     1      13.329  -5.445  14.421  1.00  0.00     0.124 S 
ATOM     64  O   UNL     1      13.365  -4.190  15.167  1.00  0.00    -0.237 OA
ATOM     65  O   UNL     1      12.621  -6.545  15.071  1.00  0.00    -0.237 OA
ATOM     66  O   UNL     1      14.582  -5.818  13.768  1.00  0.00    -0.744 OA
ENDBRANCH  62  63
ENDBRANCH  36  57
ENDBRANCH  10  11
ENDBRANCH   3   5
ENDBRANCH   2   3
ENDBRANCH   1   2
BRANCH   1  67
ATOM     67  C   UNL     1       3.607   2.304  -0.259  1.00  0.00     0.274 C 
BRANCH  67  68
ATOM     68  O   UNL     1       3.348   1.407   0.842  1.00  0.00    -0.462 OA
BRANCH  68  69
ATOM     69  C   UNL     1       2.036   1.159   1.156  1.00  0.00     0.315 C 
ATOM     70  O   UNL     1       1.083   1.597   0.518  1.00  0.00    -0.252 OA
BRANCH  69  71
ATOM     71  C   UNL     1       1.917   0.354   2.451  1.00  0.00     0.166 C 
ATOM     72  C   UNL     1       1.325   1.266   3.535  1.00  0.00     0.278 C 
ATOM     73  C   UNL     1       1.026  -0.941   2.451  1.00  0.00     0.038 C 
ATOM     74  N   UNL     1       0.317   0.496   4.243  1.00  0.00    -0.330 N 
ATOM     75  C   UNL     1      -0.156  -0.568   3.370  1.00  0.00     0.270 C 
ATOM     76  C   UNL     1       0.560  -1.401   1.051  1.00  0.00     0.014 C 
ATOM     77  C   UNL     1       1.832  -2.097   3.080  1.00  0.00     0.014 C 
ATOM     78  H   UNL     1      -0.483   1.103   4.421  1.00  0.00     0.348 HD
ATOM     79  C   UNL     1      -0.098  -2.786   1.037  1.00  0.00     0.001 C 
ATOM     80  C   UNL     1       1.220  -3.488   3.037  1.00  0.00     0.001 C 
ATOM     81  C   UNL     1       0.811  -3.857   1.624  1.00  0.00     0.000 C 
BRANCH  74  82
ATOM     82  C   UNL     1       0.457   0.275   5.680  1.00  0.00     0.299 C 
BRANCH  82  83
ATOM     83  C   UNL     1       1.458  -0.760   6.148  1.00  0.00     0.008 A 
ATOM     84  C   UNL     1       2.833  -0.505   6.117  1.00  0.00     0.011 A 
ATOM     85  C   UNL     1       1.028  -2.029   6.586  1.00  0.00     0.031 A 
ATOM     86  C   UNL     1       3.740  -1.521   6.433  1.00  0.00     0.022 A 
ATOM     87  C   UNL     1       1.947  -3.043   6.900  1.00  0.00     0.060 A 
ATOM     88  C   UNL     1       3.313  -2.794   6.799  1.00  0.00     0.059 A 
ATOM     89  Cl  UNL     1       1.326  -4.586   7.364  1.00  0.00    -0.083 Cl
ATOM     90  Cl  UNL     1       4.514  -4.001   7.073  1.00  0.00    -0.083 Cl
ENDBRANCH  82  83
ENDBRANCH  74  82
ENDBRANCH  69  71
ENDBRANCH  68  69
ENDBRANCH  67  68
ENDBRANCH   1  67
TORSDOF 16
