REMARK SMILES CC(C)c1ccc(C[N@@H+](CC(=O)OCCOC(=O)c2ccc(-c3c4nc(c(-c5ccc(S(=O)(=O)[O-])cc5)c5ccc([nH]5)c(-c5ccc(S(=O)(=O)[O-])cc5)c5nc(c(-c6ccc(S(=O)(=O)[O-])cc6)c6ccc3[nH]6)C=C5)C=C4)cc2)CC(F)(F)F)cc1
REMARK SMILES IDX 14 1 13 2 11 3 12 4 10 5 9 6 8 8 7 9 4 10 5 11 85 12 6 13
REMARK SMILES IDX 84 14 2 15 1 16 3 17 79 18 80 19 81 20 82 21 83 22 15 23
REMARK SMILES IDX 16 24 17 25 18 26 19 27 20 28 78 29 21 30 77 31 22 32 23 33
REMARK SMILES IDX 24 34 71 35 25 36 76 37 70 38 72 39 26 40 75 41 69 42 68 43
REMARK SMILES IDX 27 45 57 46 38 47 56 48 39 49 42 50 55 51 73 52 40 53 41 54
REMARK SMILES IDX 54 56 74 57 43 58 28 59 29 60 37 61 30 62 36 63 31 64 32 65
REMARK SMILES IDX 33 66 34 67 35 68 58 69 59 70 67 71 60 72 66 73 61 74 62 75
REMARK SMILES IDX 63 76 64 77 65 78 44 79 45 80 53 81 46 82 52 83 47 84 48 85
REMARK SMILES IDX 49 86 50 87 51 88
REMARK H PARENT 9 7 72 44 42 55
REMARK Flexibility Score: inf
ROOT
ATOM      1  C   UNL     1      -8.532  -1.432   1.006  1.00  0.00     0.274 C 
ENDROOT
BRANCH   1   2
ATOM      2  O   UNL     1      -7.553  -0.373   1.070  1.00  0.00    -0.458 OA
BRANCH   2   3
ATOM      3  C   UNL     1      -8.022   0.853   1.418  1.00  0.00     0.361 C 
ATOM      4  O   UNL     1      -9.194   1.079   1.707  1.00  0.00    -0.245 OA
BRANCH   3   5
ATOM      5  C   UNL     1      -6.995   1.982   1.341  1.00  0.00     0.387 C 
BRANCH   5   6
ATOM      6  N   UNL     1      -5.567   1.644   1.466  1.00  0.00    -0.314 N 
ATOM      7  H   UNL     1      -5.078   2.537   1.400  1.00  0.00     0.349 HD
BRANCH   6   8
ATOM      8  C   UNL     1      -4.991   0.964   0.313  1.00  0.00     0.299 C 
BRANCH   8   9
ATOM      9  C   UNL     1      -3.493   1.138   0.210  1.00  0.00     0.006 A 
ATOM     10  C   UNL     1      -0.665   1.363   0.239  1.00  0.00    -0.045 A 
ATOM     11  C   UNL     1      -1.487   2.474   0.498  1.00  0.00     0.004 A 
ATOM     12  C   UNL     1      -1.292   0.150  -0.079  1.00  0.00     0.004 A 
ATOM     13  C   UNL     1      -2.879   2.370   0.462  1.00  0.00     0.010 A 
ATOM     14  C   UNL     1      -2.685   0.039  -0.099  1.00  0.00     0.010 A 
BRANCH  10  15
ATOM     15  C   UNL     1       0.845   1.498   0.390  1.00  0.00     0.013 C 
ATOM     16  C   UNL     1       1.643   0.218   0.109  1.00  0.00     0.012 C 
ATOM     17  C   UNL     1       1.405   2.630  -0.481  1.00  0.00     0.012 C 
ENDBRANCH  10  15
ENDBRANCH   8   9
ENDBRANCH   6   8
BRANCH   6  18
ATOM     18  C   UNL     1      -5.135   1.229   2.826  1.00  0.00     0.380 C 
BRANCH  18  19
ATOM     19  C   UNL     1      -4.199   0.026   3.124  1.00  0.00     0.438 C 
ATOM     20  F   UNL     1      -2.900   0.333   2.906  1.00  0.00    -0.165 F 
ATOM     21  F   UNL     1      -4.278  -0.322   4.433  1.00  0.00    -0.165 F 
ATOM     22  F   UNL     1      -4.495  -1.065   2.383  1.00  0.00    -0.165 F 
ENDBRANCH  18  19
ENDBRANCH   6  18
ENDBRANCH   5   6
ENDBRANCH   3   5
ENDBRANCH   2   3
ENDBRANCH   1   2
BRANCH   1  23
ATOM     23  C   UNL     1      -8.535  -2.314   2.256  1.00  0.00     0.275 C 
BRANCH  23  24
ATOM     24  O   UNL     1      -8.965  -1.589   3.423  1.00  0.00    -0.458 OA
BRANCH  24  25
ATOM     25  C   UNL     1      -7.947  -1.083   4.152  1.00  0.00     0.338 C 
ATOM     26  O   UNL     1      -6.758  -1.202   3.923  1.00  0.00    -0.246 OA
BRANCH  25  27
ATOM     27  C   UNL     1      -8.431  -0.261   5.264  1.00  0.00     0.060 A 
ATOM     28  C   UNL     1      -8.416   1.128   5.118  1.00  0.00     0.016 A 
ATOM     29  C   UNL     1      -8.703  -0.848   6.500  1.00  0.00     0.016 A 
ATOM     30  C   UNL     1      -8.643   1.939   6.224  1.00  0.00     0.010 A 
ATOM     31  C   UNL     1      -8.967  -0.031   7.602  1.00  0.00     0.010 A 
ATOM     32  C   UNL     1      -8.921   1.367   7.474  1.00  0.00    -0.014 A 
BRANCH  32  33
ATOM     33  C   UNL     1      -9.207   2.255   8.623  1.00  0.00     0.031 A 
ATOM     34  C   UNL     1      -8.205   2.446   9.725  1.00  0.00     0.074 A 
ATOM     35  C   UNL     1     -10.375   2.923   8.636  1.00  0.00     0.049 A 
ATOM     36  N   UNL     1      -8.295   3.198  10.792  1.00  0.00    -0.248 NA
ATOM     37  C   UNL     1      -6.942   1.700   9.617  1.00  0.00     0.031 C 
ATOM     38  C   UNL     1     -11.411   2.825   7.605  1.00  0.00     0.029 A 
ATOM     39  N   UNL     1     -10.877   3.830   9.531  1.00  0.00    -0.354 N 
ATOM     40  C   UNL     1      -7.113   3.002  11.496  1.00  0.00     0.074 A 
ATOM     41  C   UNL     1      -6.323   2.056  10.735  1.00  0.00     0.031 C 
ATOM     42  C   UNL     1     -12.409   3.668   7.906  1.00  0.00     0.029 A 
ATOM     43  C   UNL     1     -12.104   4.332   9.168  1.00  0.00     0.049 A 
ATOM     44  H   UNL     1     -10.406   4.097  10.353  1.00  0.00     0.167 HD
ATOM     45  C   UNL     1      -6.728   3.556  12.672  1.00  0.00     0.031 A 
ATOM     46  C   UNL     1     -12.898   5.226   9.785  1.00  0.00     0.031 A 
ATOM     47  C   UNL     1      -7.523   4.493  13.424  1.00  0.00     0.049 A 
ATOM     48  C   UNL     1     -12.444   5.831  11.079  1.00  0.00     0.074 A 
ATOM     49  C   UNL     1      -7.230   5.098  14.635  1.00  0.00     0.029 A 
ATOM     50  N   UNL     1      -8.768   4.965  13.035  1.00  0.00    -0.354 N 
ATOM     51  N   UNL     1     -11.332   5.614  11.741  1.00  0.00    -0.248 NA
ATOM     52  C   UNL     1     -13.350   6.799  11.708  1.00  0.00     0.031 C 
ATOM     53  C   UNL     1      -8.311   5.917  14.989  1.00  0.00     0.029 A 
ATOM     54  C   UNL     1      -9.259   5.849  13.982  1.00  0.00     0.049 A 
ATOM     55  H   UNL     1      -9.233   4.710  12.206  1.00  0.00     0.167 HD
ATOM     56  C   UNL     1     -11.403   6.421  12.868  1.00  0.00     0.074 A 
ATOM     57  C   UNL     1     -12.655   7.149  12.783  1.00  0.00     0.031 C 
ATOM     58  C   UNL     1     -10.516   6.545  13.886  1.00  0.00     0.031 A 
BRANCH  45  59
ATOM     59  C   UNL     1      -5.399   3.129  13.236  1.00  0.00    -0.014 A 
ATOM     60  C   UNL     1      -4.192   3.620  12.709  1.00  0.00     0.010 A 
ATOM     61  C   UNL     1      -5.361   2.246  14.330  1.00  0.00     0.010 A 
ATOM     62  C   UNL     1      -2.967   3.208  13.245  1.00  0.00     0.020 A 
ATOM     63  C   UNL     1      -4.139   1.845  14.880  1.00  0.00     0.020 A 
ATOM     64  C   UNL     1      -2.949   2.315  14.322  1.00  0.00     0.054 A 
BRANCH  64  65
ATOM     65  S   UNL     1      -1.351   1.802  15.013  1.00  0.00     0.124 S 
ATOM     66  O   UNL     1      -0.918   0.792  14.050  1.00  0.00    -0.237 OA
ATOM     67  O   UNL     1      -0.580   3.043  15.009  1.00  0.00    -0.237 OA
ATOM     68  O   UNL     1      -1.696   1.293  16.338  1.00  0.00    -0.744 OA
ENDBRANCH  64  65
ENDBRANCH  45  59
BRANCH  46  69
ATOM     69  C   UNL     1     -14.198   5.592   9.168  1.00  0.00    -0.014 A 
ATOM     70  C   UNL     1     -14.357   6.830   8.524  1.00  0.00     0.010 A 
ATOM     71  C   UNL     1     -15.261   4.671   9.164  1.00  0.00     0.010 A 
ATOM     72  C   UNL     1     -15.558   7.141   7.881  1.00  0.00     0.020 A 
ATOM     73  C   UNL     1     -16.455   4.970   8.504  1.00  0.00     0.020 A 
ATOM     74  C   UNL     1     -16.598   6.206   7.871  1.00  0.00     0.054 A 
BRANCH  74  75
ATOM     75  S   UNL     1     -18.116   6.580   6.949  1.00  0.00     0.124 S 
ATOM     76  O   UNL     1     -18.863   7.384   7.910  1.00  0.00    -0.237 OA
ATOM     77  O   UNL     1     -17.615   7.297   5.778  1.00  0.00    -0.237 OA
ATOM     78  O   UNL     1     -18.672   5.259   6.666  1.00  0.00    -0.744 OA
ENDBRANCH  74  75
ENDBRANCH  46  69
BRANCH  58  79
ATOM     79  C   UNL     1     -10.884   7.508  14.979  1.00  0.00    -0.014 A 
ATOM     80  C   UNL     1     -11.856   7.170  15.938  1.00  0.00     0.010 A 
ATOM     81  C   UNL     1     -10.262   8.766  15.039  1.00  0.00     0.010 A 
ATOM     82  C   UNL     1     -12.236   8.097  16.911  1.00  0.00     0.020 A 
ATOM     83  C   UNL     1     -10.627   9.689  16.023  1.00  0.00     0.020 A 
ATOM     84  C   UNL     1     -11.628   9.356  16.938  1.00  0.00     0.054 A 
BRANCH  84  85
ATOM     85  S   UNL     1     -12.136  10.553  18.203  1.00  0.00     0.124 S 
ATOM     86  O   UNL     1     -13.342  11.124  17.610  1.00  0.00    -0.237 OA
ATOM     87  O   UNL     1     -12.351   9.715  19.380  1.00  0.00    -0.237 OA
ATOM     88  O   UNL     1     -10.994  11.460  18.293  1.00  0.00    -0.744 OA
ENDBRANCH  84  85
ENDBRANCH  58  79
ENDBRANCH  32  33
ENDBRANCH  25  27
ENDBRANCH  24  25
ENDBRANCH  23  24
ENDBRANCH   1  23
TORSDOF 20
