REMARK SMILES C[C@H](C[N@H+](C)[C@H]1CC[C@H]([NH3+])CC1)C(=O)OCCOC(=O)c1ccc(-c2c3nc(c(-c4ccc(S(=O)(=O)[O-])cc4)c4ccc([nH]4)c(-c4ccc(S(=O)(=O)[O-])cc4)c4nc(c(-c5ccc(S(=O)(=O)[O-])cc5)c5ccc2[nH]5)C=C4)C=C3)cc1
REMARK SMILES IDX 16 1 15 2 13 3 14 4 2 5 1 6 3 7 4 8 5 9 6 11 7 12 12 13 8 14
REMARK SMILES IDX 11 15 9 16 10 17 17 21 18 22 19 23 20 24 21 25 22 26 80 27
REMARK SMILES IDX 23 28 79 29 24 30 25 31 26 32 73 33 27 34 78 35 72 36 74 37
REMARK SMILES IDX 28 38 77 39 71 40 70 41 29 43 59 44 40 45 58 46 41 47 44 48
REMARK SMILES IDX 57 49 75 50 42 51 43 52 56 54 76 55 45 56 30 57 31 58 39 59
REMARK SMILES IDX 32 60 38 61 33 62 34 63 35 64 36 65 37 66 60 67 61 68 69 69
REMARK SMILES IDX 62 70 68 71 63 72 64 73 65 74 66 75 67 76 46 77 47 78 55 79
REMARK SMILES IDX 48 80 54 81 49 82 50 83 51 84 52 85 53 86
REMARK H PARENT 4 10 10 18 10 19 10 20 74 42 44 53
REMARK Flexibility Score: inf
ROOT
ATOM      1  C   UNL     1      -3.769   0.204  -0.594  1.00  0.00     0.274 C 
ENDROOT
BRANCH   1   2
ATOM      2  O   UNL     1      -2.411  -0.047  -1.014  1.00  0.00    -0.462 OA
BRANCH   2   3
ATOM      3  C   UNL     1      -1.565   0.998  -0.843  1.00  0.00     0.314 C 
ATOM      4  O   UNL     1      -1.865   2.032  -0.252  1.00  0.00    -0.252 OA
BRANCH   3   5
ATOM      5  C   UNL     1      -0.208   0.829  -1.505  1.00  0.00     0.151 C 
ATOM      6  C   UNL     1      -0.103  -0.198  -2.626  1.00  0.00     0.026 C 
BRANCH   5   7
ATOM      7  C   UNL     1       0.899   0.681  -0.427  1.00  0.00     0.277 C 
BRANCH   7   8
ATOM      8  N   UNL     1       2.194   1.405  -0.581  1.00  0.00    -0.334 N 
ATOM      9  C   UNL     1       2.799   1.638   0.738  1.00  0.00     0.332 C 
ATOM     10  H   UNL     1       2.813   0.796  -1.116  1.00  0.00     0.348 HD
BRANCH   8  11
ATOM     11  C   UNL     1       2.121   2.615  -1.405  1.00  0.00     0.184 C 
ATOM     12  C   UNL     1       3.475   3.225  -1.802  1.00  0.00     0.071 C 
ATOM     13  C   UNL     1       1.250   3.760  -0.854  1.00  0.00     0.071 C 
ATOM     14  C   UNL     1       3.240   4.171  -2.988  1.00  0.00     0.071 C 
ATOM     15  C   UNL     1       0.900   4.694  -2.009  1.00  0.00     0.071 C 
ATOM     16  C   UNL     1       2.149   5.228  -2.726  1.00  0.00     0.181 C 
BRANCH  16  17
ATOM     17  N   UNL     1       1.732   5.830  -3.997  1.00  0.00    -0.355 N 
ATOM     18  H   UNL     1       1.312   5.114  -4.590  1.00  0.00     0.344 HD
ATOM     19  H   UNL     1       2.546   6.227  -4.468  1.00  0.00     0.344 HD
ATOM     20  H   UNL     1       1.050   6.566  -3.817  1.00  0.00     0.344 HD
ENDBRANCH  16  17
ENDBRANCH   8  11
ENDBRANCH   7   8
ENDBRANCH   5   7
ENDBRANCH   3   5
ENDBRANCH   2   3
ENDBRANCH   1   2
BRANCH   1  21
ATOM     21  C   UNL     1      -4.064  -0.249   0.840  1.00  0.00     0.275 C 
BRANCH  21  22
ATOM     22  O   UNL     1      -3.555   0.652   1.844  1.00  0.00    -0.458 OA
BRANCH  22  23
ATOM     23  C   UNL     1      -2.283   0.404   2.233  1.00  0.00     0.338 C 
ATOM     24  O   UNL     1      -1.553  -0.477   1.806  1.00  0.00    -0.246 OA
BRANCH  23  25
ATOM     25  C   UNL     1      -1.826   1.383   3.239  1.00  0.00     0.060 A 
ATOM     26  C   UNL     1      -0.606   2.023   3.011  1.00  0.00     0.016 A 
ATOM     27  C   UNL     1      -2.478   1.549   4.461  1.00  0.00     0.016 A 
ATOM     28  C   UNL     1       0.025   2.737   4.022  1.00  0.00     0.010 A 
ATOM     29  C   UNL     1      -1.863   2.304   5.470  1.00  0.00     0.010 A 
ATOM     30  C   UNL     1      -0.584   2.859   5.274  1.00  0.00    -0.014 A 
BRANCH  30  31
ATOM     31  C   UNL     1       0.179   3.471   6.391  1.00  0.00     0.031 A 
ATOM     32  C   UNL     1       0.684   2.602   7.512  1.00  0.00     0.074 A 
ATOM     33  C   UNL     1       0.479   4.784   6.374  1.00  0.00     0.049 A 
ATOM     34  N   UNL     1       1.334   2.944   8.595  1.00  0.00    -0.248 NA
ATOM     35  C   UNL     1       0.424   1.157   7.399  1.00  0.00     0.031 C 
ATOM     36  C   UNL     1       0.112   5.725   5.315  1.00  0.00     0.029 A 
ATOM     37  N   UNL     1       1.175   5.550   7.275  1.00  0.00    -0.354 N 
ATOM     38  C   UNL     1       1.528   1.766   9.309  1.00  0.00     0.074 A 
ATOM     39  C   UNL     1       0.918   0.702   8.541  1.00  0.00     0.031 C 
ATOM     40  C   UNL     1       0.598   6.939   5.621  1.00  0.00     0.029 A 
ATOM     41  C   UNL     1       1.269   6.873   6.916  1.00  0.00     0.049 A 
ATOM     42  H   UNL     1       1.570   5.186   8.100  1.00  0.00     0.167 HD
ATOM     43  C   UNL     1       2.156   1.586  10.496  1.00  0.00     0.031 A 
ATOM     44  C   UNL     1       1.816   7.918   7.566  1.00  0.00     0.031 A 
ATOM     45  C   UNL     1       2.784   2.637  11.250  1.00  0.00     0.049 A 
ATOM     46  C   UNL     1       2.466   7.700   8.904  1.00  0.00     0.074 A 
ATOM     47  C   UNL     1       3.459   2.547  12.456  1.00  0.00     0.029 A 
ATOM     48  N   UNL     1       2.820   3.970  10.871  1.00  0.00    -0.354 N 
ATOM     49  N   UNL     1       2.624   6.583   9.573  1.00  0.00    -0.248 NA
ATOM     50  C   UNL     1       3.014   8.888   9.575  1.00  0.00     0.031 C 
ATOM     51  C   UNL     1       3.869   3.833  12.826  1.00  0.00     0.029 A 
ATOM     52  C   UNL     1       3.490   4.715  11.827  1.00  0.00     0.049 A 
ATOM     53  H   UNL     1       2.428   4.333  10.045  1.00  0.00     0.167 HD
ATOM     54  C   UNL     1       3.315   6.930  10.729  1.00  0.00     0.074 A 
ATOM     55  C   UNL     1       3.551   8.358  10.665  1.00  0.00     0.031 C 
ATOM     56  C   UNL     1       3.721   6.135  11.750  1.00  0.00     0.031 A 
BRANCH  43  57
ATOM     57  C   UNL     1       2.152   0.196  11.073  1.00  0.00    -0.014 A 
ATOM     58  C   UNL     1       2.963  -0.822  10.542  1.00  0.00     0.010 A 
ATOM     59  C   UNL     1       1.334  -0.086  12.182  1.00  0.00     0.010 A 
ATOM     60  C   UNL     1       2.922  -2.111  11.083  1.00  0.00     0.020 A 
ATOM     61  C   UNL     1       1.308  -1.367  12.741  1.00  0.00     0.020 A 
ATOM     62  C   UNL     1       2.088  -2.377  12.174  1.00  0.00     0.054 A 
BRANCH  62  63
ATOM     63  S   UNL     1       2.055  -4.054  12.864  1.00  0.00     0.124 S 
ATOM     64  O   UNL     1       1.238  -4.765  11.883  1.00  0.00    -0.237 OA
ATOM     65  O   UNL     1       3.468  -4.422  12.888  1.00  0.00    -0.237 OA
ATOM     66  O   UNL     1       1.438  -3.877  14.176  1.00  0.00    -0.744 OA
ENDBRANCH  62  63
ENDBRANCH  43  57
BRANCH  44  67
ATOM     67  C   UNL     1       1.759   9.277   6.963  1.00  0.00    -0.014 A 
ATOM     68  C   UNL     1       2.923   9.884   6.461  1.00  0.00     0.010 A 
ATOM     69  C   UNL     1       0.537   9.969   6.890  1.00  0.00     0.010 A 
ATOM     70  C   UNL     1       2.868  11.167   5.910  1.00  0.00     0.020 A 
ATOM     71  C   UNL     1       0.474  11.242   6.317  1.00  0.00     0.020 A 
ATOM     72  C   UNL     1       1.644  11.838   5.841  1.00  0.00     0.054 A 
BRANCH  72  73
ATOM     73  S   UNL     1       1.585  13.483   5.077  1.00  0.00     0.124 S 
ATOM     74  O   UNL     1       2.132  14.327   6.134  1.00  0.00    -0.237 OA
ATOM     75  O   UNL     1       2.431  13.316   3.898  1.00  0.00    -0.237 OA
ATOM     76  O   UNL     1       0.165  13.674   4.792  1.00  0.00    -0.744 OA
ENDBRANCH  72  73
ENDBRANCH  44  67
BRANCH  56  77
ATOM     77  C   UNL     1       4.502   6.785  12.860  1.00  0.00    -0.014 A 
ATOM     78  C   UNL     1       3.875   7.610  13.810  1.00  0.00     0.010 A 
ATOM     79  C   UNL     1       5.883   6.537  12.970  1.00  0.00     0.010 A 
ATOM     80  C   UNL     1       4.622   8.208  14.829  1.00  0.00     0.020 A 
ATOM     81  C   UNL     1       6.629   7.114  14.001  1.00  0.00     0.020 A 
ATOM     82  C   UNL     1       5.996   7.961  14.914  1.00  0.00     0.054 A 
BRANCH  82  83
ATOM     83  S   UNL     1       6.945   8.725  16.259  1.00  0.00     0.124 S 
ATOM     84  O   UNL     1       7.111  10.092  15.774  1.00  0.00    -0.237 OA
ATOM     85  O   UNL     1       6.058   8.570  17.410  1.00  0.00    -0.237 OA
ATOM     86  O   UNL     1       8.169   7.928  16.313  1.00  0.00    -0.744 OA
ENDBRANCH  82  83
ENDBRANCH  56  77
ENDBRANCH  30  31
ENDBRANCH  23  25
ENDBRANCH  22  23
ENDBRANCH  21  22
ENDBRANCH   1  21
TORSDOF 18
