REMARK SMILES C[NH+]1CCC([N@@H+](C)Cc2ccc(C(=O)OCCOC(=O)c3ccc(-c4c5nc(c(-c6ccc(S(=O)(=O)[O-])cc6)c6ccc([nH]6)c(-c6ccc(S(=O)(=O)[O-])cc6)c6nc(c(-c7ccc(S(=O)(=O)[O-])cc7)c7ccc4[nH]7)C=C6)C=C5)cc3)cn2)CC1
REMARK SMILES IDX 16 1 15 2 13 3 14 4 12 5 9 6 10 7 82 8 11 9 81 10 8 11 6 12
REMARK SMILES IDX 7 13 5 15 1 16 2 17 3 18 84 19 4 21 83 22 17 23 18 24 19 25
REMARK SMILES IDX 20 26 21 27 22 28 80 29 23 30 79 31 24 32 25 33 26 34 73 35
REMARK SMILES IDX 27 36 78 37 72 38 74 39 28 40 77 41 71 42 70 43 29 45 59 46
REMARK SMILES IDX 40 47 58 48 41 49 44 50 57 51 75 52 42 53 43 54 56 56 76 57
REMARK SMILES IDX 45 58 30 59 31 60 39 61 32 62 38 63 33 64 34 65 35 66 36 67
REMARK SMILES IDX 37 68 60 69 61 70 69 71 62 72 68 73 63 74 64 75 65 76 66 77
REMARK SMILES IDX 67 78 46 79 47 80 55 81 48 82 54 83 49 84 50 85 51 86 52 87
REMARK SMILES IDX 53 88
REMARK H PARENT 6 14 2 20 74 44 44 55
REMARK Flexibility Score: inf
ROOT
ATOM      1  C   UNL     1      -0.708   5.826   4.833  1.00  0.00     0.275 C 
ENDROOT
BRANCH   1   2
ATOM      2  O   UNL     1      -0.095   4.529   4.670  1.00  0.00    -0.458 OA
BRANCH   2   3
ATOM      3  C   UNL     1       0.444   4.313   3.447  1.00  0.00     0.339 C 
ATOM      4  O   UNL     1       0.364   5.052   2.481  1.00  0.00    -0.246 OA
BRANCH   3   5
ATOM      5  C   UNL     1       1.234   3.075   3.411  1.00  0.00     0.078 A 
ATOM      6  C   UNL     1       2.642   0.855   2.616  1.00  0.00     0.095 A 
ATOM      7  C   UNL     1       1.435   0.689   3.308  1.00  0.00     0.031 A 
ATOM      8  N   UNL     1       3.219   2.064   2.472  1.00  0.00    -0.254 NA
ATOM      9  C   UNL     1       0.716   1.823   3.713  1.00  0.00     0.019 A 
ATOM     10  C   UNL     1       2.492   3.135   2.840  1.00  0.00     0.127 A 
BRANCH   6  11
ATOM     11  C   UNL     1       3.258  -0.262   1.793  1.00  0.00     0.319 C 
BRANCH  11  12
ATOM     12  N   UNL     1       3.127  -0.156   0.314  1.00  0.00    -0.330 N 
ATOM     13  C   UNL     1       3.995   0.884  -0.246  1.00  0.00     0.333 C 
ATOM     14  H   UNL     1       3.460  -1.070   0.007  1.00  0.00     0.348 HD
BRANCH  12  15
ATOM     15  C   UNL     1       1.762  -0.126  -0.265  1.00  0.00     0.195 C 
ATOM     16  C   UNL     1      -2.567  -0.052  -0.266  1.00  0.00     0.332 C 
ATOM     17  N   UNL     1      -1.142  -0.034   0.053  1.00  0.00    -0.337 N 
ATOM     18  C   UNL     1      -0.474   1.093  -0.612  1.00  0.00     0.268 C 
ATOM     19  C   UNL     1      -0.497  -1.290  -0.342  1.00  0.00     0.268 C 
ATOM     20  H   UNL     1      -1.055   0.076   1.064  1.00  0.00     0.347 HD
ATOM     21  C   UNL     1       0.983   1.204  -0.164  1.00  0.00     0.126 C 
ATOM     22  C   UNL     1       0.925  -1.326   0.208  1.00  0.00     0.126 C 
ENDBRANCH  12  15
ENDBRANCH  11  12
ENDBRANCH   6  11
ENDBRANCH   3   5
ENDBRANCH   2   3
ENDBRANCH   1   2
BRANCH   1  23
ATOM     23  C   UNL     1       0.243   6.804   5.527  1.00  0.00     0.275 C 
BRANCH  23  24
ATOM     24  O   UNL     1       1.308   7.218   4.647  1.00  0.00    -0.458 OA
BRANCH  24  25
ATOM     25  C   UNL     1       2.479   6.569   4.830  1.00  0.00     0.338 C 
ATOM     26  O   UNL     1       2.711   5.687   5.644  1.00  0.00    -0.246 OA
BRANCH  25  27
ATOM     27  C   UNL     1       3.486   7.000   3.849  1.00  0.00     0.060 A 
ATOM     28  C   UNL     1       3.414   6.486   2.561  1.00  0.00     0.016 A 
ATOM     29  C   UNL     1       4.628   7.679   4.264  1.00  0.00     0.016 A 
ATOM     30  C   UNL     1       4.553   6.464   1.762  1.00  0.00     0.010 A 
ATOM     31  C   UNL     1       5.705   7.823   3.378  1.00  0.00     0.010 A 
ATOM     32  C   UNL     1       5.707   7.168   2.133  1.00  0.00    -0.014 A 
BRANCH  32  33
ATOM     33  C   UNL     1       6.891   7.223   1.220  1.00  0.00     0.031 A 
ATOM     34  C   UNL     1       8.276   6.884   1.722  1.00  0.00     0.074 A 
ATOM     35  C   UNL     1       6.731   7.592  -0.070  1.00  0.00     0.049 A 
ATOM     36  N   UNL     1       9.435   7.072   1.140  1.00  0.00    -0.248 NA
ATOM     37  C   UNL     1       8.376   6.276   3.059  1.00  0.00     0.031 C 
ATOM     38  C   UNL     1       5.452   7.906  -0.716  1.00  0.00     0.029 A 
ATOM     39  N   UNL     1       7.649   7.762  -1.078  1.00  0.00    -0.354 N 
ATOM     40  C   UNL     1      10.399   6.666   2.060  1.00  0.00     0.074 A 
ATOM     41  C   UNL     1       9.688   6.235   3.244  1.00  0.00     0.031 C 
ATOM     42  C   UNL     1       5.659   8.168  -2.012  1.00  0.00     0.029 A 
ATOM     43  C   UNL     1       7.091   8.172  -2.267  1.00  0.00     0.049 A 
ATOM     44  H   UNL     1       8.614   7.605  -0.961  1.00  0.00     0.167 HD
ATOM     45  C   UNL     1      11.750   6.657   1.930  1.00  0.00     0.031 A 
ATOM     46  C   UNL     1       7.654   8.570  -3.423  1.00  0.00     0.031 A 
ATOM     47  C   UNL     1      12.446   7.056   0.732  1.00  0.00     0.049 A 
ATOM     48  C   UNL     1       9.149   8.613  -3.524  1.00  0.00     0.074 A 
ATOM     49  C   UNL     1      13.810   7.066   0.491  1.00  0.00     0.029 A 
ATOM     50  N   UNL     1      11.835   7.503  -0.430  1.00  0.00    -0.354 N 
ATOM     51  N   UNL     1      10.043   8.272  -2.627  1.00  0.00    -0.248 NA
ATOM     52  C   UNL     1       9.712   9.107  -4.787  1.00  0.00     0.031 C 
ATOM     53  C   UNL     1      14.025   7.578  -0.793  1.00  0.00     0.029 A 
ATOM     54  C   UNL     1      12.793   7.818  -1.381  1.00  0.00     0.049 A 
ATOM     55  H   UNL     1      10.862   7.586  -0.561  1.00  0.00     0.167 HD
ATOM     56  C   UNL     1      11.277   8.489  -3.226  1.00  0.00     0.074 A 
ATOM     57  C   UNL     1      11.013   8.973  -4.566  1.00  0.00     0.031 C 
ATOM     58  C   UNL     1      12.517   8.302  -2.711  1.00  0.00     0.031 A 
BRANCH  45  59
ATOM     59  C   UNL     1      12.572   6.251   3.132  1.00  0.00    -0.014 A 
ATOM     60  C   UNL     1      12.586   4.928   3.611  1.00  0.00     0.010 A 
ATOM     61  C   UNL     1      13.375   7.213   3.775  1.00  0.00     0.010 A 
ATOM     62  C   UNL     1      13.343   4.589   4.738  1.00  0.00     0.020 A 
ATOM     63  C   UNL     1      14.159   6.871   4.882  1.00  0.00     0.020 A 
ATOM     64  C   UNL     1      14.121   5.565   5.370  1.00  0.00     0.054 A 
BRANCH  64  65
ATOM     65  S   UNL     1      15.093   5.097   6.830  1.00  0.00     0.124 S 
ATOM     66  O   UNL     1      14.052   4.912   7.838  1.00  0.00    -0.237 OA
ATOM     67  O   UNL     1      15.765   3.877   6.390  1.00  0.00    -0.237 OA
ATOM     68  O   UNL     1      15.970   6.245   7.046  1.00  0.00    -0.744 OA
ENDBRANCH  64  65
ENDBRANCH  45  59
BRANCH  46  69
ATOM     69  C   UNL     1       6.787   9.008  -4.554  1.00  0.00    -0.014 A 
ATOM     70  C   UNL     1       6.706   8.244  -5.729  1.00  0.00     0.010 A 
ATOM     71  C   UNL     1       6.003  10.173  -4.441  1.00  0.00     0.010 A 
ATOM     72  C   UNL     1       5.862   8.638  -6.772  1.00  0.00     0.020 A 
ATOM     73  C   UNL     1       5.131  10.549  -5.465  1.00  0.00     0.020 A 
ATOM     74  C   UNL     1       5.073   9.783  -6.629  1.00  0.00     0.054 A 
BRANCH  74  75
ATOM     75  S   UNL     1       3.935  10.234  -7.968  1.00  0.00     0.124 S 
ATOM     76  O   UNL     1       4.852  10.705  -9.001  1.00  0.00    -0.237 OA
ATOM     77  O   UNL     1       3.261   8.968  -8.248  1.00  0.00    -0.237 OA
ATOM     78  O   UNL     1       3.088  11.261  -7.366  1.00  0.00    -0.744 OA
ENDBRANCH  74  75
ENDBRANCH  46  69
BRANCH  58  79
ATOM     79  C   UNL     1      13.687   8.581  -3.616  1.00  0.00    -0.014 A 
ATOM     80  C   UNL     1      14.036   9.893  -3.980  1.00  0.00     0.010 A 
ATOM     81  C   UNL     1      14.474   7.508  -4.075  1.00  0.00     0.010 A 
ATOM     82  C   UNL     1      15.135  10.125  -4.812  1.00  0.00     0.020 A 
ATOM     83  C   UNL     1      15.591   7.739  -4.880  1.00  0.00     0.020 A 
ATOM     84  C   UNL     1      15.907   9.046  -5.255  1.00  0.00     0.054 A 
BRANCH  84  85
ATOM     85  S   UNL     1      17.356   9.379  -6.293  1.00  0.00     0.124 S 
ATOM     86  O   UNL     1      16.741   9.767  -7.559  1.00  0.00    -0.237 OA
ATOM     87  O   UNL     1      18.029  10.453  -5.566  1.00  0.00    -0.237 OA
ATOM     88  O   UNL     1      18.070   8.104  -6.312  1.00  0.00    -0.744 OA
ENDBRANCH  84  85
ENDBRANCH  58  79
ENDBRANCH  32  33
ENDBRANCH  25  27
ENDBRANCH  24  25
ENDBRANCH  23  24
ENDBRANCH   1  23
TORSDOF 17
