REMARK SMILES [NH3+][C@H](CC[S@@](=O)[O-])C(=O)OCCOC(=O)c1ccc(-c2c3nc(c(-c4ccc(S(=O)(=O)[O-])cc4)c4ccc([nH]4)c(-c4ccc(S(=O)(=O)[O-])cc4)c4nc(c(-c5ccc(S(=O)(=O)[O-])cc5)c5ccc2[nH]5)C=C4)C=C3)cc1
REMARK SMILES IDX 11 1 10 2 8 3 9 4 2 5 1 6 3 10 4 11 5 12 6 13 7 14 12 15
REMARK SMILES IDX 13 16 14 17 15 18 16 19 17 20 75 21 18 22 74 23 19 24 20 25
REMARK SMILES IDX 21 26 68 27 22 28 73 29 67 30 69 31 23 32 72 33 66 34 65 35
REMARK SMILES IDX 24 37 54 38 35 39 53 40 36 41 39 42 52 43 70 44 37 45 38 46
REMARK SMILES IDX 51 48 71 49 40 50 25 51 26 52 34 53 27 54 33 55 28 56 29 57
REMARK SMILES IDX 30 58 31 59 32 60 55 61 56 62 64 63 57 64 63 65 58 66 59 67
REMARK SMILES IDX 60 68 61 69 62 70 41 71 42 72 50 73 43 74 49 75 44 76 45 77
REMARK SMILES IDX 46 78 47 79 48 80
REMARK H PARENT 1 7 1 8 1 9 69 36 39 47
REMARK Flexibility Score: inf
ROOT
ATOM      1  C   UNL     1      -3.097   0.087  -1.169  1.00  0.00     0.274 C 
ENDROOT
BRANCH   1   2
ATOM      2  O   UNL     1      -1.676  -0.092  -1.323  1.00  0.00    -0.458 OA
BRANCH   2   3
ATOM      3  C   UNL     1      -0.971   1.032  -1.646  1.00  0.00     0.364 C 
ATOM      4  O   UNL     1      -1.471   2.139  -1.813  1.00  0.00    -0.245 OA
BRANCH   3   5
ATOM      5  C   UNL     1       0.534   0.748  -1.823  1.00  0.00     0.292 C 
BRANCH   5   6
ATOM      6  N   UNL     1       0.751   0.110  -3.137  1.00  0.00    -0.346 N 
ATOM      7  H   UNL     1       0.342   0.691  -3.869  1.00  0.00     0.345 HD
ATOM      8  H   UNL     1       0.309  -0.809  -3.145  1.00  0.00     0.345 HD
ATOM      9  H   UNL     1       1.752   0.007  -3.304  1.00  0.00     0.345 HD
ENDBRANCH   5   6
BRANCH   5  10
ATOM     10  C   UNL     1       1.122  -0.065  -0.654  1.00  0.00     0.090 C 
BRANCH  10  11
ATOM     11  C   UNL     1       2.571  -0.521  -0.805  1.00  0.00     0.096 C 
BRANCH  11  12
ATOM     12  S   UNL     1       3.794   0.799  -0.524  1.00  0.00    -0.055 S 
ATOM     13  O   UNL     1       5.151   0.226  -0.797  1.00  0.00    -0.275 OA
ATOM     14  O   UNL     1       3.425   1.609  -1.855  1.00  0.00    -0.772 OA
ENDBRANCH  11  12
ENDBRANCH  10  11
ENDBRANCH   5  10
ENDBRANCH   3   5
ENDBRANCH   2   3
ENDBRANCH   1   2
BRANCH   1  15
ATOM     15  C   UNL     1      -3.506   0.345   0.286  1.00  0.00     0.275 C 
BRANCH  15  16
ATOM     16  O   UNL     1      -3.085   1.639   0.753  1.00  0.00    -0.458 OA
BRANCH  16  17
ATOM     17  C   UNL     1      -1.858   1.662   1.325  1.00  0.00     0.338 C 
ATOM     18  O   UNL     1      -1.129   0.703   1.519  1.00  0.00    -0.246 OA
BRANCH  17  19
ATOM     19  C   UNL     1      -1.431   3.047   1.592  1.00  0.00     0.060 A 
ATOM     20  C   UNL     1      -0.166   3.438   1.140  1.00  0.00     0.016 A 
ATOM     21  C   UNL     1      -2.206   3.916   2.363  1.00  0.00     0.016 A 
ATOM     22  C   UNL     1       0.349   4.682   1.492  1.00  0.00     0.010 A 
ATOM     23  C   UNL     1      -1.689   5.168   2.712  1.00  0.00     0.010 A 
ATOM     24  C   UNL     1      -0.396   5.544   2.305  1.00  0.00    -0.014 A 
BRANCH  24  25
ATOM     25  C   UNL     1       0.230   6.792   2.806  1.00  0.00     0.031 A 
ATOM     26  C   UNL     1       0.725   6.854   4.224  1.00  0.00     0.074 A 
ATOM     27  C   UNL     1       0.398   7.843   1.984  1.00  0.00     0.049 A 
ATOM     28  N   UNL     1       1.307   7.842   4.854  1.00  0.00    -0.248 NA
ATOM     29  C   UNL     1       0.541   5.643   5.040  1.00  0.00     0.031 C 
ATOM     30  C   UNL     1       0.005   7.887   0.575  1.00  0.00     0.029 A 
ATOM     31  N   UNL     1       0.956   9.075   2.216  1.00  0.00    -0.354 N 
ATOM     32  C   UNL     1       1.541   7.381   6.145  1.00  0.00     0.074 A 
ATOM     33  C   UNL     1       1.021   6.032   6.212  1.00  0.00     0.031 C 
ATOM     34  C   UNL     1       0.348   9.081   0.064  1.00  0.00     0.029 A 
ATOM     35  C   UNL     1       0.952   9.897   1.116  1.00  0.00     0.049 A 
ATOM     36  H   UNL     1       1.324   9.344   3.089  1.00  0.00     0.167 HD
ATOM     37  C   UNL     1       2.136   8.022   7.180  1.00  0.00     0.031 A 
ATOM     38  C   UNL     1       1.379  11.166   0.973  1.00  0.00     0.031 A 
ATOM     39  C   UNL     1       2.648   9.365   7.114  1.00  0.00     0.049 A 
ATOM     40  C   UNL     1       1.993  11.875   2.150  1.00  0.00     0.074 A 
ATOM     41  C   UNL     1       3.276  10.098   8.105  1.00  0.00     0.029 A 
ATOM     42  N   UNL     1       2.589  10.178   5.992  1.00  0.00    -0.354 N 
ATOM     43  N   UNL     1       2.212  11.423   3.362  1.00  0.00    -0.248 NA
ATOM     44  C   UNL     1       2.425  13.263   1.935  1.00  0.00     0.031 C 
ATOM     45  C   UNL     1       3.558  11.371   7.595  1.00  0.00     0.029 A 
ATOM     46  C   UNL     1       3.152  11.412   6.271  1.00  0.00     0.049 A 
ATOM     47  H   UNL     1       2.204   9.917   5.125  1.00  0.00     0.167 HD
ATOM     48  C   UNL     1       2.836  12.461   4.045  1.00  0.00     0.074 A 
ATOM     49  C   UNL     1       2.963  13.561   3.110  1.00  0.00     0.031 C 
ATOM     50  C   UNL     1       3.271  12.497   5.330  1.00  0.00     0.031 A 
BRANCH  37  51
ATOM     51  C   UNL     1       2.213   7.283   8.489  1.00  0.00    -0.014 A 
ATOM     52  C   UNL     1       3.092   6.199   8.669  1.00  0.00     0.010 A 
ATOM     53  C   UNL     1       1.386   7.678   9.557  1.00  0.00     0.010 A 
ATOM     54  C   UNL     1       3.101   5.488   9.872  1.00  0.00     0.020 A 
ATOM     55  C   UNL     1       1.410   6.985  10.770  1.00  0.00     0.020 A 
ATOM     56  C   UNL     1       2.250   5.878  10.911  1.00  0.00     0.054 A 
BRANCH  56  57
ATOM     57  S   UNL     1       2.261   4.928  12.456  1.00  0.00     0.124 S 
ATOM     58  O   UNL     1       1.503   3.737  12.081  1.00  0.00    -0.237 OA
ATOM     59  O   UNL     1       3.686   4.715  12.695  1.00  0.00    -0.237 OA
ATOM     60  O   UNL     1       1.599   5.814  13.411  1.00  0.00    -0.744 OA
ENDBRANCH  56  57
ENDBRANCH  37  51
BRANCH  38  61
ATOM     61  C   UNL     1       1.247  11.845  -0.344  1.00  0.00    -0.014 A 
ATOM     62  C   UNL     1       2.383  12.093  -1.135  1.00  0.00     0.010 A 
ATOM     63  C   UNL     1      -0.019  12.223  -0.826  1.00  0.00     0.010 A 
ATOM     64  C   UNL     1       2.255  12.713  -2.381  1.00  0.00     0.020 A 
ATOM     65  C   UNL     1      -0.153  12.822  -2.081  1.00  0.00     0.020 A 
ATOM     66  C   UNL     1       0.987  13.069  -2.848  1.00  0.00     0.054 A 
BRANCH  66  67
ATOM     67  S   UNL     1       0.838  13.809  -4.498  1.00  0.00     0.124 S 
ATOM     68  O   UNL     1       1.313  15.169  -4.266  1.00  0.00    -0.237 OA
ATOM     69  O   UNL     1       1.712  12.962  -5.306  1.00  0.00    -0.237 OA
ATOM     70  O   UNL     1      -0.587  13.685  -4.800  1.00  0.00    -0.744 OA
ENDBRANCH  66  67
ENDBRANCH  38  61
BRANCH  50  71
ATOM     71  C   UNL     1       3.967  13.751   5.787  1.00  0.00    -0.014 A 
ATOM     72  C   UNL     1       3.253  14.935   6.040  1.00  0.00     0.010 A 
ATOM     73  C   UNL     1       5.357  13.728   6.004  1.00  0.00     0.010 A 
ATOM     74  C   UNL     1       3.924  16.086   6.467  1.00  0.00     0.020 A 
ATOM     75  C   UNL     1       6.027  14.869   6.454  1.00  0.00     0.020 A 
ATOM     76  C   UNL     1       5.307  16.046   6.666  1.00  0.00     0.054 A 
BRANCH  76  77
ATOM     77  S   UNL     1       6.154  17.541   7.250  1.00  0.00     0.124 S 
ATOM     78  O   UNL     1       6.226  18.343   6.032  1.00  0.00    -0.237 OA
ATOM     79  O   UNL     1       5.249  18.044   8.281  1.00  0.00    -0.237 OA
ATOM     80  O   UNL     1       7.435  17.041   7.744  1.00  0.00    -0.744 OA
ENDBRANCH  76  77
ENDBRANCH  50  71
ENDBRANCH  24  25
ENDBRANCH  17  19
ENDBRANCH  16  17
ENDBRANCH  15  16
ENDBRANCH   1  15
TORSDOF 18
