REMARK SMILES CC1=C(C)C(=O)N([C@@](C)(C(=O)OCCOC(=O)c2ccc(-c3c4nc(c(-c5ccc(S(=O)(=O)[O-])cc5)c5ccc([nH]5)c(-c5ccc(S(=O)(=O)[O-])cc5)c5nc(c(-c6ccc(S(=O)(=O)[O-])cc6)c6ccc3[nH]6)C=C5)C=C4)cc2)C(F)(F)F)C1=O
REMARK SMILES IDX 14 1 13 2 12 3 10 4 11 5 8 6 9 7 7 8 1 9 2 10 3 11 82 12
REMARK SMILES IDX 4 13 5 14 83 15 6 16 78 17 79 18 80 19 81 20 15 21 16 22
REMARK SMILES IDX 17 23 18 24 19 25 77 26 20 27 76 28 21 29 22 30 23 31 70 32
REMARK SMILES IDX 24 33 75 34 69 35 71 36 25 37 74 38 68 39 67 40 26 42 56 43
REMARK SMILES IDX 37 44 55 45 38 46 41 47 54 48 72 49 39 50 40 51 53 53 73 54
REMARK SMILES IDX 42 55 27 56 28 57 36 58 29 59 35 60 30 61 31 62 32 63 33 64
REMARK SMILES IDX 34 65 57 66 58 67 66 68 59 69 65 70 60 71 61 72 62 73 63 74
REMARK SMILES IDX 64 75 43 76 44 77 52 78 45 79 51 80 46 81 47 82 48 83 49 84
REMARK SMILES IDX 50 85
REMARK H PARENT 71 41 41 52
REMARK Flexibility Score: inf
ROOT
ATOM      1  C   UNL     1       1.670  -3.721   6.042  1.00  0.00     0.275 C 
ENDROOT
BRANCH   1   2
ATOM      2  C   UNL     1       0.598  -4.015   4.994  1.00  0.00     0.274 C 
BRANCH   2   3
ATOM      3  O   UNL     1       0.106  -2.807   4.361  1.00  0.00    -0.460 OA
BRANCH   3   4
ATOM      4  C   UNL     1      -1.201  -2.494   4.590  1.00  0.00     0.341 C 
ATOM      5  O   UNL     1      -1.897  -3.120   5.384  1.00  0.00    -0.249 OA
BRANCH   4   6
ATOM      6  C   UNL     1      -1.769  -1.429   3.648  1.00  0.00     0.240 C 
ATOM      7  C   UNL     1      -2.702  -2.180   2.668  1.00  0.00     0.058 C 
BRANCH   6   8
ATOM      8  N   UNL     1      -0.753  -0.661   2.866  1.00  0.00    -0.249 N 
ATOM      9  C   UNL     1       1.293  -0.141  -0.156  1.00  0.00     0.051 C 
ATOM     10  C   UNL     1       0.631  -0.020   1.162  1.00  0.00     0.023 C 
ATOM     11  C   UNL     1       0.356   1.075   1.875  1.00  0.00     0.023 C 
ATOM     12  C   UNL     1      -0.038  -1.153   1.822  1.00  0.00     0.258 C 
ATOM     13  C   UNL     1       0.652   2.500   1.589  1.00  0.00     0.051 C 
ATOM     14  C   UNL     1      -0.444   0.653   3.031  1.00  0.00     0.258 C 
ATOM     15  O   UNL     1       0.022  -2.300   1.416  1.00  0.00    -0.269 OA
ATOM     16  O   UNL     1      -0.790   1.423   3.904  1.00  0.00    -0.269 OA
ENDBRANCH   6   8
BRANCH   6  17
ATOM     17  C   UNL     1      -2.698  -0.539   4.498  1.00  0.00     0.422 C 
ATOM     18  F   UNL     1      -2.063   0.126   5.474  1.00  0.00    -0.168 F 
ATOM     19  F   UNL     1      -3.317   0.379   3.709  1.00  0.00    -0.168 F 
ATOM     20  F   UNL     1      -3.692  -1.241   5.092  1.00  0.00    -0.168 F 
ENDBRANCH   6  17
ENDBRANCH   4   6
ENDBRANCH   3   4
ENDBRANCH   2   3
ENDBRANCH   1   2
BRANCH   1  21
ATOM     21  O   UNL     1       1.113  -2.973   7.136  1.00  0.00    -0.458 OA
BRANCH  21  22
ATOM     22  C   UNL     1       1.288  -1.636   7.035  1.00  0.00     0.338 C 
ATOM     23  O   UNL     1       1.907  -1.039   6.169  1.00  0.00    -0.246 OA
BRANCH  22  24
ATOM     24  C   UNL     1       0.484  -0.938   8.044  1.00  0.00     0.060 A 
ATOM     25  C   UNL     1      -0.854  -0.740   7.746  1.00  0.00     0.016 A 
ATOM     26  C   UNL     1       1.066  -0.264   9.113  1.00  0.00     0.016 A 
ATOM     27  C   UNL     1      -1.562   0.273   8.378  1.00  0.00     0.010 A 
ATOM     28  C   UNL     1       0.293   0.641   9.859  1.00  0.00     0.010 A 
ATOM     29  C   UNL     1      -1.014   0.974   9.460  1.00  0.00    -0.014 A 
BRANCH  29  30
ATOM     30  C   UNL     1      -1.812   2.065  10.104  1.00  0.00     0.031 A 
ATOM     31  C   UNL     1      -1.247   3.461  10.252  1.00  0.00     0.074 A 
ATOM     32  C   UNL     1      -3.083   1.829  10.498  1.00  0.00     0.049 A 
ATOM     33  N   UNL     1      -1.757   4.497  10.873  1.00  0.00    -0.248 NA
ATOM     34  C   UNL     1       0.067   3.725   9.643  1.00  0.00     0.031 C 
ATOM     35  C   UNL     1      -3.787   0.547  10.377  1.00  0.00     0.029 A 
ATOM     36  N   UNL     1      -4.028   2.663  11.047  1.00  0.00    -0.354 N 
ATOM     37  C   UNL     1      -0.805   5.509  10.782  1.00  0.00     0.074 A 
ATOM     38  C   UNL     1       0.320   4.959  10.059  1.00  0.00     0.031 C 
ATOM     39  C   UNL     1      -5.064   0.703  10.749  1.00  0.00     0.029 A 
ATOM     40  C   UNL     1      -5.245   2.055  11.258  1.00  0.00     0.049 A 
ATOM     41  H   UNL     1      -3.851   3.606  11.267  1.00  0.00     0.167 HD
ATOM     42  C   UNL     1      -0.863   6.779  11.256  1.00  0.00     0.031 A 
ATOM     43  C   UNL     1      -6.375   2.506  11.837  1.00  0.00     0.031 A 
ATOM     44  C   UNL     1      -2.007   7.340  11.932  1.00  0.00     0.049 A 
ATOM     45  C   UNL     1      -6.399   3.902  12.387  1.00  0.00     0.074 A 
ATOM     46  C   UNL     1      -2.167   8.619  12.437  1.00  0.00     0.029 A 
ATOM     47  N   UNL     1      -3.193   6.665  12.181  1.00  0.00    -0.354 N 
ATOM     48  N   UNL     1      -5.465   4.821  12.344  1.00  0.00    -0.248 NA
ATOM     49  C   UNL     1      -7.626   4.315  13.079  1.00  0.00     0.031 C 
ATOM     50  C   UNL     1      -3.425   8.700  13.043  1.00  0.00     0.029 A 
ATOM     51  C   UNL     1      -4.078   7.492  12.856  1.00  0.00     0.049 A 
ATOM     52  H   UNL     1      -3.380   5.735  11.918  1.00  0.00     0.167 HD
ATOM     53  C   UNL     1      -5.994   5.925  13.000  1.00  0.00     0.074 A 
ATOM     54  C   UNL     1      -7.343   5.570  13.394  1.00  0.00     0.031 C 
ATOM     55  C   UNL     1      -5.411   7.122  13.261  1.00  0.00     0.031 A 
BRANCH  42  56
ATOM     56  C   UNL     1       0.367   7.644  11.108  1.00  0.00    -0.014 A 
ATOM     57  C   UNL     1       0.788   8.132   9.858  1.00  0.00     0.010 A 
ATOM     58  C   UNL     1       1.091   8.011  12.259  1.00  0.00     0.010 A 
ATOM     59  C   UNL     1       1.931   8.934   9.758  1.00  0.00     0.020 A 
ATOM     60  C   UNL     1       2.215   8.838  12.168  1.00  0.00     0.020 A 
ATOM     61  C   UNL     1       2.639   9.280  10.914  1.00  0.00     0.054 A 
BRANCH  61  62
ATOM     62  S   UNL     1       4.106  10.338  10.758  1.00  0.00     0.124 S 
ATOM     63  O   UNL     1       5.068   9.430  10.138  1.00  0.00    -0.237 OA
ATOM     64  O   UNL     1       3.629  11.424   9.905  1.00  0.00    -0.237 OA
ATOM     65  O   UNL     1       4.409  10.719  12.135  1.00  0.00    -0.744 OA
ENDBRANCH  61  62
ENDBRANCH  42  56
BRANCH  43  66
ATOM     66  C   UNL     1      -7.549   1.599  11.984  1.00  0.00    -0.014 A 
ATOM     67  C   UNL     1      -8.750   1.854  11.300  1.00  0.00     0.010 A 
ATOM     68  C   UNL     1      -7.461   0.456  12.803  1.00  0.00     0.010 A 
ATOM     69  C   UNL     1      -9.842   0.991  11.441  1.00  0.00     0.020 A 
ATOM     70  C   UNL     1      -8.535  -0.429  12.915  1.00  0.00     0.020 A 
ATOM     71  C   UNL     1      -9.725  -0.148  12.243  1.00  0.00     0.054 A 
BRANCH  71  72
ATOM     72  S   UNL     1     -11.133  -1.286  12.366  1.00  0.00     0.124 S 
ATOM     73  O   UNL     1     -12.057  -0.535  13.210  1.00  0.00    -0.237 OA
ATOM     74  O   UNL     1     -11.535  -1.443  10.970  1.00  0.00    -0.237 OA
ATOM     75  O   UNL     1     -10.556  -2.481  12.977  1.00  0.00    -0.744 OA
ENDBRANCH  71  72
ENDBRANCH  43  66
BRANCH  55  76
ATOM     76  C   UNL     1      -6.249   8.139  13.991  1.00  0.00    -0.014 A 
ATOM     77  C   UNL     1      -6.599   7.961  15.342  1.00  0.00     0.010 A 
ATOM     78  C   UNL     1      -6.699   9.286  13.313  1.00  0.00     0.010 A 
ATOM     79  C   UNL     1      -7.433   8.880  15.983  1.00  0.00     0.020 A 
ATOM     80  C   UNL     1      -7.505  10.225  13.960  1.00  0.00     0.020 A 
ATOM     81  C   UNL     1      -7.887  10.003  15.285  1.00  0.00     0.054 A 
BRANCH  81  82
ATOM     82  S   UNL     1      -8.972  11.181  16.136  1.00  0.00     0.124 S 
ATOM     83  O   UNL     1     -10.232  10.446  16.193  1.00  0.00    -0.237 OA
ATOM     84  O   UNL     1      -8.297  11.371  17.418  1.00  0.00    -0.237 OA
ATOM     85  O   UNL     1      -8.972  12.350  15.259  1.00  0.00    -0.744 OA
ENDBRANCH  81  82
ENDBRANCH  55  76
ENDBRANCH  29  30
ENDBRANCH  22  24
ENDBRANCH  21  22
ENDBRANCH   1  21
TORSDOF 16
