REMARK SMILES O=C(OCCOC(=O)[C@@H]1CCCN1S(=O)(=O)c1ccc2c3c(cccc13)C(=O)N2)c1ccc(-c2c3nc(c(-c4ccc(S(=O)(=O)[O-])cc4)c4ccc([nH]4)c(-c4ccc(S(=O)(=O)[O-])cc4)c4nc(c(-c5ccc(S(=O)(=O)[O-])cc5)c5ccc2[nH]5)C=C4)C=C3)cc1
REMARK SMILES IDX 4 1 3 2 2 3 1 4 30 5 31 6 89 7 32 8 88 9 33 10 34 11 35 12
REMARK SMILES IDX 82 13 36 14 87 15 81 16 83 17 37 18 86 19 80 20 79 21 38 23
REMARK SMILES IDX 68 24 49 25 67 26 50 27 53 28 66 29 84 30 51 31 52 32 65 34
REMARK SMILES IDX 85 35 54 36 39 37 40 38 48 39 41 40 47 41 42 42 43 43 44 44
REMARK SMILES IDX 45 45 46 46 69 47 70 48 78 49 71 50 77 51 72 52 73 53 74 54
REMARK SMILES IDX 75 55 76 56 55 57 56 58 64 59 57 60 63 61 58 62 59 63 60 64
REMARK SMILES IDX 61 65 62 66 5 67 6 68 7 69 8 70 9 71 10 72 13 73 11 74 12 75
REMARK SMILES IDX 14 76 15 77 16 78 17 79 18 80 26 81 19 82 21 83 25 84 20 85
REMARK SMILES IDX 22 86 24 87 29 88 23 89 27 90 28 92
REMARK H PARENT 83 22 53 33 29 91
REMARK Flexibility Score: inf
ROOT
ATOM      1  C   UNL     1       4.869  -1.582  -0.034  1.00  0.00     0.275 C 
ENDROOT
BRANCH   1   2
ATOM      2  O   UNL     1       5.370  -0.519   0.786  1.00  0.00    -0.458 OA
BRANCH   2   3
ATOM      3  C   UNL     1       4.445   0.408   1.150  1.00  0.00     0.338 C 
ATOM      4  O   UNL     1       3.452   0.185   1.809  1.00  0.00    -0.246 OA
BRANCH   3   5
ATOM      5  C   UNL     1       4.771   1.662   0.422  1.00  0.00     0.060 A 
ATOM      6  C   UNL     1       5.819   1.632  -0.516  1.00  0.00     0.016 A 
ATOM      7  C   UNL     1       3.936   2.779   0.510  1.00  0.00     0.016 A 
ATOM      8  C   UNL     1       5.957   2.628  -1.453  1.00  0.00     0.010 A 
ATOM      9  C   UNL     1       4.122   3.836  -0.389  1.00  0.00     0.010 A 
ATOM     10  C   UNL     1       5.128   3.744  -1.372  1.00  0.00    -0.014 A 
BRANCH  10  11
ATOM     11  C   UNL     1       5.667   4.947  -2.015  1.00  0.00     0.031 A 
ATOM     12  C   UNL     1       6.582   5.737  -1.128  1.00  0.00     0.074 A 
ATOM     13  C   UNL     1       5.506   5.187  -3.328  1.00  0.00     0.049 A 
ATOM     14  N   UNL     1       7.293   6.788  -1.405  1.00  0.00    -0.248 NA
ATOM     15  C   UNL     1       6.745   5.251   0.262  1.00  0.00     0.031 C 
ATOM     16  C   UNL     1       4.742   4.362  -4.265  1.00  0.00     0.029 A 
ATOM     17  N   UNL     1       6.002   6.187  -4.116  1.00  0.00    -0.354 N 
ATOM     18  C   UNL     1       7.987   7.067  -0.235  1.00  0.00     0.074 A 
ATOM     19  C   UNL     1       7.571   6.137   0.777  1.00  0.00     0.031 C 
ATOM     20  C   UNL     1       4.780   4.912  -5.490  1.00  0.00     0.029 A 
ATOM     21  C   UNL     1       5.596   6.114  -5.429  1.00  0.00     0.049 A 
ATOM     22  H   UNL     1       6.596   6.895  -3.776  1.00  0.00     0.167 HD
ATOM     23  C   UNL     1       8.944   7.994  -0.043  1.00  0.00     0.031 A 
ATOM     24  C   UNL     1       5.879   6.929  -6.462  1.00  0.00     0.031 A 
ATOM     25  C   UNL     1       9.347   8.885  -1.081  1.00  0.00     0.049 A 
ATOM     26  C   UNL     1       6.849   8.044  -6.189  1.00  0.00     0.074 A 
ATOM     27  C   UNL     1      10.264   9.910  -1.031  1.00  0.00     0.029 A 
ATOM     28  N   UNL     1       8.841   8.834  -2.374  1.00  0.00    -0.354 N 
ATOM     29  N   UNL     1       7.480   8.318  -5.068  1.00  0.00    -0.248 NA
ATOM     30  C   UNL     1       7.169   8.941  -7.303  1.00  0.00     0.031 C 
ATOM     31  C   UNL     1      10.288  10.505  -2.296  1.00  0.00     0.029 A 
ATOM     32  C   UNL     1       9.417   9.822  -3.139  1.00  0.00     0.049 A 
ATOM     33  H   UNL     1       8.172   8.188  -2.695  1.00  0.00     0.167 HD
ATOM     34  C   UNL     1       8.291   9.406  -5.344  1.00  0.00     0.074 A 
ATOM     35  C   UNL     1       8.072   9.736  -6.743  1.00  0.00     0.031 C 
ATOM     36  C   UNL     1       9.142  10.077  -4.530  1.00  0.00     0.031 A 
BRANCH  23  37
ATOM     37  C   UNL     1       9.558   8.049   1.321  1.00  0.00    -0.014 A 
ATOM     38  C   UNL     1      10.463   7.054   1.739  1.00  0.00     0.010 A 
ATOM     39  C   UNL     1       9.152   9.039   2.230  1.00  0.00     0.010 A 
ATOM     40  C   UNL     1      10.932   7.035   3.053  1.00  0.00     0.020 A 
ATOM     41  C   UNL     1       9.638   9.036   3.540  1.00  0.00     0.020 A 
ATOM     42  C   UNL     1      10.520   8.030   3.944  1.00  0.00     0.054 A 
BRANCH  42  43
ATOM     43  S   UNL     1      11.158   7.983   5.641  1.00  0.00     0.124 S 
ATOM     44  O   UNL     1      10.651   6.700   6.123  1.00  0.00    -0.237 OA
ATOM     45  O   UNL     1      12.601   8.050   5.432  1.00  0.00    -0.237 OA
ATOM     46  O   UNL     1      10.563   9.160   6.269  1.00  0.00    -0.744 OA
ENDBRANCH  42  43
ENDBRANCH  23  37
BRANCH  24  47
ATOM     47  C   UNL     1       5.270   6.701  -7.802  1.00  0.00    -0.014 A 
ATOM     48  C   UNL     1       6.030   6.191  -8.868  1.00  0.00     0.010 A 
ATOM     49  C   UNL     1       3.900   6.957  -8.010  1.00  0.00     0.010 A 
ATOM     50  C   UNL     1       5.437   5.945 -10.114  1.00  0.00     0.020 A 
ATOM     51  C   UNL     1       3.300   6.700  -9.250  1.00  0.00     0.020 A 
ATOM     52  C   UNL     1       4.074   6.194 -10.295  1.00  0.00     0.054 A 
BRANCH  52  53
ATOM     53  S   UNL     1       3.327   5.833 -11.911  1.00  0.00     0.124 S 
ATOM     54  O   UNL     1       4.119   6.664 -12.812  1.00  0.00    -0.237 OA
ATOM     55  O   UNL     1       3.538   4.392 -12.029  1.00  0.00    -0.237 OA
ATOM     56  O   UNL     1       1.934   6.243 -11.747  1.00  0.00    -0.744 OA
ENDBRANCH  52  53
ENDBRANCH  24  47
BRANCH  36  57
ATOM     57  C   UNL     1       9.891  11.222  -5.130  1.00  0.00    -0.014 A 
ATOM     58  C   UNL     1       9.264  12.468  -5.278  1.00  0.00     0.010 A 
ATOM     59  C   UNL     1      11.268  11.086  -5.379  1.00  0.00     0.010 A 
ATOM     60  C   UNL     1      10.014  13.576  -5.659  1.00  0.00     0.020 A 
ATOM     61  C   UNL     1      12.024  12.199  -5.736  1.00  0.00     0.020 A 
ATOM     62  C   UNL     1      11.391  13.437  -5.869  1.00  0.00     0.054 A 
BRANCH  62  63
ATOM     63  S   UNL     1      12.349  14.919  -6.266  1.00  0.00     0.124 S 
ATOM     64  O   UNL     1      11.769  15.323  -7.544  1.00  0.00    -0.237 OA
ATOM     65  O   UNL     1      12.054  15.794  -5.135  1.00  0.00    -0.237 OA
ATOM     66  O   UNL     1      13.726  14.435  -6.334  1.00  0.00    -0.744 OA
ENDBRANCH  62  63
ENDBRANCH  36  57
ENDBRANCH  10  11
ENDBRANCH   3   5
ENDBRANCH   2   3
ENDBRANCH   1   2
BRANCH   1  67
ATOM     67  C   UNL     1       4.572  -1.187  -1.510  1.00  0.00     0.274 C 
BRANCH  67  68
ATOM     68  O   UNL     1       3.564  -0.149  -1.668  1.00  0.00    -0.461 OA
BRANCH  68  69
ATOM     69  C   UNL     1       2.479  -0.384  -2.473  1.00  0.00     0.324 C 
ATOM     70  O   UNL     1       2.291  -1.455  -3.043  1.00  0.00    -0.250 OA
BRANCH  69  71
ATOM     71  C   UNL     1       1.518   0.789  -2.576  1.00  0.00     0.183 C 
ATOM     72  C   UNL     1       2.250   2.106  -2.469  1.00  0.00     0.034 C 
ATOM     73  N   UNL     1       0.221   1.058  -1.855  1.00  0.00    -0.184 NA
ATOM     74  C   UNL     1       1.197   3.140  -2.761  1.00  0.00     0.019 C 
ATOM     75  C   UNL     1      -0.045   2.557  -2.097  1.00  0.00     0.103 C 
BRANCH  73  76
ATOM     76  S   UNL     1      -0.069   0.721  -0.187  1.00  0.00     0.244 S 
ATOM     77  O   UNL     1       0.971   1.391   0.560  1.00  0.00    -0.207 OA
ATOM     78  O   UNL     1      -1.455   1.097   0.018  1.00  0.00    -0.207 OA
BRANCH  76  79
ATOM     79  C   UNL     1       0.068  -1.021   0.130  1.00  0.00     0.090 A 
ATOM     80  C   UNL     1       1.326  -1.593  -0.097  1.00  0.00     0.024 A 
ATOM     81  C   UNL     1      -0.929  -1.817   0.758  1.00  0.00     0.005 A 
ATOM     82  C   UNL     1       1.594  -2.967  -0.040  1.00  0.00     0.028 A 
ATOM     83  C   UNL     1      -0.603  -3.143   0.888  1.00  0.00     0.019 A 
ATOM     84  C   UNL     1      -2.165  -1.476   1.362  1.00  0.00     0.010 A 
ATOM     85  C   UNL     1       0.576  -3.718   0.479  1.00  0.00     0.050 A 
ATOM     86  C   UNL     1      -1.337  -4.125   1.535  1.00  0.00     0.050 A 
ATOM     87  C   UNL     1      -2.935  -2.443   2.047  1.00  0.00     0.002 A 
ATOM     88  N   UNL     1       0.549  -5.054   0.812  1.00  0.00    -0.321 N 
ATOM     89  C   UNL     1      -2.538  -3.787   2.145  1.00  0.00     0.014 A 
ATOM     90  C   UNL     1      -0.624  -5.389   1.492  1.00  0.00     0.256 C 
ATOM     91  H   UNL     1       1.267  -5.693   0.599  1.00  0.00     0.170 HD
ATOM     92  O   UNL     1      -0.878  -6.505   1.926  1.00  0.00    -0.269 OA
ENDBRANCH  76  79
ENDBRANCH  73  76
ENDBRANCH  69  71
ENDBRANCH  68  69
ENDBRANCH  67  68
ENDBRANCH   1  67
TORSDOF 16
