REMARK SMILES Cc1cc(OCC(=O)Nc2sccc2C(=O)OCCOC(=O)c2ccc(-c3c4nc(c(-c5ccc(S(=O)(=O)[O-])cc5)c5ccc([nH]5)c(-c5ccc(S(=O)(=O)[O-])cc5)c5nc(c(-c6ccc(S(=O)(=O)[O-])cc6)c6ccc3[nH]6)C=C5)C=C4)cc2)ccc1Cl
REMARK SMILES IDX 18 1 17 2 15 3 16 4 14 5 10 6 11 7 12 8 13 9 9 10 7 11 8 12
REMARK SMILES IDX 6 14 5 15 4 16 1 17 2 18 3 19 85 20 84 21 86 22 83 23 19 24
REMARK SMILES IDX 20 25 21 26 22 27 23 28 24 29 82 30 25 31 81 32 26 33 27 34
REMARK SMILES IDX 28 35 75 36 29 37 80 38 74 39 76 40 30 41 79 42 73 43 72 44
REMARK SMILES IDX 31 46 61 47 42 48 60 49 43 50 46 51 59 52 77 53 44 54 45 55
REMARK SMILES IDX 58 57 78 58 47 59 32 60 33 61 41 62 34 63 40 64 35 65 36 66
REMARK SMILES IDX 37 67 38 68 39 69 62 70 63 71 71 72 64 73 70 74 65 75 66 76
REMARK SMILES IDX 67 77 68 78 69 79 48 80 49 81 57 82 50 83 56 84 51 85 52 86
REMARK SMILES IDX 53 87 54 88 55 89
REMARK H PARENT 9 13 76 45 46 56
REMARK Flexibility Score: inf
ROOT
ATOM      1  C   UNL     1      -1.440  -0.525   1.387  1.00  0.00     0.275 C 
ENDROOT
BRANCH   1   2
ATOM      2  O   UNL     1      -2.718  -0.180   1.954  1.00  0.00    -0.458 OA
BRANCH   2   3
ATOM      3  C   UNL     1      -3.833  -0.772   1.426  1.00  0.00     0.341 C 
ATOM      4  O   UNL     1      -3.823  -1.677   0.601  1.00  0.00    -0.246 OA
BRANCH   3   5
ATOM      5  C   UNL     1      -5.061  -0.259   2.024  1.00  0.00     0.094 A 
ATOM      6  C   UNL     1      -5.290   1.050   2.394  1.00  0.00     0.110 A 
ATOM      7  S   UNL     1      -6.607   1.218   3.462  1.00  0.00    -0.126 S 
ATOM      8  C   UNL     1      -7.087  -0.400   3.205  1.00  0.00     0.068 A 
ATOM      9  C   UNL     1      -6.196  -1.067   2.393  1.00  0.00     0.029 A 
BRANCH   6  10
ATOM     10  N   UNL     1      -4.649   2.236   2.160  1.00  0.00    -0.314 N 
ATOM     11  C   UNL     1      -4.060   2.673   1.008  1.00  0.00     0.262 C 
ATOM     12  O   UNL     1      -3.353   3.686   1.081  1.00  0.00    -0.271 OA
ATOM     13  H   UNL     1      -4.608   2.857   2.923  1.00  0.00     0.170 HD
BRANCH  11  14
ATOM     14  C   UNL     1      -4.444   2.080  -0.375  1.00  0.00     0.329 C 
BRANCH  14  15
ATOM     15  O   UNL     1      -3.830   0.969  -0.984  1.00  0.00    -0.484 OA
BRANCH  15  16
ATOM     16  C   UNL     1      -2.522   1.009  -1.364  1.00  0.00     0.120 A 
ATOM     17  C   UNL     1       0.752   2.769  -0.620  1.00  0.00     0.046 C 
ATOM     18  C   UNL     1      -0.213   1.777  -1.209  1.00  0.00    -0.029 A 
ATOM     19  C   UNL     1      -1.594   1.988  -1.019  1.00  0.00     0.051 A 
ATOM     20  C   UNL     1       0.215   0.589  -1.819  1.00  0.00     0.044 A 
ATOM     21  C   UNL     1      -0.718  -0.346  -2.267  1.00  0.00     0.024 A 
ATOM     22  Cl  UNL     1       1.891   0.200  -1.970  1.00  0.00    -0.084 Cl
ATOM     23  C   UNL     1      -2.080  -0.134  -2.039  1.00  0.00     0.048 A 
ENDBRANCH  15  16
ENDBRANCH  14  15
ENDBRANCH  11  14
ENDBRANCH   6  10
ENDBRANCH   3   5
ENDBRANCH   2   3
ENDBRANCH   1   2
BRANCH   1  24
ATOM     24  C   UNL     1      -0.614  -1.510   2.209  1.00  0.00     0.275 C 
BRANCH  24  25
ATOM     25  O   UNL     1      -1.061  -2.850   1.955  1.00  0.00    -0.458 OA
BRANCH  25  26
ATOM     26  C   UNL     1      -2.090  -3.227   2.744  1.00  0.00     0.338 C 
ATOM     27  O   UNL     1      -2.504  -2.629   3.725  1.00  0.00    -0.246 OA
BRANCH  26  28
ATOM     28  C   UNL     1      -2.797  -4.376   2.154  1.00  0.00     0.060 A 
ATOM     29  C   UNL     1      -4.187  -4.364   2.292  1.00  0.00     0.016 A 
ATOM     30  C   UNL     1      -2.151  -5.456   1.546  1.00  0.00     0.016 A 
ATOM     31  C   UNL     1      -4.942  -5.450   1.889  1.00  0.00     0.010 A 
ATOM     32  C   UNL     1      -2.908  -6.568   1.162  1.00  0.00     0.010 A 
ATOM     33  C   UNL     1      -4.297  -6.582   1.385  1.00  0.00    -0.014 A 
BRANCH  33  34
ATOM     34  C   UNL     1      -5.065  -7.844   1.385  1.00  0.00     0.031 A 
ATOM     35  C   UNL     1      -4.914  -8.751   2.575  1.00  0.00     0.074 A 
ATOM     36  C   UNL     1      -5.985  -8.089   0.437  1.00  0.00     0.049 A 
ATOM     37  N   UNL     1      -5.489  -9.897   2.823  1.00  0.00    -0.248 NA
ATOM     38  C   UNL     1      -4.000  -8.295   3.639  1.00  0.00     0.031 C 
ATOM     39  C   UNL     1      -6.291  -7.210  -0.692  1.00  0.00     0.029 A 
ATOM     40  N   UNL     1      -6.855  -9.138   0.296  1.00  0.00    -0.354 N 
ATOM     41  C   UNL     1      -4.986 -10.310   4.052  1.00  0.00     0.074 A 
ATOM     42  C   UNL     1      -4.056  -9.299   4.498  1.00  0.00     0.031 C 
ATOM     43  C   UNL     1      -7.295  -7.751  -1.403  1.00  0.00     0.029 A 
ATOM     44  C   UNL     1      -7.670  -9.030  -0.805  1.00  0.00     0.049 A 
ATOM     45  H   UNL     1      -6.892  -9.896   0.923  1.00  0.00     0.167 HD
ATOM     46  C   UNL     1      -5.272 -11.435   4.745  1.00  0.00     0.031 A 
ATOM     47  C   UNL     1      -8.597  -9.883  -1.280  1.00  0.00     0.031 A 
ATOM     48  C   UNL     1      -6.203 -12.429   4.290  1.00  0.00     0.049 A 
ATOM     49  C   UNL     1      -8.847 -11.166  -0.534  1.00  0.00     0.074 A 
ATOM     50  C   UNL     1      -6.543 -13.632   4.882  1.00  0.00     0.029 A 
ATOM     51  N   UNL     1      -6.949 -12.326   3.125  1.00  0.00    -0.354 N 
ATOM     52  N   UNL     1      -8.313 -11.579   0.593  1.00  0.00    -0.248 NA
ATOM     53  C   UNL     1      -9.813 -12.100  -1.125  1.00  0.00     0.031 C 
ATOM     54  C   UNL     1      -7.470 -14.273   4.052  1.00  0.00     0.029 A 
ATOM     55  C   UNL     1      -7.740 -13.449   2.970  1.00  0.00     0.049 A 
ATOM     56  H   UNL     1      -6.921 -11.565   2.502  1.00  0.00     0.167 HD
ATOM     57  C   UNL     1      -8.881 -12.822   0.848  1.00  0.00     0.074 A 
ATOM     58  C   UNL     1      -9.815 -13.081  -0.231  1.00  0.00     0.031 C 
ATOM     59  C   UNL     1      -8.650 -13.676   1.876  1.00  0.00     0.031 A 
BRANCH  46  60
ATOM     60  C   UNL     1      -4.512 -11.664   6.022  1.00  0.00    -0.014 A 
ATOM     61  C   UNL     1      -4.792 -10.928   7.188  1.00  0.00     0.010 A 
ATOM     62  C   UNL     1      -3.476 -12.616   6.045  1.00  0.00     0.010 A 
ATOM     63  C   UNL     1      -4.017 -11.106   8.339  1.00  0.00     0.020 A 
ATOM     64  C   UNL     1      -2.715 -12.813   7.200  1.00  0.00     0.020 A 
ATOM     65  C   UNL     1      -2.976 -12.041   8.333  1.00  0.00     0.054 A 
BRANCH  65  66
ATOM     66  S   UNL     1      -1.976 -12.249   9.832  1.00  0.00     0.124 S 
ATOM     67  O   UNL     1      -1.112 -11.072   9.783  1.00  0.00    -0.237 OA
ATOM     68  O   UNL     1      -2.979 -12.247  10.894  1.00  0.00    -0.237 OA
ATOM     69  O   UNL     1      -1.300 -13.527   9.622  1.00  0.00    -0.744 OA
ENDBRANCH  65  66
ENDBRANCH  46  60
BRANCH  47  70
ATOM     70  C   UNL     1      -9.317  -9.565  -2.543  1.00  0.00    -0.014 A 
ATOM     71  C   UNL     1     -10.681  -9.228  -2.535  1.00  0.00     0.010 A 
ATOM     72  C   UNL     1      -8.621  -9.564  -3.767  1.00  0.00     0.010 A 
ATOM     73  C   UNL     1     -11.335  -8.893  -3.726  1.00  0.00     0.020 A 
ATOM     74  C   UNL     1      -9.264  -9.208  -4.955  1.00  0.00     0.020 A 
ATOM     75  C   UNL     1     -10.620  -8.880  -4.928  1.00  0.00     0.054 A 
BRANCH  75  76
ATOM     76  S   UNL     1     -11.463  -8.362  -6.450  1.00  0.00     0.124 S 
ATOM     77  O   UNL     1     -12.235  -9.553  -6.790  1.00  0.00    -0.237 OA
ATOM     78  O   UNL     1     -12.241  -7.208  -6.007  1.00  0.00    -0.237 OA
ATOM     79  O   UNL     1     -10.362  -8.048  -7.358  1.00  0.00    -0.744 OA
ENDBRANCH  75  76
ENDBRANCH  47  70
BRANCH  59  80
ATOM     80  C   UNL     1      -9.428 -14.961   1.884  1.00  0.00    -0.014 A 
ATOM     81  C   UNL     1      -9.078 -16.019   1.028  1.00  0.00     0.010 A 
ATOM     82  C   UNL     1     -10.482 -15.130   2.799  1.00  0.00     0.010 A 
ATOM     83  C   UNL     1      -9.788 -17.220   1.070  1.00  0.00     0.020 A 
ATOM     84  C   UNL     1     -11.180 -16.337   2.858  1.00  0.00     0.020 A 
ATOM     85  C   UNL     1     -10.837 -17.370   1.983  1.00  0.00     0.054 A 
BRANCH  85  86
ATOM     86  S   UNL     1     -11.719 -18.953   2.050  1.00  0.00     0.124 S 
ATOM     87  O   UNL     1     -12.595 -18.861   0.885  1.00  0.00    -0.237 OA
ATOM     88  O   UNL     1     -10.638 -19.931   1.949  1.00  0.00    -0.237 OA
ATOM     89  O   UNL     1     -12.396 -18.915   3.344  1.00  0.00    -0.744 OA
ENDBRANCH  85  86
ENDBRANCH  59  80
ENDBRANCH  33  34
ENDBRANCH  26  28
ENDBRANCH  25  26
ENDBRANCH  24  25
ENDBRANCH   1  24
TORSDOF 18
