REMARK SMILES Cc1ccc(-c2cc3cccnc3n2CCC(=O)OCCOC(=O)c2ccc(-c3c4nc(c(-c5ccc(S(=O)(=O)[O-])cc5)c5ccc([nH]5)c(-c5ccc(S(=O)(=O)[O-])cc5)c5nc(c(-c6ccc(S(=O)(=O)[O-])cc6)c6ccc3[nH]6)C=C5)C=C4)cc2)cn1
REMARK SMILES IDX 20 1 19 2 17 3 18 4 16 5 15 6 14 7 6 8 7 9 8 10 13 11 9 12
REMARK SMILES IDX 12 13 10 14 11 15 5 16 1 17 2 18 3 19 86 20 4 21 85 22 21 23
REMARK SMILES IDX 22 24 23 25 24 26 25 27 26 28 84 29 27 30 83 31 28 32 29 33
REMARK SMILES IDX 30 34 77 35 31 36 82 37 76 38 78 39 32 40 81 41 75 42 74 43
REMARK SMILES IDX 33 45 63 46 44 47 62 48 45 49 48 50 61 51 79 52 46 53 47 54
REMARK SMILES IDX 60 56 80 57 49 58 34 59 35 60 43 61 36 62 42 63 37 64 38 65
REMARK SMILES IDX 39 66 40 67 41 68 64 69 65 70 73 71 66 72 72 73 67 74 68 75
REMARK SMILES IDX 69 76 70 77 71 78 50 79 51 80 59 81 52 82 58 83 53 84 54 85
REMARK SMILES IDX 55 86 56 87 57 88
REMARK H PARENT 78 44 48 55
REMARK Flexibility Score: inf
ROOT
ATOM      1  C   UNL     1      -1.438  -1.778  -1.726  1.00  0.00     0.274 C 
ENDROOT
BRANCH   1   2
ATOM      2  O   UNL     1      -2.801  -1.941  -1.238  1.00  0.00    -0.462 OA
BRANCH   2   3
ATOM      3  C   UNL     1      -3.097  -3.099  -0.587  1.00  0.00     0.307 C 
ATOM      4  O   UNL     1      -2.486  -4.149  -0.767  1.00  0.00    -0.252 OA
BRANCH   3   5
ATOM      5  C   UNL     1      -4.220  -2.992   0.445  1.00  0.00     0.144 C 
BRANCH   5   6
ATOM      6  C   UNL     1      -4.261  -1.794   1.401  1.00  0.00     0.136 C 
BRANCH   6   7
ATOM      7  N   UNL     1      -4.480  -0.538   0.721  1.00  0.00    -0.325 N 
ATOM      8  C   UNL     1      -3.515   0.284   0.186  1.00  0.00     0.052 A 
ATOM      9  C   UNL     1      -4.187   1.217  -0.593  1.00  0.00     0.039 A 
ATOM     10  C   UNL     1      -5.572   0.977  -0.500  1.00  0.00     0.020 A 
ATOM     11  C   UNL     1      -5.733  -0.081   0.383  1.00  0.00     0.140 A 
ATOM     12  C   UNL     1      -6.715   1.525  -1.094  1.00  0.00     0.013 A 
ATOM     13  N   UNL     1      -6.902  -0.623   0.783  1.00  0.00    -0.238 NA
ATOM     14  C   UNL     1      -7.947   1.012  -0.699  1.00  0.00     0.021 A 
ATOM     15  C   UNL     1      -7.979  -0.014   0.238  1.00  0.00     0.113 A 
BRANCH   8  16
ATOM     16  C   UNL     1      -2.066   0.101   0.226  1.00  0.00     0.017 A 
ATOM     17  C   UNL     1       2.976  -0.124  -0.306  1.00  0.00     0.066 C 
ATOM     18  C   UNL     1       1.488  -0.116  -0.173  1.00  0.00     0.037 A 
ATOM     19  C   UNL     1       0.617  -1.540   0.457  1.00  0.00     0.024 A 
ATOM     20  N   UNL     1       0.652   1.362  -0.611  1.00  0.00    -0.261 NA
ATOM     21  C   UNL     1      -1.167  -1.422   0.713  1.00  0.00     0.014 A 
ATOM     22  C   UNL     1      -1.090   1.489  -0.393  1.00  0.00     0.121 A 
ENDBRANCH   8  16
ENDBRANCH   6   7
ENDBRANCH   5   6
ENDBRANCH   3   5
ENDBRANCH   2   3
ENDBRANCH   1   2
BRANCH   1  23
ATOM     23  C   UNL     1      -0.516  -0.457  -1.214  1.00  0.00     0.275 C 
BRANCH  23  24
ATOM     24  O   UNL     1      -0.189   0.191   0.676  1.00  0.00    -0.458 OA
BRANCH  24  25
ATOM     25  C   UNL     1      -0.423   0.844   1.892  1.00  0.00     0.338 C 
ATOM     26  O   UNL     1      -1.326   1.622   2.199  1.00  0.00    -0.246 OA
BRANCH  25  27
ATOM     27  C   UNL     1       0.418   0.327   2.951  1.00  0.00     0.060 A 
ATOM     28  C   UNL     1      -0.240  -0.233   4.057  1.00  0.00     0.016 A 
ATOM     29  C   UNL     1       1.701   0.856   2.992  1.00  0.00     0.016 A 
ATOM     30  C   UNL     1       0.321  -0.038   5.294  1.00  0.00     0.010 A 
ATOM     31  C   UNL     1       2.270   1.022   4.221  1.00  0.00     0.010 A 
ATOM     32  C   UNL     1       1.508   0.692   5.347  1.00  0.00    -0.014 A 
BRANCH  32  33
ATOM     33  C   UNL     1       1.886   1.285   6.609  1.00  0.00     0.031 A 
ATOM     34  C   UNL     1       2.641   0.395   7.503  1.00  0.00     0.074 A 
ATOM     35  C   UNL     1       1.715   2.609   6.796  1.00  0.00     0.049 A 
ATOM     36  N   UNL     1       2.356   0.043   8.710  1.00  0.00    -0.248 NA
ATOM     37  C   UNL     1       3.809  -0.290   6.922  1.00  0.00     0.031 C 
ATOM     38  C   UNL     1       1.259   3.597   5.808  1.00  0.00     0.029 A 
ATOM     39  N   UNL     1       2.086   3.377   7.851  1.00  0.00    -0.354 N 
ATOM     40  C   UNL     1       3.414  -0.760   9.110  1.00  0.00     0.074 A 
ATOM     41  C   UNL     1       4.173  -1.081   7.927  1.00  0.00     0.031 C 
ATOM     42  C   UNL     1       1.635   4.828   6.214  1.00  0.00     0.029 A 
ATOM     43  C   UNL     1       2.245   4.721   7.529  1.00  0.00     0.049 A 
ATOM     44  H   UNL     1       2.229   3.019   8.757  1.00  0.00     0.167 HD
ATOM     45  C   UNL     1       3.772  -0.900  10.412  1.00  0.00     0.031 A 
ATOM     46  C   UNL     1       2.939   5.636   8.249  1.00  0.00     0.031 A 
ATOM     47  C   UNL     1       2.765  -0.443  11.323  1.00  0.00     0.049 A 
ATOM     48  C   UNL     1       3.113   5.074   9.615  1.00  0.00     0.074 A 
ATOM     49  C   UNL     1       1.461  -0.811  11.583  1.00  0.00     0.029 A 
ATOM     50  N   UNL     1       2.932   0.810  11.865  1.00  0.00    -0.354 N 
ATOM     51  N   UNL     1       2.132   4.865  10.448  1.00  0.00    -0.248 NA
ATOM     52  C   UNL     1       4.346   4.363   9.924  1.00  0.00     0.031 C 
ATOM     53  C   UNL     1       0.785   0.401  11.902  1.00  0.00     0.029 A 
ATOM     54  C   UNL     1       1.714   1.443  11.842  1.00  0.00     0.049 A 
ATOM     55  H   UNL     1       3.775   1.186  12.207  1.00  0.00     0.167 HD
ATOM     56  C   UNL     1       2.481   3.710  11.135  1.00  0.00     0.074 A 
ATOM     57  C   UNL     1       3.901   3.522  10.863  1.00  0.00     0.031 C 
ATOM     58  C   UNL     1       1.527   2.865  11.623  1.00  0.00     0.031 A 
BRANCH  45  59
ATOM     59  C   UNL     1       5.204  -1.101  10.802  1.00  0.00    -0.014 A 
ATOM     60  C   UNL     1       5.526  -1.621  12.063  1.00  0.00     0.010 A 
ATOM     61  C   UNL     1       6.257  -0.569  10.021  1.00  0.00     0.010 A 
ATOM     62  C   UNL     1       6.850  -1.608  12.521  1.00  0.00     0.020 A 
ATOM     63  C   UNL     1       7.581  -0.598  10.445  1.00  0.00     0.020 A 
ATOM     64  C   UNL     1       7.867  -1.096  11.707  1.00  0.00     0.054 A 
BRANCH  64  65
ATOM     65  S   UNL     1       9.556  -1.004  12.347  1.00  0.00     0.124 S 
ATOM     66  O   UNL     1       9.399  -0.100  13.482  1.00  0.00    -0.237 OA
ATOM     67  O   UNL     1       9.836  -2.398  12.678  1.00  0.00    -0.237 OA
ATOM     68  O   UNL     1      10.321  -0.469  11.223  1.00  0.00    -0.744 OA
ENDBRANCH  64  65
ENDBRANCH  45  59
BRANCH  46  69
ATOM     69  C   UNL     1       3.728   6.791   7.745  1.00  0.00    -0.014 A 
ATOM     70  C   UNL     1       4.290   7.713   8.648  1.00  0.00     0.010 A 
ATOM     71  C   UNL     1       4.154   6.858   6.401  1.00  0.00     0.010 A 
ATOM     72  C   UNL     1       5.295   8.607   8.241  1.00  0.00     0.020 A 
ATOM     73  C   UNL     1       5.140   7.759   5.983  1.00  0.00     0.020 A 
ATOM     74  C   UNL     1       5.734   8.603   6.915  1.00  0.00     0.054 A 
BRANCH  74  75
ATOM     75  S   UNL     1       7.154   9.631   6.446  1.00  0.00     0.124 S 
ATOM     76  O   UNL     1       6.702  10.975   6.794  1.00  0.00    -0.237 OA
ATOM     77  O   UNL     1       8.219   9.085   7.284  1.00  0.00    -0.237 OA
ATOM     78  O   UNL     1       7.306   9.380   5.014  1.00  0.00    -0.744 OA
ENDBRANCH  74  75
ENDBRANCH  46  69
BRANCH  58  79
ATOM     79  C   UNL     1       0.100   3.360  11.674  1.00  0.00    -0.014 A 
ATOM     80  C   UNL     1      -0.660   3.627  10.518  1.00  0.00     0.010 A 
ATOM     81  C   UNL     1      -0.546   3.381  12.922  1.00  0.00     0.010 A 
ATOM     82  C   UNL     1      -2.031   3.907  10.610  1.00  0.00     0.020 A 
ATOM     83  C   UNL     1      -1.915   3.645  13.019  1.00  0.00     0.020 A 
ATOM     84  C   UNL     1      -2.653   3.901  11.862  1.00  0.00     0.054 A 
BRANCH  84  85
ATOM     85  S   UNL     1      -4.444   4.179  11.963  1.00  0.00     0.124 S 
ATOM     86  O   UNL     1      -4.597   5.514  11.392  1.00  0.00    -0.237 OA
ATOM     87  O   UNL     1      -4.983   3.085  11.158  1.00  0.00    -0.237 OA
ATOM     88  O   UNL     1      -4.732   4.085  13.394  1.00  0.00    -0.744 OA
ENDBRANCH  84  85
ENDBRANCH  58  79
ENDBRANCH  32  33
ENDBRANCH  25  27
ENDBRANCH  24  25
ENDBRANCH  23  24
ENDBRANCH   1  23
TORSDOF 17
