REMARK SMILES O=C(N/N=C/c1ccccc1O)C(=O)Nc1cccc(C(=O)OCCOC(=O)c2ccc(-c3c4nc(c(-c5ccc(S(=O)(=O)[O-])cc5)c5ccc([nH]5)c(-c5ccc(S(=O)(=O)[O-])cc5)c5nc(c(-c6ccc(S(=O)(=O)[O-])cc6)c6ccc3[nH]6)C=C5)C=C4)cc2)c1
REMARK SMILES IDX 24 1 23 2 21 3 22 4 20 5 16 6 17 7 89 8 18 9 19 10 15 11
REMARK SMILES IDX 13 12 14 13 2 15 1 16 3 17 4 19 5 20 6 21 7 22 11 23 8 24
REMARK SMILES IDX 10 25 9 26 12 27 25 29 26 30 27 31 28 32 29 33 30 34 88 35
REMARK SMILES IDX 31 36 87 37 32 38 33 39 34 40 81 41 35 42 86 43 80 44 82 45
REMARK SMILES IDX 36 46 85 47 79 48 78 49 37 51 67 52 48 53 66 54 49 55 52 56
REMARK SMILES IDX 65 57 83 58 50 59 51 60 64 62 84 63 53 64 38 65 39 66 47 67
REMARK SMILES IDX 40 68 46 69 41 70 42 71 43 72 44 73 45 74 68 75 69 76 77 77
REMARK SMILES IDX 70 78 76 79 71 80 72 81 73 82 74 83 75 84 54 85 55 86 63 87
REMARK SMILES IDX 56 88 62 89 57 90 58 91 59 92 60 93 61 94
REMARK H PARENT 15 14 3 18 12 28 82 50 52 61
REMARK Flexibility Score: inf
ROOT
ATOM      1  C   UNL     1       4.006  -5.335   0.353  1.00  0.00     0.275 C 
ENDROOT
BRANCH   1   2
ATOM      2  O   UNL     1       4.485  -3.997   0.142  1.00  0.00    -0.458 OA
BRANCH   2   3
ATOM      3  C   UNL     1       5.021  -3.400   1.233  1.00  0.00     0.338 C 
ATOM      4  O   UNL     1       5.154  -3.885   2.346  1.00  0.00    -0.246 OA
BRANCH   3   5
ATOM      5  C   UNL     1       5.439  -2.015   0.932  1.00  0.00     0.062 A 
ATOM      6  C   UNL     1       4.904   0.621  -0.728  1.00  0.00     0.042 A 
ATOM      7  C   UNL     1       5.538   1.624   0.647  1.00  0.00     0.026 A 
ATOM      8  C   UNL     1       4.886  -1.186  -0.625  1.00  0.00     0.041 A 
ATOM      9  C   UNL     1       6.192   0.790   2.158  1.00  0.00     0.003 A 
ATOM     10  C   UNL     1       6.124  -1.018   2.288  1.00  0.00     0.016 A 
BRANCH   6  11
ATOM     11  N   UNL     1       3.859   1.243  -1.417  1.00  0.00    -0.318 N 
ATOM     12  C   UNL     1       2.510   1.226  -1.074  1.00  0.00     0.315 C 
ATOM     13  O   UNL     1       1.802   2.085  -1.615  1.00  0.00    -0.263 OA
ATOM     14  H   UNL     1       4.103   1.744  -2.228  1.00  0.00     0.170 HD
BRANCH  12  15
ATOM     15  C   UNL     1       1.799   0.287  -0.063  1.00  0.00     0.329 C 
ATOM     16  O   UNL     1       0.615   0.006  -0.267  1.00  0.00    -0.262 OA
ATOM     17  N   UNL     1       2.382  -0.112   1.143  1.00  0.00    -0.239 N 
ATOM     18  H   UNL     1       1.985   0.135   2.009  1.00  0.00     0.194 HD
BRANCH  17  19
ATOM     19  N   UNL     1       3.520  -0.855   1.073  1.00  0.00    -0.180 NA
ATOM     20  C   UNL     1       4.698  -0.139   1.124  1.00  0.00     0.145 C 
BRANCH  20  21
ATOM     21  C   UNL     1       6.655  -0.293   0.296  1.00  0.00     0.036 A 
ATOM     22  C   UNL     1       7.739   0.796   0.220  1.00  0.00     0.013 A 
ATOM     23  C   UNL     1       7.475  -1.456  -0.316  1.00  0.00     0.124 A 
ATOM     24  C   UNL     1       9.135   0.731  -0.057  1.00  0.00     0.001 A 
ATOM     25  C   UNL     1       8.901  -1.540  -0.509  1.00  0.00     0.047 A 
ATOM     26  C   UNL     1       9.732  -0.463  -0.332  1.00  0.00     0.004 A 
BRANCH  23  27
ATOM     27  O   UNL     1       6.905  -2.624  -0.839  1.00  0.00    -0.507 OA
ATOM     28  H   UNL     1       5.977  -2.748  -0.803  1.00  0.00     0.293 HD
ENDBRANCH  23  27
ENDBRANCH  20  21
ENDBRANCH  17  19
ENDBRANCH  12  15
ENDBRANCH   6  11
ENDBRANCH   3   5
ENDBRANCH   2   3
ENDBRANCH   1   2
BRANCH   1  29
ATOM     29  C   UNL     1       5.032  -6.378  -0.090  1.00  0.00     0.275 C 
BRANCH  29  30
ATOM     30  O   UNL     1       6.258  -6.245   0.650  1.00  0.00    -0.458 OA
BRANCH  30  31
ATOM     31  C   UNL     1       7.302  -5.738  -0.040  1.00  0.00     0.338 C 
ATOM     32  O   UNL     1       7.358  -5.444  -1.224  1.00  0.00    -0.246 OA
BRANCH  31  33
ATOM     33  C   UNL     1       8.434  -5.488   0.859  1.00  0.00     0.060 A 
ATOM     34  C   UNL     1       8.417  -4.343   1.653  1.00  0.00     0.016 A 
ATOM     35  C   UNL     1       9.591  -6.258   0.756  1.00  0.00     0.016 A 
ATOM     36  C   UNL     1       9.572  -3.917   2.293  1.00  0.00     0.010 A 
ATOM     37  C   UNL     1      10.732  -5.871   1.464  1.00  0.00     0.010 A 
ATOM     38  C   UNL     1      10.742  -4.680   2.212  1.00  0.00    -0.014 A 
BRANCH  38  39
ATOM     39  C   UNL     1      11.984  -4.210   2.875  1.00  0.00     0.031 A 
ATOM     40  C   UNL     1      13.204  -3.898   2.053  1.00  0.00     0.074 A 
ATOM     41  C   UNL     1      12.014  -4.058   4.213  1.00  0.00     0.049 A 
ATOM     42  N   UNL     1      14.425  -3.653   2.450  1.00  0.00    -0.248 NA
ATOM     43  C   UNL     1      13.030  -3.866   0.591  1.00  0.00     0.031 C 
ATOM     44  C   UNL     1      10.881  -4.264   5.119  1.00  0.00     0.029 A 
ATOM     45  N   UNL     1      13.042  -3.694   5.047  1.00  0.00    -0.354 N 
ATOM     46  C   UNL     1      15.177  -3.495   1.292  1.00  0.00     0.074 A 
ATOM     47  C   UNL     1      14.274  -3.667   0.175  1.00  0.00     0.031 C 
ATOM     48  C   UNL     1      11.269  -4.004   6.376  1.00  0.00     0.029 A 
ATOM     49  C   UNL     1      12.695  -3.699   6.377  1.00  0.00     0.049 A 
ATOM     50  H   UNL     1      13.940  -3.453   4.723  1.00  0.00     0.167 HD
ATOM     51  C   UNL     1      16.503  -3.242   1.175  1.00  0.00     0.031 A 
ATOM     52  C   UNL     1      13.448  -3.530   7.480  1.00  0.00     0.031 A 
ATOM     53  C   UNL     1      17.387  -3.049   2.294  1.00  0.00     0.049 A 
ATOM     54  C   UNL     1      14.924  -3.299   7.326  1.00  0.00     0.074 A 
ATOM     55  C   UNL     1      18.745  -2.781   2.282  1.00  0.00     0.029 A 
ATOM     56  N   UNL     1      17.001  -3.094   3.625  1.00  0.00    -0.354 N 
ATOM     57  N   UNL     1      15.631  -3.204   6.225  1.00  0.00    -0.248 NA
ATOM     58  C   UNL     1      15.705  -3.165   8.562  1.00  0.00     0.031 C 
ATOM     59  C   UNL     1      19.188  -2.706   3.607  1.00  0.00     0.029 A 
ATOM     60  C   UNL     1      18.096  -2.873   4.444  1.00  0.00     0.049 A 
ATOM     61  H   UNL     1      16.083  -3.258   3.941  1.00  0.00     0.167 HD
ATOM     62  C   UNL     1      16.940  -2.987   6.637  1.00  0.00     0.074 A 
ATOM     63  C   UNL     1      16.922  -2.944   8.085  1.00  0.00     0.031 C 
ATOM     64  C   UNL     1      18.058  -2.838   5.883  1.00  0.00     0.031 A 
BRANCH  51  65
ATOM     65  C   UNL     1      17.087  -3.209  -0.212  1.00  0.00    -0.014 A 
ATOM     66  C   UNL     1      16.845  -2.137  -1.089  1.00  0.00     0.010 A 
ATOM     67  C   UNL     1      17.928  -4.257  -0.630  1.00  0.00     0.010 A 
ATOM     68  C   UNL     1      17.402  -2.133  -2.371  1.00  0.00     0.020 A 
ATOM     69  C   UNL     1      18.508  -4.245  -1.902  1.00  0.00     0.020 A 
ATOM     70  C   UNL     1      18.226  -3.189  -2.771  1.00  0.00     0.054 A 
BRANCH  70  71
ATOM     71  S   UNL     1      18.951  -3.151  -4.434  1.00  0.00     0.124 S 
ATOM     72  O   UNL     1      17.800  -3.484  -5.269  1.00  0.00    -0.237 OA
ATOM     73  O   UNL     1      19.429  -1.775  -4.544  1.00  0.00    -0.237 OA
ATOM     74  O   UNL     1      19.997  -4.169  -4.380  1.00  0.00    -0.744 OA
ENDBRANCH  70  71
ENDBRANCH  51  65
BRANCH  52  75
ATOM     75  C   UNL     1      12.820  -3.629   8.824  1.00  0.00    -0.014 A 
ATOM     76  C   UNL     1      12.672  -2.489   9.631  1.00  0.00     0.010 A 
ATOM     77  C   UNL     1      12.337  -4.866   9.291  1.00  0.00     0.010 A 
ATOM     78  C   UNL     1      12.059  -2.584  10.883  1.00  0.00     0.020 A 
ATOM     79  C   UNL     1      11.697  -4.960  10.529  1.00  0.00     0.020 A 
ATOM     80  C   UNL     1      11.572  -3.819  11.322  1.00  0.00     0.054 A 
BRANCH  80  81
ATOM     81  S   UNL     1      10.720  -3.908  12.922  1.00  0.00     0.124 S 
ATOM     82  O   UNL     1      11.835  -3.852  13.861  1.00  0.00    -0.237 OA
ATOM     83  O   UNL     1       9.860  -2.727  12.889  1.00  0.00    -0.237 OA
ATOM     84  O   UNL     1      10.012  -5.185  12.860  1.00  0.00    -0.744 OA
ENDBRANCH  80  81
ENDBRANCH  52  75
BRANCH  64  85
ATOM     85  C   UNL     1      19.347  -2.581   6.614  1.00  0.00    -0.014 A 
ATOM     86  C   UNL     1      20.005  -3.608   7.312  1.00  0.00     0.010 A 
ATOM     87  C   UNL     1      19.925  -1.300   6.565  1.00  0.00     0.010 A 
ATOM     88  C   UNL     1      21.206  -3.349   7.978  1.00  0.00     0.020 A 
ATOM     89  C   UNL     1      21.138  -1.044   7.208  1.00  0.00     0.020 A 
ATOM     90  C   UNL     1      21.763  -2.067   7.924  1.00  0.00     0.054 A 
BRANCH  90  91
ATOM     91  S   UNL     1      23.341  -1.763   8.764  1.00  0.00     0.124 S 
ATOM     92  O   UNL     1      22.931  -1.699  10.164  1.00  0.00    -0.237 OA
ATOM     93  O   UNL     1      24.134  -2.932   8.394  1.00  0.00    -0.237 OA
ATOM     94  O   UNL     1      23.800  -0.500   8.191  1.00  0.00    -0.744 OA
ENDBRANCH  90  91
ENDBRANCH  64  85
ENDBRANCH  38  39
ENDBRANCH  31  33
ENDBRANCH  30  31
ENDBRANCH  29  30
ENDBRANCH   1  29
TORSDOF 19
