REMARK SMILES Cc1c(CC(=O)OCCOC(=O)c2ccc(-c3c4nc(c(-c5ccc(S(=O)(=O)[O-])cc5)c5ccc([nH]5)c(-c5ccc(S(=O)(=O)[O-])cc5)c5nc(c(-c6ccc(S(=O)(=O)[O-])cc6)c6ccc3[nH]6)C=C5)C=C4)cc2)c2cc(O)ccc2n1C(=O)c1ccc(Cl)cc1
REMARK SMILES IDX 8 1 7 2 5 3 6 4 4 5 3 6 1 7 2 8 80 9 73 10 79 11 74 12 78 13
REMARK SMILES IDX 75 14 77 15 81 16 82 17 83 18 84 19 89 20 85 21 88 22 86 23
REMARK SMILES IDX 87 24 76 25 9 27 10 28 11 29 12 30 13 31 14 32 72 33 15 34
REMARK SMILES IDX 71 35 16 36 17 37 18 38 65 39 19 40 70 41 64 42 66 43 20 44
REMARK SMILES IDX 69 45 63 46 62 47 21 49 51 50 32 51 50 52 33 53 36 54 49 55
REMARK SMILES IDX 67 56 34 57 35 58 48 60 68 61 37 62 22 63 23 64 31 65 24 66
REMARK SMILES IDX 30 67 25 68 26 69 27 70 28 71 29 72 52 73 53 74 61 75 54 76
REMARK SMILES IDX 60 77 55 78 56 79 57 80 58 81 59 82 38 83 39 84 47 85 40 86
REMARK SMILES IDX 46 87 41 88 42 89 43 90 44 91 45 92
REMARK H PARENT 76 26 66 48 36 59
REMARK Flexibility Score: inf
ROOT
ATOM      1  C   UNL     1      -3.178  -3.463  -1.242  1.00  0.00     0.274 C 
ENDROOT
BRANCH   1   2
ATOM      2  O   UNL     1      -2.056  -2.570  -1.426  1.00  0.00    -0.462 OA
BRANCH   2   3
ATOM      3  C   UNL     1      -0.889  -2.962  -0.858  1.00  0.00     0.310 C 
ATOM      4  O   UNL     1      -0.752  -4.000  -0.217  1.00  0.00    -0.252 OA
BRANCH   3   5
ATOM      5  C   UNL     1       0.271  -2.024  -1.067  1.00  0.00     0.160 C 
BRANCH   5   6
ATOM      6  C   UNL     1       0.057  -0.683  -1.710  1.00  0.00    -0.008 A 
ATOM      7  C   UNL     1       0.839   0.741   0.303  1.00  0.00     0.065 C 
ATOM      8  C   UNL     1       0.351   0.528  -1.098  1.00  0.00     0.028 A 
ATOM      9  N   UNL     1       0.184   1.561  -2.022  1.00  0.00    -0.280 N 
ATOM     10  C   UNL     1      -0.258  -0.396  -3.076  1.00  0.00     0.008 A 
ATOM     11  C   UNL     1      -0.110   0.981  -3.269  1.00  0.00     0.057 A 
ATOM     12  C   UNL     1      -0.597  -1.186  -4.198  1.00  0.00     0.056 A 
ATOM     13  C   UNL     1      -0.228   1.530  -4.572  1.00  0.00     0.031 A 
ATOM     14  C   UNL     1      -0.725  -0.629  -5.469  1.00  0.00     0.116 A 
ATOM     15  C   UNL     1      -0.545   0.721  -5.662  1.00  0.00     0.048 A 
BRANCH   9  16
ATOM     16  C   UNL     1       0.331   2.950  -1.759  1.00  0.00     0.262 C 
ATOM     17  O   UNL     1       0.818   3.324  -0.695  1.00  0.00    -0.268 OA
BRANCH  16  18
ATOM     18  C   UNL     1      -0.047   4.005  -2.707  1.00  0.00     0.040 A 
ATOM     19  C   UNL     1      -1.383   4.155  -3.096  1.00  0.00     0.015 A 
ATOM     20  C   UNL     1       0.976   4.749  -3.301  1.00  0.00     0.015 A 
ATOM     21  C   UNL     1      -1.685   5.012  -4.154  1.00  0.00     0.021 A 
ATOM     22  C   UNL     1       0.665   5.604  -4.357  1.00  0.00     0.021 A 
ATOM     23  C   UNL     1      -0.659   5.717  -4.790  1.00  0.00     0.041 A 
ATOM     24  Cl  UNL     1      -1.024   6.702  -6.152  1.00  0.00    -0.084 Cl
ENDBRANCH  16  18
ENDBRANCH   9  16
BRANCH  14  25
ATOM     25  O   UNL     1      -1.012  -1.457  -6.512  1.00  0.00    -0.508 OA
ATOM     26  H   UNL     1      -1.131  -2.374  -6.362  1.00  0.00     0.293 HD
ENDBRANCH  14  25
ENDBRANCH   5   6
ENDBRANCH   3   5
ENDBRANCH   2   3
ENDBRANCH   1   2
BRANCH   1  27
ATOM     27  C   UNL     1      -3.519  -4.168  -2.558  1.00  0.00     0.275 C 
BRANCH  27  28
ATOM     28  O   UNL     1      -2.522  -5.168  -2.812  1.00  0.00    -0.458 OA
BRANCH  28  29
ATOM     29  C   UNL     1      -1.687  -4.965  -3.858  1.00  0.00     0.338 C 
ATOM     30  O   UNL     1      -1.895  -4.284  -4.848  1.00  0.00    -0.246 OA
BRANCH  29  31
ATOM     31  C   UNL     1      -0.365  -5.426  -3.390  1.00  0.00     0.060 A 
ATOM     32  C   UNL     1      -0.251  -6.601  -2.645  1.00  0.00     0.016 A 
ATOM     33  C   UNL     1       0.698  -4.524  -3.460  1.00  0.00     0.016 A 
ATOM     34  C   UNL     1       0.861  -6.780  -1.831  1.00  0.00     0.010 A 
ATOM     35  C   UNL     1       1.776  -4.678  -2.604  1.00  0.00     0.010 A 
ATOM     36  C   UNL     1       1.827  -5.771  -1.742  1.00  0.00    -0.014 A 
BRANCH  36  37
ATOM     37  C   UNL     1       3.050  -6.011  -0.990  1.00  0.00     0.031 A 
ATOM     38  C   UNL     1       4.080  -6.643  -1.836  1.00  0.00     0.074 A 
ATOM     39  C   UNL     1       3.357  -5.675   0.276  1.00  0.00     0.049 A 
ATOM     40  N   UNL     1       4.280  -7.910  -1.961  1.00  0.00    -0.248 NA
ATOM     41  C   UNL     1       4.814  -5.809  -2.798  1.00  0.00     0.031 C 
ATOM     42  C   UNL     1       2.664  -4.780   1.200  1.00  0.00     0.029 A 
ATOM     43  N   UNL     1       4.456  -6.068   0.988  1.00  0.00    -0.354 N 
ATOM     44  C   UNL     1       5.313  -8.029  -2.874  1.00  0.00     0.074 A 
ATOM     45  C   UNL     1       5.436  -6.745  -3.515  1.00  0.00     0.031 C 
ATOM     46  C   UNL     1       3.454  -4.555   2.283  1.00  0.00     0.029 A 
ATOM     47  C   UNL     1       4.618  -5.427   2.207  1.00  0.00     0.049 A 
ATOM     48  H   UNL     1       5.084  -6.752   0.661  1.00  0.00     0.167 HD
ATOM     49  C   UNL     1       6.151  -9.099  -2.846  1.00  0.00     0.031 A 
ATOM     50  C   UNL     1       5.634  -5.627   3.082  1.00  0.00     0.031 A 
ATOM     51  C   UNL     1       5.683 -10.105  -1.927  1.00  0.00     0.049 A 
ATOM     52  C   UNL     1       6.168  -6.989   2.844  1.00  0.00     0.074 A 
ATOM     53  C   UNL     1       4.635 -10.998  -1.891  1.00  0.00     0.029 A 
ATOM     54  N   UNL     1       6.146  -9.965  -0.640  1.00  0.00    -0.354 N 
ATOM     55  N   UNL     1       5.493  -8.077   3.085  1.00  0.00    -0.248 NA
ATOM     56  C   UNL     1       7.382  -7.170   2.058  1.00  0.00     0.031 C 
ATOM     57  C   UNL     1       4.322 -11.177  -0.513  1.00  0.00     0.029 A 
ATOM     58  C   UNL     1       5.209 -10.419   0.254  1.00  0.00     0.049 A 
ATOM     59  H   UNL     1       7.024  -9.593  -0.395  1.00  0.00     0.167 HD
ATOM     60  C   UNL     1       5.947  -8.983   2.145  1.00  0.00     0.074 A 
ATOM     61  C   UNL     1       7.210  -8.436   1.671  1.00  0.00     0.031 C 
ATOM     62  C   UNL     1       5.117  -9.929   1.621  1.00  0.00     0.031 A 
BRANCH  49  63
ATOM     63  C   UNL     1       7.578  -9.068  -3.324  1.00  0.00    -0.014 A 
ATOM     64  C   UNL     1       8.288  -7.879  -3.582  1.00  0.00     0.010 A 
ATOM     65  C   UNL     1       8.323 -10.263  -3.299  1.00  0.00     0.010 A 
ATOM     66  C   UNL     1       9.659  -7.874  -3.833  1.00  0.00     0.020 A 
ATOM     67  C   UNL     1       9.709 -10.267  -3.505  1.00  0.00     0.020 A 
ATOM     68  C   UNL     1      10.365  -9.069  -3.782  1.00  0.00     0.054 A 
BRANCH  68  69
ATOM     69  S   UNL     1      12.156  -9.005  -4.013  1.00  0.00     0.124 S 
ATOM     70  O   UNL     1      12.261  -8.656  -5.428  1.00  0.00    -0.237 OA
ATOM     71  O   UNL     1      12.554  -7.959  -3.075  1.00  0.00    -0.237 OA
ATOM     72  O   UNL     1      12.595 -10.354  -3.666  1.00  0.00    -0.744 OA
ENDBRANCH  68  69
ENDBRANCH  49  63
BRANCH  50  73
ATOM     73  C   UNL     1       6.356  -4.679   3.963  1.00  0.00    -0.014 A 
ATOM     74  C   UNL     1       6.530  -3.345   3.550  1.00  0.00     0.010 A 
ATOM     75  C   UNL     1       7.183  -5.167   4.997  1.00  0.00     0.010 A 
ATOM     76  C   UNL     1       7.573  -2.564   4.064  1.00  0.00     0.020 A 
ATOM     77  C   UNL     1       8.231  -4.389   5.514  1.00  0.00     0.020 A 
ATOM     78  C   UNL     1       8.447  -3.108   5.007  1.00  0.00     0.054 A 
BRANCH  78  79
ATOM     79  S   UNL     1       9.927  -2.159   5.466  1.00  0.00     0.124 S 
ATOM     80  O   UNL     1      10.684  -2.157   4.218  1.00  0.00    -0.237 OA
ATOM     81  O   UNL     1       9.366  -0.870   5.862  1.00  0.00    -0.237 OA
ATOM     82  O   UNL     1      10.518  -2.938   6.553  1.00  0.00    -0.744 OA
ENDBRANCH  78  79
ENDBRANCH  50  73
BRANCH  62  83
ATOM     83  C   UNL     1       3.910 -10.350   2.427  1.00  0.00    -0.014 A 
ATOM     84  C   UNL     1       3.764 -11.727   2.679  1.00  0.00     0.010 A 
ATOM     85  C   UNL     1       2.881  -9.482   2.840  1.00  0.00     0.010 A 
ATOM     86  C   UNL     1       2.614 -12.234   3.283  1.00  0.00     0.020 A 
ATOM     87  C   UNL     1       1.733  -9.982   3.478  1.00  0.00     0.020 A 
ATOM     88  C   UNL     1       1.598 -11.360   3.671  1.00  0.00     0.054 A 
BRANCH  88  89
ATOM     89  S   UNL     1       0.105 -12.066   4.418  1.00  0.00     0.124 S 
ATOM     90  O   UNL     1      -0.552 -12.685   3.268  1.00  0.00    -0.237 OA
ATOM     91  O   UNL     1       0.645 -13.001   5.402  1.00  0.00    -0.237 OA
ATOM     92  O   UNL     1      -0.591 -10.912   4.982  1.00  0.00    -0.744 OA
ENDBRANCH  88  89
ENDBRANCH  62  83
ENDBRANCH  36  37
ENDBRANCH  29  31
ENDBRANCH  28  29
ENDBRANCH  27  28
ENDBRANCH   1  27
TORSDOF 18
