REMARK SMILES Cc1cc(C(=O)OCCOC(=O)c2ccc(-c3c4nc(c(-c5ccc(S(=O)(=O)[O-])cc5)c5ccc([nH]5)c(-c5ccc(S(=O)(=O)[O-])cc5)c5nc(c(-c6ccc(S(=O)(=O)[O-])cc6)c6ccc3[nH]6)C=C5)C=C4)cc2)cc(C)c1OC[C@H]1C[N@@H+](C)CCO1
REMARK SMILES IDX 8 1 7 2 5 3 6 4 4 5 1 6 2 7 3 8 76 9 74 10 73 11 75 12 77 13
REMARK SMILES IDX 78 14 79 15 80 16 85 17 81 18 84 19 82 20 83 21 9 23 10 24
REMARK SMILES IDX 11 25 12 26 13 27 14 28 72 29 15 30 71 31 16 32 17 33 18 34
REMARK SMILES IDX 65 35 19 36 70 37 64 38 66 39 20 40 69 41 63 42 62 43 21 45
REMARK SMILES IDX 51 46 32 47 50 48 33 49 36 50 49 51 67 52 34 53 35 54 48 56
REMARK SMILES IDX 68 57 37 58 22 59 23 60 31 61 24 62 30 63 25 64 26 65 27 66
REMARK SMILES IDX 28 67 29 68 52 69 53 70 61 71 54 72 60 73 55 74 56 75 57 76
REMARK SMILES IDX 58 77 59 78 38 79 39 80 47 81 40 82 46 83 41 84 42 85 43 86
REMARK SMILES IDX 44 87 45 88
REMARK H PARENT 81 22 66 44 36 55
REMARK Flexibility Score: inf
ROOT
ATOM      1  C   UNL     1       9.693  -4.628   3.452  1.00  0.00     0.275 C 
ENDROOT
BRANCH   1   2
ATOM      2  O   UNL     1       8.807  -4.547   2.317  1.00  0.00    -0.458 OA
BRANCH   2   3
ATOM      3  C   UNL     1       7.830  -3.622   2.436  1.00  0.00     0.338 C 
ATOM      4  O   UNL     1       7.582  -2.930   3.417  1.00  0.00    -0.246 OA
BRANCH   3   5
ATOM      5  C   UNL     1       7.151  -3.414   1.151  1.00  0.00     0.060 A 
ATOM      6  C   UNL     1       7.135  -0.512  -1.215  1.00  0.00     0.048 C 
ATOM      7  C   UNL     1       6.660  -1.812  -0.641  1.00  0.00    -0.008 A 
ATOM      8  C   UNL     1       7.380  -2.212   0.497  1.00  0.00     0.023 A 
ATOM      9  C   UNL     1       5.617  -2.632  -1.089  1.00  0.00     0.125 A 
ATOM     10  C   UNL     1       5.472  -3.925  -0.504  1.00  0.00    -0.008 A 
ATOM     11  C   UNL     1       6.237  -4.307   0.620  1.00  0.00     0.023 A 
ATOM     12  C   UNL     1       4.550  -4.965  -1.089  1.00  0.00     0.048 C 
BRANCH   9  13
ATOM     13  O   UNL     1       4.693  -2.354  -2.059  1.00  0.00    -0.490 OA
BRANCH  13  14
ATOM     14  C   UNL     1       4.283  -1.021  -2.410  1.00  0.00     0.267 C 
BRANCH  14  15
ATOM     15  C   UNL     1       3.732  -0.145  -1.263  1.00  0.00     0.210 C 
ATOM     16  C   UNL     1       4.214   1.317  -1.408  1.00  0.00     0.298 C 
ATOM     17  O   UNL     1       2.280  -0.129  -1.316  1.00  0.00    -0.363 OA
ATOM     18  N   UNL     1       3.799   2.061  -0.208  1.00  0.00    -0.333 N 
ATOM     19  C   UNL     1       1.739   0.679  -0.250  1.00  0.00     0.222 C 
ATOM     20  C   UNL     1       4.398   3.390  -0.153  1.00  0.00     0.332 C 
ATOM     21  C   UNL     1       2.328   2.107  -0.199  1.00  0.00     0.290 C 
ATOM     22  H   UNL     1       4.132   1.586   0.631  1.00  0.00     0.348 HD
ENDBRANCH  14  15
ENDBRANCH  13  14
ENDBRANCH   9  13
ENDBRANCH   3   5
ENDBRANCH   2   3
ENDBRANCH   1   2
BRANCH   1  23
ATOM     23  C   UNL     1      10.968  -3.826   3.196  1.00  0.00     0.275 C 
BRANCH  23  24
ATOM     24  O   UNL     1      10.665  -2.422   3.075  1.00  0.00    -0.458 OA
BRANCH  24  25
ATOM     25  C   UNL     1      11.245  -1.791   2.029  1.00  0.00     0.338 C 
ATOM     26  O   UNL     1      11.988  -2.294   1.196  1.00  0.00    -0.246 OA
BRANCH  25  27
ATOM     27  C   UNL     1      10.883  -0.357   1.990  1.00  0.00     0.060 A 
ATOM     28  C   UNL     1       9.575   0.071   2.206  1.00  0.00     0.016 A 
ATOM     29  C   UNL     1      11.849   0.565   1.583  1.00  0.00     0.016 A 
ATOM     30  C   UNL     1       9.202   1.370   1.845  1.00  0.00     0.010 A 
ATOM     31  C   UNL     1      11.499   1.904   1.375  1.00  0.00     0.010 A 
ATOM     32  C   UNL     1      10.158   2.319   1.443  1.00  0.00    -0.014 A 
BRANCH  32  33
ATOM     33  C   UNL     1       9.772   3.723   1.084  1.00  0.00     0.031 A 
ATOM     34  C   UNL     1      10.237   4.351  -0.215  1.00  0.00     0.074 A 
ATOM     35  C   UNL     1       9.012   4.465   1.918  1.00  0.00     0.049 A 
ATOM     36  N   UNL     1      10.182   5.605  -0.594  1.00  0.00    -0.248 NA
ATOM     37  C   UNL     1      10.862   3.460  -1.206  1.00  0.00     0.031 C 
ATOM     38  C   UNL     1       8.460   4.017   3.198  1.00  0.00     0.029 A 
ATOM     39  N   UNL     1       8.563   5.761   1.807  1.00  0.00    -0.354 N 
ATOM     40  C   UNL     1      10.836   5.666  -1.821  1.00  0.00     0.074 A 
ATOM     41  C   UNL     1      11.271   4.320  -2.130  1.00  0.00     0.031 C 
ATOM     42  C   UNL     1       7.694   4.987   3.716  1.00  0.00     0.029 A 
ATOM     43  C   UNL     1       7.787   6.168   2.868  1.00  0.00     0.049 A 
ATOM     44  H   UNL     1       8.776   6.342   1.041  1.00  0.00     0.167 HD
ATOM     45  C   UNL     1      11.064   6.741  -2.618  1.00  0.00     0.031 A 
ATOM     46  C   UNL     1       7.244   7.365   3.166  1.00  0.00     0.031 A 
ATOM     47  C   UNL     1      10.577   8.070  -2.354  1.00  0.00     0.049 A 
ATOM     48  C   UNL     1       7.498   8.540   2.270  1.00  0.00     0.074 A 
ATOM     49  C   UNL     1      10.738   9.214  -3.119  1.00  0.00     0.029 A 
ATOM     50  N   UNL     1       9.815   8.432  -1.255  1.00  0.00    -0.354 N 
ATOM     51  N   UNL     1       8.182   8.587   1.153  1.00  0.00    -0.248 NA
ATOM     52  C   UNL     1       6.930   9.828   2.690  1.00  0.00     0.031 C 
ATOM     53  C   UNL     1      10.095  10.274  -2.467  1.00  0.00     0.029 A 
ATOM     54  C   UNL     1       9.501   9.780  -1.318  1.00  0.00     0.049 A 
ATOM     55  H   UNL     1       9.537   7.821  -0.535  1.00  0.00     0.167 HD
ATOM     56  C   UNL     1       8.130   9.912   0.738  1.00  0.00     0.074 A 
ATOM     57  C   UNL     1       7.326  10.627   1.708  1.00  0.00     0.031 C 
ATOM     58  C   UNL     1       8.709  10.485  -0.345  1.00  0.00     0.031 A 
BRANCH  45  59
ATOM     59  C   UNL     1      11.918   6.534  -3.843  1.00  0.00    -0.014 A 
ATOM     60  C   UNL     1      11.425   5.879  -4.984  1.00  0.00     0.010 A 
ATOM     61  C   UNL     1      13.230   7.045  -3.860  1.00  0.00     0.010 A 
ATOM     62  C   UNL     1      12.244   5.699  -6.104  1.00  0.00     0.020 A 
ATOM     63  C   UNL     1      14.043   6.887  -4.986  1.00  0.00     0.020 A 
ATOM     64  C   UNL     1      13.551   6.196  -6.094  1.00  0.00     0.054 A 
BRANCH  64  65
ATOM     65  S   UNL     1      14.594   5.956  -7.560  1.00  0.00     0.124 S 
ATOM     66  O   UNL     1      15.007   4.563  -7.408  1.00  0.00    -0.237 OA
ATOM     67  O   UNL     1      13.672   6.221  -8.661  1.00  0.00    -0.237 OA
ATOM     68  O   UNL     1      15.658   6.943  -7.392  1.00  0.00    -0.744 OA
ENDBRANCH  64  65
ENDBRANCH  45  59
BRANCH  46  69
ATOM     69  C   UNL     1       6.442   7.513   4.410  1.00  0.00    -0.014 A 
ATOM     70  C   UNL     1       5.045   7.643   4.343  1.00  0.00     0.010 A 
ATOM     71  C   UNL     1       7.069   7.471   5.669  1.00  0.00     0.010 A 
ATOM     72  C   UNL     1       4.287   7.721   5.514  1.00  0.00     0.020 A 
ATOM     73  C   UNL     1       6.312   7.521   6.841  1.00  0.00     0.020 A 
ATOM     74  C   UNL     1       4.925   7.652   6.756  1.00  0.00     0.054 A 
BRANCH  74  75
ATOM     75  S   UNL     1       3.919   7.656   8.267  1.00  0.00     0.124 S 
ATOM     76  O   UNL     1       3.641   9.078   8.440  1.00  0.00    -0.237 OA
ATOM     77  O   UNL     1       2.775   6.829   7.893  1.00  0.00    -0.237 OA
ATOM     78  O   UNL     1       4.806   7.062   9.265  1.00  0.00    -0.744 OA
ENDBRANCH  74  75
ENDBRANCH  46  69
BRANCH  58  79
ATOM     79  C   UNL     1       8.475  11.956  -0.548  1.00  0.00    -0.014 A 
ATOM     80  C   UNL     1       9.161  12.909   0.225  1.00  0.00     0.010 A 
ATOM     81  C   UNL     1       7.580  12.389  -1.542  1.00  0.00     0.010 A 
ATOM     82  C   UNL     1       8.932  14.273   0.027  1.00  0.00     0.020 A 
ATOM     83  C   UNL     1       7.362  13.753  -1.754  1.00  0.00     0.020 A 
ATOM     84  C   UNL     1       8.030  14.686  -0.957  1.00  0.00     0.054 A 
BRANCH  84  85
ATOM     85  S   UNL     1       7.768  16.463  -1.219  1.00  0.00     0.124 S 
ATOM     86  O   UNL     1       6.879  16.804  -0.112  1.00  0.00    -0.237 OA
ATOM     87  O   UNL     1       9.121  17.007  -1.129  1.00  0.00    -0.237 OA
ATOM     88  O   UNL     1       7.164  16.529  -2.548  1.00  0.00    -0.744 OA
ENDBRANCH  84  85
ENDBRANCH  58  79
ENDBRANCH  32  33
ENDBRANCH  25  27
ENDBRANCH  24  25
ENDBRANCH  23  24
ENDBRANCH   1  23
TORSDOF 17
