REMARK SMILES O=C(CCOc1cccc(/C=C2/SC(=S)N(c3ccc(Cl)c(Cl)c3)C2=O)c1)OCCOC(=O)c1ccc(-c2c3nc(c(-c4ccc(S(=O)(=O)[O-])cc4)c4ccc([nH]4)c(-c4ccc(S(=O)(=O)[O-])cc4)c4nc(c(-c5ccc(S(=O)(=O)[O-])cc5)c5ccc2[nH]5)C=C4)C=C3)cc1
REMARK SMILES IDX 29 1 28 2 2 3 1 4 3 5 4 6 5 7 6 8 7 9 27 10 8 11 10 12 9 13
REMARK SMILES IDX 11 14 12 15 13 16 25 17 14 18 16 19 26 20 15 21 17 22 18 23
REMARK SMILES IDX 24 24 19 25 22 26 20 27 23 28 21 29 30 30 31 31 32 32 33 33
REMARK SMILES IDX 34 34 35 35 93 36 36 37 92 38 37 39 38 40 39 41 86 42 40 43
REMARK SMILES IDX 91 44 85 45 87 46 41 47 90 48 84 49 83 50 42 52 72 53 53 54
REMARK SMILES IDX 71 55 54 56 57 57 70 58 88 59 55 60 56 61 69 63 89 64 58 65
REMARK SMILES IDX 43 66 44 67 52 68 45 69 51 70 46 71 47 72 48 73 49 74 50 75
REMARK SMILES IDX 73 76 74 77 82 78 75 79 81 80 76 81 77 82 78 83 79 84 80 85
REMARK SMILES IDX 59 86 60 87 68 88 61 89 67 90 62 91 63 92 64 93 65 94 66 95
REMARK H PARENT 87 51 57 62
REMARK Flexibility Score: inf
ROOT
ATOM      1  C   UNL     1       4.879  -0.084   0.582  1.00  0.00     0.274 C 
ENDROOT
BRANCH   1   2
ATOM      2  O   UNL     1       3.440   0.009   0.521  1.00  0.00    -0.462 OA
BRANCH   2   3
ATOM      3  C   UNL     1       2.644  -0.522  -0.430  1.00  0.00     0.309 C 
ATOM      4  O   UNL     1       1.422  -0.507  -0.287  1.00  0.00    -0.252 OA
BRANCH   3   5
ATOM      5  C   UNL     1       3.247  -0.986  -1.718  1.00  0.00     0.164 C 
BRANCH   5   6
ATOM      6  C   UNL     1       3.154   0.119  -2.768  1.00  0.00     0.241 C 
BRANCH   6   7
ATOM      7  O   UNL     1       4.148   1.145  -2.656  1.00  0.00    -0.493 OA
BRANCH   7   8
ATOM      8  C   UNL     1       3.978   2.189  -1.787  1.00  0.00     0.119 A 
ATOM      9  C   UNL     1       5.074   3.045  -1.683  1.00  0.00     0.046 A 
ATOM     10  C   UNL     1       2.888   2.397  -0.942  1.00  0.00     0.054 A 
ATOM     11  C   UNL     1       5.112   4.035  -0.697  1.00  0.00     0.004 A 
ATOM     12  C   UNL     1       2.995   3.260   0.163  1.00  0.00    -0.021 A 
ATOM     13  C   UNL     1       4.090   4.117   0.250  1.00  0.00     0.008 A 
BRANCH  12  14
ATOM     14  C   UNL     1       1.992   3.149   1.235  1.00  0.00     0.029 C 
ATOM     15  C   UNL     1       2.175   2.620   2.462  1.00  0.00     0.081 C 
ATOM     16  S   UNL     1       0.846   2.353   3.530  1.00  0.00    -0.054 SA
ATOM     17  C   UNL     1       3.429   2.106   3.110  1.00  0.00     0.270 C 
ATOM     18  C   UNL     1       1.817   1.460   4.703  1.00  0.00     0.152 C 
ATOM     19  N   UNL     1       3.134   1.379   4.272  1.00  0.00    -0.261 N 
ATOM     20  O   UNL     1       4.545   2.350   2.664  1.00  0.00    -0.268 OA
ATOM     21  S   UNL     1       1.138   1.000   6.165  1.00  0.00    -0.051 S 
BRANCH  19  22
ATOM     22  C   UNL     1       4.153   0.575   4.909  1.00  0.00     0.052 A 
ATOM     23  C   UNL     1       5.497   0.982   4.943  1.00  0.00     0.028 A 
ATOM     24  C   UNL     1       3.868  -0.732   5.350  1.00  0.00     0.048 A 
ATOM     25  C   UNL     1       6.517   0.106   5.344  1.00  0.00     0.024 A 
ATOM     26  C   UNL     1       4.886  -1.622   5.728  1.00  0.00     0.061 A 
ATOM     27  C   UNL     1       6.216  -1.204   5.717  1.00  0.00     0.059 A 
ATOM     28  Cl  UNL     1       4.436  -3.248   6.105  1.00  0.00    -0.083 Cl
ATOM     29  Cl  UNL     1       7.531  -2.257   6.100  1.00  0.00    -0.083 Cl
ENDBRANCH  19  22
ENDBRANCH  12  14
ENDBRANCH   7   8
ENDBRANCH   6   7
ENDBRANCH   5   6
ENDBRANCH   3   5
ENDBRANCH   2   3
ENDBRANCH   1   2
BRANCH   1  30
ATOM     30  C   UNL     1       5.252  -0.973   1.758  1.00  0.00     0.275 C 
BRANCH  30  31
ATOM     31  O   UNL     1       4.620  -2.249   1.630  1.00  0.00    -0.458 OA
BRANCH  31  32
ATOM     32  C   UNL     1       3.342  -2.329   2.102  1.00  0.00     0.338 C 
ATOM     33  O   UNL     1       2.728  -1.508   2.744  1.00  0.00    -0.246 OA
BRANCH  32  34
ATOM     34  C   UNL     1       2.752  -3.526   1.484  1.00  0.00     0.060 A 
ATOM     35  C   UNL     1       1.459  -3.450   0.948  1.00  0.00     0.016 A 
ATOM     36  C   UNL     1       3.510  -4.692   1.384  1.00  0.00     0.016 A 
ATOM     37  C   UNL     1       0.924  -4.550   0.287  1.00  0.00     0.010 A 
ATOM     38  C   UNL     1       2.974  -5.792   0.738  1.00  0.00     0.010 A 
ATOM     39  C   UNL     1       1.675  -5.727   0.208  1.00  0.00    -0.014 A 
BRANCH  39  40
ATOM     40  C   UNL     1       1.062  -6.994  -0.218  1.00  0.00     0.031 A 
ATOM     41  C   UNL     1       0.545  -7.895   0.861  1.00  0.00     0.074 A 
ATOM     42  C   UNL     1       1.093  -7.366  -1.507  1.00  0.00     0.049 A 
ATOM     43  N   UNL     1       0.156  -9.137   0.783  1.00  0.00    -0.248 NA
ATOM     44  C   UNL     1       0.491  -7.323   2.219  1.00  0.00     0.031 C 
ATOM     45  C   UNL     1       1.570  -6.542  -2.618  1.00  0.00     0.029 A 
ATOM     46  N   UNL     1       0.750  -8.556  -2.089  1.00  0.00    -0.354 N 
ATOM     47  C   UNL     1      -0.170  -9.502   2.083  1.00  0.00     0.074 A 
ATOM     48  C   UNL     1       0.092  -8.363   2.933  1.00  0.00     0.031 C 
ATOM     49  C   UNL     1       1.513  -7.266  -3.750  1.00  0.00     0.029 A 
ATOM     50  C   UNL     1       1.035  -8.609  -3.431  1.00  0.00     0.049 A 
ATOM     51  H   UNL     1       0.339  -9.301  -1.593  1.00  0.00     0.167 HD
ATOM     52  C   UNL     1      -0.642 -10.689   2.525  1.00  0.00     0.031 A 
ATOM     53  C   UNL     1       0.945  -9.643  -4.289  1.00  0.00     0.031 A 
ATOM     54  C   UNL     1      -0.860 -11.817   1.665  1.00  0.00     0.049 A 
ATOM     55  C   UNL     1       0.456 -10.969  -3.768  1.00  0.00     0.074 A 
ATOM     56  C   UNL     1      -1.347 -13.069   1.989  1.00  0.00     0.029 A 
ATOM     57  N   UNL     1      -0.591 -11.826   0.303  1.00  0.00    -0.354 N 
ATOM     58  N   UNL     1       0.116 -11.299  -2.543  1.00  0.00    -0.248 NA
ATOM     59  C   UNL     1       0.331 -12.059  -4.744  1.00  0.00     0.031 C 
ATOM     60  C   UNL     1      -1.329 -13.851   0.829  1.00  0.00     0.029 A 
ATOM     61  C   UNL     1      -0.887 -13.068  -0.228  1.00  0.00     0.049 A 
ATOM     62  H   UNL     1      -0.241 -11.062  -0.209  1.00  0.00     0.167 HD
ATOM     63  C   UNL     1      -0.296 -12.626  -2.607  1.00  0.00     0.074 A 
ATOM     64  C   UNL     1      -0.166 -13.034  -3.993  1.00  0.00     0.031 C 
ATOM     65  C   UNL     1      -0.749 -13.434  -1.616  1.00  0.00     0.031 A 
BRANCH  52  66
ATOM     66  C   UNL     1      -0.907 -10.815   4.000  1.00  0.00    -0.014 A 
ATOM     67  C   UNL     1      -1.962 -10.113   4.611  1.00  0.00     0.010 A 
ATOM     68  C   UNL     1      -0.081 -11.634   4.790  1.00  0.00     0.010 A 
ATOM     69  C   UNL     1      -2.157 -10.191   5.992  1.00  0.00     0.020 A 
ATOM     70  C   UNL     1      -0.291 -11.737   6.168  1.00  0.00     0.020 A 
ATOM     71  C   UNL     1      -1.317 -10.999   6.763  1.00  0.00     0.054 A 
BRANCH  71  72
ATOM     72  S   UNL     1      -1.598 -11.091   8.552  1.00  0.00     0.124 S 
ATOM     73  O   UNL     1      -1.100  -9.793   9.002  1.00  0.00    -0.237 OA
ATOM     74  O   UNL     1      -3.044 -11.273   8.640  1.00  0.00    -0.237 OA
ATOM     75  O   UNL     1      -0.802 -12.242   8.970  1.00  0.00    -0.744 OA
ENDBRANCH  71  72
ENDBRANCH  52  66
BRANCH  53  76
ATOM     76  C   UNL     1       1.322  -9.460  -5.716  1.00  0.00    -0.014 A 
ATOM     77  C   UNL     1       0.332  -9.433  -6.713  1.00  0.00     0.010 A 
ATOM     78  C   UNL     1       2.668  -9.282  -6.085  1.00  0.00     0.010 A 
ATOM     79  C   UNL     1       0.681  -9.242  -8.054  1.00  0.00     0.020 A 
ATOM     80  C   UNL     1       3.019  -9.067  -7.421  1.00  0.00     0.020 A 
ATOM     81  C   UNL     1       2.023  -9.056  -8.399  1.00  0.00     0.054 A 
BRANCH  81  82
ATOM     82  S   UNL     1       2.443  -8.745 -10.137  1.00  0.00     0.124 S 
ATOM     83  O   UNL     1       2.256 -10.062 -10.736  1.00  0.00    -0.237 OA
ATOM     84  O   UNL     1       1.464  -7.730 -10.520  1.00  0.00    -0.237 OA
ATOM     85  O   UNL     1       3.825  -8.274 -10.075  1.00  0.00    -0.744 OA
ENDBRANCH  81  82
ENDBRANCH  53  76
BRANCH  65  86
ATOM     86  C   UNL     1      -1.182 -14.822  -2.000  1.00  0.00    -0.014 A 
ATOM     87  C   UNL     1      -0.244 -15.820  -2.314  1.00  0.00     0.010 A 
ATOM     88  C   UNL     1      -2.550 -15.147  -1.966  1.00  0.00     0.010 A 
ATOM     89  C   UNL     1      -0.671 -17.116  -2.612  1.00  0.00     0.020 A 
ATOM     90  C   UNL     1      -2.978 -16.447  -2.236  1.00  0.00     0.020 A 
ATOM     91  C   UNL     1      -2.035 -17.422  -2.569  1.00  0.00     0.054 A 
BRANCH  91  92
ATOM     92  S   UNL     1      -2.560 -19.125  -2.903  1.00  0.00     0.124 S 
ATOM     93  O   UNL     1      -2.400 -19.213  -4.351  1.00  0.00    -0.237 OA
ATOM     94  O   UNL     1      -1.613 -19.912  -2.117  1.00  0.00    -0.237 OA
ATOM     95  O   UNL     1      -3.940 -19.162  -2.424  1.00  0.00    -0.744 OA
ENDBRANCH  91  92
ENDBRANCH  65  86
ENDBRANCH  39  40
ENDBRANCH  32  34
ENDBRANCH  31  32
ENDBRANCH  30  31
ENDBRANCH   1  30
TORSDOF 19
