REMARK SMILES CCCC(O)(CCC)[C@@]1(C)CC[C@@H](C(=O)OCCOC(=O)c2ccc(-c3c4nc(c(-c5ccc(S(=O)(=O)[O-])cc5)c5ccc([nH]5)c(-c5ccc(S(=O)(=O)[O-])cc5)c5nc(c(-c6ccc(S(=O)(=O)[O-])cc6)c6ccc3[nH]6)C=C5)C=C4)cc2)C(C)(C)O1
REMARK SMILES IDX 17 1 16 2 14 3 15 4 13 5 9 6 10 7 11 8 85 9 12 10 82 11
REMARK SMILES IDX 83 12 84 13 4 14 3 15 2 16 1 17 5 18 6 20 7 21 8 22 18 23
REMARK SMILES IDX 19 24 20 25 21 26 22 27 23 28 81 29 24 30 80 31 25 32 26 33
REMARK SMILES IDX 27 34 74 35 28 36 79 37 73 38 75 39 29 40 78 41 72 42 71 43
REMARK SMILES IDX 30 45 60 46 41 47 59 48 42 49 45 50 58 51 76 52 43 53 44 54
REMARK SMILES IDX 57 56 77 57 46 58 31 59 32 60 40 61 33 62 39 63 34 64 35 65
REMARK SMILES IDX 36 66 37 67 38 68 61 69 62 70 70 71 63 72 69 73 64 74 65 75
REMARK SMILES IDX 66 76 67 77 68 78 47 79 48 80 56 81 49 82 55 83 50 84 51 85
REMARK SMILES IDX 52 86 53 87 54 88
REMARK H PARENT 5 19 75 44 45 55
REMARK Flexibility Score: inf
ROOT
ATOM      1  C   UNL     1      -3.166   4.290   5.958  1.00  0.00     0.274 C 
ENDROOT
BRANCH   1   2
ATOM      2  O   UNL     1      -2.227   3.431   5.281  1.00  0.00    -0.462 OA
BRANCH   2   3
ATOM      3  C   UNL     1      -1.609   3.966   4.203  1.00  0.00     0.311 C 
ATOM      4  O   UNL     1      -1.879   5.063   3.725  1.00  0.00    -0.252 OA
BRANCH   3   5
ATOM      5  C   UNL     1      -0.596   3.047   3.553  1.00  0.00     0.131 C 
ATOM      6  C   UNL     1       0.930   0.876   2.288  1.00  0.00     0.095 C 
ATOM      7  C   UNL     1       2.189   1.151   1.423  1.00  0.00     0.045 C 
ATOM      8  C   UNL     1      -0.230   1.622   1.563  1.00  0.00     0.039 C 
ATOM      9  O   UNL     1       1.253   1.481   3.562  1.00  0.00    -0.366 OA
ATOM     10  C   UNL     1      -1.284   2.256   2.452  1.00  0.00     0.021 C 
ATOM     11  C   UNL     1       0.268   2.110   4.411  1.00  0.00     0.077 C 
ATOM     12  C   UNL     1      -0.515   1.086   5.247  1.00  0.00     0.043 C 
ATOM     13  C   UNL     1       1.135   2.903   5.403  1.00  0.00     0.043 C 
BRANCH   6  14
ATOM     14  C   UNL     1       0.721  -0.696   2.470  1.00  0.00     0.093 C 
BRANCH  14  15
ATOM     15  C   UNL     1       1.006  -1.599   1.225  1.00  0.00     0.038 C 
BRANCH  15  16
ATOM     16  C   UNL     1       0.074  -1.554   0.004  1.00  0.00    -0.000 C 
ATOM     17  C   UNL     1       0.582  -0.699  -1.146  1.00  0.00     0.004 C 
ENDBRANCH  15  16
ENDBRANCH  14  15
BRANCH  14  18
ATOM     18  O   UNL     1      -0.652  -0.958   2.850  1.00  0.00    -0.387 OA
ATOM     19  H   UNL     1      -0.780  -1.913   2.961  1.00  0.00     0.211 HD
ENDBRANCH  14  18
BRANCH  14  20
ATOM     20  C   UNL     1       1.534  -1.298   3.676  1.00  0.00     0.038 C 
BRANCH  20  21
ATOM     21  C   UNL     1       3.064  -1.403   3.636  1.00  0.00    -0.000 C 
ATOM     22  C   UNL     1       3.819  -0.191   4.168  1.00  0.00     0.004 C 
ENDBRANCH  20  21
ENDBRANCH  14  20
ENDBRANCH   6  14
ENDBRANCH   3   5
ENDBRANCH   2   3
ENDBRANCH   1   2
BRANCH   1  23
ATOM     23  C   UNL     1      -2.471   5.033   7.096  1.00  0.00     0.275 C 
BRANCH  23  24
ATOM     24  O   UNL     1      -1.431   5.863   6.552  1.00  0.00    -0.458 OA
BRANCH  24  25
ATOM     25  C   UNL     1      -0.258   5.848   7.223  1.00  0.00     0.338 C 
ATOM     26  O   UNL     1      -0.014   5.267   8.266  1.00  0.00    -0.246 OA
BRANCH  25  27
ATOM     27  C   UNL     1       0.722   6.689   6.514  1.00  0.00     0.060 A 
ATOM     28  C   UNL     1       1.042   6.459   5.172  1.00  0.00     0.016 A 
ATOM     29  C   UNL     1       1.386   7.678   7.237  1.00  0.00     0.016 A 
ATOM     30  C   UNL     1       2.063   7.189   4.562  1.00  0.00     0.010 A 
ATOM     31  C   UNL     1       2.357   8.454   6.606  1.00  0.00     0.010 A 
ATOM     32  C   UNL     1       2.719   8.204   5.270  1.00  0.00    -0.014 A 
BRANCH  32  33
ATOM     33  C   UNL     1       3.794   9.016   4.651  1.00  0.00     0.031 A 
ATOM     34  C   UNL     1       5.190   8.949   5.205  1.00  0.00     0.074 A 
ATOM     35  C   UNL     1       3.506   9.865   3.647  1.00  0.00     0.049 A 
ATOM     36  N   UNL     1       6.206   9.741   4.984  1.00  0.00    -0.248 NA
ATOM     37  C   UNL     1       5.471   7.851   6.144  1.00  0.00     0.031 C 
ATOM     38  C   UNL     1       2.205   9.989   2.985  1.00  0.00     0.029 A 
ATOM     39  N   UNL     1       4.288  10.804   3.024  1.00  0.00    -0.354 N 
ATOM     40  C   UNL     1       7.236   9.266   5.788  1.00  0.00     0.074 A 
ATOM     41  C   UNL     1       6.719   8.119   6.505  1.00  0.00     0.031 C 
ATOM     42  C   UNL     1       2.280  10.948   2.049  1.00  0.00     0.029 A 
ATOM     43  C   UNL     1       3.606  11.555   2.096  1.00  0.00     0.049 A 
ATOM     44  H   UNL     1       5.244  10.929   3.222  1.00  0.00     0.167 HD
ATOM     45  C   UNL     1       8.495   9.749   5.922  1.00  0.00     0.031 A 
ATOM     46  C   UNL     1       3.989  12.639   1.395  1.00  0.00     0.031 A 
ATOM     47  C   UNL     1       9.000  10.889   5.202  1.00  0.00     0.049 A 
ATOM     48  C   UNL     1       5.367  13.199   1.605  1.00  0.00     0.074 A 
ATOM     49  C   UNL     1      10.259  11.461   5.266  1.00  0.00     0.029 A 
ATOM     50  N   UNL     1       8.271  11.628   4.282  1.00  0.00    -0.354 N 
ATOM     51  N   UNL     1       6.318  12.767   2.399  1.00  0.00    -0.248 NA
ATOM     52  C   UNL     1       5.720  14.397   0.832  1.00  0.00     0.031 C 
ATOM     53  C   UNL     1      10.277  12.570   4.411  1.00  0.00     0.029 A 
ATOM     54  C   UNL     1       9.047  12.659   3.780  1.00  0.00     0.049 A 
ATOM     55  H   UNL     1       7.338  11.446   4.024  1.00  0.00     0.167 HD
ATOM     56  C   UNL     1       7.391  13.630   2.206  1.00  0.00     0.074 A 
ATOM     57  C   UNL     1       6.973  14.602   1.215  1.00  0.00     0.031 C 
ATOM     58  C   UNL     1       8.612  13.617   2.795  1.00  0.00     0.031 A 
BRANCH  45  59
ATOM     59  C   UNL     1       9.392   9.069   6.921  1.00  0.00    -0.014 A 
ATOM     60  C   UNL     1       9.930   7.793   6.674  1.00  0.00     0.010 A 
ATOM     61  C   UNL     1       9.706   9.722   8.128  1.00  0.00     0.010 A 
ATOM     62  C   UNL     1      10.723   7.162   7.637  1.00  0.00     0.020 A 
ATOM     63  C   UNL     1      10.519   9.104   9.082  1.00  0.00     0.020 A 
ATOM     64  C   UNL     1      11.004   7.817   8.840  1.00  0.00     0.054 A 
BRANCH  64  65
ATOM     65  S   UNL     1      12.029   6.976  10.078  1.00  0.00     0.124 S 
ATOM     66  O   UNL     1      11.083   6.020  10.650  1.00  0.00    -0.237 OA
ATOM     67  O   UNL     1      13.098   6.393   9.271  1.00  0.00    -0.237 OA
ATOM     68  O   UNL     1      12.445   8.052  10.973  1.00  0.00    -0.744 OA
ENDBRANCH  64  65
ENDBRANCH  45  59
BRANCH  46  69
ATOM     69  C   UNL     1       3.034  13.278   0.451  1.00  0.00    -0.014 A 
ATOM     70  C   UNL     1       3.214  13.144  -0.936  1.00  0.00     0.010 A 
ATOM     71  C   UNL     1       1.917  13.986   0.933  1.00  0.00     0.010 A 
ATOM     72  C   UNL     1       2.294  13.707  -1.825  1.00  0.00     0.020 A 
ATOM     73  C   UNL     1       0.983  14.529   0.047  1.00  0.00     0.020 A 
ATOM     74  C   UNL     1       1.181  14.391  -1.328  1.00  0.00     0.054 A 
BRANCH  74  75
ATOM     75  S   UNL     1      -0.042  15.044  -2.499  1.00  0.00     0.124 S 
ATOM     76  O   UNL     1       0.633  16.231  -3.013  1.00  0.00    -0.237 OA
ATOM     77  O   UNL     1      -0.194  13.942  -3.447  1.00  0.00    -0.237 OA
ATOM     78  O   UNL     1      -1.213  15.299  -1.663  1.00  0.00    -0.744 OA
ENDBRANCH  74  75
ENDBRANCH  46  69
BRANCH  58  79
ATOM     79  C   UNL     1       9.599  14.661   2.352  1.00  0.00    -0.014 A 
ATOM     80  C   UNL     1       9.488  15.995   2.781  1.00  0.00     0.010 A 
ATOM     81  C   UNL     1      10.680  14.288   1.534  1.00  0.00     0.010 A 
ATOM     82  C   UNL     1      10.431  16.945   2.377  1.00  0.00     0.020 A 
ATOM     83  C   UNL     1      11.636  15.230   1.146  1.00  0.00     0.020 A 
ATOM     84  C   UNL     1      11.498  16.556   1.560  1.00  0.00     0.054 A 
BRANCH  84  85
ATOM     85  S   UNL     1      12.735  17.795   1.085  1.00  0.00     0.124 S 
ATOM     86  O   UNL     1      12.034  18.539   0.041  1.00  0.00    -0.237 OA
ATOM     87  O   UNL     1      12.960  18.522   2.332  1.00  0.00    -0.237 OA
ATOM     88  O   UNL     1      13.867  16.993   0.626  1.00  0.00    -0.744 OA
ENDBRANCH  84  85
ENDBRANCH  58  79
ENDBRANCH  32  33
ENDBRANCH  25  27
ENDBRANCH  24  25
ENDBRANCH  23  24
ENDBRANCH   1  23
TORSDOF 20
