REMARK SMILES O=C(OCCOC(=O)[C@@H]1C=C[C@H](NC(=O)[C@@H]2Cc3ccccc3O2)C1)c1ccc(-c2c3nc(c(-c4ccc(S(=O)(=O)[O-])cc4)c4ccc([nH]4)c(-c4ccc(S(=O)(=O)[O-])cc4)c4nc(c(-c5ccc(S(=O)(=O)[O-])cc5)c5ccc2[nH]5)C=C4)C=C3)cc1
REMARK SMILES IDX 4 1 3 2 2 3 1 4 26 5 27 6 85 7 28 8 84 9 29 10 30 11 31 12
REMARK SMILES IDX 78 13 32 14 83 15 77 16 79 17 33 18 82 19 76 20 75 21 34 23
REMARK SMILES IDX 64 24 45 25 63 26 46 27 49 28 62 29 80 30 47 31 48 32 61 34
REMARK SMILES IDX 81 35 50 36 35 37 36 38 44 39 37 40 43 41 38 42 39 43 40 44
REMARK SMILES IDX 41 45 42 46 65 47 66 48 74 49 67 50 73 51 68 52 69 53 70 54
REMARK SMILES IDX 71 55 72 56 51 57 52 58 60 59 53 60 59 61 54 62 55 63 56 64
REMARK SMILES IDX 57 65 58 66 5 67 6 68 7 69 8 70 9 71 10 72 25 73 11 74 12 75
REMARK SMILES IDX 13 76 14 77 15 79 16 80 17 81 24 82 18 83 23 84 19 85 22 86
REMARK SMILES IDX 20 87 21 88
REMARK H PARENT 79 22 49 33 13 78
REMARK Flexibility Score: inf
ROOT
ATOM      1  C   UNL     1       5.585   4.062  -6.642  1.00  0.00     0.275 C 
ENDROOT
BRANCH   1   2
ATOM      2  O   UNL     1       4.240   3.555  -7.013  1.00  0.00    -0.458 OA
BRANCH   2   3
ATOM      3  C   UNL     1       3.453   2.660  -6.292  1.00  0.00     0.338 C 
ATOM      4  O   UNL     1       3.306   1.502  -6.654  1.00  0.00    -0.246 OA
BRANCH   3   5
ATOM      5  C   UNL     1       2.546   3.280  -5.229  1.00  0.00     0.060 A 
ATOM      6  C   UNL     1       3.170   3.959  -4.251  1.00  0.00     0.016 A 
ATOM      7  C   UNL     1       1.138   3.421  -5.154  1.00  0.00     0.016 A 
ATOM      8  C   UNL     1       2.424   4.968  -3.553  1.00  0.00     0.010 A 
ATOM      9  C   UNL     1       0.424   4.449  -4.276  1.00  0.00     0.010 A 
ATOM     10  C   UNL     1       1.079   5.394  -3.473  1.00  0.00    -0.014 A 
BRANCH  10  11
ATOM     11  C   UNL     1       0.439   6.756  -2.643  1.00  0.00     0.031 A 
ATOM     12  C   UNL     1       0.690   7.183  -1.133  1.00  0.00     0.074 A 
ATOM     13  C   UNL     1      -0.054   7.971  -3.047  1.00  0.00     0.049 A 
ATOM     14  N   UNL     1      -0.002   6.907  -0.050  1.00  0.00    -0.248 NA
ATOM     15  C   UNL     1       1.806   8.153  -0.826  1.00  0.00     0.031 C 
ATOM     16  C   UNL     1       0.309   8.783  -4.193  1.00  0.00     0.029 A 
ATOM     17  N   UNL     1      -0.861   8.875  -2.347  1.00  0.00    -0.354 N 
ATOM     18  C   UNL     1       0.806   7.286   1.035  1.00  0.00     0.074 A 
ATOM     19  C   UNL     1       1.861   8.124   0.506  1.00  0.00     0.031 C 
ATOM     20  C   UNL     1      -0.422   9.900  -4.277  1.00  0.00     0.029 A 
ATOM     21  C   UNL     1      -1.229   9.979  -3.080  1.00  0.00     0.049 A 
ATOM     22  H   UNL     1      -1.140   8.733  -1.413  1.00  0.00     0.167 HD
ATOM     23  C   UNL     1       0.461   7.363   2.341  1.00  0.00     0.031 A 
ATOM     24  C   UNL     1      -2.034  11.028  -2.841  1.00  0.00     0.031 A 
ATOM     25  C   UNL     1      -0.494   8.338   2.788  1.00  0.00     0.049 A 
ATOM     26  C   UNL     1      -2.470  11.310  -1.445  1.00  0.00     0.074 A 
ATOM     27  C   UNL     1      -0.922   8.657   4.063  1.00  0.00     0.029 A 
ATOM     28  N   UNL     1      -1.104   9.230   1.923  1.00  0.00    -0.354 N 
ATOM     29  N   UNL     1      -2.101  10.705  -0.344  1.00  0.00    -0.248 NA
ATOM     30  C   UNL     1      -3.345  12.469  -1.243  1.00  0.00     0.031 C 
ATOM     31  C   UNL     1      -1.778   9.767   3.965  1.00  0.00     0.029 A 
ATOM     32  C   UNL     1      -1.859  10.138   2.632  1.00  0.00     0.049 A 
ATOM     33  H   UNL     1      -1.012   9.217   0.942  1.00  0.00     0.167 HD
ATOM     34  C   UNL     1      -2.657  11.446   0.691  1.00  0.00     0.074 A 
ATOM     35  C   UNL     1      -3.383  12.541   0.081  1.00  0.00     0.031 C 
ATOM     36  C   UNL     1      -2.559  11.238   2.026  1.00  0.00     0.031 A 
BRANCH  23  37
ATOM     37  C   UNL     1       1.222   6.513   3.327  1.00  0.00    -0.014 A 
ATOM     38  C   UNL     1       2.580   6.685   3.651  1.00  0.00     0.010 A 
ATOM     39  C   UNL     1       0.504   5.511   4.012  1.00  0.00     0.010 A 
ATOM     40  C   UNL     1       3.212   5.841   4.586  1.00  0.00     0.020 A 
ATOM     41  C   UNL     1       1.123   4.673   4.948  1.00  0.00     0.020 A 
ATOM     42  C   UNL     1       2.484   4.822   5.208  1.00  0.00     0.054 A 
BRANCH  42  43
ATOM     43  S   UNL     1       3.319   3.694   6.366  1.00  0.00     0.124 S 
ATOM     44  O   UNL     1       3.991   2.767   5.458  1.00  0.00    -0.237 OA
ATOM     45  O   UNL     1       4.204   4.584   7.116  1.00  0.00    -0.237 OA
ATOM     46  O   UNL     1       2.223   3.119   7.143  1.00  0.00    -0.744 OA
ENDBRANCH  42  43
ENDBRANCH  23  37
BRANCH  24  47
ATOM     47  C   UNL     1      -2.443  11.872  -4.001  1.00  0.00    -0.014 A 
ATOM     48  C   UNL     1      -2.058  13.213  -4.147  1.00  0.00     0.010 A 
ATOM     49  C   UNL     1      -3.215  11.269  -5.017  1.00  0.00     0.010 A 
ATOM     50  C   UNL     1      -2.465  13.942  -5.272  1.00  0.00     0.020 A 
ATOM     51  C   UNL     1      -3.604  11.984  -6.149  1.00  0.00     0.020 A 
ATOM     52  C   UNL     1      -3.238  13.324  -6.262  1.00  0.00     0.054 A 
BRANCH  52  53
ATOM     53  S   UNL     1      -3.744  14.284  -7.715  1.00  0.00     0.124 S 
ATOM     54  O   UNL     1      -4.692  15.231  -7.137  1.00  0.00    -0.237 OA
ATOM     55  O   UNL     1      -2.477  14.851  -8.170  1.00  0.00    -0.237 OA
ATOM     56  O   UNL     1      -4.326  13.281  -8.605  1.00  0.00    -0.744 OA
ENDBRANCH  52  53
ENDBRANCH  24  47
BRANCH  36  57
ATOM     57  C   UNL     1      -3.232  12.219   2.931  1.00  0.00    -0.014 A 
ATOM     58  C   UNL     1      -4.628  12.197   3.083  1.00  0.00     0.010 A 
ATOM     59  C   UNL     1      -2.461  13.114   3.694  1.00  0.00     0.010 A 
ATOM     60  C   UNL     1      -5.247  13.062   3.983  1.00  0.00     0.020 A 
ATOM     61  C   UNL     1      -3.077  13.968   4.611  1.00  0.00     0.020 A 
ATOM     62  C   UNL     1      -4.467  13.936   4.747  1.00  0.00     0.054 A 
BRANCH  62  63
ATOM     63  S   UNL     1      -5.295  14.978   5.978  1.00  0.00     0.124 S 
ATOM     64  O   UNL     1      -5.943  15.982   5.138  1.00  0.00    -0.237 OA
ATOM     65  O   UNL     1      -6.195  14.035   6.639  1.00  0.00    -0.237 OA
ATOM     66  O   UNL     1      -4.199  15.470   6.808  1.00  0.00    -0.744 OA
ENDBRANCH  62  63
ENDBRANCH  36  57
ENDBRANCH  10  11
ENDBRANCH   3   5
ENDBRANCH   2   3
ENDBRANCH   1   2
BRANCH   1  67
ATOM     67  C   UNL     1       6.011   5.335  -7.443  1.00  0.00     0.274 C 
BRANCH  67  68
ATOM     68  O   UNL     1       5.027   6.359  -7.358  1.00  0.00    -0.462 OA
BRANCH  68  69
ATOM     69  C   UNL     1       4.028   6.279  -8.281  1.00  0.00     0.312 C 
ATOM     70  O   UNL     1       4.139   5.823  -9.417  1.00  0.00    -0.252 OA
BRANCH  69  71
ATOM     71  C   UNL     1       2.737   6.740  -7.645  1.00  0.00     0.124 C 
ATOM     72  C   UNL     1       2.705   8.201  -7.416  1.00  0.00    -0.014 C 
ATOM     73  C   UNL     1       2.688   6.205  -6.211  1.00  0.00     0.048 C 
ATOM     74  C   UNL     1       2.872   8.519  -6.118  1.00  0.00    -0.006 C 
ATOM     75  C   UNL     1       2.843   7.324  -5.161  1.00  0.00     0.106 C 
BRANCH  75  76
ATOM     76  N   UNL     1       3.873   7.416  -3.924  1.00  0.00    -0.347 N 
ATOM     77  C   UNL     1       4.244   7.069  -2.565  1.00  0.00     0.261 C 
ATOM     78  H   UNL     1       4.609   7.984  -4.249  1.00  0.00     0.164 HD
ATOM     79  O   UNL     1       5.146   7.843  -2.171  1.00  0.00    -0.271 OA
BRANCH  77  80
ATOM     80  C   UNL     1       3.757   5.817  -1.282  1.00  0.00     0.266 C 
ATOM     81  C   UNL     1       4.322   4.339  -1.127  1.00  0.00     0.095 C 
ATOM     82  O   UNL     1       2.380   5.618  -0.913  1.00  0.00    -0.480 OA
ATOM     83  C   UNL     1       3.104   3.484  -0.810  1.00  0.00    -0.002 A 
ATOM     84  C   UNL     1       2.026   4.316  -0.710  1.00  0.00     0.123 A 
ATOM     85  C   UNL     1       2.875   2.122  -0.615  1.00  0.00     0.008 A 
ATOM     86  C   UNL     1       0.707   3.865  -0.532  1.00  0.00     0.047 A 
ATOM     87  C   UNL     1       1.555   1.637  -0.403  1.00  0.00     0.001 A 
ATOM     88  C   UNL     1       0.465   2.506  -0.392  1.00  0.00     0.004 A 
ENDBRANCH  77  80
ENDBRANCH  75  76
ENDBRANCH  69  71
ENDBRANCH  68  69
ENDBRANCH  67  68
ENDBRANCH   1  67
TORSDOF 16
