REMARK SMILES COc1cc(OC)nc(Oc2ccccc2C(=O)NCC(=O)OCCOC(=O)c2ccc(-c3c4nc(c(-c5ccc(S(=O)(=O)[O-])cc5)c5ccc([nH]5)c(-c5ccc(S(=O)(=O)[O-])cc5)c5nc(c(-c6ccc(S(=O)(=O)[O-])cc6)c6ccc3[nH]6)C=C5)C=C4)cc2)n1
REMARK SMILES IDX 24 1 23 2 21 3 22 4 20 5 19 6 17 7 18 8 16 10 11 11 12 12
REMARK SMILES IDX 13 13 15 14 14 15 10 16 9 17 3 18 4 19 89 20 5 21 8 22 2 23
REMARK SMILES IDX 1 24 6 25 7 26 25 27 26 28 27 29 28 30 29 31 30 32 88 33
REMARK SMILES IDX 31 34 87 35 32 36 33 37 34 38 81 39 35 40 86 41 80 42 82 43
REMARK SMILES IDX 36 44 85 45 79 46 78 47 37 49 67 50 48 51 66 52 49 53 52 54
REMARK SMILES IDX 65 55 83 56 50 57 51 58 64 60 84 61 53 62 38 63 39 64 47 65
REMARK SMILES IDX 40 66 46 67 41 68 42 69 43 70 44 71 45 72 68 73 69 74 77 75
REMARK SMILES IDX 70 76 76 77 71 78 72 79 73 80 74 81 75 82 54 83 55 84 63 85
REMARK SMILES IDX 56 86 62 87 57 88 58 89 59 90 60 91 61 92
REMARK H PARENT 19 9 82 48 52 59
REMARK Flexibility Score: inf
ROOT
ATOM      1  C   UNL     1      -2.982  -1.676   5.902  1.00  0.00     0.274 C 
ENDROOT
BRANCH   1   2
ATOM      2  O   UNL     1      -1.967  -2.690   5.781  1.00  0.00    -0.461 OA
BRANCH   2   3
ATOM      3  C   UNL     1      -1.972  -3.279   4.564  1.00  0.00     0.325 C 
ATOM      4  O   UNL     1      -2.873  -3.154   3.734  1.00  0.00    -0.250 OA
BRANCH   3   5
ATOM      5  C   UNL     1      -0.683  -3.959   4.178  1.00  0.00     0.239 C 
BRANCH   5   6
ATOM      6  N   UNL     1       0.458  -4.373   4.967  1.00  0.00    -0.341 N 
ATOM      7  C   UNL     1       1.299  -5.425   4.643  1.00  0.00     0.255 C 
ATOM      8  O   UNL     1       2.382  -5.554   5.208  1.00  0.00    -0.269 OA
ATOM      9  H   UNL     1       0.649  -3.871   5.792  1.00  0.00     0.164 HD
BRANCH   7  10
ATOM     10  C   UNL     1       0.782  -6.534   3.791  1.00  0.00     0.082 A 
ATOM     11  C   UNL     1       0.247  -6.439   2.495  1.00  0.00     0.143 A 
ATOM     12  C   UNL     1      -0.595  -7.485   2.057  1.00  0.00     0.048 A 
ATOM     13  C   UNL     1      -0.818  -8.630   2.832  1.00  0.00     0.004 A 
ATOM     14  C   UNL     1       0.631  -7.735   4.521  1.00  0.00     0.018 A 
ATOM     15  C   UNL     1      -0.165  -8.776   4.047  1.00  0.00     0.001 A 
BRANCH  11  16
ATOM     16  O   UNL     1       0.243  -5.372   1.617  1.00  0.00    -0.423 OA
BRANCH  16  17
ATOM     17  C   UNL     1       1.221  -4.389   1.629  1.00  0.00     0.328 A 
ATOM     18  C   UNL     1       1.629  -2.103   1.462  1.00  0.00     0.223 A 
ATOM     19  C   UNL     1       2.971  -2.334   1.624  1.00  0.00     0.137 A 
ATOM     20  N   UNL     1       0.757  -3.141   1.435  1.00  0.00    -0.159 NA
ATOM     21  C   UNL     1       3.345  -3.670   1.710  1.00  0.00     0.223 A 
ATOM     22  N   UNL     1       2.498  -4.716   1.741  1.00  0.00    -0.159 NA
BRANCH  18  23
ATOM     23  O   UNL     1       1.225  -0.680   1.288  1.00  0.00    -0.481 OA
ATOM     24  C   UNL     1      -0.065   0.762   0.724  1.00  0.00     0.280 C 
ENDBRANCH  18  23
BRANCH  21  25
ATOM     25  O   UNL     1       4.660  -4.044   1.789  1.00  0.00    -0.481 OA
ATOM     26  C   UNL     1       5.458  -3.462   0.763  1.00  0.00     0.280 C 
ENDBRANCH  21  25
ENDBRANCH  16  17
ENDBRANCH  11  16
ENDBRANCH   7  10
ENDBRANCH   5   6
ENDBRANCH   3   5
ENDBRANCH   2   3
ENDBRANCH   1   2
BRANCH   1  27
ATOM     27  C   UNL     1      -2.430  -0.306   5.494  1.00  0.00     0.275 C 
BRANCH  27  28
ATOM     28  O   UNL     1      -1.995  -0.273   4.115  1.00  0.00    -0.458 OA
BRANCH  28  29
ATOM     29  C   UNL     1      -0.689  -0.580   3.961  1.00  0.00     0.338 C 
ATOM     30  O   UNL     1       0.093  -0.906   4.845  1.00  0.00    -0.246 OA
BRANCH  29  31
ATOM     31  C   UNL     1      -0.199  -0.347   2.613  1.00  0.00     0.060 A 
ATOM     32  C   UNL     1      -0.688  -1.222   1.115  1.00  0.00     0.016 A 
ATOM     33  C   UNL     1       1.188   0.787   2.589  1.00  0.00     0.016 A 
ATOM     34  C   UNL     1       0.324  -1.015  -0.408  1.00  0.00     0.010 A 
ATOM     35  C   UNL     1       2.112   1.052   1.095  1.00  0.00     0.010 A 
ATOM     36  C   UNL     1       1.724   0.151  -0.426  1.00  0.00    -0.014 A 
BRANCH  36  37
ATOM     37  C   UNL     1       2.386   0.693  -1.676  1.00  0.00     0.031 A 
ATOM     38  C   UNL     1       3.803   1.279  -1.643  1.00  0.00     0.074 A 
ATOM     39  C   UNL     1       1.631   0.924  -2.775  1.00  0.00     0.049 A 
ATOM     40  N   UNL     1       4.393   2.088  -2.495  1.00  0.00    -0.248 NA
ATOM     41  C   UNL     1       4.639   0.983  -0.467  1.00  0.00     0.031 C 
ATOM     42  C   UNL     1       0.225   0.564  -2.945  1.00  0.00     0.029 A 
ATOM     43  N   UNL     1       1.926   1.577  -3.953  1.00  0.00    -0.354 N 
ATOM     44  C   UNL     1       5.616   2.451  -1.919  1.00  0.00     0.074 A 
ATOM     45  C   UNL     1       5.651   1.829  -0.616  1.00  0.00     0.031 C 
ATOM     46  C   UNL     1      -0.209   0.947  -4.147  1.00  0.00     0.029 A 
ATOM     47  C   UNL     1       0.853   1.672  -4.814  1.00  0.00     0.049 A 
ATOM     48  H   UNL     1       2.817   1.941  -4.159  1.00  0.00     0.167 HD
ATOM     49  C   UNL     1       6.630   3.200  -2.431  1.00  0.00     0.031 A 
ATOM     50  C   UNL     1       0.688   2.290  -5.997  1.00  0.00     0.031 A 
ATOM     51  C   UNL     1       6.623   3.740  -3.769  1.00  0.00     0.049 A 
ATOM     52  C   UNL     1       1.840   3.027  -6.591  1.00  0.00     0.074 A 
ATOM     53  C   UNL     1       7.649   4.374  -4.450  1.00  0.00     0.029 A 
ATOM     54  N   UNL     1       5.542   3.690  -4.637  1.00  0.00    -0.354 N 
ATOM     55  N   UNL     1       3.011   3.271  -6.058  1.00  0.00    -0.248 NA
ATOM     56  C   UNL     1       1.665   3.544  -7.952  1.00  0.00     0.031 C 
ATOM     57  C   UNL     1       7.174   4.750  -5.710  1.00  0.00     0.029 A 
ATOM     58  C   UNL     1       5.873   4.291  -5.839  1.00  0.00     0.049 A 
ATOM     59  H   UNL     1       4.668   3.287  -4.429  1.00  0.00     0.167 HD
ATOM     60  C   UNL     1       3.732   3.935  -7.038  1.00  0.00     0.074 A 
ATOM     61  C   UNL     1       2.866   4.053  -8.194  1.00  0.00     0.031 C 
ATOM     62  C   UNL     1       5.004   4.395  -6.983  1.00  0.00     0.031 A 
BRANCH  49  63
ATOM     63  C   UNL     1       7.865   3.453  -1.580  1.00  0.00    -0.014 A 
ATOM     64  C   UNL     1       8.708   2.399  -1.178  1.00  0.00     0.010 A 
ATOM     65  C   UNL     1       8.247   4.771  -1.251  1.00  0.00     0.010 A 
ATOM     66  C   UNL     1       9.860   2.646  -0.422  1.00  0.00     0.020 A 
ATOM     67  C   UNL     1       9.420   5.027  -0.527  1.00  0.00     0.020 A 
ATOM     68  C   UNL     1      10.208   3.959  -0.097  1.00  0.00     0.054 A 
BRANCH  68  69
ATOM     69  S   UNL     1      11.719   4.243   0.870  1.00  0.00     0.124 S 
ATOM     70  O   UNL     1      11.334   3.738   2.185  1.00  0.00    -0.237 OA
ATOM     71  O   UNL     1      12.711   3.442   0.157  1.00  0.00    -0.237 OA
ATOM     72  O   UNL     1      11.917   5.689   0.793  1.00  0.00    -0.744 OA
ENDBRANCH  68  69
ENDBRANCH  49  63
BRANCH  50  73
ATOM     73  C   UNL     1      -0.615   2.159  -6.707  1.00  0.00    -0.014 A 
ATOM     74  C   UNL     1      -0.726   1.286  -7.803  1.00  0.00     0.010 A 
ATOM     75  C   UNL     1      -1.771   2.805  -6.227  1.00  0.00     0.010 A 
ATOM     76  C   UNL     1      -1.963   1.070  -8.414  1.00  0.00     0.020 A 
ATOM     77  C   UNL     1      -3.017   2.565  -6.815  1.00  0.00     0.020 A 
ATOM     78  C   UNL     1      -3.102   1.705  -7.912  1.00  0.00     0.054 A 
BRANCH  78  79
ATOM     79  S   UNL     1      -4.705   1.348  -8.683  1.00  0.00     0.124 S 
ATOM     80  O   UNL     1      -4.580   2.029  -9.968  1.00  0.00    -0.237 OA
ATOM     81  O   UNL     1      -4.710  -0.112  -8.737  1.00  0.00    -0.237 OA
ATOM     82  O   UNL     1      -5.670   1.933  -7.754  1.00  0.00    -0.744 OA
ENDBRANCH  78  79
ENDBRANCH  50  73
BRANCH  62  83
ATOM     83  C   UNL     1       5.561   5.022  -8.227  1.00  0.00    -0.014 A 
ATOM     84  C   UNL     1       5.153   6.300  -8.644  1.00  0.00     0.010 A 
ATOM     85  C   UNL     1       6.561   4.344  -8.948  1.00  0.00     0.010 A 
ATOM     86  C   UNL     1       5.733   6.888  -9.769  1.00  0.00     0.020 A 
ATOM     87  C   UNL     1       7.163   4.941 -10.055  1.00  0.00     0.020 A 
ATOM     88  C   UNL     1       6.741   6.208 -10.461  1.00  0.00     0.054 A 
BRANCH  88  89
ATOM     89  S   UNL     1       7.541   7.035 -11.861  1.00  0.00     0.124 S 
ATOM     90  O   UNL     1       6.488   7.006 -12.873  1.00  0.00    -0.237 OA
ATOM     91  O   UNL     1       7.853   8.354 -11.315  1.00  0.00    -0.237 OA
ATOM     92  O   UNL     1       8.701   6.194 -12.145  1.00  0.00    -0.744 OA
ENDBRANCH  88  89
ENDBRANCH  62  83
ENDBRANCH  36  37
ENDBRANCH  29  31
ENDBRANCH  28  29
ENDBRANCH  27  28
ENDBRANCH   1  27
TORSDOF 20
