REMARK SMILES COc1ccc(N2C(=O)N=C(OCCOC(=O)c3ccc(-c4c5nc(c(-c6ccc(S(=O)(=O)[O-])cc6)c6ccc([nH]6)c(-c6ccc(S(=O)(=O)[O-])cc6)c6nc(c(-c7ccc(S(=O)(=O)[O-])cc7)c7ccc4[nH]7)C=C6)C=C5)cc3)/C(=C\c3cc(Cl)c(OCC(=O)[O-])c(Cl)c3)C2=O)cc1
REMARK SMILES IDX 13 1 12 2 11 3 7 4 8 5 93 6 9 7 10 8 78 9 94 10 79 11 6 12
REMARK SMILES IDX 3 13 4 14 96 15 5 16 95 17 2 18 1 19 80 20 81 21 92 22 82 23
REMARK SMILES IDX 90 24 83 25 84 26 91 27 85 28 86 29 87 30 88 31 89 32 14 33
REMARK SMILES IDX 15 34 16 35 17 36 18 37 19 38 77 39 20 40 76 41 21 42 22 43
REMARK SMILES IDX 23 44 70 45 24 46 75 47 69 48 71 49 25 50 74 51 68 52 67 53
REMARK SMILES IDX 26 55 56 56 37 57 55 58 38 59 41 60 54 61 72 62 39 63 40 64
REMARK SMILES IDX 53 66 73 67 42 68 27 69 28 70 36 71 29 72 35 73 30 74 31 75
REMARK SMILES IDX 32 76 33 77 34 78 57 79 58 80 66 81 59 82 65 83 60 84 61 85
REMARK SMILES IDX 62 86 63 87 64 88 43 89 44 90 52 91 45 92 51 93 46 94 47 95
REMARK SMILES IDX 48 96 49 97 50 98
REMARK H PARENT 71 54 41 65
REMARK Flexibility Score: inf
ROOT
ATOM      1  C   UNL     1       4.959   7.207  -6.773  1.00  0.00     0.273 C 
ENDROOT
BRANCH   1   2
ATOM      2  O   UNL     1       4.005   6.611  -7.669  1.00  0.00    -0.473 OA
BRANCH   2   3
ATOM      3  C   UNL     1       3.009   5.895  -7.124  1.00  0.00     0.231 C 
ATOM      4  N   UNL     1       1.374   4.226  -5.809  1.00  0.00    -0.226 N 
ATOM      5  C   UNL     1       1.419   5.597  -5.517  1.00  0.00     0.358 C 
ATOM      6  C   UNL     1       1.829   3.698  -7.026  1.00  0.00     0.272 C 
ATOM      7  O   UNL     1       0.660   6.115  -4.705  1.00  0.00    -0.245 OA
ATOM      8  N   UNL     1       2.345   6.381  -6.148  1.00  0.00    -0.156 NA
ATOM      9  C   UNL     1       2.854   4.560  -7.718  1.00  0.00     0.103 C 
ATOM     10  O   UNL     1       1.557   2.590  -7.482  1.00  0.00    -0.268 OA
ATOM     11  C   UNL     1       3.637   4.026  -8.691  1.00  0.00     0.027 C 
BRANCH   4  12
ATOM     12  C   UNL     1       0.874   3.358  -4.767  1.00  0.00     0.054 A 
ATOM     13  C   UNL     1       0.199   1.579  -2.658  1.00  0.00     0.119 A 
ATOM     14  C   UNL     1      -0.327   1.414  -3.944  1.00  0.00     0.048 A 
ATOM     15  C   UNL     1       1.056   2.644  -2.417  1.00  0.00     0.048 A 
ATOM     16  C   UNL     1       0.028   2.273  -5.000  1.00  0.00     0.031 A 
ATOM     17  C   UNL     1       1.368   3.536  -3.454  1.00  0.00     0.031 A 
BRANCH  13  18
ATOM     18  O   UNL     1      -0.205   0.654  -1.737  1.00  0.00    -0.497 OA
ATOM     19  C   UNL     1       0.515   0.594  -0.508  1.00  0.00     0.278 C 
ENDBRANCH  13  18
ENDBRANCH   4  12
BRANCH  11  20
ATOM     20  C   UNL     1       4.706   4.707  -9.464  1.00  0.00    -0.021 A 
ATOM     21  C   UNL     1       4.400   5.233 -10.721  1.00  0.00     0.032 A 
ATOM     22  C   UNL     1       5.993   4.932  -8.950  1.00  0.00     0.032 A 
ATOM     23  C   UNL     1       5.306   6.073 -11.384  1.00  0.00     0.085 A 
ATOM     24  C   UNL     1       6.885   5.810  -9.594  1.00  0.00     0.085 A 
ATOM     25  Cl  UNL     1       4.865   6.668 -12.947  1.00  0.00    -0.080 Cl
ATOM     26  C   UNL     1       6.520   6.439 -10.788  1.00  0.00     0.157 A 
ATOM     27  Cl  UNL     1       8.418   6.090  -8.846  1.00  0.00    -0.080 Cl
BRANCH  26  28
ATOM     28  O   UNL     1       7.324   7.331 -11.451  1.00  0.00    -0.485 OA
BRANCH  28  29
ATOM     29  C   UNL     1       7.514   8.587 -10.809  1.00  0.00     0.282 C 
BRANCH  29  30
ATOM     30  C   UNL     1       6.497   9.209  -9.851  1.00  0.00     0.079 C 
ATOM     31  O   UNL     1       6.711   9.558  -8.700  1.00  0.00    -0.546 OA
ATOM     32  O   UNL     1       5.285   9.407 -10.405  1.00  0.00    -0.546 OA
ENDBRANCH  29  30
ENDBRANCH  28  29
ENDBRANCH  26  28
ENDBRANCH  11  20
ENDBRANCH   2   3
ENDBRANCH   1   2
BRANCH   1  33
ATOM     33  C   UNL     1       5.422   6.361  -5.566  1.00  0.00     0.274 C 
BRANCH  33  34
ATOM     34  O   UNL     1       5.353   4.929  -5.761  1.00  0.00    -0.458 OA
BRANCH  34  35
ATOM     35  C   UNL     1       5.995   4.211  -4.789  1.00  0.00     0.338 C 
ATOM     36  O   UNL     1       6.720   4.686  -3.929  1.00  0.00    -0.246 OA
BRANCH  35  37
ATOM     37  C   UNL     1       5.607   2.771  -4.777  1.00  0.00     0.060 A 
ATOM     38  C   UNL     1       4.291   2.427  -5.039  1.00  0.00     0.016 A 
ATOM     39  C   UNL     1       6.444   1.797  -4.229  1.00  0.00     0.016 A 
ATOM     40  C   UNL     1       3.751   1.222  -4.588  1.00  0.00     0.010 A 
ATOM     41  C   UNL     1       5.917   0.550  -3.828  1.00  0.00     0.010 A 
ATOM     42  C   UNL     1       4.531   0.307  -3.878  1.00  0.00    -0.014 A 
BRANCH  42  43
ATOM     43  C   UNL     1       3.847  -0.645  -2.927  1.00  0.00     0.031 A 
ATOM     44  C   UNL     1       4.145  -0.522  -1.441  1.00  0.00     0.074 A 
ATOM     45  C   UNL     1       2.821  -1.449  -3.287  1.00  0.00     0.049 A 
ATOM     46  N   UNL     1       3.790  -1.297  -0.446  1.00  0.00    -0.248 NA
ATOM     47  C   UNL     1       4.945   0.641  -1.019  1.00  0.00     0.031 C 
ATOM     48  C   UNL     1       2.264  -1.569  -4.635  1.00  0.00     0.029 A 
ATOM     49  N   UNL     1       2.006  -2.260  -2.526  1.00  0.00    -0.354 N 
ATOM     50  C   UNL     1       4.420  -0.780   0.684  1.00  0.00     0.074 A 
ATOM     51  C   UNL     1       5.162   0.383   0.260  1.00  0.00     0.031 C 
ATOM     52  C   UNL     1       1.140  -2.304  -4.583  1.00  0.00     0.029 A 
ATOM     53  C   UNL     1       0.958  -2.816  -3.227  1.00  0.00     0.049 A 
ATOM     54  H   UNL     1       2.159  -2.427  -1.568  1.00  0.00     0.167 HD
ATOM     55  C   UNL     1       4.386  -1.224   1.964  1.00  0.00     0.031 A 
ATOM     56  C   UNL     1      -0.019  -3.667  -2.841  1.00  0.00     0.031 A 
ATOM     57  C   UNL     1       3.553  -2.303   2.419  1.00  0.00     0.049 A 
ATOM     58  C   UNL     1      -0.024  -4.184  -1.425  1.00  0.00     0.074 A 
ATOM     59  C   UNL     1       3.487  -2.873   3.679  1.00  0.00     0.029 A 
ATOM     60  N   UNL     1       2.601  -2.942   1.641  1.00  0.00    -0.354 N 
ATOM     61  N   UNL     1       0.740  -3.840  -0.414  1.00  0.00    -0.248 NA
ATOM     62  C   UNL     1      -0.998  -5.240  -1.108  1.00  0.00     0.031 C 
ATOM     63  C   UNL     1       2.514  -3.879   3.653  1.00  0.00     0.029 A 
ATOM     64  C   UNL     1       1.937  -3.895   2.394  1.00  0.00     0.049 A 
ATOM     65  H   UNL     1       2.423  -2.747   0.693  1.00  0.00     0.167 HD
ATOM     66  C   UNL     1       0.344  -4.643   0.652  1.00  0.00     0.074 A 
ATOM     67  C   UNL     1      -0.753  -5.460   0.177  1.00  0.00     0.031 C 
ATOM     68  C   UNL     1       0.856  -4.712   1.907  1.00  0.00     0.031 A 
BRANCH  55  69
ATOM     69  C   UNL     1       5.353  -0.598   2.936  1.00  0.00    -0.014 A 
ATOM     70  C   UNL     1       5.187   0.705   3.438  1.00  0.00     0.010 A 
ATOM     71  C   UNL     1       6.476  -1.346   3.337  1.00  0.00     0.010 A 
ATOM     72  C   UNL     1       6.159   1.268   4.273  1.00  0.00     0.020 A 
ATOM     73  C   UNL     1       7.432  -0.800   4.196  1.00  0.00     0.020 A 
ATOM     74  C   UNL     1       7.280   0.514   4.638  1.00  0.00     0.054 A 
BRANCH  74  75
ATOM     75  S   UNL     1       8.537   1.269   5.707  1.00  0.00     0.124 S 
ATOM     76  O   UNL     1       9.197   2.192   4.788  1.00  0.00    -0.237 OA
ATOM     77  O   UNL     1       7.733   1.894   6.755  1.00  0.00    -0.237 OA
ATOM     78  O   UNL     1       9.349   0.135   6.142  1.00  0.00    -0.744 OA
ENDBRANCH  74  75
ENDBRANCH  55  69
BRANCH  56  79
ATOM     79  C   UNL     1      -1.024  -4.162  -3.833  1.00  0.00    -0.014 A 
ATOM     80  C   UNL     1      -2.398  -3.894  -3.686  1.00  0.00     0.010 A 
ATOM     81  C   UNL     1      -0.603  -4.925  -4.939  1.00  0.00     0.010 A 
ATOM     82  C   UNL     1      -3.323  -4.372  -4.625  1.00  0.00     0.020 A 
ATOM     83  C   UNL     1      -1.516  -5.368  -5.900  1.00  0.00     0.020 A 
ATOM     84  C   UNL     1      -2.874  -5.098  -5.732  1.00  0.00     0.054 A 
BRANCH  84  85
ATOM     85  S   UNL     1      -4.068  -5.638  -6.989  1.00  0.00     0.124 S 
ATOM     86  O   UNL     1      -4.687  -6.792  -6.345  1.00  0.00    -0.237 OA
ATOM     87  O   UNL     1      -4.923  -4.464  -7.143  1.00  0.00    -0.237 OA
ATOM     88  O   UNL     1      -3.228  -5.941  -8.146  1.00  0.00    -0.744 OA
ENDBRANCH  84  85
ENDBRANCH  56  79
BRANCH  68  89
ATOM     89  C   UNL     1       0.223  -5.691   2.860  1.00  0.00    -0.014 A 
ATOM     90  C   UNL     1       0.408  -7.077   2.711  1.00  0.00     0.010 A 
ATOM     91  C   UNL     1      -0.548  -5.215   3.936  1.00  0.00     0.010 A 
ATOM     92  C   UNL     1      -0.210  -7.971   3.590  1.00  0.00     0.020 A 
ATOM     93  C   UNL     1      -1.145  -6.105   4.833  1.00  0.00     0.020 A 
ATOM     94  C   UNL     1      -0.991  -7.479   4.640  1.00  0.00     0.054 A 
BRANCH  94  95
ATOM     95  S   UNL     1      -1.784  -8.657   5.769  1.00  0.00     0.124 S 
ATOM     96  O   UNL     1      -2.890  -9.155   4.958  1.00  0.00    -0.237 OA
ATOM     97  O   UNL     1      -0.716  -9.618   6.035  1.00  0.00    -0.237 OA
ATOM     98  O   UNL     1      -2.170  -7.833   6.912  1.00  0.00    -0.744 OA
ENDBRANCH  94  95
ENDBRANCH  68  89
ENDBRANCH  42  43
ENDBRANCH  35  37
ENDBRANCH  34  35
ENDBRANCH  33  34
ENDBRANCH   1  33
TORSDOF 19
