REMARK SMILES CC1=C(CC(=O)OCCOC(=O)c2ccc(-c3c4nc(c(-c5ccc(S(=O)(=O)[O-])cc5)c5ccc([nH]5)c(-c5ccc(S(=O)(=O)[O-])cc5)c5nc(c(-c6ccc(S(=O)(=O)[O-])cc6)c6ccc3[nH]6)C=C5)C=C4)cc2)c2cc(F)ccc2/C1=C\c1ccc([S@@+](C)[O-])cc1
REMARK SMILES IDX 8 1 7 2 5 3 6 4 4 5 3 6 1 7 2 8 80 9 73 10 79 11 81 12 74 13
REMARK SMILES IDX 78 14 75 15 77 16 76 17 82 18 83 19 90 20 84 21 89 22 85 23
REMARK SMILES IDX 86 24 87 25 88 26 9 27 10 28 11 29 12 30 13 31 14 32 72 33
REMARK SMILES IDX 15 34 71 35 16 36 17 37 18 38 65 39 19 40 70 41 64 42 66 43
REMARK SMILES IDX 20 44 69 45 63 46 62 47 21 49 51 50 32 51 50 52 33 53 36 54
REMARK SMILES IDX 49 55 67 56 34 57 35 58 48 60 68 61 37 62 22 63 23 64 31 65
REMARK SMILES IDX 24 66 30 67 25 68 26 69 27 70 28 71 29 72 52 73 53 74 61 75
REMARK SMILES IDX 54 76 60 77 55 78 56 79 57 80 58 81 59 82 38 83 39 84 47 85
REMARK SMILES IDX 40 86 46 87 41 88 42 89 43 90 44 91 45 92
REMARK H PARENT 66 48 36 59
REMARK Flexibility Score: inf
ROOT
ATOM      1  C   UNL     1      -2.161  -4.079  -0.186  1.00  0.00     0.274 C 
ENDROOT
BRANCH   1   2
ATOM      2  O   UNL     1      -1.183  -3.120  -0.640  1.00  0.00    -0.462 OA
BRANCH   2   3
ATOM      3  C   UNL     1       0.108  -3.404  -0.327  1.00  0.00     0.310 C 
ATOM      4  O   UNL     1       0.465  -4.375   0.333  1.00  0.00    -0.252 OA
BRANCH   3   5
ATOM      5  C   UNL     1       1.122  -2.409  -0.873  1.00  0.00     0.159 C 
BRANCH   5   6
ATOM      6  C   UNL     1       0.600  -1.268  -1.680  1.00  0.00    -0.025 C 
ATOM      7  C   UNL     1       0.576   0.534   0.097  1.00  0.00     0.045 C 
ATOM      8  C   UNL     1       0.378   0.006  -1.284  1.00  0.00    -0.039 C 
ATOM      9  C   UNL     1      -0.055   0.814  -2.436  1.00  0.00    -0.014 C 
ATOM     10  C   UNL     1       0.369  -1.336  -3.131  1.00  0.00    -0.011 A 
ATOM     11  C   UNL     1      -0.038  -0.082  -3.614  1.00  0.00    -0.010 A 
ATOM     12  C   UNL     1      -0.382   2.120  -2.378  1.00  0.00     0.017 C 
ATOM     13  C   UNL     1       0.544  -2.401  -4.002  1.00  0.00     0.048 A 
ATOM     14  C   UNL     1      -0.286   0.095  -4.972  1.00  0.00     0.012 A 
ATOM     15  C   UNL     1       0.269  -2.220  -5.353  1.00  0.00     0.123 A 
ATOM     16  C   UNL     1      -0.147  -0.987  -5.844  1.00  0.00     0.040 A 
ATOM     17  F   UNL     1       0.430  -3.243  -6.201  1.00  0.00    -0.207 F 
BRANCH  12  18
ATOM     18  C   UNL     1      -0.796   2.916  -3.534  1.00  0.00    -0.025 A 
ATOM     19  C   UNL     1      -2.090   2.789  -4.050  1.00  0.00     0.013 A 
ATOM     20  C   UNL     1       0.155   3.670  -4.225  1.00  0.00     0.013 A 
ATOM     21  C   UNL     1      -2.395   3.312  -5.311  1.00  0.00     0.061 A 
ATOM     22  C   UNL     1      -0.159   4.211  -5.473  1.00  0.00     0.061 A 
ATOM     23  C   UNL     1      -1.421   4.003  -6.045  1.00  0.00     0.152 A 
BRANCH  23  24
ATOM     24  S   UNL     1      -1.679   4.460  -7.779  1.00  0.00    -0.018 S 
ATOM     25  C   UNL     1      -3.348   5.132  -7.691  1.00  0.00     0.346 C 
ATOM     26  O   UNL     1      -0.701   5.650  -8.085  1.00  0.00    -0.612 OA
ENDBRANCH  23  24
ENDBRANCH  12  18
ENDBRANCH   5   6
ENDBRANCH   3   5
ENDBRANCH   2   3
ENDBRANCH   1   2
BRANCH   1  27
ATOM     27  C   UNL     1      -2.582  -5.002  -1.326  1.00  0.00     0.275 C 
BRANCH  27  28
ATOM     28  O   UNL     1      -1.424  -5.670  -1.852  1.00  0.00    -0.458 OA
BRANCH  28  29
ATOM     29  C   UNL     1      -1.213  -5.510  -3.179  1.00  0.00     0.338 C 
ATOM     30  O   UNL     1      -1.927  -4.929  -3.976  1.00  0.00    -0.246 OA
BRANCH  29  31
ATOM     31  C   UNL     1       0.045  -6.179  -3.553  1.00  0.00     0.060 A 
ATOM     32  C   UNL     1       0.035  -7.068  -4.625  1.00  0.00     0.016 A 
ATOM     33  C   UNL     1       1.245  -5.859  -2.912  1.00  0.00     0.016 A 
ATOM     34  C   UNL     1       1.228  -7.669  -5.025  1.00  0.00     0.010 A 
ATOM     35  C   UNL     1       2.449  -6.380  -3.382  1.00  0.00     0.010 A 
ATOM     36  C   UNL     1       2.449  -7.322  -4.417  1.00  0.00    -0.014 A 
BRANCH  36  37
ATOM     37  C   UNL     1       3.710  -7.973  -4.855  1.00  0.00     0.031 A 
ATOM     38  C   UNL     1       4.465  -8.877  -3.919  1.00  0.00     0.074 A 
ATOM     39  C   UNL     1       4.157  -7.780  -6.112  1.00  0.00     0.049 A 
ATOM     40  N   UNL     1       5.491  -9.648  -4.176  1.00  0.00    -0.248 NA
ATOM     41  C   UNL     1       4.024  -8.918  -2.515  1.00  0.00     0.031 C 
ATOM     42  C   UNL     1       3.543  -6.883  -7.093  1.00  0.00     0.029 A 
ATOM     43  N   UNL     1       5.208  -8.347  -6.788  1.00  0.00    -0.354 N 
ATOM     44  C   UNL     1       5.801 -10.276  -2.976  1.00  0.00     0.074 A 
ATOM     45  C   UNL     1       4.911  -9.740  -1.973  1.00  0.00     0.031 C 
ATOM     46  C   UNL     1       4.187  -7.010  -8.264  1.00  0.00     0.029 A 
ATOM     47  C   UNL     1       5.274  -7.976  -8.111  1.00  0.00     0.049 A 
ATOM     48  H   UNL     1       5.853  -8.961  -6.367  1.00  0.00     0.167 HD
ATOM     49  C   UNL     1       6.716 -11.243  -2.738  1.00  0.00     0.031 A 
ATOM     50  C   UNL     1       6.092  -8.386  -9.101  1.00  0.00     0.031 A 
ATOM     51  C   UNL     1       7.602 -11.774  -3.739  1.00  0.00     0.049 A 
ATOM     52  C   UNL     1       7.115  -9.449  -8.817  1.00  0.00     0.074 A 
ATOM     53  C   UNL     1       8.538 -12.783  -3.606  1.00  0.00     0.029 A 
ATOM     54  N   UNL     1       7.662 -11.339  -5.054  1.00  0.00    -0.354 N 
ATOM     55  N   UNL     1       7.342 -10.088  -7.694  1.00  0.00    -0.248 NA
ATOM     56  C   UNL     1       7.981  -9.861  -9.931  1.00  0.00     0.031 C 
ATOM     57  C   UNL     1       9.204 -12.920  -4.826  1.00  0.00     0.029 A 
ATOM     58  C   UNL     1       8.640 -12.041  -5.737  1.00  0.00     0.049 A 
ATOM     59  H   UNL     1       7.094 -10.636  -5.444  1.00  0.00     0.167 HD
ATOM     60  C   UNL     1       8.372 -10.981  -7.966  1.00  0.00     0.074 A 
ATOM     61  C   UNL     1       8.711 -10.815  -9.365  1.00  0.00     0.031 C 
ATOM     62  C   UNL     1       8.980 -11.856  -7.128  1.00  0.00     0.031 A 
BRANCH  49  63
ATOM     63  C   UNL     1       6.785 -11.817  -1.347  1.00  0.00    -0.014 A 
ATOM     64  C   UNL     1       7.924 -11.611  -0.549  1.00  0.00     0.010 A 
ATOM     65  C   UNL     1       5.743 -12.627  -0.856  1.00  0.00     0.010 A 
ATOM     66  C   UNL     1       8.026 -12.211   0.709  1.00  0.00     0.020 A 
ATOM     67  C   UNL     1       5.829 -13.206   0.412  1.00  0.00     0.020 A 
ATOM     68  C   UNL     1       6.979 -13.009   1.180  1.00  0.00     0.054 A 
BRANCH  68  69
ATOM     69  S   UNL     1       7.120 -13.772   2.820  1.00  0.00     0.124 S 
ATOM     70  O   UNL     1       7.997 -14.908   2.557  1.00  0.00    -0.237 OA
ATOM     71  O   UNL     1       7.698 -12.699   3.626  1.00  0.00    -0.237 OA
ATOM     72  O   UNL     1       5.738 -14.112   3.156  1.00  0.00    -0.744 OA
ENDBRANCH  68  69
ENDBRANCH  49  63
BRANCH  50  73
ATOM     73  C   UNL     1       5.901  -7.821 -10.465  1.00  0.00    -0.014 A 
ATOM     74  C   UNL     1       6.221  -6.477 -10.731  1.00  0.00     0.010 A 
ATOM     75  C   UNL     1       5.277  -8.586 -11.466  1.00  0.00     0.010 A 
ATOM     76  C   UNL     1       5.862  -5.889 -11.947  1.00  0.00     0.020 A 
ATOM     77  C   UNL     1       4.937  -8.008 -12.694  1.00  0.00     0.020 A 
ATOM     78  C   UNL     1       5.202  -6.654 -12.912  1.00  0.00     0.054 A 
BRANCH  78  79
ATOM     79  S   UNL     1       4.660  -5.848 -14.445  1.00  0.00     0.124 S 
ATOM     80  O   UNL     1       3.489  -5.101 -13.993  1.00  0.00    -0.237 OA
ATOM     81  O   UNL     1       5.821  -5.038 -14.809  1.00  0.00    -0.237 OA
ATOM     82  O   UNL     1       4.380  -6.967 -15.340  1.00  0.00    -0.744 OA
ENDBRANCH  78  79
ENDBRANCH  50  73
BRANCH  62  83
ATOM     83  C   UNL     1      10.102 -12.701  -7.669  1.00  0.00    -0.014 A 
ATOM     84  C   UNL     1       9.932 -14.093  -7.795  1.00  0.00     0.010 A 
ATOM     85  C   UNL     1      11.370 -12.141  -7.900  1.00  0.00     0.010 A 
ATOM     86  C   UNL     1      11.020 -14.915  -8.099  1.00  0.00     0.020 A 
ATOM     87  C   UNL     1      12.456 -12.958  -8.229  1.00  0.00     0.020 A 
ATOM     88  C   UNL     1      12.279 -14.342  -8.299  1.00  0.00     0.054 A 
BRANCH  88  89
ATOM     89  S   UNL     1      13.691 -15.429  -8.637  1.00  0.00     0.124 S 
ATOM     90  O   UNL     1      13.991 -15.965  -7.313  1.00  0.00    -0.237 OA
ATOM     91  O   UNL     1      13.140 -16.385  -9.594  1.00  0.00    -0.237 OA
ATOM     92  O   UNL     1      14.697 -14.521  -9.186  1.00  0.00    -0.744 OA
ENDBRANCH  88  89
ENDBRANCH  62  83
ENDBRANCH  36  37
ENDBRANCH  29  31
ENDBRANCH  28  29
ENDBRANCH  27  28
ENDBRANCH   1  27
TORSDOF 17
