REMARK SMILES Cc1cc(F)c([C@@H](C)[N@@H+]2C[C@H](C)[C@H](C(=O)OCCOC(=O)c3ccc(-c4c5nc(c(-c6ccc(S(=O)(=O)[O-])cc6)c6ccc([nH]6)c(-c6ccc(S(=O)(=O)[O-])cc6)c6nc(c(-c7ccc(S(=O)(=O)[O-])cc7)c7ccc4[nH]7)C=C6)C=C5)cc3)C2)cc1F
REMARK SMILES IDX 18 1 17 2 16 3 14 4 15 5 13 6 9 7 10 8 82 9 11 11 12 12 7 13
REMARK SMILES IDX 8 14 6 15 1 16 2 17 3 18 84 19 4 20 83 21 85 22 5 23 19 24
REMARK SMILES IDX 20 25 21 26 22 27 23 28 81 29 24 30 80 31 25 32 26 33 27 34
REMARK SMILES IDX 74 35 28 36 79 37 73 38 75 39 29 40 78 41 72 42 71 43 30 45
REMARK SMILES IDX 60 46 41 47 59 48 42 49 45 50 58 51 76 52 43 53 44 54 57 56
REMARK SMILES IDX 77 57 46 58 31 59 32 60 40 61 33 62 39 63 34 64 35 65 36 66
REMARK SMILES IDX 37 67 38 68 61 69 62 70 70 71 63 72 69 73 64 74 65 75 66 76
REMARK SMILES IDX 67 77 68 78 47 79 48 80 56 81 49 82 55 83 50 84 51 85 52 86
REMARK SMILES IDX 53 87 54 88
REMARK H PARENT 9 10 75 44 45 55
REMARK Flexibility Score: inf
ROOT
ATOM      1  C   UNL     1      -2.319  -8.403   0.926  1.00  0.00     0.275 C 
ENDROOT
BRANCH   1   2
ATOM      2  C   UNL     1      -1.009  -7.721   0.521  1.00  0.00     0.274 C 
BRANCH   2   3
ATOM      3  O   UNL     1      -1.233  -6.807  -0.568  1.00  0.00    -0.462 OA
BRANCH   3   4
ATOM      4  C   UNL     1      -0.933  -7.252  -1.808  1.00  0.00     0.315 C 
ATOM      5  O   UNL     1      -0.360  -8.313  -2.037  1.00  0.00    -0.252 OA
BRANCH   4   6
ATOM      6  C   UNL     1      -1.356  -6.323  -2.925  1.00  0.00     0.162 C 
ATOM      7  N   UNL     1      -0.542  -4.533  -4.235  1.00  0.00    -0.328 N 
ATOM      8  C   UNL     1      -1.927  -4.226  -3.906  1.00  0.00     0.267 C 
ATOM      9  C   UNL     1      -0.112  -5.754  -3.577  1.00  0.00     0.278 C 
ATOM     10  H   UNL     1      -0.538  -4.743  -5.234  1.00  0.00     0.348 HD
ATOM     11  C   UNL     1      -2.311  -5.140  -2.734  1.00  0.00     0.061 C 
ATOM     12  C   UNL     1      -2.260  -4.386  -1.410  1.00  0.00     0.015 C 
BRANCH   7  13
ATOM     13  C   UNL     1       0.412  -3.438  -4.393  1.00  0.00     0.215 C 
ATOM     14  C   UNL     1       1.800  -3.921  -4.841  1.00  0.00     0.081 C 
BRANCH  13  15
ATOM     15  C   UNL     1       0.511  -2.479  -3.215  1.00  0.00     0.048 A 
ATOM     16  C   UNL     1       0.738   0.363   0.054  1.00  0.00     0.047 C 
ATOM     17  C   UNL     1       0.637  -0.615  -1.074  1.00  0.00    -0.012 A 
ATOM     18  C   UNL     1       1.100  -1.922  -0.909  1.00  0.00     0.046 A 
ATOM     19  C   UNL     1       0.130  -0.246  -2.319  1.00  0.00     0.126 A 
ATOM     20  C   UNL     1       1.052  -2.827  -1.971  1.00  0.00     0.132 A 
ATOM     21  C   UNL     1       0.054  -1.159  -3.372  1.00  0.00     0.052 A 
ATOM     22  F   UNL     1      -0.292   1.009  -2.526  1.00  0.00    -0.207 F 
ATOM     23  F   UNL     1       1.554  -4.046  -1.747  1.00  0.00    -0.206 F 
ENDBRANCH  13  15
ENDBRANCH   7  13
ENDBRANCH   4   6
ENDBRANCH   3   4
ENDBRANCH   2   3
ENDBRANCH   1   2
BRANCH   1  24
ATOM     24  O   UNL     1      -2.745  -9.367  -0.054  1.00  0.00    -0.458 OA
BRANCH  24  25
ATOM     25  C   UNL     1      -3.530  -8.884  -1.050  1.00  0.00     0.338 C 
ATOM     26  O   UNL     1      -3.949  -7.752  -1.180  1.00  0.00    -0.246 OA
BRANCH  25  27
ATOM     27  C   UNL     1      -3.679  -9.932  -2.073  1.00  0.00     0.060 A 
ATOM     28  C   UNL     1      -4.337 -11.128  -1.791  1.00  0.00     0.016 A 
ATOM     29  C   UNL     1      -3.158  -9.694  -3.346  1.00  0.00     0.016 A 
ATOM     30  C   UNL     1      -4.436 -12.100  -2.789  1.00  0.00     0.010 A 
ATOM     31  C   UNL     1      -3.267 -10.653  -4.343  1.00  0.00     0.010 A 
ATOM     32  C   UNL     1      -3.889 -11.871  -4.065  1.00  0.00    -0.014 A 
BRANCH  32  33
ATOM     33  C   UNL     1      -3.971 -12.895  -5.127  1.00  0.00     0.031 A 
ATOM     34  C   UNL     1      -2.741 -13.647  -5.546  1.00  0.00     0.074 A 
ATOM     35  C   UNL     1      -5.152 -13.108  -5.733  1.00  0.00     0.049 A 
ATOM     36  N   UNL     1      -2.634 -14.616  -6.417  1.00  0.00    -0.248 NA
ATOM     37  C   UNL     1      -1.466 -13.256  -4.921  1.00  0.00     0.031 C 
ATOM     38  C   UNL     1      -6.390 -12.385  -5.435  1.00  0.00     0.029 A 
ATOM     39  N   UNL     1      -5.509 -13.995  -6.716  1.00  0.00    -0.354 N 
ATOM     40  C   UNL     1      -1.288 -14.962  -6.431  1.00  0.00     0.074 A 
ATOM     41  C   UNL     1      -0.606 -14.062  -5.529  1.00  0.00     0.031 C 
ATOM     42  C   UNL     1      -7.380 -12.886  -6.189  1.00  0.00     0.029 A 
ATOM     43  C   UNL     1      -6.843 -13.945  -7.040  1.00  0.00     0.049 A 
ATOM     44  H   UNL     1      -4.871 -14.608  -7.147  1.00  0.00     0.167 HD
ATOM     45  C   UNL     1      -0.688 -15.963  -7.116  1.00  0.00     0.031 A 
ATOM     46  C   UNL     1      -7.558 -14.681  -7.913  1.00  0.00     0.031 A 
ATOM     47  C   UNL     1      -1.386 -16.847  -8.012  1.00  0.00     0.049 A 
ATOM     48  C   UNL     1      -6.867 -15.776  -8.676  1.00  0.00     0.074 A 
ATOM     49  C   UNL     1      -0.883 -17.928  -8.712  1.00  0.00     0.029 A 
ATOM     50  N   UNL     1      -2.732 -16.750  -8.334  1.00  0.00    -0.354 N 
ATOM     51  N   UNL     1      -5.610 -16.148  -8.615  1.00  0.00    -0.248 NA
ATOM     52  C   UNL     1      -7.684 -16.557  -9.613  1.00  0.00     0.031 C 
ATOM     53  C   UNL     1      -1.909 -18.448  -9.504  1.00  0.00     0.029 A 
ATOM     54  C   UNL     1      -3.070 -17.733  -9.248  1.00  0.00     0.049 A 
ATOM     55  H   UNL     1      -3.354 -16.081  -7.968  1.00  0.00     0.167 HD
ATOM     56  C   UNL     1      -5.487 -17.213  -9.499  1.00  0.00     0.074 A 
ATOM     57  C   UNL     1      -6.801 -17.439 -10.066  1.00  0.00     0.031 C 
ATOM     58  C   UNL     1      -4.383 -17.934  -9.812  1.00  0.00     0.031 A 
BRANCH  45  59
ATOM     59  C   UNL     1       0.787 -16.189  -6.907  1.00  0.00    -0.014 A 
ATOM     60  C   UNL     1       1.690 -15.990  -7.967  1.00  0.00     0.010 A 
ATOM     61  C   UNL     1       1.265 -16.715  -5.693  1.00  0.00     0.010 A 
ATOM     62  C   UNL     1       3.037 -16.339  -7.827  1.00  0.00     0.020 A 
ATOM     63  C   UNL     1       2.615 -17.041  -5.540  1.00  0.00     0.020 A 
ATOM     64  C   UNL     1       3.488 -16.873  -6.617  1.00  0.00     0.054 A 
BRANCH  64  65
ATOM     65  S   UNL     1       5.232 -17.351  -6.462  1.00  0.00     0.124 S 
ATOM     66  O   UNL     1       5.278 -18.601  -7.214  1.00  0.00    -0.237 OA
ATOM     67  O   UNL     1       5.929 -16.221  -7.072  1.00  0.00    -0.237 OA
ATOM     68  O   UNL     1       5.423 -17.481  -5.019  1.00  0.00    -0.744 OA
ENDBRANCH  64  65
ENDBRANCH  45  59
BRANCH  46  69
ATOM     69  C   UNL     1      -9.018 -14.428  -8.040  1.00  0.00    -0.014 A 
ATOM     70  C   UNL     1      -9.489 -13.233  -8.615  1.00  0.00     0.010 A 
ATOM     71  C   UNL     1      -9.942 -15.329  -7.481  1.00  0.00     0.010 A 
ATOM     72  C   UNL     1     -10.849 -12.915  -8.576  1.00  0.00     0.020 A 
ATOM     73  C   UNL     1     -11.307 -15.026  -7.463  1.00  0.00     0.020 A 
ATOM     74  C   UNL     1     -11.747 -13.806  -7.983  1.00  0.00     0.054 A 
BRANCH  74  75
ATOM     75  S   UNL     1     -13.498 -13.341  -7.877  1.00  0.00     0.124 S 
ATOM     76  O   UNL     1     -13.485 -12.377  -6.781  1.00  0.00    -0.237 OA
ATOM     77  O   UNL     1     -13.763 -12.785  -9.202  1.00  0.00    -0.237 OA
ATOM     78  O   UNL     1     -14.171 -14.606  -7.590  1.00  0.00    -0.744 OA
ENDBRANCH  74  75
ENDBRANCH  46  69
BRANCH  58  79
ATOM     79  C   UNL     1      -4.520 -19.032 -10.833  1.00  0.00    -0.014 A 
ATOM     80  C   UNL     1      -4.375 -20.375 -10.440  1.00  0.00     0.010 A 
ATOM     81  C   UNL     1      -4.638 -18.723 -12.199  1.00  0.00     0.010 A 
ATOM     82  C   UNL     1      -4.302 -21.388 -11.398  1.00  0.00     0.020 A 
ATOM     83  C   UNL     1      -4.593 -19.738 -13.159  1.00  0.00     0.020 A 
ATOM     84  C   UNL     1      -4.396 -21.060 -12.753  1.00  0.00     0.054 A 
BRANCH  84  85
ATOM     85  S   UNL     1      -4.245 -22.382 -13.986  1.00  0.00     0.124 S 
ATOM     86  O   UNL     1      -2.807 -22.632 -13.994  1.00  0.00    -0.237 OA
ATOM     87  O   UNL     1      -5.067 -23.448 -13.417  1.00  0.00    -0.237 OA
ATOM     88  O   UNL     1      -4.781 -21.777 -15.204  1.00  0.00    -0.744 OA
ENDBRANCH  84  85
ENDBRANCH  58  79
ENDBRANCH  32  33
ENDBRANCH  25  27
ENDBRANCH  24  25
ENDBRANCH   1  24
TORSDOF 16
