REMARK SMILES CC[C@](C)(NC(=O)CCOc1ccc(Cl)c(Cl)c1)C(=O)OCCOC(=O)c1ccc(-c2c3nc(c(-c4ccc(S(=O)(=O)[O-])cc4)c4ccc([nH]4)c(-c4ccc(S(=O)(=O)[O-])cc4)c4nc(c(-c5ccc(S(=O)(=O)[O-])cc5)c5ccc2[nH]5)C=C4)C=C3)cc1
REMARK SMILES IDX 22 1 21 2 19 3 20 4 3 5 4 6 2 7 1 8 5 9 6 10 7 12 8 13 9 14
REMARK SMILES IDX 10 15 11 16 12 17 18 18 13 19 16 20 14 21 17 22 15 23 23 24
REMARK SMILES IDX 24 25 25 26 26 27 27 28 28 29 86 30 29 31 85 32 30 33 31 34
REMARK SMILES IDX 32 35 79 36 33 37 84 38 78 39 80 40 34 41 83 42 77 43 76 44
REMARK SMILES IDX 35 46 65 47 46 48 64 49 47 50 50 51 63 52 81 53 48 54 49 55
REMARK SMILES IDX 62 57 82 58 51 59 36 60 37 61 45 62 38 63 44 64 39 65 40 66
REMARK SMILES IDX 41 67 42 68 43 69 66 70 67 71 75 72 68 73 74 74 69 75 70 76
REMARK SMILES IDX 71 77 72 78 73 79 52 80 53 81 61 82 54 83 60 84 55 85 56 86
REMARK SMILES IDX 57 87 58 88 59 89
REMARK H PARENT 5 11 80 45 50 56
REMARK Flexibility Score: inf
ROOT
ATOM      1  C   UNL     1       5.149  -1.626  -2.679  1.00  0.00     0.274 C 
ENDROOT
BRANCH   1   2
ATOM      2  O   UNL     1       3.785  -1.651  -3.155  1.00  0.00    -0.460 OA
BRANCH   2   3
ATOM      3  C   UNL     1       2.835  -1.759  -2.186  1.00  0.00     0.331 C 
ATOM      4  O   UNL     1       3.091  -1.861  -0.990  1.00  0.00    -0.249 OA
BRANCH   3   5
ATOM      5  C   UNL     1       1.378  -1.728  -2.728  1.00  0.00     0.135 C 
ATOM      6  C   UNL     1       0.684  -0.538  -2.062  1.00  0.00     0.047 C 
BRANCH   5   7
ATOM      7  C   UNL     1       0.717  -3.079  -2.281  1.00  0.00     0.037 C 
ATOM      8  C   UNL     1       0.080  -3.103  -0.893  1.00  0.00     0.007 C 
ENDBRANCH   5   7
BRANCH   5   9
ATOM      9  N   UNL     1       1.193  -1.646  -4.211  1.00  0.00    -0.340 N 
ATOM     10  C   UNL     1       1.362  -0.656  -5.126  1.00  0.00     0.224 C 
ATOM     11  H   UNL     1       0.881  -2.491  -4.609  1.00  0.00     0.164 HD
ATOM     12  O   UNL     1       0.788  -0.794  -6.211  1.00  0.00    -0.275 OA
BRANCH  10  13
ATOM     13  C   UNL     1       2.278   0.514  -4.882  1.00  0.00     0.141 C 
BRANCH  13  14
ATOM     14  C   UNL     1       1.635   1.854  -5.239  1.00  0.00     0.239 C 
BRANCH  14  15
ATOM     15  O   UNL     1       1.026   2.474  -4.101  1.00  0.00    -0.493 OA
BRANCH  15  16
ATOM     16  C   UNL     1      -0.271   2.196  -3.786  1.00  0.00     0.120 A 
ATOM     17  C   UNL     1      -1.192   1.521  -4.582  1.00  0.00     0.048 A 
ATOM     18  C   UNL     1      -0.651   2.609  -2.504  1.00  0.00     0.068 A 
ATOM     19  C   UNL     1      -2.462   1.216  -4.080  1.00  0.00     0.026 A 
ATOM     20  C   UNL     1      -1.909   2.287  -1.988  1.00  0.00     0.063 A 
ATOM     21  C   UNL     1      -2.818   1.582  -2.779  1.00  0.00     0.059 A 
ATOM     22  Cl  UNL     1      -2.248   2.737  -0.356  1.00  0.00    -0.083 Cl
ATOM     23  Cl  UNL     1      -4.377   1.105  -2.209  1.00  0.00    -0.083 Cl
ENDBRANCH  15  16
ENDBRANCH  14  15
ENDBRANCH  13  14
ENDBRANCH  10  13
ENDBRANCH   5   9
ENDBRANCH   3   5
ENDBRANCH   2   3
ENDBRANCH   1   2
BRANCH   1  24
ATOM     24  C   UNL     1       5.700  -0.202  -2.668  1.00  0.00     0.275 C 
BRANCH  24  25
ATOM     25  O   UNL     1       4.976   0.613  -1.726  1.00  0.00    -0.458 OA
BRANCH  25  26
ATOM     26  C   UNL     1       4.577   1.816  -2.196  1.00  0.00     0.338 C 
ATOM     27  O   UNL     1       4.758   2.252  -3.327  1.00  0.00    -0.246 OA
BRANCH  26  28
ATOM     28  C   UNL     1       3.873   2.598  -1.165  1.00  0.00     0.060 A 
ATOM     29  C   UNL     1       2.773   2.070  -0.493  1.00  0.00     0.016 A 
ATOM     30  C   UNL     1       4.222   3.941  -0.988  1.00  0.00     0.016 A 
ATOM     31  C   UNL     1       1.956   2.918   0.259  1.00  0.00     0.010 A 
ATOM     32  C   UNL     1       3.451   4.766  -0.161  1.00  0.00     0.010 A 
ATOM     33  C   UNL     1       2.280   4.279   0.435  1.00  0.00    -0.014 A 
BRANCH  33  34
ATOM     34  C   UNL     1       1.395   5.167   1.247  1.00  0.00     0.031 A 
ATOM     35  C   UNL     1       0.747   6.401   0.659  1.00  0.00     0.074 A 
ATOM     36  C   UNL     1       1.137   4.843   2.530  1.00  0.00     0.049 A 
ATOM     37  N   UNL     1       0.012   7.308   1.258  1.00  0.00    -0.248 NA
ATOM     38  C   UNL     1       0.959   6.661  -0.774  1.00  0.00     0.031 C 
ATOM     39  C   UNL     1       1.695   3.689   3.237  1.00  0.00     0.029 A 
ATOM     40  N   UNL     1       0.310   5.430   3.456  1.00  0.00    -0.354 N 
ATOM     41  C   UNL     1      -0.283   8.267   0.294  1.00  0.00     0.074 A 
ATOM     42  C   UNL     1       0.345   7.828  -0.935  1.00  0.00     0.031 C 
ATOM     43  C   UNL     1       1.123   3.595   4.446  1.00  0.00     0.029 A 
ATOM     44  C   UNL     1       0.226   4.729   4.636  1.00  0.00     0.049 A 
ATOM     45  H   UNL     1      -0.175   6.270   3.292  1.00  0.00     0.167 HD
ATOM     46  C   UNL     1      -1.001   9.412   0.423  1.00  0.00     0.031 A 
ATOM     47  C   UNL     1      -0.477   4.969   5.758  1.00  0.00     0.031 A 
ATOM     48  C   UNL     1      -1.656   9.837   1.636  1.00  0.00     0.049 A 
ATOM     49  C   UNL     1      -1.309   6.210   5.857  1.00  0.00     0.074 A 
ATOM     50  C   UNL     1      -2.375  10.999   1.867  1.00  0.00     0.029 A 
ATOM     51  N   UNL     1      -1.700   9.106   2.812  1.00  0.00    -0.354 N 
ATOM     52  N   UNL     1      -1.490   7.149   4.961  1.00  0.00    -0.248 NA
ATOM     53  C   UNL     1      -2.007   6.438   7.129  1.00  0.00     0.031 C 
ATOM     54  C   UNL     1      -2.833  10.981   3.191  1.00  0.00     0.029 A 
ATOM     55  C   UNL     1      -2.432   9.790   3.771  1.00  0.00     0.049 A 
ATOM     56  H   UNL     1      -1.274   8.229   2.948  1.00  0.00     0.167 HD
ATOM     57  C   UNL     1      -2.291   8.102   5.575  1.00  0.00     0.074 A 
ATOM     58  C   UNL     1      -2.607   7.598   6.897  1.00  0.00     0.031 C 
ATOM     59  C   UNL     1      -2.704   9.300   5.096  1.00  0.00     0.031 A 
BRANCH  46  60
ATOM     60  C   UNL     1      -1.090  10.326  -0.772  1.00  0.00    -0.014 A 
ATOM     61  C   UNL     1      -1.970  10.057  -1.835  1.00  0.00     0.010 A 
ATOM     62  C   UNL     1      -0.342  11.518  -0.788  1.00  0.00     0.010 A 
ATOM     63  C   UNL     1      -2.085  10.956  -2.902  1.00  0.00     0.020 A 
ATOM     64  C   UNL     1      -0.467  12.427  -1.843  1.00  0.00     0.020 A 
ATOM     65  C   UNL     1      -1.330  12.134  -2.901  1.00  0.00     0.054 A 
BRANCH  65  66
ATOM     66  S   UNL     1      -1.528  13.309  -4.270  1.00  0.00     0.124 S 
ATOM     67  O   UNL     1      -0.730  12.683  -5.321  1.00  0.00    -0.237 OA
ATOM     68  O   UNL     1      -2.971  13.309  -4.494  1.00  0.00    -0.237 OA
ATOM     69  O   UNL     1      -0.986  14.557  -3.736  1.00  0.00    -0.744 OA
ENDBRANCH  65  66
ENDBRANCH  46  60
BRANCH  47  70
ATOM     70  C   UNL     1      -0.377   4.018   6.894  1.00  0.00    -0.014 A 
ATOM     71  C   UNL     1      -1.438   3.147   7.192  1.00  0.00     0.010 A 
ATOM     72  C   UNL     1       0.813   3.935   7.640  1.00  0.00     0.010 A 
ATOM     73  C   UNL     1      -1.307   2.198   8.210  1.00  0.00     0.020 A 
ATOM     74  C   UNL     1       0.957   2.971   8.638  1.00  0.00     0.020 A 
ATOM     75  C   UNL     1      -0.106   2.112   8.921  1.00  0.00     0.054 A 
BRANCH  75  76
ATOM     76  S   UNL     1       0.106   0.807  10.164  1.00  0.00     0.124 S 
ATOM     77  O   UNL     1      -0.402   1.452  11.370  1.00  0.00    -0.237 OA
ATOM     78  O   UNL     1      -0.710  -0.284   9.638  1.00  0.00    -0.237 OA
ATOM     79  O   UNL     1       1.546   0.559  10.141  1.00  0.00    -0.744 OA
ENDBRANCH  75  76
ENDBRANCH  47  70
BRANCH  59  80
ATOM     80  C   UNL     1      -3.507  10.154   6.036  1.00  0.00    -0.014 A 
ATOM     81  C   UNL     1      -2.877  10.831   7.097  1.00  0.00     0.010 A 
ATOM     82  C   UNL     1      -4.900  10.259   5.883  1.00  0.00     0.010 A 
ATOM     83  C   UNL     1      -3.633  11.554   8.022  1.00  0.00     0.020 A 
ATOM     84  C   UNL     1      -5.658  10.996   6.797  1.00  0.00     0.020 A 
ATOM     85  C   UNL     1      -5.022  11.618   7.875  1.00  0.00     0.054 A 
BRANCH  85  86
ATOM     86  S   UNL     1      -5.992  12.542   9.098  1.00  0.00     0.124 S 
ATOM     87  O   UNL     1      -6.095  11.580  10.191  1.00  0.00    -0.237 OA
ATOM     88  O   UNL     1      -5.155  13.710   9.365  1.00  0.00    -0.237 OA
ATOM     89  O   UNL     1      -7.243  12.828   8.398  1.00  0.00    -0.744 OA
ENDBRANCH  85  86
ENDBRANCH  59  80
ENDBRANCH  33  34
ENDBRANCH  26  28
ENDBRANCH  25  26
ENDBRANCH  24  25
ENDBRANCH   1  24
TORSDOF 20
