REMARK SMILES O=C(OCCOC(=O)c1ccc(N2C(=O)/C(=C/c3ccco3)SC2=S)cc1)c1ccc(-c2c3nc(c(-c4ccc(S(=O)(=O)[O-])cc4)c4ccc([nH]4)c(-c4ccc(S(=O)(=O)[O-])cc4)c4nc(c(-c5ccc(S(=O)(=O)[O-])cc5)c5ccc2[nH]5)C=C4)C=C3)cc1
REMARK SMILES IDX 4 1 3 2 2 3 1 4 28 5 29 6 87 7 30 8 86 9 31 10 32 11 33 12
REMARK SMILES IDX 80 13 34 14 85 15 79 16 81 17 35 18 84 19 78 20 77 21 36 23
REMARK SMILES IDX 66 24 47 25 65 26 48 27 51 28 64 29 82 30 49 31 50 32 63 34
REMARK SMILES IDX 83 35 52 36 37 37 38 38 46 39 39 40 45 41 40 42 41 43 42 44
REMARK SMILES IDX 43 45 44 46 67 47 68 48 76 49 69 50 75 51 70 52 71 53 72 54
REMARK SMILES IDX 73 55 74 56 53 57 54 58 62 59 55 60 61 61 56 62 57 63 58 64
REMARK SMILES IDX 59 65 60 66 5 67 6 68 7 69 8 70 9 71 10 72 27 73 11 74 26 75
REMARK SMILES IDX 12 76 13 77 14 78 24 79 15 80 16 81 23 82 25 83 17 84 18 85
REMARK SMILES IDX 19 86 22 87 20 88 21 89
REMARK H PARENT 81 22 51 33
REMARK Flexibility Score: inf
ROOT
ATOM      1  C   UNL     1       3.995   1.461  -0.035  1.00  0.00     0.275 C 
ENDROOT
BRANCH   1   2
ATOM      2  O   UNL     1       2.926   0.783  -0.718  1.00  0.00    -0.458 OA
BRANCH   2   3
ATOM      3  C   UNL     1       2.725  -0.534  -0.962  1.00  0.00     0.338 C 
ATOM      4  O   UNL     1       1.764  -0.856  -1.660  1.00  0.00    -0.246 OA
BRANCH   3   5
ATOM      5  C   UNL     1       3.531  -1.636  -0.342  1.00  0.00     0.060 A 
ATOM      6  C   UNL     1       4.828  -1.523   0.158  1.00  0.00     0.016 A 
ATOM      7  C   UNL     1       2.900  -2.893  -0.243  1.00  0.00     0.016 A 
ATOM      8  C   UNL     1       5.444  -2.587   0.816  1.00  0.00     0.010 A 
ATOM      9  C   UNL     1       3.506  -3.962   0.425  1.00  0.00     0.010 A 
ATOM     10  C   UNL     1       4.784  -3.806   0.965  1.00  0.00    -0.014 A 
BRANCH  10  11
ATOM     11  C   UNL     1       5.513  -4.935   1.578  1.00  0.00     0.031 A 
ATOM     12  C   UNL     1       6.114  -5.964   0.673  1.00  0.00     0.074 A 
ATOM     13  C   UNL     1       5.724  -4.967   2.907  1.00  0.00     0.049 A 
ATOM     14  N   UNL     1       6.890  -6.967   0.980  1.00  0.00    -0.248 NA
ATOM     15  C   UNL     1       5.854  -5.816  -0.769  1.00  0.00     0.031 C 
ATOM     16  C   UNL     1       5.288  -3.938   3.850  1.00  0.00     0.029 A 
ATOM     17  N   UNL     1       6.365  -5.882   3.700  1.00  0.00    -0.354 N 
ATOM     18  C   UNL     1       7.249  -7.540  -0.232  1.00  0.00     0.074 A 
ATOM     19  C   UNL     1       6.559  -6.816  -1.275  1.00  0.00     0.031 C 
ATOM     20  C   UNL     1       5.618  -4.304   5.099  1.00  0.00     0.029 A 
ATOM     21  C   UNL     1       6.308  -5.586   5.042  1.00  0.00     0.049 A 
ATOM     22  H   UNL     1       6.823  -6.676   3.342  1.00  0.00     0.167 HD
ATOM     23  C   UNL     1       8.106  -8.562  -0.451  1.00  0.00     0.031 A 
ATOM     24  C   UNL     1       6.767  -6.274   6.104  1.00  0.00     0.031 A 
ATOM     25  C   UNL     1       8.745  -9.298   0.604  1.00  0.00     0.049 A 
ATOM     26  C   UNL     1       7.579  -7.512   5.838  1.00  0.00     0.074 A 
ATOM     27  C   UNL     1       9.598 -10.381   0.505  1.00  0.00     0.029 A 
ATOM     28  N   UNL     1       8.584  -9.033   1.957  1.00  0.00    -0.354 N 
ATOM     29  N   UNL     1       7.931  -8.027   4.683  1.00  0.00    -0.248 NA
ATOM     30  C   UNL     1       8.092  -8.236   7.007  1.00  0.00     0.031 C 
ATOM     31  C   UNL     1       9.904 -10.809   1.801  1.00  0.00     0.029 A 
ATOM     32  C   UNL     1       9.296  -9.952   2.706  1.00  0.00     0.049 A 
ATOM     33  H   UNL     1       8.043  -8.299   2.329  1.00  0.00     0.167 HD
ATOM     34  C   UNL     1       8.744  -9.112   4.985  1.00  0.00     0.074 A 
ATOM     35  C   UNL     1       8.840  -9.167   6.431  1.00  0.00     0.031 C 
ATOM     36  C   UNL     1       9.362  -9.981   4.146  1.00  0.00     0.031 A 
BRANCH  23  37
ATOM     37  C   UNL     1       8.366  -8.944  -1.880  1.00  0.00    -0.014 A 
ATOM     38  C   UNL     1       9.137  -8.120  -2.721  1.00  0.00     0.010 A 
ATOM     39  C   UNL     1       7.845 -10.147  -2.388  1.00  0.00     0.010 A 
ATOM     40  C   UNL     1       9.364  -8.481  -4.051  1.00  0.00     0.020 A 
ATOM     41  C   UNL     1       8.089 -10.523  -3.711  1.00  0.00     0.020 A 
ATOM     42  C   UNL     1       8.839  -9.683  -4.537  1.00  0.00     0.054 A 
BRANCH  42  43
ATOM     43  S   UNL     1       9.183 -10.146  -6.256  1.00  0.00     0.124 S 
ATOM     44  O   UNL     1       8.378  -9.178  -6.997  1.00  0.00    -0.237 OA
ATOM     45  O   UNL     1      10.629  -9.964  -6.351  1.00  0.00    -0.237 OA
ATOM     46  O   UNL     1       8.725 -11.531  -6.341  1.00  0.00    -0.744 OA
ENDBRANCH  42  43
ENDBRANCH  23  37
BRANCH  24  47
ATOM     47  C   UNL     1       6.472  -5.821   7.494  1.00  0.00    -0.014 A 
ATOM     48  C   UNL     1       7.494  -5.390   8.357  1.00  0.00     0.010 A 
ATOM     49  C   UNL     1       5.149  -5.859   7.976  1.00  0.00     0.010 A 
ATOM     50  C   UNL     1       7.208  -5.052   9.685  1.00  0.00     0.020 A 
ATOM     51  C   UNL     1       4.854  -5.495   9.294  1.00  0.00     0.020 A 
ATOM     52  C   UNL     1       5.890  -5.114  10.147  1.00  0.00     0.054 A 
BRANCH  52  53
ATOM     53  S   UNL     1       5.548  -4.683  11.877  1.00  0.00     0.124 S 
ATOM     54  O   UNL     1       6.147  -5.805  12.593  1.00  0.00    -0.237 OA
ATOM     55  O   UNL     1       6.232  -3.401  12.021  1.00  0.00    -0.237 OA
ATOM     56  O   UNL     1       4.089  -4.614  11.930  1.00  0.00    -0.744 OA
ENDBRANCH  52  53
ENDBRANCH  24  47
BRANCH  36  57
ATOM     57  C   UNL     1      10.216 -11.043   4.781  1.00  0.00    -0.014 A 
ATOM     58  C   UNL     1       9.640 -12.104   5.502  1.00  0.00     0.010 A 
ATOM     59  C   UNL     1      11.612 -10.996   4.618  1.00  0.00     0.010 A 
ATOM     60  C   UNL     1      10.451 -13.076   6.088  1.00  0.00     0.020 A 
ATOM     61  C   UNL     1      12.424 -11.986   5.173  1.00  0.00     0.020 A 
ATOM     62  C   UNL     1      11.838 -13.010   5.920  1.00  0.00     0.054 A 
BRANCH  62  63
ATOM     63  S   UNL     1      12.866 -14.302   6.666  1.00  0.00     0.124 S 
ATOM     64  O   UNL     1      12.815 -13.950   8.082  1.00  0.00    -0.237 OA
ATOM     65  O   UNL     1      12.160 -15.526   6.296  1.00  0.00    -0.237 OA
ATOM     66  O   UNL     1      14.167 -14.123   6.025  1.00  0.00    -0.744 OA
ENDBRANCH  62  63
ENDBRANCH  36  57
ENDBRANCH  10  11
ENDBRANCH   3   5
ENDBRANCH   2   3
ENDBRANCH   1   2
BRANCH   1  67
ATOM     67  C   UNL     1       3.864   1.523   1.491  1.00  0.00     0.275 C 
BRANCH  67  68
ATOM     68  O   UNL     1       3.442   0.293   2.100  1.00  0.00    -0.458 OA
BRANCH  68  69
ATOM     69  C   UNL     1       2.100   0.161   2.270  1.00  0.00     0.338 C 
ATOM     70  O   UNL     1       1.243   0.975   1.966  1.00  0.00    -0.246 OA
BRANCH  69  71
ATOM     71  C   UNL     1       1.794  -1.190   2.784  1.00  0.00     0.060 A 
ATOM     72  C   UNL     1       0.857  -1.978   2.107  1.00  0.00     0.018 A 
ATOM     73  C   UNL     1       2.422  -1.687   3.924  1.00  0.00     0.018 A 
ATOM     74  C   UNL     1       0.592  -3.286   2.535  1.00  0.00     0.028 A 
ATOM     75  C   UNL     1       2.108  -2.973   4.382  1.00  0.00     0.028 A 
ATOM     76  C   UNL     1       1.197  -3.791   3.694  1.00  0.00     0.051 A 
BRANCH  76  77
ATOM     77  N   UNL     1       0.870  -5.092   4.188  1.00  0.00    -0.261 N 
ATOM     78  C   UNL     1       0.869  -6.200   3.337  1.00  0.00     0.270 C 
ATOM     79  C   UNL     1       0.466  -5.324   5.497  1.00  0.00     0.152 C 
ATOM     80  O   UNL     1       1.112  -6.215   2.136  1.00  0.00    -0.268 OA
ATOM     81  C   UNL     1       0.474  -7.429   4.091  1.00  0.00     0.084 C 
ATOM     82  S   UNL     1       0.158  -7.036   5.734  1.00  0.00    -0.054 SA
ATOM     83  S   UNL     1       0.121  -4.236   6.723  1.00  0.00    -0.051 S 
ATOM     84  C   UNL     1       0.400  -8.640   3.518  1.00  0.00     0.068 C 
BRANCH  84  85
ATOM     85  C   UNL     1      -0.070  -9.804   4.194  1.00  0.00     0.127 A 
ATOM     86  C   UNL     1      -1.266 -10.019   4.875  1.00  0.00     0.050 A 
ATOM     87  O   UNL     1       0.639 -10.984   4.236  1.00  0.00    -0.465 OA
ATOM     88  C   UNL     1      -1.254 -11.340   5.380  1.00  0.00     0.042 A 
ATOM     89  C   UNL     1      -0.064 -11.882   4.970  1.00  0.00     0.195 A 
ENDBRANCH  84  85
ENDBRANCH  76  77
ENDBRANCH  69  71
ENDBRANCH  68  69
ENDBRANCH  67  68
ENDBRANCH   1  67
TORSDOF 16
