REMARK SMILES CCc1cc(Nc2ccc(C(=O)OCCOC(=O)c3ccc(-c4c5nc(c(-c6ccc(S(=O)(=O)[O-])cc6)c6ccc([nH]6)c(-c6ccc(S(=O)(=O)[O-])cc6)c6nc(c(-c7ccc(S(=O)(=O)[O-])cc7)c7ccc4[nH]7)C=C6)C=C5)cc3)cc2)nc(C(C)C)n1
REMARK SMILES IDX 14 1 13 2 11 3 12 4 10 5 7 6 8 7 80 8 9 9 79 10 6 11 5 13
REMARK SMILES IDX 3 14 4 15 86 16 82 17 81 18 2 19 1 20 83 21 84 22 85 23
REMARK SMILES IDX 15 24 16 25 17 26 18 27 19 28 20 29 78 30 21 31 77 32 22 33
REMARK SMILES IDX 23 34 24 35 71 36 25 37 76 38 70 39 72 40 26 41 75 42 69 43
REMARK SMILES IDX 68 44 27 46 57 47 38 48 56 49 39 50 42 51 55 52 73 53 40 54
REMARK SMILES IDX 41 55 54 57 74 58 43 59 28 60 29 61 37 62 30 63 36 64 31 65
REMARK SMILES IDX 32 66 33 67 34 68 35 69 58 70 59 71 67 72 60 73 66 74 61 75
REMARK SMILES IDX 62 76 63 77 64 78 65 79 44 80 45 81 53 82 46 83 52 84 47 85
REMARK SMILES IDX 48 86 49 87 50 88 51 89
REMARK H PARENT 6 12 72 45 42 56
REMARK Flexibility Score: inf
ROOT
ATOM      1  C   UNL     1       3.369  -7.324 -10.241  1.00  0.00     0.275 C 
ENDROOT
BRANCH   1   2
ATOM      2  O   UNL     1       2.925  -6.111  -9.599  1.00  0.00    -0.458 OA
BRANCH   2   3
ATOM      3  C   UNL     1       3.628  -5.756  -8.498  1.00  0.00     0.338 C 
ATOM      4  O   UNL     1       4.559  -6.375  -8.002  1.00  0.00    -0.246 OA
BRANCH   3   5
ATOM      5  C   UNL     1       3.171  -4.457  -7.961  1.00  0.00     0.060 A 
ATOM      6  C   UNL     1       2.429  -2.134  -6.569  1.00  0.00     0.040 A 
ATOM      7  C   UNL     1       3.767  -2.366  -6.877  1.00  0.00     0.027 A 
ATOM      8  C   UNL     1       1.461  -3.050  -7.014  1.00  0.00     0.027 A 
ATOM      9  C   UNL     1       4.133  -3.532  -7.540  1.00  0.00     0.018 A 
ATOM     10  C   UNL     1       1.822  -4.200  -7.726  1.00  0.00     0.018 A 
BRANCH   6  11
ATOM     11  N   UNL     1       2.122  -1.124  -5.635  1.00  0.00    -0.340 N 
ATOM     12  H   UNL     1       2.295  -0.188  -5.886  1.00  0.00     0.168 HD
BRANCH  11  13
ATOM     13  C   UNL     1       1.578  -1.385  -4.359  1.00  0.00     0.134 A 
ATOM     14  C   UNL     1       0.804  -0.644  -2.262  1.00  0.00     0.046 A 
ATOM     15  C   UNL     1       1.338  -0.334  -3.499  1.00  0.00     0.071 A 
ATOM     16  N   UNL     1       0.499  -1.909  -1.906  1.00  0.00    -0.238 NA
ATOM     17  C   UNL     1       0.767  -2.873  -2.802  1.00  0.00     0.133 A 
ATOM     18  N   UNL     1       1.281  -2.649  -4.017  1.00  0.00    -0.216 NA
BRANCH  14  19
ATOM     19  C   UNL     1       0.475   0.449  -1.279  1.00  0.00     0.053 C 
ATOM     20  C   UNL     1       1.043   0.181   0.107  1.00  0.00     0.011 C 
ENDBRANCH  14  19
BRANCH  17  21
ATOM     21  C   UNL     1       0.426  -4.307  -2.470  1.00  0.00     0.051 C 
ATOM     22  C   UNL     1       1.113  -4.768  -1.187  1.00  0.00     0.016 C 
ATOM     23  C   UNL     1      -1.089  -4.485  -2.393  1.00  0.00     0.016 C 
ENDBRANCH  17  21
ENDBRANCH  11  13
ENDBRANCH   6  11
ENDBRANCH   3   5
ENDBRANCH   2   3
ENDBRANCH   1   2
BRANCH   1  24
ATOM     24  C   UNL     1       4.276  -7.031 -11.437  1.00  0.00     0.275 C 
BRANCH  24  25
ATOM     25  O   UNL     1       5.543  -6.492 -11.012  1.00  0.00    -0.458 OA
BRANCH  25  26
ATOM     26  C   UNL     1       5.694  -5.165 -11.217  1.00  0.00     0.338 C 
ATOM     27  O   UNL     1       4.896  -4.401 -11.734  1.00  0.00    -0.246 OA
BRANCH  26  28
ATOM     28  C   UNL     1       6.977  -4.693 -10.670  1.00  0.00     0.060 A 
ATOM     29  C   UNL     1       7.089  -4.532  -9.296  1.00  0.00     0.016 A 
ATOM     30  C   UNL     1       7.966  -4.190 -11.510  1.00  0.00     0.016 A 
ATOM     31  C   UNL     1       8.080  -3.711  -8.768  1.00  0.00     0.010 A 
ATOM     32  C   UNL     1       9.056  -3.503 -10.956  1.00  0.00     0.010 A 
ATOM     33  C   UNL     1       9.099  -3.199  -9.582  1.00  0.00    -0.014 A 
BRANCH  33  34
ATOM     34  C   UNL     1      10.179  -2.338  -9.006  1.00  0.00     0.031 A 
ATOM     35  C   UNL     1      10.492  -0.988  -9.617  1.00  0.00     0.074 A 
ATOM     36  C   UNL     1      10.881  -2.746  -7.926  1.00  0.00     0.049 A 
ATOM     37  N   UNL     1      11.515  -0.199  -9.399  1.00  0.00    -0.248 NA
ATOM     38  C   UNL     1       9.541  -0.464 -10.612  1.00  0.00     0.031 C 
ATOM     39  C   UNL     1      10.669  -3.998  -7.192  1.00  0.00     0.029 A 
ATOM     40  N   UNL     1      11.919  -2.149  -7.249  1.00  0.00    -0.354 N 
ATOM     41  C   UNL     1      11.359   0.881 -10.264  1.00  0.00     0.074 A 
ATOM     42  C   UNL     1      10.151   0.640 -11.021  1.00  0.00     0.031 C 
ATOM     43  C   UNL     1      11.511  -4.053  -6.151  1.00  0.00     0.029 A 
ATOM     44  C   UNL     1      12.404  -2.905  -6.205  1.00  0.00     0.049 A 
ATOM     45  H   UNL     1      12.281  -1.265  -7.489  1.00  0.00     0.167 HD
ATOM     46  C   UNL     1      12.148   1.974 -10.412  1.00  0.00     0.031 A 
ATOM     47  C   UNL     1      13.482  -2.739  -5.415  1.00  0.00     0.031 A 
ATOM     48  C   UNL     1      13.329   2.230  -9.628  1.00  0.00     0.049 A 
ATOM     49  C   UNL     1      14.372  -1.550  -5.635  1.00  0.00     0.074 A 
ATOM     50  C   UNL     1      14.203   3.302  -9.711  1.00  0.00     0.029 A 
ATOM     51  N   UNL     1      13.789   1.421  -8.600  1.00  0.00    -0.354 N 
ATOM     52  N   UNL     1      14.246  -0.578  -6.507  1.00  0.00    -0.248 NA
ATOM     53  C   UNL     1      15.557  -1.439  -4.773  1.00  0.00     0.031 C 
ATOM     54  C   UNL     1      15.212   3.120  -8.760  1.00  0.00     0.029 A 
ATOM     55  C   UNL     1      14.934   1.968  -8.045  1.00  0.00     0.049 A 
ATOM     56  H   UNL     1      13.364   0.582  -8.308  1.00  0.00     0.167 HD
ATOM     57  C   UNL     1      15.324   0.270  -6.283  1.00  0.00     0.074 A 
ATOM     58  C   UNL     1      16.077  -0.290  -5.179  1.00  0.00     0.031 C 
ATOM     59  C   UNL     1      15.664   1.407  -6.937  1.00  0.00     0.031 A 
BRANCH  46  60
ATOM     60  C   UNL     1      11.778   2.977 -11.477  1.00  0.00    -0.014 A 
ATOM     61  C   UNL     1      10.672   3.831 -11.325  1.00  0.00     0.010 A 
ATOM     62  C   UNL     1      12.597   3.118 -12.615  1.00  0.00     0.010 A 
ATOM     63  C   UNL     1      10.376   4.788 -12.301  1.00  0.00     0.020 A 
ATOM     64  C   UNL     1      12.320   4.092 -13.579  1.00  0.00     0.020 A 
ATOM     65  C   UNL     1      11.203   4.914 -13.422  1.00  0.00     0.054 A 
BRANCH  65  66
ATOM     66  S   UNL     1      10.819   6.195 -14.648  1.00  0.00     0.124 S 
ATOM     67  O   UNL     1       9.621   5.654 -15.284  1.00  0.00    -0.237 OA
ATOM     68  O   UNL     1      10.609   7.379 -13.819  1.00  0.00    -0.237 OA
ATOM     69  O   UNL     1      12.009   6.235 -15.495  1.00  0.00    -0.744 OA
ENDBRANCH  65  66
ENDBRANCH  46  60
BRANCH  47  70
ATOM     70  C   UNL     1      13.827  -3.771  -4.395  1.00  0.00    -0.014 A 
ATOM     71  C   UNL     1      13.785  -3.475  -3.022  1.00  0.00     0.010 A 
ATOM     72  C   UNL     1      14.216  -5.062  -4.802  1.00  0.00     0.010 A 
ATOM     73  C   UNL     1      14.157  -4.439  -2.078  1.00  0.00     0.020 A 
ATOM     74  C   UNL     1      14.550  -6.039  -3.861  1.00  0.00     0.020 A 
ATOM     75  C   UNL     1      14.539  -5.714  -2.505  1.00  0.00     0.054 A 
BRANCH  75  76
ATOM     76  S   UNL     1      15.000  -6.956  -1.266  1.00  0.00     0.124 S 
ATOM     77  O   UNL     1      16.328  -6.502  -0.865  1.00  0.00    -0.237 OA
ATOM     78  O   UNL     1      13.950  -6.807  -0.262  1.00  0.00    -0.237 OA
ATOM     79  O   UNL     1      14.965  -8.212  -2.012  1.00  0.00    -0.744 OA
ENDBRANCH  75  76
ENDBRANCH  47  70
BRANCH  59  80
ATOM     80  C   UNL     1      16.871   2.154  -6.437  1.00  0.00    -0.014 A 
ATOM     81  C   UNL     1      18.172   1.666  -6.645  1.00  0.00     0.010 A 
ATOM     82  C   UNL     1      16.695   3.386  -5.782  1.00  0.00     0.010 A 
ATOM     83  C   UNL     1      19.276   2.381  -6.173  1.00  0.00     0.020 A 
ATOM     84  C   UNL     1      17.797   4.118  -5.335  1.00  0.00     0.020 A 
ATOM     85  C   UNL     1      19.081   3.602  -5.521  1.00  0.00     0.054 A 
BRANCH  85  86
ATOM     86  S   UNL     1      20.532   4.530  -4.952  1.00  0.00     0.124 S 
ATOM     87  O   UNL     1      20.960   3.747  -3.796  1.00  0.00    -0.237 OA
ATOM     88  O   UNL     1      21.420   4.478  -6.111  1.00  0.00    -0.237 OA
ATOM     89  O   UNL     1      19.998   5.855  -4.644  1.00  0.00    -0.744 OA
ENDBRANCH  85  86
ENDBRANCH  59  80
ENDBRANCH  33  34
ENDBRANCH  26  28
ENDBRANCH  25  26
ENDBRANCH  24  25
ENDBRANCH   1  24
TORSDOF 18
