REMARK SMILES O=C(OCCOC(=O)c1cccc2cccc([S@](=O)c3ccccc3CO)c12)c1ccc(-c2c3nc(c(-c4ccc(S(=O)(=O)[O-])cc4)c4ccc([nH]4)c(-c4ccc(S(=O)(=O)[O-])cc4)c4nc(c(-c5ccc(S(=O)(=O)[O-])cc5)c5ccc2[nH]5)C=C4)C=C3)cc1
REMARK SMILES IDX 5 1 4 2 3 3 2 4 1 5 29 6 30 7 88 8 31 9 87 10 32 11 33 12
REMARK SMILES IDX 34 13 81 14 35 15 86 16 80 17 82 18 36 19 85 20 79 21 78 22
REMARK SMILES IDX 37 24 67 25 48 26 66 27 49 28 52 29 65 30 83 31 50 32 51 33
REMARK SMILES IDX 64 35 84 36 53 37 38 38 39 39 47 40 40 41 46 42 41 43 42 44
REMARK SMILES IDX 43 45 44 46 45 47 68 48 69 49 77 50 70 51 76 52 71 53 72 54
REMARK SMILES IDX 73 55 74 56 75 57 54 58 55 59 63 60 56 61 62 62 57 63 58 64
REMARK SMILES IDX 59 65 60 66 61 67 6 68 7 69 8 70 9 71 10 72 28 73 11 74
REMARK SMILES IDX 13 75 17 76 12 77 14 78 16 79 15 80 18 81 19 82 20 83 21 84
REMARK SMILES IDX 25 85 22 86 24 87 23 88 26 89 27 90
REMARK H PARENT 82 23 52 34 27 91
REMARK Flexibility Score: inf
ROOT
ATOM      1  C   UNL     1       0.908  -3.743   0.516  1.00  0.00     0.275 C 
ENDROOT
BRANCH   1   2
ATOM      2  C   UNL     1       0.960  -4.457  -0.833  1.00  0.00     0.275 C 
BRANCH   2   3
ATOM      3  O   UNL     1       1.554  -3.670  -1.895  1.00  0.00    -0.458 OA
BRANCH   3   4
ATOM      4  C   UNL     1       0.973  -2.672  -2.608  1.00  0.00     0.338 C 
ATOM      5  O   UNL     1       1.634  -1.977  -3.375  1.00  0.00    -0.246 OA
BRANCH   4   6
ATOM      6  C   UNL     1      -0.481  -2.421  -2.480  1.00  0.00     0.060 A 
ATOM      7  C   UNL     1      -1.415  -3.445  -2.638  1.00  0.00     0.016 A 
ATOM      8  C   UNL     1      -0.925  -1.104  -2.296  1.00  0.00     0.016 A 
ATOM      9  C   UNL     1      -2.775  -3.166  -2.532  1.00  0.00     0.010 A 
ATOM     10  C   UNL     1      -2.284  -0.823  -2.163  1.00  0.00     0.010 A 
ATOM     11  C   UNL     1      -3.217  -1.854  -2.305  1.00  0.00    -0.014 A 
BRANCH  11  12
ATOM     12  C   UNL     1      -4.665  -1.581  -2.420  1.00  0.00     0.031 A 
ATOM     13  C   UNL     1      -5.184  -1.062  -3.727  1.00  0.00     0.074 A 
ATOM     14  C   UNL     1      -5.509  -1.932  -1.433  1.00  0.00     0.049 A 
ATOM     15  N   UNL     1      -6.411  -1.072  -4.176  1.00  0.00    -0.248 NA
ATOM     16  C   UNL     1      -4.198  -0.512  -4.673  1.00  0.00     0.031 C 
ATOM     17  C   UNL     1      -5.110  -2.488  -0.142  1.00  0.00     0.029 A 
ATOM     18  N   UNL     1      -6.878  -1.898  -1.372  1.00  0.00    -0.354 N 
ATOM     19  C   UNL     1      -6.327  -0.620  -5.485  1.00  0.00     0.074 A 
ATOM     20  C   UNL     1      -4.953  -0.246  -5.727  1.00  0.00     0.031 C 
ATOM     21  C   UNL     1      -6.208  -2.712   0.601  1.00  0.00     0.029 A 
ATOM     22  C   UNL     1      -7.387  -2.359  -0.181  1.00  0.00     0.049 A 
ATOM     23  H   UNL     1      -7.442  -1.575  -2.111  1.00  0.00     0.167 HD
ATOM     24  C   UNL     1      -7.304  -0.575  -6.419  1.00  0.00     0.031 A 
ATOM     25  C   UNL     1      -8.664  -2.514   0.217  1.00  0.00     0.031 A 
ATOM     26  C   UNL     1      -8.677  -0.887  -6.144  1.00  0.00     0.049 A 
ATOM     27  C   UNL     1      -9.758  -2.303  -0.794  1.00  0.00     0.074 A 
ATOM     28  C   UNL     1      -9.757  -0.866  -7.006  1.00  0.00     0.029 A 
ATOM     29  N   UNL     1      -9.162  -1.251  -4.896  1.00  0.00    -0.354 N 
ATOM     30  N   UNL     1      -9.652  -1.980  -2.062  1.00  0.00    -0.248 NA
ATOM     31  C   UNL     1     -11.136  -2.531  -0.341  1.00  0.00     0.031 C 
ATOM     32  C   UNL     1     -10.906  -1.159  -6.263  1.00  0.00     0.029 A 
ATOM     33  C   UNL     1     -10.534  -1.417  -4.952  1.00  0.00     0.049 A 
ATOM     34  H   UNL     1      -8.611  -1.373  -4.089  1.00  0.00     0.167 HD
ATOM     35  C   UNL     1     -10.944  -2.015  -2.571  1.00  0.00     0.074 A 
ATOM     36  C   UNL     1     -11.814  -2.385  -1.472  1.00  0.00     0.031 C 
ATOM     37  C   UNL     1     -11.372  -1.780  -3.837  1.00  0.00     0.031 A 
BRANCH  24  38
ATOM     38  C   UNL     1      -6.897  -0.170  -7.807  1.00  0.00    -0.014 A 
ATOM     39  C   UNL     1      -6.146  -1.045  -8.616  1.00  0.00     0.010 A 
ATOM     40  C   UNL     1      -7.250   1.094  -8.307  1.00  0.00     0.010 A 
ATOM     41  C   UNL     1      -5.720  -0.646  -9.885  1.00  0.00     0.020 A 
ATOM     42  C   UNL     1      -6.842   1.489  -9.585  1.00  0.00     0.020 A 
ATOM     43  C   UNL     1      -6.064   0.623 -10.358  1.00  0.00     0.054 A 
BRANCH  43  44
ATOM     44  S   UNL     1      -5.495   1.120 -12.007  1.00  0.00     0.124 S 
ATOM     45  O   UNL     1      -4.071   1.348 -11.777  1.00  0.00    -0.237 OA
ATOM     46  O   UNL     1      -5.821  -0.046 -12.824  1.00  0.00    -0.237 OA
ATOM     47  O   UNL     1      -6.278   2.319 -12.296  1.00  0.00    -0.744 OA
ENDBRANCH  43  44
ENDBRANCH  24  38
BRANCH  25  48
ATOM     48  C   UNL     1      -8.966  -2.923   1.616  1.00  0.00    -0.014 A 
ATOM     49  C   UNL     1      -9.475  -4.198   1.916  1.00  0.00     0.010 A 
ATOM     50  C   UNL     1      -8.742  -2.014   2.668  1.00  0.00     0.010 A 
ATOM     51  C   UNL     1      -9.779  -4.547   3.237  1.00  0.00     0.020 A 
ATOM     52  C   UNL     1      -9.024  -2.365   3.991  1.00  0.00     0.020 A 
ATOM     53  C   UNL     1      -9.554  -3.627   4.266  1.00  0.00     0.054 A 
BRANCH  53  54
ATOM     54  S   UNL     1      -9.934  -4.108   5.974  1.00  0.00     0.124 S 
ATOM     55  O   UNL     1     -11.394  -4.117   5.970  1.00  0.00    -0.237 OA
ATOM     56  O   UNL     1      -9.292  -5.416   6.082  1.00  0.00    -0.237 OA
ATOM     57  O   UNL     1      -9.316  -3.052   6.772  1.00  0.00    -0.744 OA
ENDBRANCH  53  54
ENDBRANCH  25  48
BRANCH  37  58
ATOM     58  C   UNL     1     -12.842  -1.940  -4.104  1.00  0.00    -0.014 A 
ATOM     59  C   UNL     1     -13.770  -0.991  -3.643  1.00  0.00     0.010 A 
ATOM     60  C   UNL     1     -13.290  -3.024  -4.881  1.00  0.00     0.010 A 
ATOM     61  C   UNL     1     -15.128  -1.138  -3.932  1.00  0.00     0.020 A 
ATOM     62  C   UNL     1     -14.643  -3.158  -5.196  1.00  0.00     0.020 A 
ATOM     63  C   UNL     1     -15.556  -2.221  -4.707  1.00  0.00     0.054 A 
BRANCH  63  64
ATOM     64  S   UNL     1     -17.317  -2.361  -5.115  1.00  0.00     0.124 S 
ATOM     65  O   UNL     1     -17.880  -2.846  -3.858  1.00  0.00    -0.237 OA
ATOM     66  O   UNL     1     -17.673  -0.990  -5.476  1.00  0.00    -0.237 OA
ATOM     67  O   UNL     1     -17.341  -3.316  -6.220  1.00  0.00    -0.744 OA
ENDBRANCH  63  64
ENDBRANCH  37  58
ENDBRANCH  11  12
ENDBRANCH   4   6
ENDBRANCH   3   4
ENDBRANCH   2   3
ENDBRANCH   1   2
BRANCH   1  68
ATOM     68  O   UNL     1      -0.099  -2.722   0.531  1.00  0.00    -0.458 OA
BRANCH  68  69
ATOM     69  C   UNL     1       0.123  -1.720   1.421  1.00  0.00     0.338 C 
ATOM     70  O   UNL     1       1.023  -1.650   2.256  1.00  0.00    -0.246 OA
BRANCH  69  71
ATOM     71  C   UNL     1      -0.987  -0.758   1.355  1.00  0.00     0.069 A 
ATOM     72  C   UNL     1      -2.195  -1.300   1.844  1.00  0.00     0.016 A 
ATOM     73  C   UNL     1      -0.854   0.630   0.974  1.00  0.00     0.013 A 
ATOM     74  C   UNL     1      -3.321  -0.509   1.967  1.00  0.00     0.002 A 
ATOM     75  C   UNL     1      -2.054   1.397   1.143  1.00  0.00    -0.016 A 
ATOM     76  C   UNL     1       0.275   1.362   0.428  1.00  0.00     0.052 A 
ATOM     77  C   UNL     1      -3.248   0.825   1.608  1.00  0.00     0.009 A 
ATOM     78  C   UNL     1      -2.111   2.763   0.842  1.00  0.00     0.009 A 
ATOM     79  C   UNL     1       0.171   2.749   0.161  1.00  0.00     0.019 A 
ATOM     80  C   UNL     1      -1.004   3.446   0.375  1.00  0.00     0.002 A 
BRANCH  76  81
ATOM     81  S   UNL     1       1.769   0.665  -0.316  1.00  0.00     0.086 S 
ATOM     82  O   UNL     1       1.564  -0.796  -0.523  1.00  0.00    -0.249 OA
BRANCH  81  83
ATOM     83  C   UNL     1       3.034   0.824   0.964  1.00  0.00     0.049 A 
ATOM     84  C   UNL     1       2.928   1.754   2.010  1.00  0.00     0.018 A 
ATOM     85  C   UNL     1       4.234   0.072   0.835  1.00  0.00    -0.006 A 
ATOM     86  C   UNL     1       3.969   1.929   2.927  1.00  0.00     0.001 A 
ATOM     87  C   UNL     1       5.255   0.245   1.789  1.00  0.00     0.007 A 
ATOM     88  C   UNL     1       5.129   1.173   2.819  1.00  0.00     0.000 A 
BRANCH  85  89
ATOM     89  C   UNL     1       4.440  -0.955  -0.263  1.00  0.00     0.192 C 
BRANCH  89  90
ATOM     90  O   UNL     1       5.816  -1.037  -0.643  1.00  0.00    -0.392 OA
ATOM     91  H   UNL     1       6.110  -0.176  -0.980  1.00  0.00     0.211 HD
ENDBRANCH  89  90
ENDBRANCH  85  89
ENDBRANCH  81  83
ENDBRANCH  76  81
ENDBRANCH  69  71
ENDBRANCH  68  69
ENDBRANCH   1  68
TORSDOF 18
