REMARK SMILES CC(C)Cc1ccc(-c2cc(Cl)cc3c2O[C@H](C(F)(F)F)C(C(=O)OCCOC(=O)c2ccc(-c4c5nc(c(-c6ccc(S(=O)(=O)[O-])cc6)c6ccc([nH]6)c(-c6ccc(S(=O)(=O)[O-])cc6)c6nc(c(-c7ccc(S(=O)(=O)[O-])cc7)c7ccc4[nH]7)C=C6)C=C5)cc2)=C3)cc1
REMARK SMILES IDX 26 1 25 2 23 3 24 4 22 5 9 6 10 7 15 8 11 9 14 10 16 11
REMARK SMILES IDX 12 12 13 13 91 14 17 15 8 16 5 17 6 18 93 19 7 20 92 21 4 22
REMARK SMILES IDX 2 23 1 24 3 25 18 26 19 27 20 28 21 29 27 30 28 31 29 32
REMARK SMILES IDX 30 33 31 34 32 35 90 36 33 37 89 38 34 39 35 40 36 41 83 42
REMARK SMILES IDX 37 43 88 44 82 45 84 46 38 47 87 48 81 49 80 50 39 52 69 53
REMARK SMILES IDX 50 54 68 55 51 56 54 57 67 58 85 59 52 60 53 61 66 63 86 64
REMARK SMILES IDX 55 65 40 66 41 67 49 68 42 69 48 70 43 71 44 72 45 73 46 74
REMARK SMILES IDX 47 75 70 76 71 77 79 78 72 79 78 80 73 81 74 82 75 83 76 84
REMARK SMILES IDX 77 85 56 86 57 87 65 88 58 89 64 90 59 91 60 92 61 93 62 94
REMARK SMILES IDX 63 95
REMARK H PARENT 84 51 54 62
REMARK Flexibility Score: inf
ROOT
ATOM      1  C   UNL     1      -4.451   3.377 -10.842  1.00  0.00     0.275 C 
ENDROOT
BRANCH   1   2
ATOM      2  O   UNL     1      -5.228   2.657  -9.852  1.00  0.00    -0.459 OA
BRANCH   2   3
ATOM      3  C   UNL     1      -5.496   1.379 -10.229  1.00  0.00     0.338 C 
ATOM      4  O   UNL     1      -5.199   0.910 -11.323  1.00  0.00    -0.246 OA
BRANCH   3   5
ATOM      5  C   UNL     1      -6.108   0.546  -9.164  1.00  0.00     0.087 C 
ATOM      6  C   UNL     1      -4.229  -0.115  -5.585  1.00  0.00     0.026 A 
ATOM      7  C   UNL     1      -2.881   0.021  -6.019  1.00  0.00     0.033 A 
ATOM      8  C   UNL     1      -5.123  -0.157  -6.666  1.00  0.00     0.135 A 
ATOM      9  C   UNL     1      -2.432  -0.018  -7.345  1.00  0.00     0.042 A 
ATOM     10  C   UNL     1      -4.628  -0.504  -7.965  1.00  0.00     0.019 A 
ATOM     11  O   UNL     1      -6.444   0.287  -6.656  1.00  0.00    -0.475 OA
ATOM     12  Cl  UNL     1      -0.873   0.472  -7.865  1.00  0.00    -0.084 Cl
ATOM     13  C   UNL     1      -3.296  -0.416  -8.315  1.00  0.00     0.032 A 
ATOM     14  C   UNL     1      -5.569  -0.678  -9.086  1.00  0.00     0.027 C 
ATOM     15  C   UNL     1      -6.803   1.059  -7.917  1.00  0.00     0.316 C 
BRANCH   6  16
ATOM     16  C   UNL     1      -4.337  -0.305  -4.063  1.00  0.00    -0.015 A 
ATOM     17  C   UNL     1      -2.730  -0.255  -1.577  1.00  0.00    -0.048 A 
ATOM     18  C   UNL     1      -3.658   0.747  -1.879  1.00  0.00     0.004 A 
ATOM     19  C   UNL     1      -2.974  -1.435  -2.326  1.00  0.00     0.004 A 
ATOM     20  C   UNL     1      -4.456   0.715  -3.099  1.00  0.00     0.009 A 
ATOM     21  C   UNL     1      -3.724  -1.455  -3.538  1.00  0.00     0.009 A 
BRANCH  17  22
ATOM     22  C   UNL     1      -1.528  -0.230  -0.388  1.00  0.00     0.038 C 
BRANCH  22  23
ATOM     23  C   UNL     1       0.402   0.086  -0.149  1.00  0.00    -0.013 C 
ATOM     24  C   UNL     1       1.093   1.464  -0.437  1.00  0.00     0.008 C 
ATOM     25  C   UNL     1       1.417  -0.388   0.989  1.00  0.00     0.008 C 
ENDBRANCH  22  23
ENDBRANCH  17  22
ENDBRANCH   6  16
BRANCH  15  26
ATOM     26  C   UNL     1      -8.298   0.938  -8.243  1.00  0.00     0.430 C 
ATOM     27  F   UNL     1      -8.681  -0.354  -8.398  1.00  0.00    -0.167 F 
ATOM     28  F   UNL     1      -9.086   1.490  -7.299  1.00  0.00    -0.167 F 
ATOM     29  F   UNL     1      -8.590   1.569  -9.415  1.00  0.00    -0.167 F 
ENDBRANCH  15  26
ENDBRANCH   3   5
ENDBRANCH   2   3
ENDBRANCH   1   2
BRANCH   1  30
ATOM     30  C   UNL     1      -3.796   4.647 -10.290  1.00  0.00     0.275 C 
BRANCH  30  31
ATOM     31  O   UNL     1      -2.955   4.356  -9.159  1.00  0.00    -0.458 OA
BRANCH  31  32
ATOM     32  C   UNL     1      -3.570   4.509  -7.964  1.00  0.00     0.338 C 
ATOM     33  O   UNL     1      -4.718   4.914  -7.799  1.00  0.00    -0.246 OA
BRANCH  32  34
ATOM     34  C   UNL     1      -2.742   3.980  -6.853  1.00  0.00     0.060 A 
ATOM     35  C   UNL     1      -3.440   3.524  -5.749  1.00  0.00     0.016 A 
ATOM     36  C   UNL     1      -1.339   3.898  -6.842  1.00  0.00     0.016 A 
ATOM     37  C   UNL     1      -2.743   2.931  -4.702  1.00  0.00     0.010 A 
ATOM     38  C   UNL     1      -0.649   3.248  -5.780  1.00  0.00     0.010 A 
ATOM     39  C   UNL     1      -1.355   2.689  -4.717  1.00  0.00    -0.014 A 
BRANCH  39  40
ATOM     40  C   UNL     1      -0.804   1.915  -3.536  1.00  0.00     0.031 A 
ATOM     41  C   UNL     1      -1.178   2.657  -2.106  1.00  0.00     0.074 A 
ATOM     42  C   UNL     1      -0.281   0.627  -3.650  1.00  0.00     0.049 A 
ATOM     43  N   UNL     1      -1.285   2.195  -0.874  1.00  0.00    -0.248 NA
ATOM     44  C   UNL     1      -1.484   4.100  -2.128  1.00  0.00     0.031 C 
ATOM     45  C   UNL     1       0.093  -0.321  -4.695  1.00  0.00     0.029 A 
ATOM     46  N   UNL     1      -0.121  -0.236  -2.607  1.00  0.00    -0.354 N 
ATOM     47  C   UNL     1      -1.573   3.221   0.032  1.00  0.00     0.074 A 
ATOM     48  C   UNL     1      -1.744   4.378  -0.847  1.00  0.00     0.031 C 
ATOM     49  C   UNL     1       0.226  -1.595  -4.205  1.00  0.00     0.029 A 
ATOM     50  C   UNL     1       0.088  -1.623  -2.729  1.00  0.00     0.049 A 
ATOM     51  H   UNL     1      -0.153   0.141  -1.698  1.00  0.00     0.167 HD
ATOM     52  C   UNL     1      -1.636   3.246   1.418  1.00  0.00     0.031 A 
ATOM     53  C   UNL     1       0.145  -2.728  -1.819  1.00  0.00     0.031 A 
ATOM     54  C   UNL     1      -1.384   2.174   2.430  1.00  0.00     0.049 A 
ATOM     55  C   UNL     1      -0.024  -2.885  -0.087  1.00  0.00     0.074 A 
ATOM     56  C   UNL     1      -1.302   2.191   3.817  1.00  0.00     0.029 A 
ATOM     57  N   UNL     1      -1.075   0.857   2.158  1.00  0.00    -0.354 N 
ATOM     58  N   UNL     1      -0.681  -2.133   0.784  1.00  0.00    -0.248 NA
ATOM     59  C   UNL     1       0.608  -3.982   0.685  1.00  0.00     0.031 C 
ATOM     60  C   UNL     1      -0.978   0.873   4.293  1.00  0.00     0.029 A 
ATOM     61  C   UNL     1      -0.881  -0.021   3.222  1.00  0.00     0.049 A 
ATOM     62  H   UNL     1      -0.993   0.544   1.228  1.00  0.00     0.167 HD
ATOM     63  C   UNL     1      -0.358  -2.374   2.095  1.00  0.00     0.074 A 
ATOM     64  C   UNL     1       0.327  -3.667   1.973  1.00  0.00     0.031 C 
ATOM     65  C   UNL     1      -0.422  -1.483   3.165  1.00  0.00     0.031 A 
BRANCH  52  66
ATOM     66  C   UNL     1      -1.975   4.613   1.977  1.00  0.00    -0.014 A 
ATOM     67  C   UNL     1      -3.291   5.109   1.906  1.00  0.00     0.010 A 
ATOM     68  C   UNL     1      -0.968   5.431   2.522  1.00  0.00     0.010 A 
ATOM     69  C   UNL     1      -3.582   6.414   2.316  1.00  0.00     0.020 A 
ATOM     70  C   UNL     1      -1.260   6.731   2.954  1.00  0.00     0.020 A 
ATOM     71  C   UNL     1      -2.562   7.221   2.827  1.00  0.00     0.054 A 
BRANCH  71  72
ATOM     72  S   UNL     1      -2.963   8.925   3.314  1.00  0.00     0.124 S 
ATOM     73  O   UNL     1      -3.203   9.559   2.019  1.00  0.00    -0.237 OA
ATOM     74  O   UNL     1      -4.144   8.747   4.154  1.00  0.00    -0.237 OA
ATOM     75  O   UNL     1      -1.764   9.378   4.014  1.00  0.00    -0.744 OA
ENDBRANCH  71  72
ENDBRANCH  52  66
BRANCH  53  76
ATOM     76  C   UNL     1       0.405  -4.085  -2.431  1.00  0.00    -0.014 A 
ATOM     77  C   UNL     1      -0.449  -5.173  -2.156  1.00  0.00     0.010 A 
ATOM     78  C   UNL     1       1.520  -4.309  -3.259  1.00  0.00     0.010 A 
ATOM     79  C   UNL     1      -0.209  -6.436  -2.716  1.00  0.00     0.020 A 
ATOM     80  C   UNL     1       1.736  -5.553  -3.859  1.00  0.00     0.020 A 
ATOM     81  C   UNL     1       0.873  -6.612  -3.580  1.00  0.00     0.054 A 
BRANCH  81  82
ATOM     82  S   UNL     1       1.114  -8.222  -4.385  1.00  0.00     0.124 S 
ATOM     83  O   UNL     1       1.658  -9.028  -3.298  1.00  0.00    -0.237 OA
ATOM     84  O   UNL     1      -0.239  -8.567  -4.815  1.00  0.00    -0.237 OA
ATOM     85  O   UNL     1       2.045  -7.922  -5.471  1.00  0.00    -0.744 OA
ENDBRANCH  81  82
ENDBRANCH  53  76
BRANCH  65  86
ATOM     86  C   UNL     1       0.181  -2.006   4.446  1.00  0.00    -0.014 A 
ATOM     87  C   UNL     1       1.564  -2.242   4.573  1.00  0.00     0.010 A 
ATOM     88  C   UNL     1      -0.645  -2.198   5.565  1.00  0.00     0.010 A 
ATOM     89  C   UNL     1       2.093  -2.742   5.768  1.00  0.00     0.020 A 
ATOM     90  C   UNL     1      -0.117  -2.665   6.771  1.00  0.00     0.020 A 
ATOM     91  C   UNL     1       1.243  -2.967   6.854  1.00  0.00     0.054 A 
BRANCH  91  92
ATOM     92  S   UNL     1       1.931  -3.684   8.371  1.00  0.00     0.124 S 
ATOM     93  O   UNL     1       2.242  -5.046   7.947  1.00  0.00    -0.237 OA
ATOM     94  O   UNL     1       3.085  -2.829   8.637  1.00  0.00    -0.237 OA
ATOM     95  O   UNL     1       0.840  -3.567   9.336  1.00  0.00    -0.744 OA
ENDBRANCH  91  92
ENDBRANCH  65  86
ENDBRANCH  39  40
ENDBRANCH  32  34
ENDBRANCH  31  32
ENDBRANCH  30  31
ENDBRANCH   1  30
TORSDOF 18
