REMARK SMILES O=C(OCCOC(=O)[C@H]1CS[C@@H](c2cccc(OCc3ccc(Cl)cc3Cl)c2)[NH2+]1)c1ccc(-c2c3nc(c(-c4ccc(S(=O)(=O)[O-])cc4)c4ccc([nH]4)c(-c4ccc(S(=O)(=O)[O-])cc4)c4nc(c(-c5ccc(S(=O)(=O)[O-])cc5)c5ccc2[nH]5)C=C4)C=C3)cc1
REMARK SMILES IDX 5 1 4 2 3 3 2 4 1 5 30 6 31 7 89 8 32 9 88 10 33 11 34 12
REMARK SMILES IDX 35 13 82 14 36 15 87 16 81 17 83 18 37 19 86 20 80 21 79 22
REMARK SMILES IDX 38 24 68 25 49 26 67 27 50 28 53 29 66 30 84 31 51 32 52 33
REMARK SMILES IDX 65 35 85 36 54 37 39 38 40 39 48 40 41 41 47 42 42 43 43 44
REMARK SMILES IDX 44 45 45 46 46 47 69 48 70 49 78 50 71 51 77 52 72 53 73 54
REMARK SMILES IDX 74 55 75 56 76 57 55 58 56 59 64 60 57 61 63 62 58 63 59 64
REMARK SMILES IDX 60 65 61 66 62 67 6 68 7 69 8 70 9 71 10 72 29 73 11 74
REMARK SMILES IDX 12 75 13 78 14 79 28 80 15 81 17 82 16 83 18 84 19 85 20 86
REMARK SMILES IDX 21 87 26 88 22 89 25 90 27 91 23 92 24 93
REMARK H PARENT 83 23 53 34 29 76 29 77
REMARK Flexibility Score: inf
ROOT
ATOM      1  C   UNL     1       3.770  -1.035  -1.907  1.00  0.00     0.274 C 
ENDROOT
BRANCH   1   2
ATOM      2  C   UNL     1       3.942  -1.754  -0.557  1.00  0.00     0.275 C 
BRANCH   2   3
ATOM      3  O   UNL     1       3.046  -1.349   0.494  1.00  0.00    -0.458 OA
BRANCH   3   4
ATOM      4  C   UNL     1       3.097  -0.243   1.273  1.00  0.00     0.338 C 
ATOM      5  O   UNL     1       2.266  -0.120   2.185  1.00  0.00    -0.246 OA
BRANCH   4   6
ATOM      6  C   UNL     1       3.979   0.919   0.959  1.00  0.00     0.060 A 
ATOM      7  C   UNL     1       5.156   0.846   0.217  1.00  0.00     0.016 A 
ATOM      8  C   UNL     1       3.532   2.191   1.338  1.00  0.00     0.016 A 
ATOM      9  C   UNL     1       5.697   1.975  -0.384  1.00  0.00     0.010 A 
ATOM     10  C   UNL     1       4.128   3.339   0.789  1.00  0.00     0.010 A 
ATOM     11  C   UNL     1       5.168   3.235  -0.143  1.00  0.00    -0.014 A 
BRANCH  11  12
ATOM     12  C   UNL     1       5.976   4.354  -0.700  1.00  0.00     0.031 A 
ATOM     13  C   UNL     1       6.649   5.298   0.667  1.00  0.00     0.074 A 
ATOM     14  C   UNL     1       6.059   4.466  -2.153  1.00  0.00     0.049 A 
ATOM     15  N   UNL     1       7.425   6.377   0.652  1.00  0.00    -0.248 NA
ATOM     16  C   UNL     1       6.277   5.041   2.081  1.00  0.00     0.031 C 
ATOM     17  C   UNL     1       4.970   4.177  -3.147  1.00  0.00     0.029 A 
ATOM     18  N   UNL     1       6.933   5.188  -3.065  1.00  0.00    -0.354 N 
ATOM     19  C   UNL     1       7.485   7.044   1.860  1.00  0.00     0.074 A 
ATOM     20  C   UNL     1       6.770   6.108   2.741  1.00  0.00     0.031 C 
ATOM     21  C   UNL     1       5.143   4.923  -4.293  1.00  0.00     0.029 A 
ATOM     22  C   UNL     1       6.357   5.794  -4.208  1.00  0.00     0.049 A 
ATOM     23  H   UNL     1       7.901   5.252  -2.893  1.00  0.00     0.167 HD
ATOM     24  C   UNL     1       8.067   8.274   2.168  1.00  0.00     0.031 A 
ATOM     25  C   UNL     1       6.685   6.933  -4.979  1.00  0.00     0.031 A 
ATOM     26  C   UNL     1       8.678   9.334   1.232  1.00  0.00     0.049 A 
ATOM     27  C   UNL     1       7.728   8.266  -4.639  1.00  0.00     0.074 A 
ATOM     28  C   UNL     1       8.925  10.695   1.420  1.00  0.00     0.029 A 
ATOM     29  N   UNL     1       9.313   9.144  -0.027  1.00  0.00    -0.354 N 
ATOM     30  N   UNL     1       8.734   8.440  -3.796  1.00  0.00    -0.248 NA
ATOM     31  C   UNL     1       7.493   9.560  -5.334  1.00  0.00     0.031 C 
ATOM     32  C   UNL     1       9.421  11.289   0.194  1.00  0.00     0.029 A 
ATOM     33  C   UNL     1       9.513  10.325  -0.830  1.00  0.00     0.049 A 
ATOM     34  H   UNL     1       9.601   8.254  -0.333  1.00  0.00     0.167 HD
ATOM     35  C   UNL     1       9.073   9.822  -3.600  1.00  0.00     0.074 A 
ATOM     36  C   UNL     1       8.374  10.415  -4.767  1.00  0.00     0.031 C 
ATOM     37  C   UNL     1       9.547  10.584  -2.468  1.00  0.00     0.031 A 
BRANCH  24  38
ATOM     38  C   UNL     1       8.112   8.533   3.684  1.00  0.00    -0.014 A 
ATOM     39  C   UNL     1       8.917   7.671   4.462  1.00  0.00     0.010 A 
ATOM     40  C   UNL     1       7.390   9.535   4.366  1.00  0.00     0.010 A 
ATOM     41  C   UNL     1       8.969   7.763   5.857  1.00  0.00     0.020 A 
ATOM     42  C   UNL     1       7.464   9.655   5.775  1.00  0.00     0.020 A 
ATOM     43  C   UNL     1       8.240   8.754   6.511  1.00  0.00     0.054 A 
BRANCH  43  44
ATOM     44  S   UNL     1       8.353   8.839   8.326  1.00  0.00     0.124 S 
ATOM     45  O   UNL     1       7.563   7.679   8.734  1.00  0.00    -0.237 OA
ATOM     46  O   UNL     1       9.791   8.728   8.564  1.00  0.00    -0.237 OA
ATOM     47  O   UNL     1       7.769  10.137   8.653  1.00  0.00    -0.744 OA
ENDBRANCH  43  44
ENDBRANCH  24  38
BRANCH  25  48
ATOM     48  C   UNL     1       6.081   7.055  -6.394  1.00  0.00    -0.014 A 
ATOM     49  C   UNL     1       7.011   7.027  -7.459  1.00  0.00     0.010 A 
ATOM     50  C   UNL     1       4.720   7.183  -6.752  1.00  0.00     0.010 A 
ATOM     51  C   UNL     1       6.619   7.076  -8.807  1.00  0.00     0.020 A 
ATOM     52  C   UNL     1       4.313   7.216  -8.115  1.00  0.00     0.020 A 
ATOM     53  C   UNL     1       5.268   7.148  -9.134  1.00  0.00     0.054 A 
BRANCH  53  54
ATOM     54  S   UNL     1       4.803   7.067 -10.898  1.00  0.00     0.124 S 
ATOM     55  O   UNL     1       5.301   8.338 -11.413  1.00  0.00    -0.237 OA
ATOM     56  O   UNL     1       5.520   5.879 -11.355  1.00  0.00    -0.237 OA
ATOM     57  O   UNL     1       3.348   6.932 -10.866  1.00  0.00    -0.744 OA
ENDBRANCH  53  54
ENDBRANCH  25  48
BRANCH  37  58
ATOM     58  C   UNL     1       9.898  12.043  -2.763  1.00  0.00    -0.014 A 
ATOM     59  C   UNL     1       9.009  13.094  -3.088  1.00  0.00     0.010 A 
ATOM     60  C   UNL     1      11.251  12.360  -2.565  1.00  0.00     0.010 A 
ATOM     61  C   UNL     1       9.492  14.401  -3.301  1.00  0.00     0.020 A 
ATOM     62  C   UNL     1      11.730  13.657  -2.742  1.00  0.00     0.020 A 
ATOM     63  C   UNL     1      10.857  14.666  -3.140  1.00  0.00     0.054 A 
BRANCH  63  64
ATOM     64  S   UNL     1      11.503  16.337  -3.440  1.00  0.00     0.124 S 
ATOM     65  O   UNL     1      11.405  16.445  -4.893  1.00  0.00    -0.237 OA
ATOM     66  O   UNL     1      10.585  17.182  -2.681  1.00  0.00    -0.237 OA
ATOM     67  O   UNL     1      12.866  16.279  -2.914  1.00  0.00    -0.744 OA
ENDBRANCH  63  64
ENDBRANCH  37  58
ENDBRANCH  11  12
ENDBRANCH   4   6
ENDBRANCH   3   4
ENDBRANCH   2   3
ENDBRANCH   1   2
BRANCH   1  68
ATOM     68  O   UNL     1       3.189   0.290  -1.843  1.00  0.00    -0.458 OA
BRANCH  68  69
ATOM     69  C   UNL     1       1.864   0.365  -2.135  1.00  0.00     0.365 C 
ATOM     70  O   UNL     1       1.187  -0.630  -2.395  1.00  0.00    -0.245 OA
BRANCH  69  71
ATOM     71  C   UNL     1       1.252   1.783  -2.178  1.00  0.00     0.304 C 
ATOM     72  C   UNL     1      -0.144   1.663  -1.564  1.00  0.00     0.153 C 
ATOM     73  N   UNL     1       1.981   2.877  -1.468  1.00  0.00    -0.319 N 
ATOM     74  S   UNL     1      -0.560   3.284  -0.896  1.00  0.00    -0.087 SA
ATOM     75  C   UNL     1       1.041   4.012  -1.335  1.00  0.00     0.274 C 
ATOM     76  H   UNL     1       2.799   3.160  -2.007  1.00  0.00     0.348 HD
ATOM     77  H   UNL     1       2.303   2.563  -0.552  1.00  0.00     0.348 HD
BRANCH  75  78
ATOM     78  C   UNL     1       1.470   5.142  -0.392  1.00  0.00     0.024 A 
ATOM     79  C   UNL     1       1.261   5.109   1.002  1.00  0.00     0.011 A 
ATOM     80  C   UNL     1       2.049   6.317  -0.923  1.00  0.00     0.057 A 
ATOM     81  C   UNL     1       1.663   6.166   1.832  1.00  0.00     0.004 A 
ATOM     82  C   UNL     1       2.376   7.409  -0.098  1.00  0.00     0.120 A 
ATOM     83  C   UNL     1       2.233   7.303   1.280  1.00  0.00     0.046 A 
BRANCH  82  84
ATOM     84  O   UNL     1       2.802   8.646  -0.487  1.00  0.00    -0.489 OA
BRANCH  84  85
ATOM     85  C   UNL     1       3.339   8.850  -1.784  1.00  0.00     0.267 C 
BRANCH  85  86
ATOM     86  C   UNL     1       4.782   8.582  -1.718  1.00  0.00     0.008 A 
ATOM     87  C   UNL     1       5.190   7.311  -1.461  1.00  0.00     0.010 A 
ATOM     88  C   UNL     1       5.755   9.531  -1.833  1.00  0.00     0.049 A 
ATOM     89  C   UNL     1       6.527   7.055  -1.476  1.00  0.00     0.021 A 
ATOM     90  C   UNL     1       7.074   9.141  -1.748  1.00  0.00     0.041 A 
ATOM     91  Cl  UNL     1       5.474  11.207  -2.072  1.00  0.00    -0.084 Cl
ATOM     92  C   UNL     1       7.542   7.868  -1.662  1.00  0.00     0.042 A 
ATOM     93  Cl  UNL     1       9.150   7.024  -1.685  1.00  0.00    -0.084 Cl
ENDBRANCH  85  86
ENDBRANCH  84  85
ENDBRANCH  82  84
ENDBRANCH  75  78
ENDBRANCH  69  71
ENDBRANCH  68  69
ENDBRANCH   1  68
TORSDOF 18
