REMARK SMILES C[C@@H]1[C@@H](C(=O)OCCOC(=O)c2ccc(-c3c4nc(c(-c5ccc(S(=O)(=O)[O-])cc5)c5ccc([nH]5)c(-c5ccc(S(=O)(=O)[O-])cc5)c5nc(c(-c6ccc(S(=O)(=O)[O-])cc6)c6ccc3[nH]6)C=C5)C=C4)cc2)CC[N@@H+]1C[C@H]1Cc2ccccc2O1
REMARK SMILES IDX 8 1 7 2 6 3 4 4 5 5 3 6 1 7 2 8 74 9 72 10 73 11 75 13 76 14
REMARK SMILES IDX 77 15 84 16 78 17 83 18 79 19 82 20 80 21 81 22 9 23 10 24
REMARK SMILES IDX 11 25 12 26 13 27 71 28 14 29 70 30 15 31 16 32 17 33 64 34
REMARK SMILES IDX 18 35 69 36 63 37 65 38 19 39 68 40 62 41 61 42 20 44 50 45
REMARK SMILES IDX 31 46 49 47 32 48 35 49 48 50 66 51 33 52 34 53 47 55 67 56
REMARK SMILES IDX 36 57 21 58 22 59 30 60 23 61 29 62 24 63 25 64 26 65 27 66
REMARK SMILES IDX 28 67 51 68 52 69 60 70 53 71 59 72 54 73 55 74 56 75 57 76
REMARK SMILES IDX 58 77 37 78 38 79 46 80 39 81 45 82 40 83 41 84 42 85 43 86
REMARK SMILES IDX 44 87
REMARK H PARENT 74 12 65 43 35 54
REMARK Flexibility Score: inf
ROOT
ATOM      1  C   UNL     1      -0.775   0.955  -4.632  1.00  0.00     0.275 C 
ENDROOT
BRANCH   1   2
ATOM      2  C   UNL     1       0.096   1.776  -3.685  1.00  0.00     0.274 C 
BRANCH   2   3
ATOM      3  O   UNL     1       0.240   1.052  -2.451  1.00  0.00    -0.462 OA
BRANCH   3   4
ATOM      4  C   UNL     1      -0.534   1.463  -1.413  1.00  0.00     0.315 C 
ATOM      5  O   UNL     1      -1.141   2.525  -1.366  1.00  0.00    -0.252 OA
BRANCH   4   6
ATOM      6  C   UNL     1      -0.595   0.437  -0.300  1.00  0.00     0.162 C 
ATOM      7  C   UNL     1      -0.334   1.099   2.106  1.00  0.00     0.076 C 
ATOM      8  C   UNL     1       0.410   0.761   0.810  1.00  0.00     0.195 C 
ATOM      9  N   UNL     1       1.361  -0.363   0.814  1.00  0.00    -0.329 N 
ATOM     10  C   UNL     1      -0.285  -0.989  -0.735  1.00  0.00     0.083 C 
ATOM     11  C   UNL     1       1.179  -1.157  -0.391  1.00  0.00     0.263 C 
ATOM     12  H   UNL     1       2.275   0.090   0.793  1.00  0.00     0.348 HD
BRANCH   9  13
ATOM     13  C   UNL     1       1.704  -1.066   2.044  1.00  0.00     0.308 C 
BRANCH  13  14
ATOM     14  C   UNL     1       0.693  -2.037   2.683  1.00  0.00     0.232 C 
ATOM     15  C   UNL     1       0.470  -3.358   1.935  1.00  0.00     0.090 C 
ATOM     16  O   UNL     1       1.158  -2.383   4.027  1.00  0.00    -0.484 OA
ATOM     17  C   UNL     1       0.077  -4.191   3.095  1.00  0.00    -0.002 A 
ATOM     18  C   UNL     1       0.540  -3.588   4.255  1.00  0.00     0.123 A 
ATOM     19  C   UNL     1      -0.611  -5.388   3.138  1.00  0.00     0.007 A 
ATOM     20  C   UNL     1       0.362  -4.158   5.496  1.00  0.00     0.047 A 
ATOM     21  C   UNL     1      -0.833  -5.968   4.389  1.00  0.00     0.001 A 
ATOM     22  C   UNL     1      -0.344  -5.361   5.559  1.00  0.00     0.004 A 
ENDBRANCH  13  14
ENDBRANCH   9  13
ENDBRANCH   4   6
ENDBRANCH   3   4
ENDBRANCH   2   3
ENDBRANCH   1   2
BRANCH   1  23
ATOM     23  O   UNL     1      -2.098   0.834  -4.073  1.00  0.00    -0.458 OA
BRANCH  23  24
ATOM     24  C   UNL     1      -2.590  -0.419  -3.965  1.00  0.00     0.338 C 
ATOM     25  O   UNL     1      -2.058  -1.464  -4.319  1.00  0.00    -0.246 OA
BRANCH  24  26
ATOM     26  C   UNL     1      -3.916  -0.362  -3.336  1.00  0.00     0.060 A 
ATOM     27  C   UNL     1      -4.033  -0.032  -1.985  1.00  0.00     0.016 A 
ATOM     28  C   UNL     1      -5.044  -0.709  -4.077  1.00  0.00     0.016 A 
ATOM     29  C   UNL     1      -5.277  -0.079  -1.357  1.00  0.00     0.010 A 
ATOM     30  C   UNL     1      -6.299  -0.700  -3.461  1.00  0.00     0.010 A 
ATOM     31  C   UNL     1      -6.426  -0.403  -2.092  1.00  0.00    -0.014 A 
BRANCH  31  32
ATOM     32  C   UNL     1      -7.760  -0.465  -1.439  1.00  0.00     0.031 A 
ATOM     33  C   UNL     1      -8.493  -1.777  -1.358  1.00  0.00     0.074 A 
ATOM     34  C   UNL     1      -8.325   0.651  -0.937  1.00  0.00     0.049 A 
ATOM     35  N   UNL     1      -9.730  -2.012  -1.003  1.00  0.00    -0.248 NA
ATOM     36  C   UNL     1      -7.736  -2.981  -1.736  1.00  0.00     0.031 C 
ATOM     37  C   UNL     1      -7.703   1.976  -0.899  1.00  0.00     0.029 A 
ATOM     38  N   UNL     1      -9.559   0.848  -0.367  1.00  0.00    -0.354 N 
ATOM     39  C   UNL     1      -9.912  -3.383  -1.149  1.00  0.00     0.074 A 
ATOM     40  C   UNL     1      -8.661  -3.926  -1.634  1.00  0.00     0.031 C 
ATOM     41  C   UNL     1      -8.553   2.844  -0.326  1.00  0.00     0.029 A 
ATOM     42  C   UNL     1      -9.803   2.156  -0.020  1.00  0.00     0.049 A 
ATOM     43  H   UNL     1     -10.207   0.121  -0.222  1.00  0.00     0.167 HD
ATOM     44  C   UNL     1     -11.021  -4.121  -0.905  1.00  0.00     0.031 A 
ATOM     45  C   UNL     1     -10.919   2.745   0.452  1.00  0.00     0.031 A 
ATOM     46  C   UNL     1     -12.260  -3.580  -0.411  1.00  0.00     0.049 A 
ATOM     47  C   UNL     1     -12.157   1.916   0.655  1.00  0.00     0.074 A 
ATOM     48  C   UNL     1     -13.445  -4.244  -0.142  1.00  0.00     0.029 A 
ATOM     49  N   UNL     1     -12.470  -2.246  -0.099  1.00  0.00    -0.354 N 
ATOM     50  N   UNL     1     -12.328   0.630   0.463  1.00  0.00    -0.248 NA
ATOM     51  C   UNL     1     -13.356   2.622   1.128  1.00  0.00     0.031 C 
ATOM     52  C   UNL     1     -14.382  -3.304   0.300  1.00  0.00     0.029 A 
ATOM     53  C   UNL     1     -13.767  -2.064   0.350  1.00  0.00     0.049 A 
ATOM     54  H   UNL     1     -11.797  -1.533  -0.184  1.00  0.00     0.167 HD
ATOM     55  C   UNL     1     -13.649   0.370   0.808  1.00  0.00     0.074 A 
ATOM     56  C   UNL     1     -14.228   1.628   1.234  1.00  0.00     0.031 C 
ATOM     57  C   UNL     1     -14.324  -0.805   0.773  1.00  0.00     0.031 A 
BRANCH  44  58
ATOM     58  C   UNL     1     -10.954  -5.594  -1.206  1.00  0.00    -0.014 A 
ATOM     59  C   UNL     1     -10.242  -6.476  -0.375  1.00  0.00     0.010 A 
ATOM     60  C   UNL     1     -11.641  -6.107  -2.322  1.00  0.00     0.010 A 
ATOM     61  C   UNL     1     -10.185  -7.840  -0.677  1.00  0.00     0.020 A 
ATOM     62  C   UNL     1     -11.606  -7.474  -2.614  1.00  0.00     0.020 A 
ATOM     63  C   UNL     1     -10.863  -8.329  -1.798  1.00  0.00     0.054 A 
BRANCH  63  64
ATOM     64  S   UNL     1     -10.784 -10.105  -2.162  1.00  0.00     0.124 S 
ATOM     65  O   UNL     1      -9.437 -10.239  -2.712  1.00  0.00    -0.237 OA
ATOM     66  O   UNL     1     -10.989 -10.713  -0.849  1.00  0.00    -0.237 OA
ATOM     67  O   UNL     1     -11.870 -10.312  -3.116  1.00  0.00    -0.744 OA
ENDBRANCH  63  64
ENDBRANCH  44  58
BRANCH  45  68
ATOM     68  C   UNL     1     -10.930   4.208   0.724  1.00  0.00    -0.014 A 
ATOM     69  C   UNL     1     -10.985   4.687   2.044  1.00  0.00     0.010 A 
ATOM     70  C   UNL     1     -10.882   5.130  -0.338  1.00  0.00     0.010 A 
ATOM     71  C   UNL     1     -11.007   6.062   2.297  1.00  0.00     0.020 A 
ATOM     72  C   UNL     1     -10.877   6.504  -0.088  1.00  0.00     0.020 A 
ATOM     73  C   UNL     1     -10.953   6.962   1.229  1.00  0.00     0.054 A 
BRANCH  73  74
ATOM     74  S   UNL     1     -10.931   8.743   1.578  1.00  0.00     0.124 S 
ATOM     75  O   UNL     1     -12.335   9.010   1.873  1.00  0.00    -0.237 OA
ATOM     76  O   UNL     1     -10.017   8.834   2.714  1.00  0.00    -0.237 OA
ATOM     77  O   UNL     1     -10.428   9.326   0.337  1.00  0.00    -0.744 OA
ENDBRANCH  73  74
ENDBRANCH  45  68
BRANCH  57  78
ATOM     78  C   UNL     1     -15.753  -0.792   1.242  1.00  0.00    -0.014 A 
ATOM     79  C   UNL     1     -16.777  -0.262   0.439  1.00  0.00     0.010 A 
ATOM     80  C   UNL     1     -16.079  -1.363   2.486  1.00  0.00     0.010 A 
ATOM     81  C   UNL     1     -18.101  -0.278   0.884  1.00  0.00     0.020 A 
ATOM     82  C   UNL     1     -17.404  -1.401   2.924  1.00  0.00     0.020 A 
ATOM     83  C   UNL     1     -18.406  -0.846   2.125  1.00  0.00     0.054 A 
BRANCH  83  84
ATOM     84  S   UNL     1     -20.138  -0.897   2.664  1.00  0.00     0.124 S 
ATOM     85  O   UNL     1     -20.362   0.480   3.096  1.00  0.00    -0.237 OA
ATOM     86  O   UNL     1     -20.843  -1.297   1.449  1.00  0.00    -0.237 OA
ATOM     87  O   UNL     1     -20.137  -1.893   3.733  1.00  0.00    -0.744 OA
ENDBRANCH  83  84
ENDBRANCH  57  78
ENDBRANCH  31  32
ENDBRANCH  24  26
ENDBRANCH  23  24
ENDBRANCH   1  23
TORSDOF 16
