REMARK SMILES C[C@]1(C(=O)OCCOC(=O)c2ccc(-c3c4nc(c(-c5ccc(S(=O)(=O)[O-])cc5)c5ccc([nH]5)c(-c5ccc(S(=O)(=O)[O-])cc5)c5nc(c(-c6ccc(S(=O)(=O)[O-])cc6)c6ccc3[nH]6)C=C5)C=C4)cc2)[NH2+]C2(C(=O)c3ccccc3C2=O)[C@@H]2C(=O)N(c3ccccc3)C(=O)[C@H]21
REMARK SMILES IDX 7 1 6 2 5 3 3 4 4 5 2 6 1 7 71 8 95 9 72 10 83 13 93 14
REMARK SMILES IDX 73 15 81 16 84 17 86 18 94 19 74 20 75 21 80 22 82 23 85 24
REMARK SMILES IDX 76 25 79 26 77 27 78 28 87 29 88 30 92 31 89 32 91 33 90 34
REMARK SMILES IDX 8 35 9 36 10 37 11 38 12 39 70 40 13 41 69 42 14 43 15 44
REMARK SMILES IDX 16 45 63 46 17 47 68 48 62 49 64 50 18 51 67 52 61 53 60 54
REMARK SMILES IDX 19 56 49 57 30 58 48 59 31 60 34 61 47 62 65 63 32 64 33 65
REMARK SMILES IDX 46 67 66 68 35 69 20 70 21 71 29 72 22 73 28 74 23 75 24 76
REMARK SMILES IDX 25 77 26 78 27 79 50 80 51 81 59 82 52 83 58 84 53 85 54 86
REMARK SMILES IDX 55 87 56 88 57 89 36 90 37 91 45 92 38 93 44 94 39 95 40 96
REMARK SMILES IDX 41 97 42 98 43 99
REMARK H PARENT 71 11 71 12 64 55 34 66
REMARK Flexibility Score: inf
ROOT
ATOM      1  C   UNL     1      -3.650  -0.500  -1.617  1.00  0.00     0.275 C 
ENDROOT
BRANCH   1   2
ATOM      2  C   UNL     1      -2.544  -1.187  -2.419  1.00  0.00     0.274 C 
BRANCH   2   3
ATOM      3  O   UNL     1      -1.503  -1.694  -1.562  1.00  0.00    -0.457 OA
BRANCH   3   4
ATOM      4  C   UNL     1      -0.344  -0.981  -1.465  1.00  0.00     0.368 C 
ATOM      5  O   UNL     1      -0.153   0.085  -2.035  1.00  0.00    -0.245 OA
BRANCH   4   6
ATOM      6  C   UNL     1       0.741  -1.738  -0.626  1.00  0.00     0.205 C 
ATOM      7  C   UNL     1       1.798  -0.779  -0.062  1.00  0.00     0.093 C 
ATOM      8  N   UNL     1       0.133  -2.563   0.487  1.00  0.00    -0.313 N 
ATOM      9  C   UNL     1       1.404  -2.798  -1.458  1.00  0.00     0.172 C 
ATOM     10  C   UNL     1       0.216  -4.024   0.095  1.00  0.00     0.237 C 
ATOM     11  H   UNL     1      -0.842  -2.296   0.622  1.00  0.00     0.348 HD
ATOM     12  H   UNL     1       0.639  -2.404   1.359  1.00  0.00     0.348 HD
ATOM     13  C   UNL     1       0.416  -3.943  -1.382  1.00  0.00     0.177 C 
ATOM     14  C   UNL     1       1.644  -2.704  -2.916  1.00  0.00     0.244 C 
ATOM     15  C   UNL     1       1.292  -4.726   0.921  1.00  0.00     0.232 C 
ATOM     16  C   UNL     1      -1.067  -4.744   0.514  1.00  0.00     0.232 C 
ATOM     17  C   UNL     1       1.029  -4.866  -2.378  1.00  0.00     0.245 C 
ATOM     18  N   UNL     1       1.522  -4.014  -3.369  1.00  0.00    -0.250 N 
ATOM     19  O   UNL     1       1.931  -1.687  -3.510  1.00  0.00    -0.273 OA
ATOM     20  O   UNL     1       2.491  -4.511   0.916  1.00  0.00    -0.286 OA
ATOM     21  C   UNL     1       0.636  -5.664   1.830  1.00  0.00     0.036 A 
ATOM     22  C   UNL     1      -0.734  -5.666   1.604  1.00  0.00     0.036 A 
ATOM     23  O   UNL     1      -2.185  -4.640   0.041  1.00  0.00    -0.286 OA
ATOM     24  O   UNL     1       0.953  -6.082  -2.342  1.00  0.00    -0.273 OA
ATOM     25  C   UNL     1       1.217  -6.446   2.812  1.00  0.00     0.013 A 
ATOM     26  C   UNL     1      -1.586  -6.461   2.348  1.00  0.00     0.013 A 
ATOM     27  C   UNL     1       0.371  -7.258   3.572  1.00  0.00     0.001 A 
ATOM     28  C   UNL     1      -1.018  -7.266   3.342  1.00  0.00     0.001 A 
BRANCH  18  29
ATOM     29  C   UNL     1       1.688  -4.325  -4.731  1.00  0.00     0.052 A 
ATOM     30  C   UNL     1       2.715  -3.719  -5.470  1.00  0.00     0.027 A 
ATOM     31  C   UNL     1       0.723  -5.086  -5.398  1.00  0.00     0.027 A 
ATOM     32  C   UNL     1       2.763  -3.845  -6.856  1.00  0.00     0.002 A 
ATOM     33  C   UNL     1       0.748  -5.173  -6.793  1.00  0.00     0.002 A 
ATOM     34  C   UNL     1       1.766  -4.554  -7.519  1.00  0.00     0.000 A 
ENDBRANCH  18  29
ENDBRANCH   4   6
ENDBRANCH   3   4
ENDBRANCH   2   3
ENDBRANCH   1   2
BRANCH   1  35
ATOM     35  O   UNL     1      -3.203   0.760  -1.092  1.00  0.00    -0.458 OA
BRANCH  35  36
ATOM     36  C   UNL     1      -2.639   0.693   0.137  1.00  0.00     0.338 C 
ATOM     37  O   UNL     1      -2.557  -0.278   0.868  1.00  0.00    -0.246 OA
BRANCH  36  38
ATOM     38  C   UNL     1      -1.948   1.958   0.410  1.00  0.00     0.060 A 
ATOM     39  C   UNL     1      -2.629   3.157   0.578  1.00  0.00     0.016 A 
ATOM     40  C   UNL     1      -0.562   1.908   0.548  1.00  0.00     0.016 A 
ATOM     41  C   UNL     1      -1.895   4.310   0.868  1.00  0.00     0.010 A 
ATOM     42  C   UNL     1       0.169   3.042   0.862  1.00  0.00     0.010 A 
ATOM     43  C   UNL     1      -0.493   4.259   1.013  1.00  0.00    -0.014 A 
BRANCH  43  44
ATOM     44  C   UNL     1       0.280   5.465   1.385  1.00  0.00     0.031 A 
ATOM     45  C   UNL     1       1.262   6.076   0.426  1.00  0.00     0.074 A 
ATOM     46  C   UNL     1       0.106   5.978   2.618  1.00  0.00     0.049 A 
ATOM     47  N   UNL     1       1.929   7.194   0.547  1.00  0.00    -0.248 NA
ATOM     48  C   UNL     1       1.554   5.337  -0.814  1.00  0.00     0.031 C 
ATOM     49  C   UNL     1      -0.752   5.392   3.651  1.00  0.00     0.029 A 
ATOM     50  N   UNL     1       0.613   7.106   3.206  1.00  0.00    -0.354 N 
ATOM     51  C   UNL     1       2.700   7.301  -0.604  1.00  0.00     0.074 A 
ATOM     52  C   UNL     1       2.482   6.100  -1.376  1.00  0.00     0.031 C 
ATOM     53  C   UNL     1      -0.769   6.203   4.717  1.00  0.00     0.029 A 
ATOM     54  C   UNL     1       0.102   7.347   4.460  1.00  0.00     0.049 A 
ATOM     55  H   UNL     1       1.279   7.688   2.773  1.00  0.00     0.167 HD
ATOM     56  C   UNL     1       3.485   8.333  -0.993  1.00  0.00     0.031 A 
ATOM     57  C   UNL     1       0.286   8.387   5.297  1.00  0.00     0.031 A 
ATOM     58  C   UNL     1       3.673   9.523  -0.203  1.00  0.00     0.049 A 
ATOM     59  C   UNL     1       1.142   9.533   4.835  1.00  0.00     0.074 A 
ATOM     60  C   UNL     1       4.390  10.660  -0.526  1.00  0.00     0.029 A 
ATOM     61  N   UNL     1       3.141   9.730   1.063  1.00  0.00    -0.354 N 
ATOM     62  N   UNL     1       1.775   9.675   3.694  1.00  0.00    -0.248 NA
ATOM     63  C   UNL     1       1.293  10.669   5.753  1.00  0.00     0.031 C 
ATOM     64  C   UNL     1       4.357  11.520   0.573  1.00  0.00     0.029 A 
ATOM     65  C   UNL     1       3.542  10.963   1.547  1.00  0.00     0.049 A 
ATOM     66  H   UNL     1       2.565   9.094   1.545  1.00  0.00     0.167 HD
ATOM     67  C   UNL     1       2.382  10.923   3.747  1.00  0.00     0.074 A 
ATOM     68  C   UNL     1       2.022  11.506   5.024  1.00  0.00     0.031 C 
ATOM     69  C   UNL     1       3.168  11.528   2.823  1.00  0.00     0.031 A 
BRANCH  56  70
ATOM     70  C   UNL     1       4.162   8.264  -2.341  1.00  0.00    -0.014 A 
ATOM     71  C   UNL     1       5.566   8.309  -2.432  1.00  0.00     0.010 A 
ATOM     72  C   UNL     1       3.405   8.302  -3.527  1.00  0.00     0.010 A 
ATOM     73  C   UNL     1       6.196   8.439  -3.674  1.00  0.00     0.020 A 
ATOM     74  C   UNL     1       4.032   8.396  -4.774  1.00  0.00     0.020 A 
ATOM     75  C   UNL     1       5.423   8.495  -4.836  1.00  0.00     0.054 A 
BRANCH  75  76
ATOM     76  S   UNL     1       6.255   8.728  -6.432  1.00  0.00     0.124 S 
ATOM     77  O   UNL     1       6.694  10.118  -6.351  1.00  0.00    -0.237 OA
ATOM     78  O   UNL     1       7.318   7.727  -6.386  1.00  0.00    -0.237 OA
ATOM     79  O   UNL     1       5.203   8.462  -7.411  1.00  0.00    -0.744 OA
ENDBRANCH  75  76
ENDBRANCH  56  70
BRANCH  57  80
ATOM     80  C   UNL     1      -0.442   8.405   6.597  1.00  0.00    -0.014 A 
ATOM     81  C   UNL     1      -0.159   7.443   7.586  1.00  0.00     0.010 A 
ATOM     82  C   UNL     1      -1.505   9.300   6.806  1.00  0.00     0.010 A 
ATOM     83  C   UNL     1      -0.966   7.330   8.722  1.00  0.00     0.020 A 
ATOM     84  C   UNL     1      -2.294   9.215   7.959  1.00  0.00     0.020 A 
ATOM     85  C   UNL     1      -2.040   8.207   8.892  1.00  0.00     0.054 A 
BRANCH  85  86
ATOM     86  S   UNL     1      -3.120   7.988  10.333  1.00  0.00     0.124 S 
ATOM     87  O   UNL     1      -3.850   6.774   9.978  1.00  0.00    -0.237 OA
ATOM     88  O   UNL     1      -2.164   7.850  11.428  1.00  0.00    -0.237 OA
ATOM     89  O   UNL     1      -3.917   9.212  10.355  1.00  0.00    -0.744 OA
ENDBRANCH  85  86
ENDBRANCH  57  80
BRANCH  69  90
ATOM     90  C   UNL     1       3.714  12.898   3.138  1.00  0.00    -0.014 A 
ATOM     91  C   UNL     1       3.333  13.998   2.345  1.00  0.00     0.010 A 
ATOM     92  C   UNL     1       4.721  13.066   4.105  1.00  0.00     0.010 A 
ATOM     93  C   UNL     1       3.987  15.225   2.475  1.00  0.00     0.020 A 
ATOM     94  C   UNL     1       5.351  14.303   4.263  1.00  0.00     0.020 A 
ATOM     95  C   UNL     1       5.001  15.365   3.425  1.00  0.00     0.054 A 
BRANCH  95  96
ATOM     96  S   UNL     1       5.881  16.947   3.534  1.00  0.00     0.124 S 
ATOM     97  O   UNL     1       6.704  16.924   2.328  1.00  0.00    -0.237 OA
ATOM     98  O   UNL     1       4.791  17.919   3.535  1.00  0.00    -0.237 OA
ATOM     99  O   UNL     1       6.616  16.845   4.793  1.00  0.00    -0.744 OA
ENDBRANCH  95  96
ENDBRANCH  69  90
ENDBRANCH  43  44
ENDBRANCH  36  38
ENDBRANCH  35  36
ENDBRANCH   1  35
TORSDOF 15
