REMARK SMILES Cc1ccc(N2C(=O)N=C(OCCOC(=O)c3ccc(-c4c5nc(c(-c6ccc(S(=O)(=O)[O-])cc6)c6ccc([nH]6)c(-c6ccc(S(=O)(=O)[O-])cc6)c6nc(c(-c7ccc(S(=O)(=O)[O-])cc7)c7ccc4[nH]7)C=C6)C=C5)cc3)/C(=C\c3ccccc3OCc3cccc(C(=O)[O-])c3)C2=O)cc1
REMARK SMILES IDX 12 1 11 2 10 3 6 4 7 5 96 6 8 7 9 8 77 9 97 10 78 11 5 12
REMARK SMILES IDX 1 13 2 14 3 15 99 16 4 17 98 18 79 19 80 20 84 21 81 22
REMARK SMILES IDX 83 23 82 24 85 25 86 26 87 27 88 28 95 29 89 30 91 31 90 32
REMARK SMILES IDX 92 33 93 34 94 35 13 36 14 37 15 38 16 39 17 40 18 41 76 42
REMARK SMILES IDX 19 43 75 44 20 45 21 46 22 47 69 48 23 49 74 50 68 51 70 52
REMARK SMILES IDX 24 53 73 54 67 55 66 56 25 58 55 59 36 60 54 61 37 62 40 63
REMARK SMILES IDX 53 64 71 65 38 66 39 67 52 69 72 70 41 71 26 72 27 73 35 74
REMARK SMILES IDX 28 75 34 76 29 77 30 78 31 79 32 80 33 81 56 82 57 83 65 84
REMARK SMILES IDX 58 85 64 86 59 87 60 88 61 89 62 90 63 91 42 92 43 93 51 94
REMARK SMILES IDX 44 95 50 96 45 97 46 98 47 99 48 100 49 101
REMARK H PARENT 70 57 40 68
REMARK Flexibility Score: inf
ROOT
ATOM      1  C   UNL     1      -8.883   3.199   0.515  1.00  0.00     0.273 C 
ENDROOT
BRANCH   1   2
ATOM      2  O   UNL     1      -8.707   1.813   0.515  1.00  0.00    -0.473 OA
BRANCH   2   3
ATOM      3  C   UNL     1      -7.440   1.432   0.414  1.00  0.00     0.231 C 
ATOM      4  N   UNL     1      -3.943   0.709   0.726  1.00  0.00    -0.226 N 
ATOM      5  C   UNL     1      -5.199  -0.559   1.062  1.00  0.00     0.358 C 
ATOM      6  C   UNL     1      -4.343   2.308   0.162  1.00  0.00     0.272 C 
ATOM      7  O   UNL     1      -4.744  -1.680   1.409  1.00  0.00    -0.245 OA
ATOM      8  N   UNL     1      -7.051   0.115   0.940  1.00  0.00    -0.156 NA
ATOM      9  C   UNL     1      -6.161   2.666  -0.245  1.00  0.00     0.103 C 
ATOM     10  O   UNL     1      -3.560   3.117  -0.325  1.00  0.00    -0.268 OA
ATOM     11  C   UNL     1      -6.156   3.034  -1.570  1.00  0.00     0.031 C 
BRANCH   4  12
ATOM     12  C   UNL     1      -2.476   0.388   0.677  1.00  0.00     0.054 A 
ATOM     13  C   UNL     1       1.874  -0.156   0.076  1.00  0.00     0.044 C 
ATOM     14  C   UNL     1       0.396  -0.008   0.308  1.00  0.00    -0.051 A 
ATOM     15  C   UNL     1      -0.472  -1.078   0.559  1.00  0.00     0.005 A 
ATOM     16  C   UNL     1      -0.171   1.250   0.261  1.00  0.00     0.005 A 
ATOM     17  C   UNL     1      -1.885  -0.886   0.745  1.00  0.00     0.027 A 
ATOM     18  C   UNL     1      -1.548   1.427   0.474  1.00  0.00     0.027 A 
ENDBRANCH   4  12
BRANCH  11  19
ATOM     19  C   UNL     1      -6.996   2.381  -2.597  1.00  0.00     0.018 A 
ATOM     20  C   UNL     1      -8.112   3.146  -3.034  1.00  0.00     0.012 A 
ATOM     21  C   UNL     1      -6.885   1.015  -2.938  1.00  0.00     0.127 A 
ATOM     22  C   UNL     1      -9.286   2.553  -3.493  1.00  0.00     0.001 A 
ATOM     23  C   UNL     1      -8.150   0.462  -3.352  1.00  0.00     0.047 A 
ATOM     24  C   UNL     1      -9.345   1.184  -3.518  1.00  0.00     0.004 A 
BRANCH  21  25
ATOM     25  O   UNL     1      -5.611   0.279  -2.977  1.00  0.00    -0.488 OA
BRANCH  25  26
ATOM     26  C   UNL     1      -4.540  -0.853  -2.142  1.00  0.00     0.265 C 
BRANCH  26  27
ATOM     27  C   UNL     1      -4.329  -2.493  -1.690  1.00  0.00    -0.010 A 
ATOM     28  C   UNL     1      -3.084  -3.107  -1.650  1.00  0.00     0.007 A 
ATOM     29  C   UNL     1      -5.283  -3.381  -1.108  1.00  0.00     0.017 A 
ATOM     30  C   UNL     1      -2.961  -4.457  -1.167  1.00  0.00     0.001 A 
ATOM     31  C   UNL     1      -5.375  -4.794  -0.917  1.00  0.00    -0.002 A 
ATOM     32  C   UNL     1      -4.085  -5.299  -0.846  1.00  0.00     0.010 A 
BRANCH  31  33
ATOM     33  C   UNL     1      -6.818  -5.725  -0.405  1.00  0.00     0.071 C 
ATOM     34  O   UNL     1      -6.336  -6.781   0.122  1.00  0.00    -0.545 OA
ATOM     35  O   UNL     1      -8.759  -5.348  -0.691  1.00  0.00    -0.545 OA
ENDBRANCH  31  33
ENDBRANCH  26  27
ENDBRANCH  25  26
ENDBRANCH  21  25
ENDBRANCH  11  19
ENDBRANCH   2   3
ENDBRANCH   1   2
BRANCH   1  36
ATOM     36  C   UNL     1      -7.820   3.996   1.304  1.00  0.00     0.274 C 
BRANCH  36  37
ATOM     37  O   UNL     1      -6.970   3.314   2.348  1.00  0.00    -0.458 OA
BRANCH  37  38
ATOM     38  C   UNL     1      -5.860   2.496   2.441  1.00  0.00     0.338 C 
ATOM     39  O   UNL     1      -5.018   2.683   3.313  1.00  0.00    -0.246 OA
BRANCH  38  40
ATOM     40  C   UNL     1      -5.776   1.135   1.721  1.00  0.00     0.060 A 
ATOM     41  C   UNL     1      -6.428  -0.228   2.749  1.00  0.00     0.016 A 
ATOM     42  C   UNL     1      -5.732   0.639  -0.200  1.00  0.00     0.016 A 
ATOM     43  C   UNL     1      -7.105  -1.678   1.870  1.00  0.00     0.010 A 
ATOM     44  C   UNL     1      -6.565  -0.741  -0.762  1.00  0.00     0.010 A 
ATOM     45  C   UNL     1      -7.246  -1.806   0.095  1.00  0.00    -0.014 A 
BRANCH  45  46
ATOM     46  C   UNL     1      -7.774  -2.663  -1.206  1.00  0.00     0.031 A 
ATOM     47  C   UNL     1      -7.749  -4.069  -0.903  1.00  0.00     0.074 A 
ATOM     48  C   UNL     1      -7.519  -2.596  -2.626  1.00  0.00     0.049 A 
ATOM     49  N   UNL     1      -7.662  -5.284  -2.044  1.00  0.00    -0.248 NA
ATOM     50  C   UNL     1      -8.126  -4.898   0.906  1.00  0.00     0.031 C 
ATOM     51  C   UNL     1      -8.137  -3.267  -3.796  1.00  0.00     0.029 A 
ATOM     52  N   UNL     1      -6.550  -1.891  -3.367  1.00  0.00    -0.354 N 
ATOM     53  C   UNL     1      -8.196  -6.906  -1.307  1.00  0.00     0.074 A 
ATOM     54  C   UNL     1      -8.429  -6.531   0.619  1.00  0.00     0.031 C 
ATOM     55  C   UNL     1      -7.454  -2.998  -4.947  1.00  0.00     0.029 A 
ATOM     56  C   UNL     1      -6.271  -2.174  -4.686  1.00  0.00     0.049 A 
ATOM     57  H   UNL     1      -6.051  -1.167  -2.924  1.00  0.00     0.167 HD
ATOM     58  C   UNL     1      -9.048  -7.521  -2.213  1.00  0.00     0.031 A 
ATOM     59  C   UNL     1      -5.069  -2.010  -5.383  1.00  0.00     0.031 A 
ATOM     60  C   UNL     1      -8.606  -7.160  -3.571  1.00  0.00     0.049 A 
ATOM     61  C   UNL     1      -4.684  -3.427  -5.792  1.00  0.00     0.074 A 
ATOM     62  C   UNL     1      -9.171  -6.473  -4.638  1.00  0.00     0.029 A 
ATOM     63  N   UNL     1      -7.247  -7.235  -3.858  1.00  0.00    -0.354 N 
ATOM     64  N   UNL     1      -5.404  -4.439  -5.398  1.00  0.00    -0.248 NA
ATOM     65  C   UNL     1      -3.554  -3.874  -6.605  1.00  0.00     0.031 C 
ATOM     66  C   UNL     1      -8.139  -6.173  -5.575  1.00  0.00     0.029 A 
ATOM     67  C   UNL     1      -6.945  -6.658  -5.074  1.00  0.00     0.049 A 
ATOM     68  H   UNL     1      -6.580  -7.650  -3.265  1.00  0.00     0.167 HD
ATOM     69  C   UNL     1      -4.930  -5.609  -5.879  1.00  0.00     0.074 A 
ATOM     70  C   UNL     1      -3.748  -5.212  -6.623  1.00  0.00     0.031 C 
ATOM     71  C   UNL     1      -5.582  -6.772  -5.592  1.00  0.00     0.031 A 
BRANCH  58  72
ATOM     72  C   UNL     1     -10.471  -7.998  -1.919  1.00  0.00    -0.014 A 
ATOM     73  C   UNL     1     -11.342  -8.291  -2.997  1.00  0.00     0.010 A 
ATOM     74  C   UNL     1     -11.046  -8.113  -0.639  1.00  0.00     0.010 A 
ATOM     75  C   UNL     1     -12.675  -8.699  -2.817  1.00  0.00     0.020 A 
ATOM     76  C   UNL     1     -12.382  -8.521  -0.439  1.00  0.00     0.020 A 
ATOM     77  C   UNL     1     -13.180  -8.843  -1.531  1.00  0.00     0.054 A 
BRANCH  77  78
ATOM     78  S   UNL     1     -14.833  -9.557  -1.311  1.00  0.00     0.124 S 
ATOM     79  O   UNL     1     -15.687  -8.624  -2.042  1.00  0.00    -0.237 OA
ATOM     80  O   UNL     1     -14.681 -10.877  -1.916  1.00  0.00    -0.237 OA
ATOM     81  O   UNL     1     -15.019  -9.558   0.139  1.00  0.00    -0.744 OA
ENDBRANCH  77  78
ENDBRANCH  58  72
BRANCH  59  82
ATOM     82  C   UNL     1      -4.057  -0.778  -5.301  1.00  0.00    -0.014 A 
ATOM     83  C   UNL     1      -4.542   0.481  -5.728  1.00  0.00     0.010 A 
ATOM     84  C   UNL     1      -2.799  -0.693  -4.612  1.00  0.00     0.010 A 
ATOM     85  C   UNL     1      -3.970   1.725  -5.323  1.00  0.00     0.020 A 
ATOM     86  C   UNL     1      -2.272   0.563  -4.110  1.00  0.00     0.020 A 
ATOM     87  C   UNL     1      -2.873   1.771  -4.466  1.00  0.00     0.054 A 
BRANCH  87  88
ATOM     88  S   UNL     1      -2.338   3.409  -3.799  1.00  0.00     0.124 S 
ATOM     89  O   UNL     1      -1.462   3.905  -4.856  1.00  0.00    -0.237 OA
ATOM     90  O   UNL     1      -3.600   4.137  -3.658  1.00  0.00    -0.237 OA
ATOM     91  O   UNL     1      -1.663   3.080  -2.549  1.00  0.00    -0.744 OA
ENDBRANCH  87  88
ENDBRANCH  59  82
BRANCH  71  92
ATOM     92  C   UNL     1      -5.049  -8.160  -5.796  1.00  0.00    -0.014 A 
ATOM     93  C   UNL     1      -3.705  -8.458  -6.032  1.00  0.00     0.010 A 
ATOM     94  C   UNL     1      -5.933  -9.254  -5.606  1.00  0.00     0.010 A 
ATOM     95  C   UNL     1      -3.282  -9.784  -6.151  1.00  0.00     0.020 A 
ATOM     96  C   UNL     1      -5.508 -10.574  -5.632  1.00  0.00     0.020 A 
ATOM     97  C   UNL     1      -4.187 -10.830  -5.952  1.00  0.00     0.054 A 
BRANCH  97  98
ATOM     98  S   UNL     1      -3.623 -12.531  -6.124  1.00  0.00     0.124 S 
ATOM     99  O   UNL     1      -3.529 -12.663  -7.575  1.00  0.00    -0.237 OA
ATOM    100  O   UNL     1      -2.349 -12.518  -5.409  1.00  0.00    -0.237 OA
ATOM    101  O   UNL     1      -4.680 -13.315  -5.491  1.00  0.00    -0.744 OA
ENDBRANCH  97  98
ENDBRANCH  71  92
ENDBRANCH  45  46
ENDBRANCH  38  40
ENDBRANCH  37  38
ENDBRANCH  36  37
ENDBRANCH   1  36
TORSDOF 19
