REMARK SMILES O=C(NCc1ccsc1)NC[C@H]1CC[C@@H](C(=O)OCCOC(=O)c2ccc(-c3c4nc(c(-c5ccc(S(=O)(=O)[O-])cc5)c5ccc([nH]5)c(-c5ccc(S(=O)(=O)[O-])cc5)c5nc(c(-c6ccc(S(=O)(=O)[O-])cc6)c6ccc3[nH]6)C=C5)C=C4)cc2)CC1
REMARK SMILES IDX 19 1 18 2 16 3 17 4 15 5 12 6 13 7 85 8 14 9 84 10 11 11
REMARK SMILES IDX 10 12 1 13 2 14 3 15 4 18 5 19 6 20 9 21 7 22 8 23 20 24
REMARK SMILES IDX 21 25 22 26 23 27 24 28 25 29 83 30 26 31 82 32 27 33 28 34
REMARK SMILES IDX 29 35 76 36 30 37 81 38 75 39 77 40 31 41 80 42 74 43 73 44
REMARK SMILES IDX 32 46 62 47 43 48 61 49 44 50 47 51 60 52 78 53 45 54 46 55
REMARK SMILES IDX 59 57 79 58 48 59 33 60 34 61 42 62 35 63 41 64 36 65 37 66
REMARK SMILES IDX 38 67 39 68 40 69 63 70 64 71 72 72 65 73 71 74 66 75 67 76
REMARK SMILES IDX 68 77 69 78 70 79 49 80 50 81 58 82 51 83 57 84 52 85 53 86
REMARK SMILES IDX 54 87 55 88 56 89
REMARK H PARENT 3 16 10 17 77 45 47 56
REMARK Flexibility Score: inf
ROOT
ATOM      1  C   UNL     1       6.331   1.112  -2.433  1.00  0.00     0.274 C 
ENDROOT
BRANCH   1   2
ATOM      2  O   UNL     1       5.373   0.425  -3.253  1.00  0.00    -0.462 OA
BRANCH   2   3
ATOM      3  C   UNL     1       4.763   1.135  -4.235  1.00  0.00     0.309 C 
ATOM      4  O   UNL     1       4.965   2.321  -4.462  1.00  0.00    -0.252 OA
BRANCH   3   5
ATOM      5  C   UNL     1       3.746   0.306  -5.017  1.00  0.00     0.099 C 
ATOM      6  C   UNL     1       2.207  -1.339  -3.064  1.00  0.00     0.008 C 
ATOM      7  C   UNL     1       1.991   0.176  -3.216  1.00  0.00     0.006 C 
ATOM      8  C   UNL     1       3.555  -1.831  -3.612  1.00  0.00     0.006 C 
ATOM      9  C   UNL     1       2.325   0.685  -4.611  1.00  0.00     0.015 C 
ATOM     10  C   UNL     1       3.938  -1.211  -4.955  1.00  0.00     0.015 C 
BRANCH   6  11
ATOM     11  C   UNL     1       2.018  -1.795  -1.603  1.00  0.00     0.121 C 
BRANCH  11  12
ATOM     12  N   UNL     1       2.775  -0.994  -0.650  1.00  0.00    -0.338 N 
ATOM     13  O   UNL     1       0.944  -0.093   0.364  1.00  0.00    -0.249 OA
ATOM     14  C   UNL     1       2.163  -0.181   0.249  1.00  0.00     0.315 C 
ATOM     15  N   UNL     1       2.936   0.567   1.065  1.00  0.00    -0.334 N 
ATOM     16  H   UNL     1       2.423   1.128   1.691  1.00  0.00     0.165 HD
ATOM     17  H   UNL     1       3.758  -1.043  -0.658  1.00  0.00     0.165 HD
BRANCH  15  18
ATOM     18  C   UNL     1       4.368   0.705   1.200  1.00  0.00     0.154 C 
BRANCH  18  19
ATOM     19  C   UNL     1       4.801   2.130   0.977  1.00  0.00    -0.018 A 
ATOM     20  C   UNL     1       6.175   2.514   0.769  1.00  0.00     0.017 A 
ATOM     21  C   UNL     1       3.994   3.256   0.957  1.00  0.00     0.070 A 
ATOM     22  C   UNL     1       6.334   3.863   0.546  1.00  0.00     0.065 A 
ATOM     23  S   UNL     1       4.854   4.703   0.651  1.00  0.00    -0.152 S 
ENDBRANCH  18  19
ENDBRANCH  15  18
ENDBRANCH  11  12
ENDBRANCH   6  11
ENDBRANCH   3   5
ENDBRANCH   2   3
ENDBRANCH   1   2
BRANCH   1  24
ATOM     24  C   UNL     1       7.758   0.668  -2.744  1.00  0.00     0.275 C 
BRANCH  24  25
ATOM     25  O   UNL     1       8.149   1.089  -4.056  1.00  0.00    -0.458 OA
BRANCH  25  26
ATOM     26  C   UNL     1       7.889   0.194  -5.038  1.00  0.00     0.338 C 
ATOM     27  O   UNL     1       7.458  -0.938  -4.920  1.00  0.00    -0.246 OA
BRANCH  26  28
ATOM     28  C   UNL     1       8.094   0.860  -6.326  1.00  0.00     0.060 A 
ATOM     29  C   UNL     1       6.975   1.161  -7.107  1.00  0.00     0.016 A 
ATOM     30  C   UNL     1       9.383   1.147  -6.771  1.00  0.00     0.016 A 
ATOM     31  C   UNL     1       7.138   1.753  -8.353  1.00  0.00     0.010 A 
ATOM     32  C   UNL     1       9.546   1.742  -8.020  1.00  0.00     0.010 A 
ATOM     33  C   UNL     1       8.426   2.037  -8.818  1.00  0.00    -0.014 A 
BRANCH  33  34
ATOM     34  C   UNL     1       8.630   2.579 -10.177  1.00  0.00     0.031 A 
ATOM     35  C   UNL     1       9.177   1.675 -11.240  1.00  0.00     0.074 A 
ATOM     36  C   UNL     1       8.357   3.870 -10.434  1.00  0.00     0.049 A 
ATOM     37  N   UNL     1       9.630   1.977 -12.427  1.00  0.00    -0.248 NA
ATOM     38  C   UNL     1       9.226   0.238 -10.919  1.00  0.00     0.031 C 
ATOM     39  C   UNL     1       7.753   4.814  -9.492  1.00  0.00     0.029 A 
ATOM     40  N   UNL     1       8.573   4.615 -11.564  1.00  0.00    -0.354 N 
ATOM     41  C   UNL     1      10.043   0.774 -12.987  1.00  0.00     0.074 A 
ATOM     42  C   UNL     1       9.798  -0.260 -12.006  1.00  0.00     0.031 C 
ATOM     43  C   UNL     1       7.661   6.019 -10.080  1.00  0.00     0.029 A 
ATOM     44  C   UNL     1       8.255   5.944 -11.411  1.00  0.00     0.049 A 
ATOM     45  H   UNL     1       8.921   4.236 -12.403  1.00  0.00     0.167 HD
ATOM     46  C   UNL     1      10.581   0.561 -14.210  1.00  0.00     0.031 A 
ATOM     47  C   UNL     1       8.467   6.987 -12.236  1.00  0.00     0.031 A 
ATOM     48  C   UNL     1      10.826   1.607 -15.165  1.00  0.00     0.049 A 
ATOM     49  C   UNL     1       9.155   6.740 -13.552  1.00  0.00     0.074 A 
ATOM     50  C   UNL     1      11.392   1.512 -16.423  1.00  0.00     0.029 A 
ATOM     51  N   UNL     1      10.510   2.943 -14.965  1.00  0.00    -0.354 N 
ATOM     52  N   UNL     1       9.581   5.606 -14.058  1.00  0.00    -0.248 NA
ATOM     53  C   UNL     1       9.400   7.911 -14.404  1.00  0.00     0.031 C 
ATOM     54  C   UNL     1      11.454   2.799 -16.968  1.00  0.00     0.029 A 
ATOM     55  C   UNL     1      10.878   3.686 -16.071  1.00  0.00     0.049 A 
ATOM     56  H   UNL     1      10.086   3.309 -14.155  1.00  0.00     0.167 HD
ATOM     57  C   UNL     1      10.117   5.923 -15.300  1.00  0.00     0.074 A 
ATOM     58  C   UNL     1       9.958   7.354 -15.471  1.00  0.00     0.031 C 
ATOM     59  C   UNL     1      10.688   5.107 -16.220  1.00  0.00     0.031 A 
BRANCH  46  60
ATOM     60  C   UNL     1      10.974  -0.848 -14.559  1.00  0.00    -0.014 A 
ATOM     61  C   UNL     1      10.002  -1.825 -14.839  1.00  0.00     0.010 A 
ATOM     62  C   UNL     1      12.335  -1.195 -14.635  1.00  0.00     0.010 A 
ATOM     63  C   UNL     1      10.383  -3.133 -15.152  1.00  0.00     0.020 A 
ATOM     64  C   UNL     1      12.722  -2.495 -14.971  1.00  0.00     0.020 A 
ATOM     65  C   UNL     1      11.742  -3.461 -15.212  1.00  0.00     0.054 A 
BRANCH  65  66
ATOM     66  S   UNL     1      12.210  -5.161 -15.636  1.00  0.00     0.124 S 
ATOM     67  O   UNL     1      11.883  -5.878 -14.406  1.00  0.00    -0.237 OA
ATOM     68  O   UNL     1      11.351  -5.455 -16.781  1.00  0.00    -0.237 OA
ATOM     69  O   UNL     1      13.636  -5.063 -15.939  1.00  0.00    -0.744 OA
ENDBRANCH  65  66
ENDBRANCH  46  60
BRANCH  47  70
ATOM     70  C   UNL     1       8.070   8.360 -11.824  1.00  0.00    -0.014 A 
ATOM     71  C   UNL     1       7.016   9.025 -12.475  1.00  0.00     0.010 A 
ATOM     72  C   UNL     1       8.747   9.014 -10.777  1.00  0.00     0.010 A 
ATOM     73  C   UNL     1       6.663  10.326 -12.103  1.00  0.00     0.020 A 
ATOM     74  C   UNL     1       8.379  10.304 -10.385  1.00  0.00     0.020 A 
ATOM     75  C   UNL     1       7.348  10.958 -11.062  1.00  0.00     0.054 A 
BRANCH  75  76
ATOM     76  S   UNL     1       6.855  12.635 -10.576  1.00  0.00     0.124 S 
ATOM     77  O   UNL     1       7.422  13.441 -11.653  1.00  0.00    -0.237 OA
ATOM     78  O   UNL     1       5.397  12.544 -10.555  1.00  0.00    -0.237 OA
ATOM     79  O   UNL     1       7.479  12.809  -9.267  1.00  0.00    -0.744 OA
ENDBRANCH  75  76
ENDBRANCH  47  70
BRANCH  59  80
ATOM     80  C   UNL     1      11.131   5.725 -17.516  1.00  0.00    -0.014 A 
ATOM     81  C   UNL     1      12.312   6.482 -17.595  1.00  0.00     0.010 A 
ATOM     82  C   UNL     1      10.398   5.463 -18.688  1.00  0.00     0.010 A 
ATOM     83  C   UNL     1      12.748   6.975 -18.827  1.00  0.00     0.020 A 
ATOM     84  C   UNL     1      10.844   5.935 -19.924  1.00  0.00     0.020 A 
ATOM     85  C   UNL     1      12.014   6.694 -19.984  1.00  0.00     0.054 A 
BRANCH  85  86
ATOM     86  S   UNL     1      12.645   7.275 -21.582  1.00  0.00     0.124 S 
ATOM     87  O   UNL     1      12.338   8.702 -21.529  1.00  0.00    -0.237 OA
ATOM     88  O   UNL     1      14.064   6.935 -21.510  1.00  0.00    -0.237 OA
ATOM     89  O   UNL     1      11.876   6.507 -22.558  1.00  0.00    -0.744 OA
ENDBRANCH  85  86
ENDBRANCH  59  80
ENDBRANCH  33  34
ENDBRANCH  26  28
ENDBRANCH  25  26
ENDBRANCH  24  25
ENDBRANCH   1  24
TORSDOF 18
