REMARK SMILES CC(C)[C@H](NC(=O)[C@H](C)NC(=O)C[NH3+])C(=O)OCCOC(=O)c1ccc(-c2c3nc(c(-c4ccc(S(=O)(=O)[O-])cc4)c4ccc([nH]4)c(-c4ccc(S(=O)(=O)[O-])cc4)c4nc(c(-c5ccc(S(=O)(=O)[O-])cc5)c5ccc2[nH]5)C=C4)C=C3)cc1
REMARK SMILES IDX 18 1 17 2 15 3 16 4 4 5 2 6 1 7 3 8 5 9 6 10 7 12 8 13 9 14
REMARK SMILES IDX 10 15 11 16 12 18 13 19 14 20 19 24 20 25 21 26 22 27 23 28
REMARK SMILES IDX 24 29 82 30 25 31 81 32 26 33 27 34 28 35 75 36 29 37 80 38
REMARK SMILES IDX 74 39 76 40 30 41 79 42 73 43 72 44 31 46 61 47 42 48 60 49
REMARK SMILES IDX 43 50 46 51 59 52 77 53 44 54 45 55 58 57 78 58 47 59 32 60
REMARK SMILES IDX 33 61 41 62 34 63 40 64 35 65 36 66 37 67 38 68 39 69 62 70
REMARK SMILES IDX 63 71 71 72 64 73 70 74 65 75 66 76 67 77 68 78 69 79 48 80
REMARK SMILES IDX 49 81 57 82 50 83 56 84 51 85 52 86 53 87 54 88 55 89
REMARK H PARENT 5 11 10 17 14 21 14 22 14 23 76 45 46 56
REMARK Flexibility Score: inf
ROOT
ATOM      1  C   UNL     1      -4.969  -1.480   2.453  1.00  0.00     0.274 C 
ENDROOT
BRANCH   1   2
ATOM      2  O   UNL     1      -4.194  -1.066   3.599  1.00  0.00    -0.461 OA
BRANCH   2   3
ATOM      3  C   UNL     1      -2.901  -0.722   3.346  1.00  0.00     0.329 C 
ATOM      4  O   UNL     1      -2.381  -0.785   2.237  1.00  0.00    -0.250 OA
BRANCH   3   5
ATOM      5  C   UNL     1      -2.130  -0.242   4.600  1.00  0.00     0.194 C 
BRANCH   5   6
ATOM      6  C   UNL     1      -0.804  -1.052   4.697  1.00  0.00     0.017 C 
ATOM      7  C   UNL     1       0.061  -0.593   5.873  1.00  0.00     0.010 C 
ATOM      8  C   UNL     1      -1.016  -2.571   4.771  1.00  0.00     0.010 C 
ENDBRANCH   5   6
BRANCH   5   9
ATOM      9  N   UNL     1      -2.891  -0.309   5.850  1.00  0.00    -0.341 N 
ATOM     10  C   UNL     1      -3.535   0.600   6.620  1.00  0.00     0.243 C 
ATOM     11  H   UNL     1      -2.946  -1.222   6.213  1.00  0.00     0.164 HD
ATOM     12  O   UNL     1      -4.040   0.118   7.647  1.00  0.00    -0.273 OA
BRANCH  10  13
ATOM     13  C   UNL     1      -3.578   2.144   6.401  1.00  0.00     0.168 C 
ATOM     14  C   UNL     1      -5.031   2.585   6.657  1.00  0.00     0.041 C 
BRANCH  13  15
ATOM     15  N   UNL     1      -3.192   2.711   5.118  1.00  0.00    -0.340 N 
ATOM     16  C   UNL     1      -2.945   4.035   4.873  1.00  0.00     0.275 C 
ATOM     17  H   UNL     1      -3.100   2.089   4.361  1.00  0.00     0.164 HD
ATOM     18  O   UNL     1      -3.365   4.538   3.828  1.00  0.00    -0.268 OA
BRANCH  16  19
ATOM     19  C   UNL     1      -2.183   4.899   5.874  1.00  0.00     0.360 C 
BRANCH  19  20
ATOM     20  N   UNL     1      -3.033   6.027   6.279  1.00  0.00    -0.350 N 
ATOM     21  H   UNL     1      -3.277   6.580   5.457  1.00  0.00     0.344 HD
ATOM     22  H   UNL     1      -2.529   6.611   6.945  1.00  0.00     0.344 HD
ATOM     23  H   UNL     1      -3.884   5.671   6.714  1.00  0.00     0.344 HD
ENDBRANCH  19  20
ENDBRANCH  16  19
ENDBRANCH  13  15
ENDBRANCH  10  13
ENDBRANCH   5   9
ENDBRANCH   3   5
ENDBRANCH   2   3
ENDBRANCH   1   2
BRANCH   1  24
ATOM     24  C   UNL     1      -5.792  -0.336   1.840  1.00  0.00     0.275 C 
BRANCH  24  25
ATOM     25  O   UNL     1      -4.975   0.665   1.200  1.00  0.00    -0.458 OA
BRANCH  25  26
ATOM     26  C   UNL     1      -4.544   1.625   2.046  1.00  0.00     0.338 C 
ATOM     27  O   UNL     1      -4.771   1.673   3.247  1.00  0.00    -0.246 OA
BRANCH  26  28
ATOM     28  C   UNL     1      -3.632   2.584   1.412  1.00  0.00     0.060 A 
ATOM     29  C   UNL     1      -2.275   2.514   1.743  1.00  0.00     0.016 A 
ATOM     30  C   UNL     1      -4.141   3.694   0.737  1.00  0.00     0.016 A 
ATOM     31  C   UNL     1      -1.432   3.582   1.456  1.00  0.00     0.010 A 
ATOM     32  C   UNL     1      -3.282   4.750   0.409  1.00  0.00     0.010 A 
ATOM     33  C   UNL     1      -1.930   4.709   0.788  1.00  0.00    -0.014 A 
BRANCH  33  34
ATOM     34  C   UNL     1      -0.990   5.778   0.381  1.00  0.00     0.031 A 
ATOM     35  C   UNL     1      -0.948   7.114   1.062  1.00  0.00     0.074 A 
ATOM     36  C   UNL     1      -0.145   5.499  -0.628  1.00  0.00     0.049 A 
ATOM     37  N   UNL     1      -0.199   8.150   0.777  1.00  0.00    -0.248 NA
ATOM     38  C   UNL     1      -1.836   7.316   2.216  1.00  0.00     0.031 C 
ATOM     39  C   UNL     1      -0.071   4.213  -1.327  1.00  0.00     0.029 A 
ATOM     40  N   UNL     1       0.799   6.273  -1.247  1.00  0.00    -0.354 N 
ATOM     41  C   UNL     1      -0.510   9.122   1.720  1.00  0.00     0.074 A 
ATOM     42  C   UNL     1      -1.533   8.559   2.579  1.00  0.00     0.031 C 
ATOM     43  C   UNL     1       0.858   4.291  -2.287  1.00  0.00     0.029 A 
ATOM     44  C   UNL     1       1.395   5.646  -2.312  1.00  0.00     0.049 A 
ATOM     45  H   UNL     1       1.027   7.186  -0.958  1.00  0.00     0.167 HD
ATOM     46  C   UNL     1       0.014  10.365   1.851  1.00  0.00     0.031 A 
ATOM     47  C   UNL     1       2.236   6.118  -3.248  1.00  0.00     0.031 A 
ATOM     48  C   UNL     1       1.002  10.926   0.962  1.00  0.00     0.049 A 
ATOM     49  C   UNL     1       2.669   7.547  -3.182  1.00  0.00     0.074 A 
ATOM     50  C   UNL     1       1.625  12.161   1.032  1.00  0.00     0.029 A 
ATOM     51  N   UNL     1       1.488  10.301  -0.177  1.00  0.00    -0.354 N 
ATOM     52  N   UNL     1       2.378   8.447  -2.275  1.00  0.00    -0.248 NA
ATOM     53  C   UNL     1       3.525   8.029  -4.271  1.00  0.00     0.031 C 
ATOM     54  C   UNL     1       2.442  12.306  -0.098  1.00  0.00     0.029 A 
ATOM     55  C   UNL     1       2.360  11.144  -0.848  1.00  0.00     0.049 A 
ATOM     56  H   UNL     1       1.248   9.391  -0.467  1.00  0.00     0.167 HD
ATOM     57  C   UNL     1       3.010   9.611  -2.685  1.00  0.00     0.074 A 
ATOM     58  C   UNL     1       3.715   9.293  -3.913  1.00  0.00     0.031 C 
ATOM     59  C   UNL     1       3.009  10.831  -2.094  1.00  0.00     0.031 A 
BRANCH  46  60
ATOM     60  C   UNL     1      -0.480  11.227   2.981  1.00  0.00    -0.014 A 
ATOM     61  C   UNL     1      -0.003  11.042   4.291  1.00  0.00     0.010 A 
ATOM     62  C   UNL     1      -1.354  12.297   2.715  1.00  0.00     0.010 A 
ATOM     63  C   UNL     1      -0.401  11.905   5.317  1.00  0.00     0.020 A 
ATOM     64  C   UNL     1      -1.745  13.169   3.737  1.00  0.00     0.020 A 
ATOM     65  C   UNL     1      -1.271  12.963   5.034  1.00  0.00     0.054 A 
BRANCH  65  66
ATOM     66  S   UNL     1      -1.732  14.098   6.374  1.00  0.00     0.124 S 
ATOM     67  O   UNL     1      -2.676  13.289   7.142  1.00  0.00    -0.237 OA
ATOM     68  O   UNL     1      -0.454  14.360   7.029  1.00  0.00    -0.237 OA
ATOM     69  O   UNL     1      -2.315  15.241   5.675  1.00  0.00    -0.744 OA
ENDBRANCH  65  66
ENDBRANCH  46  60
BRANCH  47  70
ATOM     70  C   UNL     1       2.628   5.221  -4.362  1.00  0.00    -0.014 A 
ATOM     71  C   UNL     1       3.889   4.607  -4.379  1.00  0.00     0.010 A 
ATOM     72  C   UNL     1       1.677   4.880  -5.343  1.00  0.00     0.010 A 
ATOM     73  C   UNL     1       4.184   3.640  -5.344  1.00  0.00     0.020 A 
ATOM     74  C   UNL     1       1.961   3.900  -6.295  1.00  0.00     0.020 A 
ATOM     75  C   UNL     1       3.213   3.284  -6.287  1.00  0.00     0.054 A 
BRANCH  75  76
ATOM     76  S   UNL     1       3.554   1.925  -7.441  1.00  0.00     0.124 S 
ATOM     77  O   UNL     1       4.285   2.607  -8.504  1.00  0.00    -0.237 OA
ATOM     78  O   UNL     1       4.338   0.999  -6.627  1.00  0.00    -0.237 OA
ATOM     79  O   UNL     1       2.220   1.446  -7.800  1.00  0.00    -0.744 OA
ENDBRANCH  75  76
ENDBRANCH  47  70
BRANCH  59  80
ATOM     80  C   UNL     1       3.779  11.912  -2.795  1.00  0.00    -0.014 A 
ATOM     81  C   UNL     1       3.245  12.543  -3.933  1.00  0.00     0.010 A 
ATOM     82  C   UNL     1       5.047  12.293  -2.325  1.00  0.00     0.010 A 
ATOM     83  C   UNL     1       3.987  13.510  -4.614  1.00  0.00     0.020 A 
ATOM     84  C   UNL     1       5.783  13.273  -2.993  1.00  0.00     0.020 A 
ATOM     85  C   UNL     1       5.256  13.861  -4.146  1.00  0.00     0.054 A 
BRANCH  85  86
ATOM     86  S   UNL     1       6.207  15.119  -5.043  1.00  0.00     0.124 S 
ATOM     87  O   UNL     1       6.756  14.347  -6.154  1.00  0.00    -0.237 OA
ATOM     88  O   UNL     1       5.188  16.102  -5.404  1.00  0.00    -0.237 OA
ATOM     89  O   UNL     1       7.184  15.578  -4.058  1.00  0.00    -0.744 OA
ENDBRANCH  85  86
ENDBRANCH  59  80
ENDBRANCH  33  34
ENDBRANCH  26  28
ENDBRANCH  25  26
ENDBRANCH  24  25
ENDBRANCH   1  24
TORSDOF 20
