REMARK SMILES C[C@@H](C(=O)OCCOC(=O)c1ccc(-c2c3nc(c(-c4ccc(S(=O)(=O)[O-])cc4)c4ccc([nH]4)c(-c4ccc(S(=O)(=O)[O-])cc4)c4nc(c(-c5ccc(S(=O)(=O)[O-])cc5)c5ccc2[nH]5)C=C4)C=C3)cc1)c1ccc(-c2ccccc2)cc1
REMARK SMILES IDX 7 1 6 2 5 3 3 4 4 5 2 6 1 7 71 8 72 9 82 10 73 11 81 12
REMARK SMILES IDX 74 13 75 14 76 15 80 16 77 17 79 18 78 19 8 20 9 21 10 22
REMARK SMILES IDX 11 23 12 24 70 25 13 26 69 27 14 28 15 29 16 30 63 31 17 32
REMARK SMILES IDX 68 33 62 34 64 35 18 36 67 37 61 38 60 39 19 41 49 42 30 43
REMARK SMILES IDX 48 44 31 45 34 46 47 47 65 48 32 49 33 50 46 52 66 53 35 54
REMARK SMILES IDX 20 55 21 56 29 57 22 58 28 59 23 60 24 61 25 62 26 63 27 64
REMARK SMILES IDX 50 65 51 66 59 67 52 68 58 69 53 70 54 71 55 72 56 73 57 74
REMARK SMILES IDX 36 75 37 76 45 77 38 78 44 79 39 80 40 81 41 82 42 83 43 84
REMARK H PARENT 64 40 34 51
REMARK Flexibility Score: inf
ROOT
ATOM      1  C   UNL     1       2.071   2.439  -3.620  1.00  0.00     0.275 C 
ENDROOT
BRANCH   1   2
ATOM      2  C   UNL     1       2.455   2.968  -2.242  1.00  0.00     0.274 C 
BRANCH   2   3
ATOM      3  O   UNL     1       1.996   2.072  -1.209  1.00  0.00    -0.462 OA
BRANCH   3   4
ATOM      4  C   UNL     1       0.944   2.490  -0.448  1.00  0.00     0.313 C 
ATOM      5  O   UNL     1       0.411   3.586  -0.580  1.00  0.00    -0.252 OA
BRANCH   4   6
ATOM      6  C   UNL     1       0.562   1.470   0.644  1.00  0.00     0.126 C 
ATOM      7  C   UNL     1       1.256   0.116   0.433  1.00  0.00     0.025 C 
BRANCH   6   8
ATOM      8  C   UNL     1      -0.955   1.361   0.854  1.00  0.00    -0.034 A 
ATOM      9  C   UNL     1      -1.683   2.484   1.287  1.00  0.00     0.005 A 
ATOM     10  C   UNL     1      -1.676   0.180   0.623  1.00  0.00     0.005 A 
ATOM     11  C   UNL     1      -3.078   2.437   1.445  1.00  0.00     0.009 A 
ATOM     12  C   UNL     1      -3.066   0.132   0.799  1.00  0.00     0.009 A 
ATOM     13  C   UNL     1      -3.796   1.260   1.202  1.00  0.00    -0.018 A 
BRANCH  13  14
ATOM     14  C   UNL     1      -5.265   1.204   1.310  1.00  0.00    -0.018 A 
ATOM     15  C   UNL     1      -6.081   2.102   0.603  1.00  0.00     0.009 A 
ATOM     16  C   UNL     1      -5.899   0.215   2.083  1.00  0.00     0.009 A 
ATOM     17  C   UNL     1      -7.474   1.993   0.636  1.00  0.00     0.001 A 
ATOM     18  C   UNL     1      -7.293   0.113   2.125  1.00  0.00     0.001 A 
ATOM     19  C   UNL     1      -8.080   0.996   1.392  1.00  0.00     0.000 A 
ENDBRANCH  13  14
ENDBRANCH   6   8
ENDBRANCH   4   6
ENDBRANCH   3   4
ENDBRANCH   2   3
ENDBRANCH   1   2
BRANCH   1  20
ATOM     20  O   UNL     1       0.644   2.506  -3.780  1.00  0.00    -0.458 OA
BRANCH  20  21
ATOM     21  C   UNL     1      -0.000   1.321  -3.853  1.00  0.00     0.338 C 
ATOM     22  O   UNL     1       0.491   0.202  -3.879  1.00  0.00    -0.246 OA
BRANCH  21  23
ATOM     23  C   UNL     1      -1.446   1.573  -3.839  1.00  0.00     0.060 A 
ATOM     24  C   UNL     1      -2.045   1.912  -2.630  1.00  0.00     0.016 A 
ATOM     25  C   UNL     1      -2.220   1.382  -4.983  1.00  0.00     0.016 A 
ATOM     26  C   UNL     1      -3.429   2.003  -2.542  1.00  0.00     0.010 A 
ATOM     27  C   UNL     1      -3.612   1.532  -4.904  1.00  0.00     0.010 A 
ATOM     28  C   UNL     1      -4.231   1.812  -3.674  1.00  0.00    -0.014 A 
BRANCH  28  29
ATOM     29  C   UNL     1      -5.711   1.831  -3.525  1.00  0.00     0.031 A 
ATOM     30  C   UNL     1      -6.497   0.557  -3.692  1.00  0.00     0.074 A 
ATOM     31  C   UNL     1      -6.342   2.960  -3.144  1.00  0.00     0.049 A 
ATOM     32  N   UNL     1      -7.792   0.372  -3.635  1.00  0.00    -0.248 NA
ATOM     33  C   UNL     1      -5.727  -0.669  -3.961  1.00  0.00     0.031 C 
ATOM     34  C   UNL     1      -5.688   4.236  -2.846  1.00  0.00     0.029 A 
ATOM     35  N   UNL     1      -7.668   3.199  -2.878  1.00  0.00    -0.354 N 
ATOM     36  C   UNL     1      -7.995  -0.973  -3.923  1.00  0.00     0.074 A 
ATOM     37  C   UNL     1      -6.691  -1.562  -4.136  1.00  0.00     0.031 C 
ATOM     38  C   UNL     1      -6.597   5.088  -2.345  1.00  0.00     0.029 A 
ATOM     39  C   UNL     1      -7.910   4.449  -2.357  1.00  0.00     0.049 A 
ATOM     40  H   UNL     1      -8.379   2.538  -3.045  1.00  0.00     0.167 HD
ATOM     41  C   UNL     1      -9.163  -1.651  -4.022  1.00  0.00     0.031 A 
ATOM     42  C   UNL     1      -9.056   5.010  -1.925  1.00  0.00     0.031 A 
ATOM     43  C   UNL     1     -10.457  -1.077  -3.770  1.00  0.00     0.049 A 
ATOM     44  C   UNL     1     -10.343   4.238  -2.045  1.00  0.00     0.074 A 
ATOM     45  C   UNL     1     -11.702  -1.667  -3.901  1.00  0.00     0.029 A 
ATOM     46  N   UNL     1     -10.670   0.213  -3.312  1.00  0.00    -0.354 N 
ATOM     47  N   UNL     1     -10.525   2.990  -2.403  1.00  0.00    -0.248 NA
ATOM     48  C   UNL     1     -11.581   4.963  -1.725  1.00  0.00     0.031 C 
ATOM     49  C   UNL     1     -12.672  -0.719  -3.557  1.00  0.00     0.029 A 
ATOM     50  C   UNL     1     -12.027   0.446  -3.171  1.00  0.00     0.049 A 
ATOM     51  H   UNL     1      -9.961   0.868  -3.117  1.00  0.00     0.167 HD
ATOM     52  C   UNL     1     -11.900   2.785  -2.367  1.00  0.00     0.074 A 
ATOM     53  C   UNL     1     -12.498   4.021  -1.905  1.00  0.00     0.031 C 
ATOM     54  C   UNL     1     -12.607   1.680  -2.710  1.00  0.00     0.031 A 
BRANCH  41  55
ATOM     55  C   UNL     1      -9.096  -3.073  -4.508  1.00  0.00    -0.014 A 
ATOM     56  C   UNL     1      -8.696  -4.127  -3.669  1.00  0.00     0.010 A 
ATOM     57  C   UNL     1      -9.467  -3.354  -5.836  1.00  0.00     0.010 A 
ATOM     58  C   UNL     1      -8.633  -5.434  -4.162  1.00  0.00     0.020 A 
ATOM     59  C   UNL     1      -9.425  -4.661  -6.327  1.00  0.00     0.020 A 
ATOM     60  C   UNL     1      -8.991  -5.691  -5.491  1.00  0.00     0.054 A 
BRANCH  60  61
ATOM     61  S   UNL     1      -8.909  -7.395  -6.110  1.00  0.00     0.124 S 
ATOM     62  O   UNL     1      -7.474  -7.572  -6.314  1.00  0.00    -0.237 OA
ATOM     63  O   UNL     1      -9.488  -8.166  -5.013  1.00  0.00    -0.237 OA
ATOM     64  O   UNL     1      -9.712  -7.358  -7.330  1.00  0.00    -0.744 OA
ENDBRANCH  60  61
ENDBRANCH  41  55
BRANCH  42  65
ATOM     65  C   UNL     1      -9.052   6.374  -1.328  1.00  0.00    -0.014 A 
ATOM     66  C   UNL     1      -9.349   6.546   0.037  1.00  0.00     0.010 A 
ATOM     67  C   UNL     1      -8.761   7.505  -2.111  1.00  0.00     0.010 A 
ATOM     68  C   UNL     1      -9.371   7.824   0.603  1.00  0.00     0.020 A 
ATOM     69  C   UNL     1      -8.753   8.782  -1.541  1.00  0.00     0.020 A 
ATOM     70  C   UNL     1      -9.073   8.934  -0.190  1.00  0.00     0.054 A 
BRANCH  70  71
ATOM     71  S   UNL     1      -9.053  10.584   0.567  1.00  0.00     0.124 S 
ATOM     72  O   UNL     1     -10.469  10.938   0.555  1.00  0.00    -0.237 OA
ATOM     73  O   UNL     1      -8.476  10.328   1.884  1.00  0.00    -0.237 OA
ATOM     74  O   UNL     1      -8.204  11.358  -0.336  1.00  0.00    -0.744 OA
ENDBRANCH  70  71
ENDBRANCH  42  65
BRANCH  54  75
ATOM     75  C   UNL     1     -14.106   1.757  -2.610  1.00  0.00    -0.014 A 
ATOM     76  C   UNL     1     -14.851   2.481  -3.559  1.00  0.00     0.010 A 
ATOM     77  C   UNL     1     -14.782   1.048  -1.601  1.00  0.00     0.010 A 
ATOM     78  C   UNL     1     -16.245   2.515  -3.486  1.00  0.00     0.020 A 
ATOM     79  C   UNL     1     -16.178   1.063  -1.538  1.00  0.00     0.020 A 
ATOM     80  C   UNL     1     -16.901   1.806  -2.474  1.00  0.00     0.054 A 
BRANCH  80  81
ATOM     81  S   UNL     1     -18.714   1.821  -2.430  1.00  0.00     0.124 S 
ATOM     82  O   UNL     1     -18.994   3.135  -1.859  1.00  0.00    -0.237 OA
ATOM     83  O   UNL     1     -19.073   1.659  -3.837  1.00  0.00    -0.237 OA
ATOM     84  O   UNL     1     -19.048   0.684  -1.575  1.00  0.00    -0.744 OA
ENDBRANCH  80  81
ENDBRANCH  54  75
ENDBRANCH  28  29
ENDBRANCH  21  23
ENDBRANCH  20  21
ENDBRANCH   1  20
TORSDOF 16
