REMARK SMILES CCC[C@@H]1C[N@@H+](Cc2cc(OC)c3c(c2)OCO3)C[C@H]1C(=O)OCCOC(=O)c1ccc(-c2c3nc(c(-c4ccc(S(=O)(=O)[O-])cc4)c4ccc([nH]4)c(-c4ccc(S(=O)(=O)[O-])cc4)c4nc(c(-c5ccc(S(=O)(=O)[O-])cc5)c5ccc2[nH]5)C=C4)C=C3)cc1
REMARK SMILES IDX 24 1 23 2 21 3 22 4 20 5 4 6 5 7 6 8 19 9 3 11 2 12 1 13
REMARK SMILES IDX 7 14 8 15 9 16 15 17 10 18 14 19 13 20 16 21 18 22 17 23
REMARK SMILES IDX 11 24 12 25 25 26 26 27 27 28 28 29 29 30 30 31 88 32 31 33
REMARK SMILES IDX 87 34 32 35 33 36 34 37 81 38 35 39 86 40 80 41 82 42 36 43
REMARK SMILES IDX 85 44 79 45 78 46 37 48 67 49 48 50 66 51 49 52 52 53 65 54
REMARK SMILES IDX 83 55 50 56 51 57 64 59 84 60 53 61 38 62 39 63 47 64 40 65
REMARK SMILES IDX 46 66 41 67 42 68 43 69 44 70 45 71 68 72 69 73 77 74 70 75
REMARK SMILES IDX 76 76 71 77 72 78 73 79 74 80 75 81 54 82 55 83 63 84 56 85
REMARK SMILES IDX 62 86 57 87 58 88 59 89 60 90 61 91
REMARK H PARENT 6 10 82 47 52 58
REMARK Flexibility Score: inf
ROOT
ATOM      1  C   UNL     1       0.623   1.297   3.361  1.00  0.00     0.274 C 
ENDROOT
BRANCH   1   2
ATOM      2  O   UNL     1       0.523   0.012   2.693  1.00  0.00    -0.462 OA
BRANCH   2   3
ATOM      3  C   UNL     1      -0.712  -0.322   2.239  1.00  0.00     0.315 C 
ATOM      4  O   UNL     1      -1.673   0.443   2.242  1.00  0.00    -0.252 OA
BRANCH   3   5
ATOM      5  C   UNL     1      -0.896  -1.787   1.900  1.00  0.00     0.163 C 
ATOM      6  C   UNL     1       0.276  -2.690   1.499  1.00  0.00     0.064 C 
ATOM      7  C   UNL     1      -0.118  -4.017   2.180  1.00  0.00     0.267 C 
ATOM      8  N   UNL     1      -0.772  -3.670   3.431  1.00  0.00    -0.330 N 
ATOM      9  C   UNL     1      -1.446  -2.393   3.205  1.00  0.00     0.278 C 
ATOM     10  H   UNL     1      -1.456  -4.390   3.665  1.00  0.00     0.348 HD
BRANCH   6  11
ATOM     11  C   UNL     1       0.517  -3.023   0.007  1.00  0.00     0.010 C 
BRANCH  11  12
ATOM     12  C   UNL     1       0.393  -1.923  -1.036  1.00  0.00    -0.003 C 
ATOM     13  C   UNL     1       1.595  -1.003  -1.087  1.00  0.00     0.004 C 
ENDBRANCH  11  12
ENDBRANCH   6  11
BRANCH   8  14
ATOM     14  C   UNL     1       0.041  -3.762   4.646  1.00  0.00     0.299 C 
BRANCH  14  15
ATOM     15  C   UNL     1       1.438  -3.181   4.597  1.00  0.00     0.014 A 
ATOM     16  C   UNL     1       1.694  -1.854   5.002  1.00  0.00     0.060 A 
ATOM     17  C   UNL     1       2.502  -3.960   4.117  1.00  0.00     0.060 A 
ATOM     18  C   UNL     1       2.973  -1.280   4.883  1.00  0.00     0.165 A 
ATOM     19  C   UNL     1       3.744  -3.377   3.999  1.00  0.00     0.170 A 
ATOM     20  C   UNL     1       3.983  -2.071   4.366  1.00  0.00     0.207 A 
ATOM     21  O   UNL     1       4.848  -4.004   3.512  1.00  0.00    -0.453 OA
ATOM     22  O   UNL     1       5.287  -1.733   4.162  1.00  0.00    -0.450 OA
ATOM     23  C   UNL     1       5.806  -2.933   3.560  1.00  0.00     0.468 C 
BRANCH  18  24
ATOM     24  O   UNL     1       3.069   0.015   5.306  1.00  0.00    -0.493 OA
ATOM     25  C   UNL     1       4.188   0.755   4.831  1.00  0.00     0.278 C 
ENDBRANCH  18  24
ENDBRANCH  14  15
ENDBRANCH   8  14
ENDBRANCH   3   5
ENDBRANCH   2   3
ENDBRANCH   1   2
BRANCH   1  26
ATOM     26  C   UNL     1       1.522   2.253   2.587  1.00  0.00     0.275 C 
BRANCH  26  27
ATOM     27  O   UNL     1       0.852   2.558   1.361  1.00  0.00    -0.458 OA
BRANCH  27  28
ATOM     28  C   UNL     1       1.579   2.450   0.229  1.00  0.00     0.338 C 
ATOM     29  O   UNL     1       2.790   2.375   0.128  1.00  0.00    -0.246 OA
BRANCH  28  30
ATOM     30  C   UNL     1       0.631   2.379  -0.901  1.00  0.00     0.060 A 
ATOM     31  C   UNL     1      -0.542   1.627  -0.771  1.00  0.00     0.016 A 
ATOM     32  C   UNL     1       0.936   2.993  -2.111  1.00  0.00     0.016 A 
ATOM     33  C   UNL     1      -1.407   1.469  -1.842  1.00  0.00     0.010 A 
ATOM     34  C   UNL     1       0.024   2.906  -3.165  1.00  0.00     0.010 A 
ATOM     35  C   UNL     1      -1.157   2.151  -3.032  1.00  0.00    -0.014 A 
BRANCH  35  36
ATOM     36  C   UNL     1      -2.156   2.135  -4.122  1.00  0.00     0.031 A 
ATOM     37  C   UNL     1      -1.799   1.560  -5.458  1.00  0.00     0.074 A 
ATOM     38  C   UNL     1      -3.366   2.691  -3.910  1.00  0.00     0.049 A 
ATOM     39  N   UNL     1      -2.418   1.694  -6.600  1.00  0.00    -0.248 NA
ATOM     40  C   UNL     1      -0.581   0.735  -5.520  1.00  0.00     0.031 C 
ATOM     41  C   UNL     1      -3.849   3.220  -2.630  1.00  0.00     0.029 A 
ATOM     42  N   UNL     1      -4.405   2.921  -4.774  1.00  0.00    -0.354 N 
ATOM     43  C   UNL     1      -1.645   1.008  -7.528  1.00  0.00     0.074 A 
ATOM     44  C   UNL     1      -0.515   0.453  -6.815  1.00  0.00     0.031 C 
ATOM     45  C   UNL     1      -5.086   3.712  -2.793  1.00  0.00     0.029 A 
ATOM     46  C   UNL     1      -5.445   3.615  -4.201  1.00  0.00     0.049 A 
ATOM     47  H   UNL     1      -4.407   2.619  -5.711  1.00  0.00     0.167 HD
ATOM     48  C   UNL     1      -1.863   0.871  -8.857  1.00  0.00     0.031 A 
ATOM     49  C   UNL     1      -6.535   4.173  -4.758  1.00  0.00     0.031 A 
ATOM     50  C   UNL     1      -2.998   1.431  -9.543  1.00  0.00     0.049 A 
ATOM     51  C   UNL     1      -6.712   4.077  -6.244  1.00  0.00     0.074 A 
ATOM     52  C   UNL     1      -3.309   1.369 -10.890  1.00  0.00     0.029 A 
ATOM     53  N   UNL     1      -4.015   2.148  -8.930  1.00  0.00    -0.354 N 
ATOM     54  N   UNL     1      -5.940   3.487  -7.125  1.00  0.00    -0.248 NA
ATOM     55  C   UNL     1      -7.892   4.738  -6.813  1.00  0.00     0.031 C 
ATOM     56  C   UNL     1      -4.497   2.080 -11.096  1.00  0.00     0.029 A 
ATOM     57  C   UNL     1      -4.949   2.545  -9.871  1.00  0.00     0.049 A 
ATOM     58  H   UNL     1      -4.065   2.345  -7.966  1.00  0.00     0.167 HD
ATOM     59  C   UNL     1      -6.548   3.695  -8.356  1.00  0.00     0.074 A 
ATOM     60  C   UNL     1      -7.759   4.452  -8.101  1.00  0.00     0.031 C 
ATOM     61  C   UNL     1      -6.142   3.300  -9.587  1.00  0.00     0.031 A 
BRANCH  48  62
ATOM     62  C   UNL     1      -0.834   0.125  -9.661  1.00  0.00    -0.014 A 
ATOM     63  C   UNL     1      -0.738  -1.276  -9.604  1.00  0.00     0.010 A 
ATOM     64  C   UNL     1       0.018   0.836 -10.526  1.00  0.00     0.010 A 
ATOM     65  C   UNL     1       0.209  -1.951 -10.380  1.00  0.00     0.020 A 
ATOM     66  C   UNL     1       0.953   0.163 -11.319  1.00  0.00     0.020 A 
ATOM     67  C   UNL     1       1.050  -1.227 -11.230  1.00  0.00     0.054 A 
BRANCH  67  68
ATOM     68  S   UNL     1       2.247  -2.131 -12.253  1.00  0.00     0.124 S 
ATOM     69  O   UNL     1       3.265  -2.496 -11.271  1.00  0.00    -0.237 OA
ATOM     70  O   UNL     1       1.452  -3.240 -12.775  1.00  0.00    -0.237 OA
ATOM     71  O   UNL     1       2.665  -1.146 -13.248  1.00  0.00    -0.744 OA
ENDBRANCH  67  68
ENDBRANCH  48  62
BRANCH  49  72
ATOM     72  C   UNL     1      -7.496   4.927  -3.910  1.00  0.00    -0.014 A 
ATOM     73  C   UNL     1      -8.772   4.405  -3.642  1.00  0.00     0.010 A 
ATOM     74  C   UNL     1      -7.127   6.160  -3.341  1.00  0.00     0.010 A 
ATOM     75  C   UNL     1      -9.666   5.107  -2.829  1.00  0.00     0.020 A 
ATOM     76  C   UNL     1      -8.007   6.852  -2.506  1.00  0.00     0.020 A 
ATOM     77  C   UNL     1      -9.278   6.326  -2.265  1.00  0.00     0.054 A 
BRANCH  77  78
ATOM     78  S   UNL     1     -10.430   7.196  -1.165  1.00  0.00     0.124 S 
ATOM     79  O   UNL     1     -11.334   7.832  -2.117  1.00  0.00    -0.237 OA
ATOM     80  O   UNL     1     -11.003   6.107  -0.377  1.00  0.00    -0.237 OA
ATOM     81  O   UNL     1      -9.563   8.104  -0.417  1.00  0.00    -0.744 OA
ENDBRANCH  77  78
ENDBRANCH  49  72
BRANCH  61  82
ATOM     82  C   UNL     1      -7.037   3.653 -10.740  1.00  0.00    -0.014 A 
ATOM     83  C   UNL     1      -7.070   4.959 -11.256  1.00  0.00     0.010 A 
ATOM     84  C   UNL     1      -7.827   2.653 -11.333  1.00  0.00     0.010 A 
ATOM     85  C   UNL     1      -7.903   5.267 -12.333  1.00  0.00     0.020 A 
ATOM     86  C   UNL     1      -8.645   2.953 -12.424  1.00  0.00     0.020 A 
ATOM     87  C   UNL     1      -8.688   4.262 -12.908  1.00  0.00     0.054 A 
BRANCH  87  88
ATOM     88  S   UNL     1      -9.735   4.674 -14.330  1.00  0.00     0.124 S 
ATOM     89  O   UNL     1     -10.858   5.354 -13.693  1.00  0.00    -0.237 OA
ATOM     90  O   UNL     1      -8.862   5.523 -15.138  1.00  0.00    -0.237 OA
ATOM     91  O   UNL     1     -10.044   3.373 -14.919  1.00  0.00    -0.744 OA
ENDBRANCH  87  88
ENDBRANCH  61  82
ENDBRANCH  35  36
ENDBRANCH  28  30
ENDBRANCH  27  28
ENDBRANCH  26  27
ENDBRANCH   1  26
TORSDOF 19
