REMARK SMILES O=C(OCCOC(=O)c1noc(-c2ccccc2C(F)(F)F)n1)c1ccc(-c2c3nc(c(-c4ccc(S(=O)(=O)[O-])cc4)c4ccc([nH]4)c(-c4ccc(S(=O)(=O)[O-])cc4)c4nc(c(-c5ccc(S(=O)(=O)[O-])cc5)c5ccc2[nH]5)C=C4)C=C3)cc1
REMARK SMILES IDX 4 1 3 2 2 3 1 4 24 5 25 6 83 7 26 8 82 9 27 10 28 11 29 12
REMARK SMILES IDX 76 13 30 14 81 15 75 16 77 17 31 18 80 19 74 20 73 21 32 23
REMARK SMILES IDX 62 24 43 25 61 26 44 27 47 28 60 29 78 30 45 31 46 32 59 34
REMARK SMILES IDX 79 35 48 36 33 37 34 38 42 39 35 40 41 41 36 42 37 43 38 44
REMARK SMILES IDX 39 45 40 46 63 47 64 48 72 49 65 50 71 51 66 52 67 53 68 54
REMARK SMILES IDX 69 55 70 56 49 57 50 58 58 59 51 60 57 61 52 62 53 63 54 64
REMARK SMILES IDX 55 65 56 66 5 67 6 68 7 69 8 70 9 71 10 72 23 73 11 74 12 75
REMARK SMILES IDX 13 76 14 77 18 78 15 79 17 80 16 81 19 82 20 83 21 84 22 85
REMARK H PARENT 77 22 47 33
REMARK Flexibility Score: inf
ROOT
ATOM      1  C   UNL     1       4.022   0.712  -1.334  1.00  0.00     0.275 C 
ENDROOT
BRANCH   1   2
ATOM      2  O   UNL     1       2.923  -0.159  -1.013  1.00  0.00    -0.458 OA
BRANCH   2   3
ATOM      3  C   UNL     1       2.874  -1.126  -0.063  1.00  0.00     0.338 C 
ATOM      4  O   UNL     1       2.099  -2.069  -0.196  1.00  0.00    -0.246 OA
BRANCH   3   5
ATOM      5  C   UNL     1       3.575  -0.974   1.246  1.00  0.00     0.060 A 
ATOM      6  C   UNL     1       4.906  -0.581   1.403  1.00  0.00     0.016 A 
ATOM      7  C   UNL     1       2.843  -1.324   2.396  1.00  0.00     0.016 A 
ATOM      8  C   UNL     1       5.475  -0.471   2.675  1.00  0.00     0.010 A 
ATOM      9  C   UNL     1       3.417  -1.241   3.669  1.00  0.00     0.010 A 
ATOM     10  C   UNL     1       4.740  -0.808   3.814  1.00  0.00    -0.014 A 
BRANCH  10  11
ATOM     11  C   UNL     1       5.422  -0.846   5.128  1.00  0.00     0.031 A 
ATOM     12  C   UNL     1       5.946  -2.163   5.628  1.00  0.00     0.074 A 
ATOM     13  C   UNL     1       5.633   0.284   5.828  1.00  0.00     0.049 A 
ATOM     14  N   UNL     1       6.631  -2.419   6.710  1.00  0.00    -0.248 NA
ATOM     15  C   UNL     1       5.688  -3.340   4.781  1.00  0.00     0.031 C 
ATOM     16  C   UNL     1       5.238   1.629   5.409  1.00  0.00     0.029 A 
ATOM     17  N   UNL     1       6.228   0.479   7.049  1.00  0.00    -0.354 N 
ATOM     18  C   UNL     1       6.942  -3.771   6.644  1.00  0.00     0.074 A 
ATOM     19  C   UNL     1       6.304  -4.298   5.457  1.00  0.00     0.031 C 
ATOM     20  C   UNL     1       5.547   2.503   6.384  1.00  0.00     0.029 A 
ATOM     21  C   UNL     1       6.175   1.782   7.486  1.00  0.00     0.049 A 
ATOM     22  H   UNL     1       6.652  -0.245   7.563  1.00  0.00     0.167 HD
ATOM     23  C   UNL     1       7.721  -4.501   7.476  1.00  0.00     0.031 A 
ATOM     24  C   UNL     1       6.577   2.324   8.652  1.00  0.00     0.031 A 
ATOM     25  C   UNL     1       8.304  -3.986   8.683  1.00  0.00     0.049 A 
ATOM     26  C   UNL     1       7.266   1.448   9.662  1.00  0.00     0.074 A 
ATOM     27  C   UNL     1       9.093  -4.642   9.611  1.00  0.00     0.029 A 
ATOM     28  N   UNL     1       8.141  -2.687   9.140  1.00  0.00    -0.354 N 
ATOM     29  N   UNL     1       7.569   0.175   9.572  1.00  0.00    -0.248 NA
ATOM     30  C   UNL     1       7.684   2.085  10.917  1.00  0.00     0.031 C 
ATOM     31  C   UNL     1       9.368  -3.749  10.654  1.00  0.00     0.029 A 
ATOM     32  C   UNL     1       8.791  -2.525  10.350  1.00  0.00     0.049 A 
ATOM     33  H   UNL     1       7.637  -1.982   8.671  1.00  0.00     0.167 HD
ATOM     34  C   UNL     1       8.261  -0.130  10.739  1.00  0.00     0.074 A 
ATOM     35  C   UNL     1       8.311   1.087  11.525  1.00  0.00     0.031 C 
ATOM     36  C   UNL     1       8.825  -1.304  11.114  1.00  0.00     0.031 A 
BRANCH  23  37
ATOM     37  C   UNL     1       7.973  -5.932   7.088  1.00  0.00    -0.014 A 
ATOM     38  C   UNL     1       8.825  -6.238   6.010  1.00  0.00     0.010 A 
ATOM     39  C   UNL     1       7.350  -6.978   7.790  1.00  0.00     0.010 A 
ATOM     40  C   UNL     1       9.011  -7.563   5.609  1.00  0.00     0.020 A 
ATOM     41  C   UNL     1       7.550  -8.307   7.404  1.00  0.00     0.020 A 
ATOM     42  C   UNL     1       8.363  -8.589   6.303  1.00  0.00     0.054 A 
BRANCH  42  43
ATOM     43  S   UNL     1       8.609 -10.300   5.753  1.00  0.00     0.124 S 
ATOM     44  O   UNL     1       7.798 -10.343   4.538  1.00  0.00    -0.237 OA
ATOM     45  O   UNL     1      10.053 -10.367   5.546  1.00  0.00    -0.237 OA
ATOM     46  O   UNL     1       8.104 -11.098   6.867  1.00  0.00    -0.744 OA
ENDBRANCH  42  43
ENDBRANCH  23  37
BRANCH  24  47
ATOM     47  C   UNL     1       6.289   3.751   8.957  1.00  0.00    -0.014 A 
ATOM     48  C   UNL     1       7.293   4.732   8.955  1.00  0.00     0.010 A 
ATOM     49  C   UNL     1       4.976   4.121   9.291  1.00  0.00     0.010 A 
ATOM     50  C   UNL     1       6.984   6.057   9.290  1.00  0.00     0.020 A 
ATOM     51  C   UNL     1       4.657   5.444   9.601  1.00  0.00     0.020 A 
ATOM     52  C   UNL     1       5.668   6.404   9.611  1.00  0.00     0.054 A 
BRANCH  52  53
ATOM     53  S   UNL     1       5.273   8.129  10.014  1.00  0.00     0.124 S 
ATOM     54  O   UNL     1       5.774   8.242  11.379  1.00  0.00    -0.237 OA
ATOM     55  O   UNL     1       6.017   8.871   9.000  1.00  0.00    -0.237 OA
ATOM     56  O   UNL     1       3.819   8.182   9.873  1.00  0.00    -0.744 OA
ENDBRANCH  52  53
ENDBRANCH  24  47
BRANCH  36  57
ATOM     57  C   UNL     1       9.595  -1.311  12.403  1.00  0.00    -0.014 A 
ATOM     58  C   UNL     1       8.940  -1.325  13.646  1.00  0.00     0.010 A 
ATOM     59  C   UNL     1      11.000  -1.351  12.361  1.00  0.00     0.010 A 
ATOM     60  C   UNL     1       9.682  -1.354  14.829  1.00  0.00     0.020 A 
ATOM     61  C   UNL     1      11.743  -1.404  13.541  1.00  0.00     0.020 A 
ATOM     62  C   UNL     1      11.079  -1.392  14.769  1.00  0.00     0.054 A 
BRANCH  62  63
ATOM     63  S   UNL     1      12.022  -1.480  16.315  1.00  0.00     0.124 S 
ATOM     64  O   UNL     1      11.962  -0.098  16.785  1.00  0.00    -0.237 OA
ATOM     65  O   UNL     1      11.260  -2.445  17.103  1.00  0.00    -0.237 OA
ATOM     66  O   UNL     1      13.342  -1.938  15.888  1.00  0.00    -0.744 OA
ENDBRANCH  62  63
ENDBRANCH  36  57
ENDBRANCH  10  11
ENDBRANCH   3   5
ENDBRANCH   2   3
ENDBRANCH   1   2
BRANCH   1  67
ATOM     67  C   UNL     1       3.913   2.114  -0.728  1.00  0.00     0.275 C 
BRANCH  67  68
ATOM     68  O   UNL     1       3.472   2.105   0.635  1.00  0.00    -0.456 OA
BRANCH  68  69
ATOM     69  C   UNL     1       2.109   2.162   0.798  1.00  0.00     0.380 C 
ATOM     70  O   UNL     1       1.323   2.308  -0.134  1.00  0.00    -0.242 OA
BRANCH  69  71
ATOM     71  C   UNL     1       1.693   1.948   2.186  1.00  0.00     0.281 A 
ATOM     72  N   UNL     1       0.516   1.365   2.479  1.00  0.00    -0.049 NA
ATOM     73  N   UNL     1       2.446   2.282   3.303  1.00  0.00    -0.181 NA
ATOM     74  O   UNL     1       0.505   1.322   3.868  1.00  0.00    -0.333 OA
ATOM     75  C   UNL     1       1.664   1.905   4.288  1.00  0.00     0.259 A 
BRANCH  75  76
ATOM     76  C   UNL     1       1.749   2.126   5.721  1.00  0.00     0.052 A 
ATOM     77  C   UNL     1       1.814   1.014   6.580  1.00  0.00     0.014 A 
ATOM     78  C   UNL     1       1.707   3.423   6.270  1.00  0.00     0.068 A 
ATOM     79  C   UNL     1       1.820   1.177   7.964  1.00  0.00     0.001 A 
ATOM     80  C   UNL     1       1.697   3.567   7.670  1.00  0.00     0.014 A 
ATOM     81  C   UNL     1       1.738   2.452   8.509  1.00  0.00     0.001 A 
BRANCH  78  82
ATOM     82  C   UNL     1       1.700   4.669   5.414  1.00  0.00     0.417 C 
ATOM     83  F   UNL     1       1.047   5.708   6.008  1.00  0.00    -0.166 F 
ATOM     84  F   UNL     1       2.953   5.118   5.136  1.00  0.00    -0.166 F 
ATOM     85  F   UNL     1       1.077   4.519   4.211  1.00  0.00    -0.166 F 
ENDBRANCH  78  82
ENDBRANCH  75  76
ENDBRANCH  69  71
ENDBRANCH  68  69
ENDBRANCH  67  68
ENDBRANCH   1  67
TORSDOF 16
