REMARK SMILES O=C(Cc1ccc(-c2ccn(C(F)F)c(=O)c2)cc1)OCCOC(=O)c1ccc(-c2c3nc(c(-c4ccc(S(=O)(=O)[O-])cc4)c4ccc([nH]4)c(-c4ccc(S(=O)(=O)[O-])cc4)c4nc(c(-c5ccc(S(=O)(=O)[O-])cc5)c5ccc2[nH]5)C=C4)C=C3)cc1
REMARK SMILES IDX 21 1 20 2 2 3 1 4 3 5 4 6 5 7 19 8 6 9 18 10 7 11 8 12 9 13
REMARK SMILES IDX 17 14 10 15 15 16 11 17 16 18 12 19 13 20 14 21 22 22 23 23
REMARK SMILES IDX 24 24 25 25 26 26 27 27 85 28 28 29 84 30 29 31 30 32 31 33
REMARK SMILES IDX 78 34 32 35 83 36 77 37 79 38 33 39 82 40 76 41 75 42 34 44
REMARK SMILES IDX 64 45 45 46 63 47 46 48 49 49 62 50 80 51 47 52 48 53 61 55
REMARK SMILES IDX 81 56 50 57 35 58 36 59 44 60 37 61 43 62 38 63 39 64 40 65
REMARK SMILES IDX 41 66 42 67 65 68 66 69 74 70 67 71 73 72 68 73 69 74 70 75
REMARK SMILES IDX 71 76 72 77 51 78 52 79 60 80 53 81 59 82 54 83 55 84 56 85
REMARK SMILES IDX 57 86 58 87
REMARK H PARENT 79 43 49 54
REMARK Flexibility Score: inf
ROOT
ATOM      1  C   UNL     1       4.492  -0.217  -0.852  1.00  0.00     0.274 C 
ENDROOT
BRANCH   1   2
ATOM      2  O   UNL     1       3.119  -0.665  -0.801  1.00  0.00    -0.462 OA
BRANCH   2   3
ATOM      3  C   UNL     1       2.275  -0.524   0.248  1.00  0.00     0.310 C 
ATOM      4  O   UNL     1       1.147  -1.012   0.195  1.00  0.00    -0.252 OA
BRANCH   3   5
ATOM      5  C   UNL     1       2.737   0.222   1.476  1.00  0.00     0.158 C 
BRANCH   5   6
ATOM      6  C   UNL     1       3.654  -0.523   2.409  1.00  0.00    -0.037 A 
ATOM      7  C   UNL     1       3.587  -1.911   2.563  1.00  0.00     0.005 A 
ATOM      8  C   UNL     1       4.563   0.209   3.190  1.00  0.00     0.005 A 
ATOM      9  C   UNL     1       4.444  -2.560   3.451  1.00  0.00     0.009 A 
ATOM     10  C   UNL     1       5.417  -0.439   4.081  1.00  0.00     0.009 A 
ATOM     11  C   UNL     1       5.368  -1.829   4.208  1.00  0.00    -0.018 A 
BRANCH  11  12
ATOM     12  C   UNL     1       6.249  -2.519   5.162  1.00  0.00    -0.011 A 
ATOM     13  C   UNL     1       6.102  -2.381   6.596  1.00  0.00     0.027 A 
ATOM     14  C   UNL     1       7.207  -3.322   4.671  1.00  0.00     0.080 A 
ATOM     15  C   UNL     1       6.889  -3.074   7.426  1.00  0.00     0.095 A 
ATOM     16  C   UNL     1       8.097  -4.092   5.582  1.00  0.00     0.255 A 
ATOM     17  N   UNL     1       7.864  -3.924   6.938  1.00  0.00    -0.258 N 
ATOM     18  O   UNL     1       8.953  -4.818   5.086  1.00  0.00    -0.269 OA
BRANCH  17  19
ATOM     19  C   UNL     1       8.682  -4.689   7.840  1.00  0.00     0.451 C 
ATOM     20  F   UNL     1       8.535  -6.019   7.621  1.00  0.00    -0.185 F 
ATOM     21  F   UNL     1       9.995  -4.385   7.687  1.00  0.00    -0.185 F 
ENDBRANCH  17  19
ENDBRANCH  11  12
ENDBRANCH   5   6
ENDBRANCH   3   5
ENDBRANCH   2   3
ENDBRANCH   1   2
BRANCH   1  22
ATOM     22  C   UNL     1       4.625   1.071  -1.664  1.00  0.00     0.275 C 
BRANCH  22  23
ATOM     23  O   UNL     1       4.119   2.183  -0.904  1.00  0.00    -0.458 OA
BRANCH  23  24
ATOM     24  C   UNL     1       2.845   2.556  -1.185  1.00  0.00     0.338 C 
ATOM     25  O   UNL     1       2.150   2.141  -2.096  1.00  0.00    -0.246 OA
BRANCH  24  26
ATOM     26  C   UNL     1       2.335   3.392  -0.073  1.00  0.00     0.060 A 
ATOM     27  C   UNL     1       1.010   3.195   0.334  1.00  0.00     0.016 A 
ATOM     28  C   UNL     1       3.150   4.308   0.604  1.00  0.00     0.016 A 
ATOM     29  C   UNL     1       0.490   3.934   1.397  1.00  0.00     0.010 A 
ATOM     30  C   UNL     1       2.624   5.050   1.668  1.00  0.00     0.010 A 
ATOM     31  C   UNL     1       1.284   4.885   2.053  1.00  0.00    -0.014 A 
BRANCH  31  32
ATOM     32  C   UNL     1       0.655   5.796   3.040  1.00  0.00     0.031 A 
ATOM     33  C   UNL     1       0.189   7.151   2.582  1.00  0.00     0.074 A 
ATOM     34  C   UNL     1       0.452   5.409   4.312  1.00  0.00     0.049 A 
ATOM     35  N   UNL     1      -0.482   8.060   3.241  1.00  0.00    -0.248 NA
ATOM     36  C   UNL     1       0.518   7.528   1.198  1.00  0.00     0.031 C 
ATOM     37  C   UNL     1       0.857   4.126   4.886  1.00  0.00     0.029 A 
ATOM     38  N   UNL     1      -0.157   6.066   5.353  1.00  0.00    -0.354 N 
ATOM     39  C   UNL     1      -0.682   9.102   2.345  1.00  0.00     0.074 A 
ATOM     40  C   UNL     1      -0.013   8.739   1.115  1.00  0.00     0.031 C 
ATOM     41  C   UNL     1       0.486   4.091   6.179  1.00  0.00     0.029 A 
ATOM     42  C   UNL     1      -0.179   5.347   6.524  1.00  0.00     0.049 A 
ATOM     43  H   UNL     1      -0.542   6.968   5.268  1.00  0.00     0.167 HD
ATOM     44  C   UNL     1      -1.380  10.250   2.518  1.00  0.00     0.031 A 
ATOM     45  C   UNL     1      -0.683   5.663   7.734  1.00  0.00     0.031 A 
ATOM     46  C   UNL     1      -2.017  10.636   3.748  1.00  0.00     0.049 A 
ATOM     47  C   UNL     1      -1.407   6.972   7.919  1.00  0.00     0.074 A 
ATOM     48  C   UNL     1      -2.745  11.782   4.018  1.00  0.00     0.029 A 
ATOM     49  N   UNL     1      -1.994   9.893   4.917  1.00  0.00    -0.354 N 
ATOM     50  N   UNL     1      -1.637   7.921   7.043  1.00  0.00    -0.248 NA
ATOM     51  C   UNL     1      -1.962   7.239   9.255  1.00  0.00     0.031 C 
ATOM     52  C   UNL     1      -3.124  11.752   5.365  1.00  0.00     0.029 A 
ATOM     53  C   UNL     1      -2.677  10.563   5.918  1.00  0.00     0.049 A 
ATOM     54  H   UNL     1      -1.556   9.017   5.021  1.00  0.00     0.167 HD
ATOM     55  C   UNL     1      -2.381   8.886   7.716  1.00  0.00     0.074 A 
ATOM     56  C   UNL     1      -2.581   8.395   9.063  1.00  0.00     0.031 C 
ATOM     57  C   UNL     1      -2.858  10.071   7.259  1.00  0.00     0.031 A 
BRANCH  44  58
ATOM     58  C   UNL     1      -1.484  11.173   1.335  1.00  0.00    -0.014 A 
ATOM     59  C   UNL     1      -2.304  10.843   0.240  1.00  0.00     0.010 A 
ATOM     60  C   UNL     1      -0.784  12.392   1.327  1.00  0.00     0.010 A 
ATOM     61  C   UNL     1      -2.396  11.702  -0.858  1.00  0.00     0.020 A 
ATOM     62  C   UNL     1      -0.892  13.264   0.241  1.00  0.00     0.020 A 
ATOM     63  C   UNL     1      -1.686  12.906  -0.852  1.00  0.00     0.054 A 
BRANCH  63  64
ATOM     64  S   UNL     1      -1.841  14.013  -2.280  1.00  0.00     0.124 S 
ATOM     65  O   UNL     1      -1.050  13.314  -3.289  1.00  0.00    -0.237 OA
ATOM     66  O   UNL     1      -3.283  14.034  -2.514  1.00  0.00    -0.237 OA
ATOM     67  O   UNL     1      -1.272  15.272  -1.805  1.00  0.00    -0.744 OA
ENDBRANCH  63  64
ENDBRANCH  44  58
BRANCH  45  68
ATOM     68  C   UNL     1      -0.520   4.724   8.877  1.00  0.00    -0.014 A 
ATOM     69  C   UNL     1      -1.621   4.027   9.405  1.00  0.00     0.010 A 
ATOM     70  C   UNL     1       0.746   4.547   9.463  1.00  0.00     0.010 A 
ATOM     71  C   UNL     1      -1.463   3.189  10.514  1.00  0.00     0.020 A 
ATOM     72  C   UNL     1       0.913   3.692  10.555  1.00  0.00     0.020 A 
ATOM     73  C   UNL     1      -0.196   3.029  11.083  1.00  0.00     0.054 A 
BRANCH  73  74
ATOM     74  S   UNL     1       0.002   1.907  12.496  1.00  0.00     0.124 S 
ATOM     75  O   UNL     1      -0.525   2.708  13.595  1.00  0.00    -0.237 OA
ATOM     76  O   UNL     1      -0.808   0.756  12.104  1.00  0.00    -0.237 OA
ATOM     77  O   UNL     1       1.442   1.659  12.532  1.00  0.00    -0.744 OA
ENDBRANCH  73  74
ENDBRANCH  45  68
BRANCH  57  78
ATOM     78  C   UNL     1      -3.658  10.911   8.221  1.00  0.00    -0.014 A 
ATOM     79  C   UNL     1      -3.042  11.569   9.301  1.00  0.00     0.010 A 
ATOM     80  C   UNL     1      -5.043  11.063   8.028  1.00  0.00     0.010 A 
ATOM     81  C   UNL     1      -3.804  12.322  10.199  1.00  0.00     0.020 A 
ATOM     82  C   UNL     1      -5.804  11.837   8.908  1.00  0.00     0.020 A 
ATOM     83  C   UNL     1      -5.182  12.444  10.001  1.00  0.00     0.054 A 
BRANCH  83  84
ATOM     84  S   UNL     1      -6.151  13.434  11.173  1.00  0.00     0.124 S 
ATOM     85  O   UNL     1      -6.257  12.531  12.316  1.00  0.00    -0.237 OA
ATOM     86  O   UNL     1      -5.309  14.610  11.377  1.00  0.00    -0.237 OA
ATOM     87  O   UNL     1      -7.401  13.688  10.460  1.00  0.00    -0.744 OA
ENDBRANCH  83  84
ENDBRANCH  57  78
ENDBRANCH  31  32
ENDBRANCH  24  26
ENDBRANCH  23  24
ENDBRANCH  22  23
ENDBRANCH   1  22
TORSDOF 17
