REMARK SMILES O=C(OCCOC(=O)c1ccn(-c2cc(-c3ccncc3)nc(-c3ccccc3F)n2)n1)c1ccc(-c2c3nc(c(-c4ccc(S(=O)(=O)[O-])cc4)c4ccc([nH]4)c(-c4ccc(S(=O)(=O)[O-])cc4)c4nc(c(-c5ccc(S(=O)(=O)[O-])cc5)c5ccc2[nH]5)C=C4)C=C3)cc1
REMARK SMILES IDX 4 1 3 2 2 3 1 4 33 5 34 6 92 7 35 8 91 9 36 10 37 11 38 12
REMARK SMILES IDX 85 13 39 14 90 15 84 16 86 17 40 18 89 19 83 20 82 21 41 23
REMARK SMILES IDX 71 24 52 25 70 26 53 27 56 28 69 29 87 30 54 31 55 32 68 34
REMARK SMILES IDX 88 35 57 36 42 37 43 38 51 39 44 40 50 41 45 42 46 43 47 44
REMARK SMILES IDX 48 45 49 46 72 47 73 48 81 49 74 50 80 51 75 52 76 53 77 54
REMARK SMILES IDX 78 55 79 56 58 57 59 58 67 59 60 60 66 61 61 62 62 63 63 64
REMARK SMILES IDX 64 65 65 66 5 67 6 68 7 69 8 70 9 71 10 72 32 73 11 74 12 75
REMARK SMILES IDX 13 76 14 77 31 78 15 79 23 80 22 81 16 82 17 83 21 84 18 85
REMARK SMILES IDX 20 86 19 87 24 88 25 89 29 90 26 91 28 92 30 93 27 94
REMARK H PARENT 86 22 56 33
REMARK Flexibility Score: inf
ROOT
ATOM      1  C   UNL     1       4.569  -0.760  -0.836  1.00  0.00     0.275 C 
ENDROOT
BRANCH   1   2
ATOM      2  O   UNL     1       3.337  -1.452  -0.558  1.00  0.00    -0.458 OA
BRANCH   2   3
ATOM      3  C   UNL     1       2.250  -0.766  -0.143  1.00  0.00     0.338 C 
ATOM      4  O   UNL     1       1.325  -0.476  -0.888  1.00  0.00    -0.246 OA
BRANCH   3   5
ATOM      5  C   UNL     1       2.159  -0.637   1.334  1.00  0.00     0.060 A 
ATOM      6  C   UNL     1       3.264  -0.734   2.187  1.00  0.00     0.016 A 
ATOM      7  C   UNL     1       0.881  -0.443   1.872  1.00  0.00     0.016 A 
ATOM      8  C   UNL     1       3.084  -0.742   3.563  1.00  0.00     0.010 A 
ATOM      9  C   UNL     1       0.701  -0.450   3.245  1.00  0.00     0.010 A 
ATOM     10  C   UNL     1       1.794  -0.650   4.087  1.00  0.00    -0.014 A 
BRANCH  10  11
ATOM     11  C   UNL     1       1.614  -0.678   5.537  1.00  0.00     0.031 A 
ATOM     12  C   UNL     1       2.298   0.430   6.273  1.00  0.00     0.074 A 
ATOM     13  C   UNL     1       0.771  -1.564   6.118  1.00  0.00     0.049 A 
ATOM     14  N   UNL     1       3.159   0.354   7.231  1.00  0.00    -0.248 NA
ATOM     15  C   UNL     1       2.093   1.811   5.812  1.00  0.00     0.031 C 
ATOM     16  C   UNL     1      -0.102  -2.536   5.443  1.00  0.00     0.029 A 
ATOM     17  N   UNL     1       0.416  -1.715   7.425  1.00  0.00    -0.354 N 
ATOM     18  C   UNL     1       3.401   1.663   7.657  1.00  0.00     0.074 A 
ATOM     19  C   UNL     1       2.803   2.527   6.682  1.00  0.00     0.031 C 
ATOM     20  C   UNL     1      -1.043  -2.981   6.306  1.00  0.00     0.029 A 
ATOM     21  C   UNL     1      -0.751  -2.458   7.627  1.00  0.00     0.049 A 
ATOM     22  H   UNL     1       0.939  -1.333   8.166  1.00  0.00     0.167 HD
ATOM     23  C   UNL     1       3.882   1.916   8.904  1.00  0.00     0.031 A 
ATOM     24  C   UNL     1      -1.446  -2.615   8.786  1.00  0.00     0.031 A 
ATOM     25  C   UNL     1       4.497   0.739   9.456  1.00  0.00     0.049 A 
ATOM     26  C   UNL     1      -0.502  -2.305   9.884  1.00  0.00     0.074 A 
ATOM     27  C   UNL     1       5.565  -0.051   9.090  1.00  0.00     0.029 A 
ATOM     28  N   UNL     1       3.719  -0.011  10.304  1.00  0.00    -0.354 N 
ATOM     29  N   UNL     1       0.563  -3.016  10.133  1.00  0.00    -0.248 NA
ATOM     30  C   UNL     1      -0.488  -0.955  10.420  1.00  0.00     0.031 C 
ATOM     31  C   UNL     1       5.138  -1.382   9.364  1.00  0.00     0.029 A 
ATOM     32  C   UNL     1       3.883  -1.329   9.978  1.00  0.00     0.049 A 
ATOM     33  H   UNL     1       3.143   0.339  11.022  1.00  0.00     0.167 HD
ATOM     34  C   UNL     1       1.544  -2.082  10.432  1.00  0.00     0.074 A 
ATOM     35  C   UNL     1       0.813  -0.845  10.705  1.00  0.00     0.031 C 
ATOM     36  C   UNL     1       2.858  -2.336  10.159  1.00  0.00     0.031 A 
BRANCH  23  37
ATOM     37  C   UNL     1       3.382   3.038   9.790  1.00  0.00    -0.014 A 
ATOM     38  C   UNL     1       3.854   3.079  11.120  1.00  0.00     0.010 A 
ATOM     39  C   UNL     1       2.249   3.821   9.491  1.00  0.00     0.010 A 
ATOM     40  C   UNL     1       3.147   3.746  12.125  1.00  0.00     0.020 A 
ATOM     41  C   UNL     1       1.552   4.520  10.484  1.00  0.00     0.020 A 
ATOM     42  C   UNL     1       1.983   4.440  11.803  1.00  0.00     0.054 A 
BRANCH  42  43
ATOM     43  S   UNL     1       1.010   5.173  13.141  1.00  0.00     0.124 S 
ATOM     44  O   UNL     1       0.603   3.993  13.896  1.00  0.00    -0.237 OA
ATOM     45  O   UNL     1       1.991   6.036  13.794  1.00  0.00    -0.237 OA
ATOM     46  O   UNL     1      -0.061   5.874  12.438  1.00  0.00    -0.744 OA
ENDBRANCH  42  43
ENDBRANCH  23  37
BRANCH  24  47
ATOM     47  C   UNL     1      -2.920  -2.719   8.996  1.00  0.00    -0.014 A 
ATOM     48  C   UNL     1      -3.468  -3.017  10.261  1.00  0.00     0.010 A 
ATOM     49  C   UNL     1      -3.806  -2.229   8.016  1.00  0.00     0.010 A 
ATOM     50  C   UNL     1      -4.820  -2.746  10.558  1.00  0.00     0.020 A 
ATOM     51  C   UNL     1      -5.151  -1.949   8.305  1.00  0.00     0.020 A 
ATOM     52  C   UNL     1      -5.647  -2.183   9.584  1.00  0.00     0.054 A 
BRANCH  52  53
ATOM     53  S   UNL     1      -7.330  -1.639  10.018  1.00  0.00     0.124 S 
ATOM     54  O   UNL     1      -8.049  -2.906  10.123  1.00  0.00    -0.237 OA
ATOM     55  O   UNL     1      -7.128  -0.924  11.274  1.00  0.00    -0.237 OA
ATOM     56  O   UNL     1      -7.721  -0.799   8.887  1.00  0.00    -0.744 OA
ENDBRANCH  52  53
ENDBRANCH  24  47
BRANCH  36  57
ATOM     57  C   UNL     1       3.271  -3.756   9.847  1.00  0.00    -0.014 A 
ATOM     58  C   UNL     1       2.820  -4.499   8.739  1.00  0.00     0.010 A 
ATOM     59  C   UNL     1       4.290  -4.298  10.649  1.00  0.00     0.010 A 
ATOM     60  C   UNL     1       3.359  -5.768   8.465  1.00  0.00     0.020 A 
ATOM     61  C   UNL     1       4.845  -5.546  10.369  1.00  0.00     0.020 A 
ATOM     62  C   UNL     1       4.368  -6.282   9.287  1.00  0.00     0.054 A 
BRANCH  62  63
ATOM     63  S   UNL     1       5.085  -7.910   8.925  1.00  0.00     0.124 S 
ATOM     64  O   UNL     1       3.977  -8.816   9.208  1.00  0.00    -0.237 OA
ATOM     65  O   UNL     1       5.462  -7.795   7.518  1.00  0.00    -0.237 OA
ATOM     66  O   UNL     1       6.214  -8.007   9.851  1.00  0.00    -0.744 OA
ENDBRANCH  62  63
ENDBRANCH  36  57
ENDBRANCH  10  11
ENDBRANCH   3   5
ENDBRANCH   2   3
ENDBRANCH   1   2
BRANCH   1  67
ATOM     67  C   UNL     1       4.465   0.667  -1.370  1.00  0.00     0.275 C 
BRANCH  67  68
ATOM     68  O   UNL     1       3.912   1.542  -0.372  1.00  0.00    -0.457 OA
BRANCH  68  69
ATOM     69  C   UNL     1       2.811   2.258  -0.750  1.00  0.00     0.358 C 
ATOM     70  O   UNL     1       2.346   2.273  -1.892  1.00  0.00    -0.244 OA
BRANCH  69  71
ATOM     71  C   UNL     1       2.299   3.107   0.322  1.00  0.00     0.170 A 
ATOM     72  C   UNL     1       2.784   4.397   0.644  1.00  0.00     0.058 A 
ATOM     73  N   UNL     1       1.258   2.769   1.112  1.00  0.00    -0.159 NA
ATOM     74  C   UNL     1       1.861   4.913   1.517  1.00  0.00     0.118 A 
ATOM     75  N   UNL     1       0.933   3.923   1.749  1.00  0.00    -0.222 N 
BRANCH  75  76
ATOM     76  C   UNL     1      -0.224   4.062   2.564  1.00  0.00     0.158 A 
ATOM     77  C   UNL     1      -0.514   3.076   3.482  1.00  0.00     0.078 A 
ATOM     78  N   UNL     1      -0.926   5.211   2.466  1.00  0.00    -0.209 NA
ATOM     79  C   UNL     1      -1.477   3.390   4.421  1.00  0.00     0.077 A 
ATOM     80  C   UNL     1      -1.964   5.329   3.309  1.00  0.00     0.165 A 
ATOM     81  N   UNL     1      -2.244   4.487   4.311  1.00  0.00    -0.228 NA
BRANCH  79  82
ATOM     82  C   UNL     1      -1.670   2.631   5.658  1.00  0.00     0.003 A 
ATOM     83  C   UNL     1      -0.843   2.855   6.769  1.00  0.00     0.030 A 
ATOM     84  C   UNL     1      -2.727   1.735   5.808  1.00  0.00     0.030 A 
ATOM     85  C   UNL     1      -1.051   2.130   7.932  1.00  0.00     0.111 A 
ATOM     86  C   UNL     1      -2.881   1.090   7.024  1.00  0.00     0.111 A 
ATOM     87  N   UNL     1      -2.045   1.239   8.072  1.00  0.00    -0.265 NA
ENDBRANCH  79  82
BRANCH  80  88
ATOM     88  C   UNL     1      -2.965   6.335   3.005  1.00  0.00     0.055 A 
ATOM     89  C   UNL     1      -3.724   6.252   1.822  1.00  0.00     0.015 A 
ATOM     90  C   UNL     1      -3.239   7.374   3.893  1.00  0.00     0.134 A 
ATOM     91  C   UNL     1      -4.728   7.184   1.548  1.00  0.00     0.001 A 
ATOM     92  C   UNL     1      -4.235   8.311   3.624  1.00  0.00     0.040 A 
ATOM     93  F   UNL     1      -2.531   7.503   5.025  1.00  0.00    -0.206 F 
ATOM     94  C   UNL     1      -4.981   8.215   2.450  1.00  0.00     0.003 A 
ENDBRANCH  80  88
ENDBRANCH  75  76
ENDBRANCH  69  71
ENDBRANCH  68  69
ENDBRANCH  67  68
ENDBRANCH   1  67
TORSDOF 17
