REMARK SMILES O=C(OCCOC(=O)c1ccc2nc(Cl)sc2c1)c1ccc(-c2c3nc(c(-c4ccc(S(=O)(=O)[O-])cc4)c4ccc([nH]4)c(-c4ccc(S(=O)(=O)[O-])cc4)c4nc(c(-c5ccc(S(=O)(=O)[O-])cc5)c5ccc2[nH]5)C=C4)C=C3)cc1
REMARK SMILES IDX 3 1 2 2 1 3 19 4 20 5 78 6 21 7 77 8 22 9 23 10 24 11 71 12
REMARK SMILES IDX 25 13 76 14 70 15 72 16 26 17 75 18 69 19 68 20 27 22 57 23
REMARK SMILES IDX 38 24 56 25 39 26 42 27 55 28 73 29 40 30 41 31 54 33 74 34
REMARK SMILES IDX 43 35 28 36 29 37 37 38 30 39 36 40 31 41 32 42 33 43 34 44
REMARK SMILES IDX 35 45 58 46 59 47 67 48 60 49 66 50 61 51 62 52 63 53 64 54
REMARK SMILES IDX 65 55 44 56 45 57 53 58 46 59 52 60 47 61 48 62 49 63 50 64
REMARK SMILES IDX 51 65 4 66 5 67 6 68 7 69 8 70 9 71 10 72 18 73 11 74 17 75
REMARK SMILES IDX 12 76 16 77 13 78 14 79 15 80
REMARK H PARENT 72 21 42 32
REMARK Flexibility Score: inf
ROOT
ATOM      1  O   UNL     1       3.325  -0.490   0.420  1.00  0.00    -0.458 OA
ENDROOT
BRANCH   1   2
ATOM      2  C   UNL     1       3.250  -0.285   1.760  1.00  0.00     0.338 C 
ATOM      3  O   UNL     1       2.781  -1.155   2.488  1.00  0.00    -0.246 OA
BRANCH   2   4
ATOM      4  C   UNL     1       3.405   1.110   2.291  1.00  0.00     0.060 A 
ATOM      5  C   UNL     1       2.621   1.464   3.406  1.00  0.00     0.016 A 
ATOM      6  C   UNL     1       4.228   2.088   1.745  1.00  0.00     0.016 A 
ATOM      7  C   UNL     1       2.618   2.770   3.921  1.00  0.00     0.010 A 
ATOM      8  C   UNL     1       4.191   3.403   2.228  1.00  0.00     0.010 A 
ATOM      9  C   UNL     1       3.395   3.764   3.331  1.00  0.00    -0.014 A 
BRANCH   9  10
ATOM     10  C   UNL     1       3.496   5.087   4.039  1.00  0.00     0.031 A 
ATOM     11  C   UNL     1       4.943   5.493   4.059  1.00  0.00     0.074 A 
ATOM     12  C   UNL     1       2.650   6.100   3.732  1.00  0.00     0.049 A 
ATOM     13  N   UNL     1       5.561   6.009   3.043  1.00  0.00    -0.248 NA
ATOM     14  C   UNL     1       5.840   5.026   5.114  1.00  0.00     0.031 C 
ATOM     15  C   UNL     1       2.414   6.637   2.394  1.00  0.00     0.029 A 
ATOM     16  N   UNL     1       1.980   6.984   4.571  1.00  0.00    -0.354 N 
ATOM     17  C   UNL     1       6.920   5.906   3.287  1.00  0.00     0.074 A 
ATOM     18  C   UNL     1       7.045   5.281   4.582  1.00  0.00     0.031 C 
ATOM     19  C   UNL     1       1.627   7.724   2.476  1.00  0.00     0.029 A 
ATOM     20  C   UNL     1       1.477   8.091   3.881  1.00  0.00     0.049 A 
ATOM     21  H   UNL     1       1.872   6.846   5.540  1.00  0.00     0.167 HD
ATOM     22  C   UNL     1       7.839   6.404   2.413  1.00  0.00     0.031 A 
ATOM     23  C   UNL     1       1.522   9.384   4.327  1.00  0.00     0.031 A 
ATOM     24  C   UNL     1       7.307   7.145   1.290  1.00  0.00     0.049 A 
ATOM     25  C   UNL     1       2.776   9.908   3.645  1.00  0.00     0.074 A 
ATOM     26  C   UNL     1       7.538   7.341  -0.053  1.00  0.00     0.029 A 
ATOM     27  N   UNL     1       6.224   7.926   1.590  1.00  0.00    -0.354 N 
ATOM     28  N   UNL     1       2.901  10.256   2.384  1.00  0.00    -0.248 NA
ATOM     29  C   UNL     1       4.060   9.683   4.327  1.00  0.00     0.031 C 
ATOM     30  C   UNL     1       6.580   8.316  -0.506  1.00  0.00     0.029 A 
ATOM     31  C   UNL     1       5.804   8.720   0.576  1.00  0.00     0.049 A 
ATOM     32  H   UNL     1       5.786   7.912   2.472  1.00  0.00     0.167 HD
ATOM     33  C   UNL     1       4.220   9.933   2.050  1.00  0.00     0.074 A 
ATOM     34  C   UNL     1       4.915   9.767   3.312  1.00  0.00     0.031 C 
ATOM     35  C   UNL     1       4.634   9.554   0.799  1.00  0.00     0.031 A 
BRANCH  22  36
ATOM     36  C   UNL     1       9.263   6.539   2.802  1.00  0.00    -0.014 A 
ATOM     37  C   UNL     1      10.193   5.491   2.783  1.00  0.00     0.010 A 
ATOM     38  C   UNL     1       9.686   7.825   3.190  1.00  0.00     0.010 A 
ATOM     39  C   UNL     1      11.525   5.734   3.152  1.00  0.00     0.020 A 
ATOM     40  C   UNL     1      11.005   8.071   3.561  1.00  0.00     0.020 A 
ATOM     41  C   UNL     1      11.919   7.021   3.542  1.00  0.00     0.054 A 
BRANCH  41  42
ATOM     42  S   UNL     1      13.645   7.315   4.018  1.00  0.00     0.124 S 
ATOM     43  O   UNL     1      13.787   6.459   5.193  1.00  0.00    -0.237 OA
ATOM     44  O   UNL     1      14.375   6.881   2.831  1.00  0.00    -0.237 OA
ATOM     45  O   UNL     1      13.693   8.751   4.287  1.00  0.00    -0.744 OA
ENDBRANCH  41  42
ENDBRANCH  22  36
BRANCH  23  46
ATOM     46  C   UNL     1       1.133   9.613   5.752  1.00  0.00    -0.014 A 
ATOM     47  C   UNL     1       1.979  10.102   6.757  1.00  0.00     0.010 A 
ATOM     48  C   UNL     1      -0.161   9.194   6.140  1.00  0.00     0.010 A 
ATOM     49  C   UNL     1       1.656   9.926   8.109  1.00  0.00     0.020 A 
ATOM     50  C   UNL     1      -0.508   9.046   7.487  1.00  0.00     0.020 A 
ATOM     51  C   UNL     1       0.442   9.335   8.460  1.00  0.00     0.054 A 
BRANCH  51  52
ATOM     52  S   UNL     1       0.192   8.810  10.178  1.00  0.00     0.124 S 
ATOM     53  O   UNL     1       1.242   7.805  10.332  1.00  0.00    -0.237 OA
ATOM     54  O   UNL     1       0.388  10.050  10.922  1.00  0.00    -0.237 OA
ATOM     55  O   UNL     1      -1.172   8.285  10.185  1.00  0.00    -0.744 OA
ENDBRANCH  51  52
ENDBRANCH  23  46
BRANCH  35  56
ATOM     56  C   UNL     1       3.833   9.985  -0.384  1.00  0.00    -0.014 A 
ATOM     57  C   UNL     1       3.504   9.087  -1.416  1.00  0.00     0.010 A 
ATOM     58  C   UNL     1       3.648  11.361  -0.587  1.00  0.00     0.010 A 
ATOM     59  C   UNL     1       3.104   9.568  -2.665  1.00  0.00     0.020 A 
ATOM     60  C   UNL     1       3.241  11.846  -1.827  1.00  0.00     0.020 A 
ATOM     61  C   UNL     1       3.015  10.948  -2.871  1.00  0.00     0.054 A 
BRANCH  61  62
ATOM     62  S   UNL     1       2.721  11.562  -4.550  1.00  0.00     0.124 S 
ATOM     63  O   UNL     1       3.882  11.049  -5.274  1.00  0.00    -0.237 OA
ATOM     64  O   UNL     1       1.443  10.945  -4.894  1.00  0.00    -0.237 OA
ATOM     65  O   UNL     1       2.686  13.015  -4.391  1.00  0.00    -0.744 OA
ENDBRANCH  61  62
ENDBRANCH  35  56
ENDBRANCH   9  10
ENDBRANCH   2   4
ENDBRANCH   1   2
BRANCH   1  66
ATOM     66  C   UNL     1       4.527  -0.302  -0.354  1.00  0.00     0.275 C 
BRANCH  66  67
ATOM     67  C   UNL     1       4.361   0.770  -1.447  1.00  0.00     0.275 C 
BRANCH  67  68
ATOM     68  O   UNL     1       3.384   1.756  -1.095  1.00  0.00    -0.458 OA
BRANCH  68  69
ATOM     69  C   UNL     1       2.082   1.380  -1.270  1.00  0.00     0.338 C 
ATOM     70  O   UNL     1       1.670   0.431  -1.884  1.00  0.00    -0.246 OA
BRANCH  69  71
ATOM     71  C   UNL     1       1.278   2.220  -0.347  1.00  0.00     0.061 A 
ATOM     72  C   UNL     1       1.520   3.586  -0.267  1.00  0.00     0.018 A 
ATOM     73  C   UNL     1       0.375   1.584   0.524  1.00  0.00     0.037 A 
ATOM     74  C   UNL     1       0.878   4.340   0.711  1.00  0.00     0.031 A 
ATOM     75  C   UNL     1      -0.156   2.346   1.582  1.00  0.00     0.057 A 
ATOM     76  C   UNL     1       0.102   3.715   1.703  1.00  0.00     0.083 A 
ATOM     77  S   UNL     1      -1.121   1.850   2.928  1.00  0.00    -0.102 S 
ATOM     78  N   UNL     1      -0.401   4.322   2.838  1.00  0.00    -0.225 NA
ATOM     79  C   UNL     1      -0.985   3.415   3.574  1.00  0.00     0.184 A 
ATOM     80  Cl  UNL     1      -1.576   3.752   5.149  1.00  0.00    -0.050 Cl
ENDBRANCH  69  71
ENDBRANCH  68  69
ENDBRANCH  67  68
ENDBRANCH  66  67
ENDBRANCH   1  66
TORSDOF 14
