REMARK SMILES C[C@@H](C(=O)OCCOC(=O)c1ccc(-c2c3nc(c(-c4ccc(S(=O)(=O)[O-])cc4)c4ccc([nH]4)c(-c4ccc(S(=O)(=O)[O-])cc4)c4nc(c(-c5ccc(S(=O)(=O)[O-])cc5)c5ccc2[nH]5)C=C4)C=C3)cc1)n1ccc(C(=O)NC2CCCCCCC2)n1
REMARK SMILES IDX 3 1 4 2 2 3 1 4 71 5 72 6 86 7 73 8 74 9 75 10 76 11 77 12
REMARK SMILES IDX 78 14 79 15 80 16 81 17 82 18 85 20 84 21 83 22 5 24 6 25
REMARK SMILES IDX 7 26 8 27 9 28 10 29 11 30 12 31 70 32 13 33 69 34 14 35
REMARK SMILES IDX 15 36 16 37 63 38 17 39 68 40 62 41 64 42 18 43 67 44 61 45
REMARK SMILES IDX 60 46 19 48 49 49 30 50 48 51 31 52 34 53 47 54 65 55 32 56
REMARK SMILES IDX 33 57 46 59 66 60 35 61 20 62 21 63 29 64 22 65 28 66 23 67
REMARK SMILES IDX 24 68 25 69 26 70 27 71 50 72 51 73 59 74 52 75 58 76 53 77
REMARK SMILES IDX 54 78 55 79 56 80 57 81 36 82 37 83 45 84 38 85 44 86 39 87
REMARK SMILES IDX 40 88 41 89 42 90 43 91
REMARK H PARENT 77 13 64 47 34 58
REMARK Flexibility Score: 80.00
ROOT
ATOM      1  C   UNL     1       1.207   1.256  -1.738  1.00  0.00     0.330 C 
ATOM      2  O   UNL     1       0.666   2.070  -2.479  1.00  0.00    -0.250 OA
ENDROOT
BRANCH   1   3
ATOM      3  C   UNL     1       0.865   1.067  -0.264  1.00  0.00     0.213 C 
ATOM      4  C   UNL     1       1.592  -0.104   0.402  1.00  0.00     0.046 C 
BRANCH   3   5
ATOM      5  N   UNL     1      -0.585   1.018  -0.073  1.00  0.00    -0.258 N 
ATOM      6  C   UNL     1      -1.372  -0.076   0.141  1.00  0.00     0.110 A 
ATOM      7  N   UNL     1      -1.282   2.172  -0.058  1.00  0.00    -0.167 NA
ATOM      8  C   UNL     1      -2.656   0.398   0.255  1.00  0.00     0.056 A 
ATOM      9  C   UNL     1      -2.572   1.808   0.075  1.00  0.00     0.150 A 
BRANCH   9  10
ATOM     10  C   UNL     1      -3.740   2.713   0.019  1.00  0.00     0.271 C 
ATOM     11  O   UNL     1      -4.878   2.279   0.208  1.00  0.00    -0.267 OA
ATOM     12  N   UNL     1      -3.624   4.054  -0.272  1.00  0.00    -0.348 N 
ATOM     13  H   UNL     1      -4.478   4.543  -0.297  1.00  0.00     0.164 HD
BRANCH  12  14
ATOM     14  C   UNL     1      -2.443   4.875  -0.551  1.00  0.00     0.082 C 
BRANCH  14  15
ATOM     15  C   UNL     1      -2.123   4.810  -2.051  1.00  0.00     0.025 C 
BRANCH  15  16
ATOM     16  C   UNL     1      -0.748   5.337  -2.453  1.00  0.00     0.002 C 
BRANCH  16  17
ATOM     17  C   UNL     1      -0.443   6.804  -2.164  1.00  0.00     0.000 C 
BRANCH  17  18
ATOM     18  C   UNL     1      -1.523   7.786  -2.617  1.00  0.00     0.000 CG0
ATOM     19  G   UNL     1      -2.419   8.315  -1.496  1.00  0.00     0.000 G0
ENDBRANCH  17  18
ENDBRANCH  16  17
ENDBRANCH  15  16
ENDBRANCH  14  15
BRANCH  14  20
ATOM     20  C   UNL     1      -2.662   6.278   0.049  1.00  0.00     0.025 C 
BRANCH  20  21
ATOM     21  C   UNL     1      -3.365   7.308  -0.838  1.00  0.00     0.002 C 
BRANCH  21  22
ATOM     22  C   UNL     1      -2.419   8.315  -1.496  1.00  0.00     0.000 CG0
ATOM     23  G   UNL     1      -1.523   7.786  -2.617  1.00  0.00     0.000 G0
ENDBRANCH  21  22
ENDBRANCH  20  21
ENDBRANCH  14  20
ENDBRANCH  12  14
ENDBRANCH   9  10
ENDBRANCH   3   5
ENDBRANCH   1   3
BRANCH   1  24
ATOM     24  O   UNL     1       2.243   0.462  -2.140  1.00  0.00    -0.460 OA
BRANCH  24  25
ATOM     25  C   UNL     1       2.651   0.592  -3.518  1.00  0.00     0.274 C 
BRANCH  25  26
ATOM     26  C   UNL     1       2.105  -0.559  -4.359  1.00  0.00     0.275 C 
BRANCH  26  27
ATOM     27  O   UNL     1       0.672  -0.481  -4.442  1.00  0.00    -0.458 OA
BRANCH  27  28
ATOM     28  C   UNL     1      -0.007  -1.417  -3.740  1.00  0.00     0.338 C 
ATOM     29  O   UNL     1       0.461  -2.323  -3.071  1.00  0.00    -0.246 OA
BRANCH  28  30
ATOM     30  C   UNL     1      -1.452  -1.176  -3.865  1.00  0.00     0.060 A 
ATOM     31  C   UNL     1      -2.006  -0.040  -3.281  1.00  0.00     0.016 A 
ATOM     32  C   UNL     1      -2.275  -2.147  -4.436  1.00  0.00     0.016 A 
ATOM     33  C   UNL     1      -3.390   0.077  -3.177  1.00  0.00     0.010 A 
ATOM     34  C   UNL     1      -3.665  -1.978  -4.409  1.00  0.00     0.010 A 
ATOM     35  C   UNL     1      -4.242  -0.886  -3.738  1.00  0.00    -0.014 A 
BRANCH  35  36
ATOM     36  C   UNL     1      -5.719  -0.775  -3.562  1.00  0.00     0.031 A 
ATOM     37  C   UNL     1      -6.491  -1.882  -2.885  1.00  0.00     0.074 A 
ATOM     38  C   UNL     1      -6.378   0.332  -3.961  1.00  0.00     0.049 A 
ATOM     39  N   UNL     1      -7.787  -2.048  -2.793  1.00  0.00    -0.248 NA
ATOM     40  C   UNL     1      -5.706  -2.949  -2.244  1.00  0.00     0.031 C 
ATOM     41  C   UNL     1      -5.767   1.511  -4.579  1.00  0.00     0.029 A 
ATOM     42  N   UNL     1      -7.710   0.657  -3.880  1.00  0.00    -0.354 N 
ATOM     43  C   UNL     1      -7.971  -3.268  -2.151  1.00  0.00     0.074 A 
ATOM     44  C   UNL     1      -6.654  -3.796  -1.865  1.00  0.00     0.031 C 
ATOM     45  C   UNL     1      -6.705   2.454  -4.752  1.00  0.00     0.029 A 
ATOM     46  C   UNL     1      -7.999   1.918  -4.343  1.00  0.00     0.049 A 
ATOM     47  H   UNL     1      -8.393   0.044  -3.523  1.00  0.00     0.167 HD
ATOM     48  C   UNL     1      -9.130  -3.897  -1.840  1.00  0.00     0.031 A 
ATOM     49  C   UNL     1      -9.173   2.567  -4.457  1.00  0.00     0.031 A 
ATOM     50  C   UNL     1     -10.440  -3.345  -2.063  1.00  0.00     0.049 A 
ATOM     51  C   UNL     1     -10.445   1.865  -4.079  1.00  0.00     0.074 A 
ATOM     52  C   UNL     1     -11.674  -3.920  -1.812  1.00  0.00     0.029 A 
ATOM     53  N   UNL     1     -10.685  -2.073  -2.555  1.00  0.00    -0.354 N 
ATOM     54  N   UNL     1     -10.604   0.658  -3.594  1.00  0.00    -0.248 NA
ATOM     55  C   UNL     1     -11.697   2.603  -4.293  1.00  0.00     0.031 C 
ATOM     56  C   UNL     1     -12.668  -3.000  -2.167  1.00  0.00     0.029 A 
ATOM     57  C   UNL     1     -12.049  -1.842  -2.611  1.00  0.00     0.049 A 
ATOM     58  H   UNL     1      -9.992  -1.428  -2.825  1.00  0.00     0.167 HD
ATOM     59  C   UNL     1     -11.975   0.483  -3.462  1.00  0.00     0.074 A 
ATOM     60  C   UNL     1     -12.600   1.721  -3.885  1.00  0.00     0.031 C 
ATOM     61  C   UNL     1     -12.656  -0.612  -3.047  1.00  0.00     0.031 A 
BRANCH  48  62
ATOM     62  C   UNL     1      -9.030  -5.285  -1.270  1.00  0.00    -0.014 A 
ATOM     63  C   UNL     1      -8.684  -5.508   0.074  1.00  0.00     0.010 A 
ATOM     64  C   UNL     1      -9.313  -6.388  -2.098  1.00  0.00     0.010 A 
ATOM     65  C   UNL     1      -8.585  -6.812   0.570  1.00  0.00     0.020 A 
ATOM     66  C   UNL     1      -9.235  -7.691  -1.601  1.00  0.00     0.020 A 
ATOM     67  C   UNL     1      -8.852  -7.896  -0.274  1.00  0.00     0.054 A 
BRANCH  67  68
ATOM     68  S   UNL     1      -8.729  -9.581   0.387  1.00  0.00     0.124 S 
ATOM     69  O   UNL     1      -7.289  -9.822   0.328  1.00  0.00    -0.237 OA
ATOM     70  O   UNL     1      -9.287  -9.449   1.730  1.00  0.00    -0.237 OA
ATOM     71  O   UNL     1      -9.531 -10.374  -0.541  1.00  0.00    -0.744 OA
ENDBRANCH  67  68
ENDBRANCH  48  62
BRANCH  49  72
ATOM     72  C   UNL     1      -9.194   3.951  -4.999  1.00  0.00    -0.014 A 
ATOM     73  C   UNL     1      -9.414   5.046  -4.147  1.00  0.00     0.010 A 
ATOM     74  C   UNL     1      -8.943   4.180  -6.364  1.00  0.00     0.010 A 
ATOM     75  C   UNL     1      -9.374   6.350  -4.650  1.00  0.00     0.020 A 
ATOM     76  C   UNL     1      -8.879   5.482  -6.865  1.00  0.00     0.020 A 
ATOM     77  C   UNL     1      -9.101   6.560  -6.005  1.00  0.00     0.054 A 
BRANCH  77  78
ATOM     78  S   UNL     1      -8.947   8.257  -6.630  1.00  0.00     0.124 S 
ATOM     79  O   UNL     1     -10.335   8.597  -6.929  1.00  0.00    -0.237 OA
ATOM     80  O   UNL     1      -8.351   8.968  -5.501  1.00  0.00    -0.237 OA
ATOM     81  O   UNL     1      -8.071   8.109  -7.790  1.00  0.00    -0.744 OA
ENDBRANCH  77  78
ENDBRANCH  49  72
BRANCH  61  82
ATOM     82  C   UNL     1     -14.155  -0.522  -3.040  1.00  0.00    -0.014 A 
ATOM     83  C   UNL     1     -14.883  -0.653  -4.236  1.00  0.00     0.010 A 
ATOM     84  C   UNL     1     -14.843  -0.340  -1.828  1.00  0.00     0.010 A 
ATOM     85  C   UNL     1     -16.278  -0.576  -4.223  1.00  0.00     0.020 A 
ATOM     86  C   UNL     1     -16.239  -0.277  -1.811  1.00  0.00     0.020 A 
ATOM     87  C   UNL     1     -16.947  -0.381  -3.011  1.00  0.00     0.054 A 
BRANCH  87  88
ATOM     88  S   UNL     1     -18.760  -0.316  -3.010  1.00  0.00     0.124 S 
ATOM     89  O   UNL     1     -19.014   1.055  -3.444  1.00  0.00    -0.237 OA
ATOM     90  O   UNL     1     -19.125  -1.356  -3.968  1.00  0.00    -0.237 OA
ATOM     91  O   UNL     1     -19.114  -0.606  -1.622  1.00  0.00    -0.744 OA
ENDBRANCH  87  88
ENDBRANCH  61  82
ENDBRANCH  35  36
ENDBRANCH  28  30
ENDBRANCH  27  28
ENDBRANCH  26  27
ENDBRANCH  25  26
ENDBRANCH  24  25
ENDBRANCH   1  24
TORSDOF 17
