REMARK SMILES CCOc1cc2nccc(Nc3ccc(C(=O)OCCOC(=O)c4ccc(-c5c6nc(c(-c7ccc(S(=O)(=O)[O-])cc7)c7ccc([nH]7)c(-c7ccc(S(=O)(=O)[O-])cc7)c7nc(c(-c8ccc(S(=O)(=O)[O-])cc8)c8ccc5[nH]8)C=C7)C=C6)cc4)cc3)c2cc1OCC
REMARK SMILES IDX 19 1 18 2 16 3 17 4 15 5 12 6 13 7 85 8 14 9 84 10 11 11
REMARK SMILES IDX 10 13 4 14 5 15 88 16 6 17 87 18 7 19 86 20 8 21 9 22 3 23
REMARK SMILES IDX 2 24 1 25 89 26 90 27 91 28 20 29 21 30 22 31 23 32 24 33
REMARK SMILES IDX 25 34 83 35 26 36 82 37 27 38 28 39 29 40 76 41 30 42 81 43
REMARK SMILES IDX 75 44 77 45 31 46 80 47 74 48 73 49 32 51 62 52 43 53 61 54
REMARK SMILES IDX 44 55 47 56 60 57 78 58 45 59 46 60 59 62 79 63 48 64 33 65
REMARK SMILES IDX 34 66 42 67 35 68 41 69 36 70 37 71 38 72 39 73 40 74 63 75
REMARK SMILES IDX 64 76 72 77 65 78 71 79 66 80 67 81 68 82 69 83 70 84 49 85
REMARK SMILES IDX 50 86 58 87 51 88 57 89 52 90 53 91 54 92 55 93 56 94
REMARK H PARENT 11 12 77 50 47 61
REMARK Flexibility Score: inf
ROOT
ATOM      1  C   UNL     1      15.079   1.433  -3.676  1.00  0.00     0.275 C 
ENDROOT
BRANCH   1   2
ATOM      2  O   UNL     1      13.701   1.510  -3.257  1.00  0.00    -0.458 OA
BRANCH   2   3
ATOM      3  C   UNL     1      12.869   0.650  -3.888  1.00  0.00     0.338 C 
ATOM      4  O   UNL     1      13.175  -0.133  -4.777  1.00  0.00    -0.246 OA
BRANCH   3   5
ATOM      5  C   UNL     1      11.498   0.712  -3.345  1.00  0.00     0.060 A 
ATOM      6  C   UNL     1       8.771   0.706  -2.716  1.00  0.00     0.038 A 
ATOM      7  C   UNL     1       9.462  -0.496  -2.847  1.00  0.00     0.027 A 
ATOM      8  C   UNL     1       9.468   1.913  -2.834  1.00  0.00     0.027 A 
ATOM      9  C   UNL     1      10.802  -0.488  -3.191  1.00  0.00     0.018 A 
ATOM     10  C   UNL     1      10.839   1.922  -3.127  1.00  0.00     0.018 A 
BRANCH   6  11
ATOM     11  N   UNL     1       7.379   0.623  -2.595  1.00  0.00    -0.355 N 
ATOM     12  H   UNL     1       7.067   0.077  -1.838  1.00  0.00     0.167 HD
BRANCH  11  13
ATOM     13  C   UNL     1       6.343   1.188  -3.375  1.00  0.00     0.050 A 
ATOM     14  C   UNL     1       2.301   0.452  -2.353  1.00  0.00     0.163 A 
ATOM     15  C   UNL     1       2.634   1.278  -3.438  1.00  0.00     0.079 A 
ATOM     16  C   UNL     1       3.319  -0.105  -1.587  1.00  0.00     0.161 A 
ATOM     17  C   UNL     1       3.964   1.543  -3.786  1.00  0.00     0.076 A 
ATOM     18  C   UNL     1       4.641   0.164  -1.910  1.00  0.00     0.063 A 
ATOM     19  N   UNL     1       4.237   2.305  -4.861  1.00  0.00    -0.256 NA
ATOM     20  C   UNL     1       4.991   0.968  -3.007  1.00  0.00     0.028 A 
ATOM     21  C   UNL     1       5.534   2.487  -5.200  1.00  0.00     0.114 A 
ATOM     22  C   UNL     1       6.604   1.967  -4.498  1.00  0.00     0.047 A 
BRANCH  14  23
ATOM     23  O   UNL     1       1.012   0.054  -2.131  1.00  0.00    -0.490 OA
BRANCH  23  24
ATOM     24  C   UNL     1       0.117   1.102  -1.750  1.00  0.00     0.226 C 
ATOM     25  C   UNL     1      -0.876   0.518  -0.751  1.00  0.00     0.049 C 
ENDBRANCH  23  24
ENDBRANCH  14  23
BRANCH  16  26
ATOM     26  O   UNL     1       3.200  -0.955  -0.526  1.00  0.00    -0.490 OA
BRANCH  26  27
ATOM     27  C   UNL     1       2.273  -0.593   0.490  1.00  0.00     0.226 C 
ATOM     28  C   UNL     1       2.443   0.826   1.020  1.00  0.00     0.049 C 
ENDBRANCH  26  27
ENDBRANCH  16  26
ENDBRANCH  11  13
ENDBRANCH   6  11
ENDBRANCH   3   5
ENDBRANCH   2   3
ENDBRANCH   1   2
BRANCH   1  29
ATOM     29  C   UNL     1      15.921   0.593  -2.713  1.00  0.00     0.275 C 
BRANCH  29  30
ATOM     30  O   UNL     1      15.582  -0.805  -2.794  1.00  0.00    -0.458 OA
BRANCH  30  31
ATOM     31  C   UNL     1      14.788  -1.253  -1.795  1.00  0.00     0.338 C 
ATOM     32  O   UNL     1      14.351  -0.610  -0.856  1.00  0.00    -0.246 OA
BRANCH  31  33
ATOM     33  C   UNL     1      14.417  -2.660  -2.011  1.00  0.00     0.060 A 
ATOM     34  C   UNL     1      13.366  -2.923  -2.877  1.00  0.00     0.016 A 
ATOM     35  C   UNL     1      14.918  -3.674  -1.202  1.00  0.00     0.016 A 
ATOM     36  C   UNL     1      12.683  -4.132  -2.804  1.00  0.00     0.010 A 
ATOM     37  C   UNL     1      14.339  -4.951  -1.263  1.00  0.00     0.010 A 
ATOM     38  C   UNL     1      13.177  -5.184  -2.023  1.00  0.00    -0.014 A 
BRANCH  38  39
ATOM     39  C   UNL     1      12.481  -6.509  -2.013  1.00  0.00     0.031 A 
ATOM     40  C   UNL     1      12.085  -7.163  -0.709  1.00  0.00     0.074 A 
ATOM     41  C   UNL     1      12.195  -7.133  -3.177  1.00  0.00     0.049 A 
ATOM     42  N   UNL     1      11.640  -8.377  -0.495  1.00  0.00    -0.248 NA
ATOM     43  C   UNL     1      12.221  -6.357   0.515  1.00  0.00     0.031 C 
ATOM     44  C   UNL     1      12.473  -6.607  -4.518  1.00  0.00     0.029 A 
ATOM     45  N   UNL     1      11.600  -8.347  -3.426  1.00  0.00    -0.354 N 
ATOM     46  C   UNL     1      11.505  -8.499   0.885  1.00  0.00     0.074 A 
ATOM     47  C   UNL     1      11.925  -7.239   1.460  1.00  0.00     0.031 C 
ATOM     48  C   UNL     1      12.002  -7.459  -5.438  1.00  0.00     0.029 A 
ATOM     49  C   UNL     1      11.503  -8.649  -4.766  1.00  0.00     0.049 A 
ATOM     50  H   UNL     1      11.273  -8.943  -2.714  1.00  0.00     0.167 HD
ATOM     51  C   UNL     1      11.074  -9.563   1.607  1.00  0.00     0.031 A 
ATOM     52  C   UNL     1      11.116  -9.773  -5.397  1.00  0.00     0.031 A 
ATOM     53  C   UNL     1      10.626 -10.803   1.024  1.00  0.00     0.049 A 
ATOM     54  C   UNL     1      10.703 -10.960  -4.577  1.00  0.00     0.074 A 
ATOM     55  C   UNL     1      10.151 -11.934   1.666  1.00  0.00     0.029 A 
ATOM     56  N   UNL     1      10.588 -11.074  -0.337  1.00  0.00    -0.354 N 
ATOM     57  N   UNL     1      10.618 -11.067  -3.273  1.00  0.00    -0.248 NA
ATOM     58  C   UNL     1      10.347 -12.180  -5.311  1.00  0.00     0.031 C 
ATOM     59  C   UNL     1       9.888 -12.910   0.699  1.00  0.00     0.029 A 
ATOM     60  C   UNL     1      10.126 -12.363  -0.551  1.00  0.00     0.049 A 
ATOM     61  H   UNL     1      10.850 -10.443  -1.045  1.00  0.00     0.167 HD
ATOM     62  C   UNL     1      10.178 -12.363  -3.031  1.00  0.00     0.074 A 
ATOM     63  C   UNL     1       9.995 -12.991  -4.324  1.00  0.00     0.031 C 
ATOM     64  C   UNL     1       9.950 -12.977  -1.844  1.00  0.00     0.031 A 
BRANCH  51  65
ATOM     65  C   UNL     1      11.109  -9.458   3.113  1.00  0.00    -0.014 A 
ATOM     66  C   UNL     1      10.234  -8.613   3.819  1.00  0.00     0.010 A 
ATOM     67  C   UNL     1      12.009 -10.262   3.839  1.00  0.00     0.010 A 
ATOM     68  C   UNL     1      10.290  -8.541   5.216  1.00  0.00     0.020 A 
ATOM     69  C   UNL     1      12.047 -10.217   5.237  1.00  0.00     0.020 A 
ATOM     70  C   UNL     1      11.198  -9.342   5.915  1.00  0.00     0.054 A 
BRANCH  70  71
ATOM     71  S   UNL     1      11.236  -9.240   7.727  1.00  0.00     0.124 S 
ATOM     72  O   UNL     1      11.825  -7.920   7.942  1.00  0.00    -0.237 OA
ATOM     73  O   UNL     1       9.825  -9.362   8.083  1.00  0.00    -0.237 OA
ATOM     74  O   UNL     1      12.075 -10.368   8.122  1.00  0.00    -0.744 OA
ENDBRANCH  70  71
ENDBRANCH  51  65
BRANCH  52  75
ATOM     75  C   UNL     1      11.164  -9.844  -6.886  1.00  0.00    -0.014 A 
ATOM     76  C   UNL     1       9.983  -9.948  -7.639  1.00  0.00     0.010 A 
ATOM     77  C   UNL     1      12.399  -9.782  -7.561  1.00  0.00     0.010 A 
ATOM     78  C   UNL     1      10.035 -10.003  -9.036  1.00  0.00     0.020 A 
ATOM     79  C   UNL     1      12.454  -9.797  -8.957  1.00  0.00     0.020 A 
ATOM     80  C   UNL     1      11.271  -9.921  -9.685  1.00  0.00     0.054 A 
BRANCH  80  81
ATOM     81  S   UNL     1      11.309  -9.939 -11.499  1.00  0.00     0.124 S 
ATOM     82  O   UNL     1      10.975 -11.329 -11.795  1.00  0.00    -0.237 OA
ATOM     83  O   UNL     1      10.289  -8.954 -11.845  1.00  0.00    -0.237 OA
ATOM     84  O   UNL     1      12.680  -9.544 -11.817  1.00  0.00    -0.744 OA
ENDBRANCH  80  81
ENDBRANCH  52  75
BRANCH  64  85
ATOM     85  C   UNL     1       9.435 -14.391  -1.889  1.00  0.00    -0.014 A 
ATOM     86  C   UNL     1      10.258 -15.457  -2.292  1.00  0.00     0.010 A 
ATOM     87  C   UNL     1       8.116 -14.659  -1.479  1.00  0.00     0.010 A 
ATOM     88  C   UNL     1       9.760 -16.762  -2.318  1.00  0.00     0.020 A 
ATOM     89  C   UNL     1       7.625 -15.966  -1.472  1.00  0.00     0.020 A 
ATOM     90  C   UNL     1       8.447 -17.008  -1.905  1.00  0.00     0.054 A 
BRANCH  90  91
ATOM     91  S   UNL     1       7.840 -18.717  -1.904  1.00  0.00     0.124 S 
ATOM     92  O   UNL     1       7.701 -18.991  -3.332  1.00  0.00    -0.237 OA
ATOM     93  O   UNL     1       8.915 -19.437  -1.227  1.00  0.00    -0.237 OA
ATOM     94  O   UNL     1       6.585 -18.639  -1.160  1.00  0.00    -0.744 OA
ENDBRANCH  90  91
ENDBRANCH  64  85
ENDBRANCH  38  39
ENDBRANCH  31  33
ENDBRANCH  30  31
ENDBRANCH  29  30
ENDBRANCH   1  29
TORSDOF 20
