REMARK SMILES C[C@H]1[C@@H](C(=O)OCCOC(=O)c2ccc(-c3c4nc(c(-c5ccc(S(=O)(=O)[O-])cc5)c5ccc([nH]5)c(-c5ccc(S(=O)(=O)[O-])cc5)c5nc(c(-c6ccc(S(=O)(=O)[O-])cc6)c6ccc3[nH]6)C=C5)C=C4)cc2)CCN1C(=O)c1cc2cc(F)ccc2s1
REMARK SMILES IDX 8 1 7 2 6 3 4 4 5 5 3 6 1 7 2 8 74 9 72 10 73 11 75 12 76 13
REMARK SMILES IDX 77 14 78 15 86 16 79 17 85 18 80 19 84 20 81 21 83 22 82 23
REMARK SMILES IDX 9 24 10 25 11 26 12 27 13 28 71 29 14 30 70 31 15 32 16 33
REMARK SMILES IDX 17 34 64 35 18 36 69 37 63 38 65 39 19 40 68 41 62 42 61 43
REMARK SMILES IDX 20 45 50 46 31 47 49 48 32 49 35 50 48 51 66 52 33 53 34 54
REMARK SMILES IDX 47 56 67 57 36 58 21 59 22 60 30 61 23 62 29 63 24 64 25 65
REMARK SMILES IDX 26 66 27 67 28 68 51 69 52 70 60 71 53 72 59 73 54 74 55 75
REMARK SMILES IDX 56 76 57 77 58 78 37 79 38 80 46 81 39 82 45 83 40 84 41 85
REMARK SMILES IDX 42 86 43 87 44 88
REMARK H PARENT 65 44 35 55
REMARK Flexibility Score: inf
ROOT
ATOM      1  C   UNL     1       1.249   2.302  -3.934  1.00  0.00     0.275 C 
ENDROOT
BRANCH   1   2
ATOM      2  C   UNL     1       2.007   2.614  -2.649  1.00  0.00     0.274 C 
BRANCH   2   3
ATOM      3  O   UNL     1       1.655   1.687  -1.603  1.00  0.00    -0.462 OA
BRANCH   3   4
ATOM      4  C   UNL     1       0.914   2.166  -0.582  1.00  0.00     0.311 C 
ATOM      5  O   UNL     1       0.447   3.300  -0.546  1.00  0.00    -0.252 OA
BRANCH   4   6
ATOM      6  C   UNL     1       0.717   1.200   0.569  1.00  0.00     0.123 C 
ATOM      7  C   UNL     1       2.586  -0.489  -0.284  1.00  0.00     0.032 C 
ATOM      8  C   UNL     1       1.408  -0.177   0.624  1.00  0.00     0.096 C 
ATOM      9  N   UNL     1       0.345  -1.170   0.469  1.00  0.00    -0.334 N 
ATOM     10  C   UNL     1      -0.769   0.857   0.741  1.00  0.00     0.039 C 
ATOM     11  C   UNL     1      -0.881  -0.502   0.078  1.00  0.00     0.121 C 
BRANCH   9  12
ATOM     12  C   UNL     1       0.245  -2.083   1.513  1.00  0.00     0.264 C 
ATOM     13  O   UNL     1      -0.274  -1.762   2.582  1.00  0.00    -0.268 OA
BRANCH  12  14
ATOM     14  C   UNL     1       0.784  -3.402   1.286  1.00  0.00     0.093 A 
ATOM     15  C   UNL     1       1.187  -4.283   2.266  1.00  0.00     0.034 A 
ATOM     16  S   UNL     1       0.800  -4.146  -0.247  1.00  0.00    -0.130 S 
ATOM     17  C   UNL     1       0.964  -5.633   1.853  1.00  0.00    -0.004 A 
ATOM     18  C   UNL     1       0.680  -5.704   0.485  1.00  0.00     0.035 A 
ATOM     19  C   UNL     1       0.868  -6.808   2.628  1.00  0.00     0.048 A 
ATOM     20  C   UNL     1       0.295  -6.907  -0.131  1.00  0.00     0.022 A 
ATOM     21  C   UNL     1       0.394  -7.972   2.033  1.00  0.00     0.123 A 
ATOM     22  C   UNL     1       0.106  -8.029   0.679  1.00  0.00     0.041 A 
ATOM     23  F   UNL     1       0.169  -9.047   2.800  1.00  0.00    -0.207 F 
ENDBRANCH  12  14
ENDBRANCH   9  12
ENDBRANCH   4   6
ENDBRANCH   3   4
ENDBRANCH   2   3
ENDBRANCH   1   2
BRANCH   1  24
ATOM     24  O   UNL     1      -0.146   2.596  -3.762  1.00  0.00    -0.458 OA
BRANCH  24  25
ATOM     25  C   UNL     1      -0.945   1.523  -3.590  1.00  0.00     0.338 C 
ATOM     26  O   UNL     1      -0.628   0.342  -3.611  1.00  0.00    -0.246 OA
BRANCH  25  27
ATOM     27  C   UNL     1      -2.314   1.978  -3.332  1.00  0.00     0.060 A 
ATOM     28  C   UNL     1      -2.624   2.548  -2.097  1.00  0.00     0.016 A 
ATOM     29  C   UNL     1      -3.311   1.743  -4.275  1.00  0.00     0.016 A 
ATOM     30  C   UNL     1      -3.950   2.809  -1.766  1.00  0.00     0.010 A 
ATOM     31  C   UNL     1      -4.628   2.097  -3.977  1.00  0.00     0.010 A 
ATOM     32  C   UNL     1      -4.967   2.610  -2.710  1.00  0.00    -0.014 A 
BRANCH  32  33
ATOM     33  C   UNL     1      -6.387   2.926  -2.400  1.00  0.00     0.031 A 
ATOM     34  C   UNL     1      -7.434   1.851  -2.513  1.00  0.00     0.074 A 
ATOM     35  C   UNL     1      -6.750   4.183  -2.073  1.00  0.00     0.049 A 
ATOM     36  N   UNL     1      -8.734   1.968  -2.579  1.00  0.00    -0.248 NA
ATOM     37  C   UNL     1      -6.951   0.462  -2.580  1.00  0.00     0.031 C 
ATOM     38  C   UNL     1      -5.836   5.309  -1.869  1.00  0.00     0.029 A 
ATOM     39  N   UNL     1      -7.995   4.727  -1.871  1.00  0.00    -0.354 N 
ATOM     40  C   UNL     1      -9.222   0.679  -2.762  1.00  0.00     0.074 A 
ATOM     41  C   UNL     1      -8.078  -0.207  -2.783  1.00  0.00     0.031 C 
ATOM     42  C   UNL     1      -6.547   6.404  -1.559  1.00  0.00     0.029 A 
ATOM     43  C   UNL     1      -7.967   6.082  -1.637  1.00  0.00     0.049 A 
ATOM     44  H   UNL     1      -8.825   4.199  -1.892  1.00  0.00     0.167 HD
ATOM     45  C   UNL     1     -10.507   0.278  -2.916  1.00  0.00     0.031 A 
ATOM     46  C   UNL     1      -8.965   6.983  -1.557  1.00  0.00     0.031 A 
ATOM     47  C   UNL     1     -11.637   1.166  -2.856  1.00  0.00     0.049 A 
ATOM     48  C   UNL     1     -10.380   6.526  -1.764  1.00  0.00     0.074 A 
ATOM     49  C   UNL     1     -12.980   0.863  -2.999  1.00  0.00     0.029 A 
ATOM     50  N   UNL     1     -11.557   2.530  -2.617  1.00  0.00    -0.354 N 
ATOM     51  N   UNL     1     -10.823   5.317  -2.012  1.00  0.00    -0.248 NA
ATOM     52  C   UNL     1     -11.427   7.554  -1.701  1.00  0.00     0.031 C 
ATOM     53  C   UNL     1     -13.710   2.050  -2.876  1.00  0.00     0.029 A 
ATOM     54  C   UNL     1     -12.825   3.084  -2.614  1.00  0.00     0.049 A 
ATOM     55  H   UNL     1     -10.722   3.030  -2.470  1.00  0.00     0.167 HD
ATOM     56  C   UNL     1     -12.202   5.436  -2.122  1.00  0.00     0.074 A 
ATOM     57  C   UNL     1     -12.522   6.832  -1.905  1.00  0.00     0.031 C 
ATOM     58  C   UNL     1     -13.120   4.474  -2.383  1.00  0.00     0.031 A 
BRANCH  45  59
ATOM     59  C   UNL     1     -10.755  -1.175  -3.215  1.00  0.00    -0.014 A 
ATOM     60  C   UNL     1     -10.641  -2.163  -2.221  1.00  0.00     0.010 A 
ATOM     61  C   UNL     1     -11.151  -1.552  -4.512  1.00  0.00     0.010 A 
ATOM     62  C   UNL     1     -10.882  -3.506  -2.529  1.00  0.00     0.020 A 
ATOM     63  C   UNL     1     -11.414  -2.890  -4.818  1.00  0.00     0.020 A 
ATOM     64  C   UNL     1     -11.260  -3.862  -3.828  1.00  0.00     0.054 A 
BRANCH  64  65
ATOM     65  S   UNL     1     -11.582  -5.608  -4.201  1.00  0.00     0.124 S 
ATOM     66  O   UNL     1     -10.228  -6.147  -4.304  1.00  0.00    -0.237 OA
ATOM     67  O   UNL     1     -12.347  -6.053  -3.040  1.00  0.00    -0.237 OA
ATOM     68  O   UNL     1     -12.330  -5.561  -5.455  1.00  0.00    -0.744 OA
ENDBRANCH  64  65
ENDBRANCH  45  59
BRANCH  46  69
ATOM     69  C   UNL     1      -8.641   8.417  -1.332  1.00  0.00    -0.014 A 
ATOM     70  C   UNL     1      -8.904   9.022  -0.092  1.00  0.00     0.010 A 
ATOM     71  C   UNL     1      -8.015   9.170  -2.344  1.00  0.00     0.010 A 
ATOM     72  C   UNL     1      -8.542  10.354   0.135  1.00  0.00     0.020 A 
ATOM     73  C   UNL     1      -7.629  10.492  -2.112  1.00  0.00     0.020 A 
ATOM     74  C   UNL     1      -7.902  11.079  -0.875  1.00  0.00     0.054 A 
BRANCH  74  75
ATOM     75  S   UNL     1      -7.359  12.777  -0.534  1.00  0.00     0.124 S 
ATOM     76  O   UNL     1      -8.602  13.527  -0.682  1.00  0.00    -0.237 OA
ATOM     77  O   UNL     1      -6.837  12.679   0.827  1.00  0.00    -0.237 OA
ATOM     78  O   UNL     1      -6.350  13.023  -1.562  1.00  0.00    -0.744 OA
ENDBRANCH  74  75
ENDBRANCH  46  69
BRANCH  58  79
ATOM     79  C   UNL     1     -14.565   4.885  -2.405  1.00  0.00    -0.014 A 
ATOM     80  C   UNL     1     -15.119   5.524  -3.527  1.00  0.00     0.010 A 
ATOM     81  C   UNL     1     -15.394   4.548  -1.320  1.00  0.00     0.010 A 
ATOM     82  C   UNL     1     -16.482   5.825  -3.560  1.00  0.00     0.020 A 
ATOM     83  C   UNL     1     -16.760   4.832  -1.358  1.00  0.00     0.020 A 
ATOM     84  C   UNL     1     -17.295   5.475  -2.477  1.00  0.00     0.054 A 
BRANCH  84  85
ATOM     85  S   UNL     1     -19.076   5.806  -2.574  1.00  0.00     0.124 S 
ATOM     86  O   UNL     1     -19.133   7.241  -2.310  1.00  0.00    -0.237 OA
ATOM     87  O   UNL     1     -19.405   5.405  -3.940  1.00  0.00    -0.237 OA
ATOM     88  O   UNL     1     -19.642   4.956  -1.529  1.00  0.00    -0.744 OA
ENDBRANCH  84  85
ENDBRANCH  58  79
ENDBRANCH  32  33
ENDBRANCH  25  27
ENDBRANCH  24  25
ENDBRANCH   1  24
TORSDOF 16
