REMARK SMILES [NH3+]Cc1c(-c2ccccc2)c(C(=O)OCCOC(=O)c2ccc(-c3c4nc(c(-c5ccc(S(=O)(=O)[O-])cc5)c5ccc([nH]5)c(-c5ccc(S(=O)(=O)[O-])cc5)c5nc(c(-c6ccc(S(=O)(=O)[O-])cc6)c6ccc3[nH]6)C=C5)C=C4)cc2)c2ccccn12
REMARK SMILES IDX 16 1 15 2 14 3 12 4 13 5 11 6 3 7 4 8 85 9 80 10 84 11 81 12
REMARK SMILES IDX 83 13 82 14 2 15 1 16 5 20 6 21 10 22 7 23 9 24 8 25 17 26
REMARK SMILES IDX 18 27 19 28 20 29 21 30 79 31 22 32 78 33 23 34 24 35 25 36
REMARK SMILES IDX 72 37 26 38 77 39 71 40 73 41 27 42 76 43 70 44 69 45 28 47
REMARK SMILES IDX 58 48 39 49 57 50 40 51 43 52 56 53 74 54 41 55 42 56 55 58
REMARK SMILES IDX 75 59 44 60 29 61 30 62 38 63 31 64 37 65 32 66 33 67 34 68
REMARK SMILES IDX 35 69 36 70 59 71 60 72 68 73 61 74 67 75 62 76 63 77 64 78
REMARK SMILES IDX 65 79 66 80 45 81 46 82 54 83 47 84 53 85 48 86 49 87 50 88
REMARK SMILES IDX 51 89 52 90
REMARK H PARENT 1 17 1 18 1 19 73 46 43 57
REMARK Flexibility Score: inf
ROOT
ATOM      1  C   UNL     1       4.423   6.872   4.283  1.00  0.00     0.275 C 
ENDROOT
BRANCH   1   2
ATOM      2  C   UNL     1       3.723   6.991   2.935  1.00  0.00     0.275 C 
BRANCH   2   3
ATOM      3  O   UNL     1       2.645   6.035   2.863  1.00  0.00    -0.458 OA
BRANCH   3   4
ATOM      4  C   UNL     1       2.855   4.970   2.034  1.00  0.00     0.341 C 
ATOM      5  O   UNL     1       3.808   4.875   1.269  1.00  0.00    -0.246 OA
BRANCH   4   6
ATOM      6  C   UNL     1       1.766   4.003   2.052  1.00  0.00     0.093 A 
ATOM      7  C   UNL     1       0.609   2.063   1.767  1.00  0.00     0.086 A 
ATOM      8  C   UNL     1       1.782   2.579   2.317  1.00  0.00     0.024 A 
ATOM      9  N   UNL     1      -0.177   3.134   1.338  1.00  0.00    -0.314 N 
ATOM     10  C   UNL     1       0.512   4.317   1.570  1.00  0.00     0.061 A 
ATOM     11  C   UNL     1      -1.404   3.129   0.655  1.00  0.00     0.092 A 
ATOM     12  C   UNL     1      -0.077   5.545   1.137  1.00  0.00     0.027 A 
ATOM     13  C   UNL     1      -1.942   4.283   0.221  1.00  0.00     0.018 A 
ATOM     14  C   UNL     1      -1.252   5.529   0.485  1.00  0.00     0.004 A 
BRANCH   7  15
ATOM     15  C   UNL     1       0.203   0.648   1.526  1.00  0.00     0.315 C 
BRANCH  15  16
ATOM     16  N   UNL     1       0.616   0.231   0.192  1.00  0.00    -0.353 N 
ATOM     17  H   UNL     1       0.335  -0.736   0.035  1.00  0.00     0.344 HD
ATOM     18  H   UNL     1       1.630   0.308   0.110  1.00  0.00     0.344 HD
ATOM     19  H   UNL     1       0.173   0.831  -0.504  1.00  0.00     0.344 HD
ENDBRANCH  15  16
ENDBRANCH   7  15
BRANCH   8  20
ATOM     20  C   UNL     1       2.978   1.778   2.635  1.00  0.00    -0.015 A 
ATOM     21  C   UNL     1       3.593   1.566   4.336  1.00  0.00     0.009 A 
ATOM     22  C   UNL     1       4.163   1.797   1.329  1.00  0.00     0.009 A 
ATOM     23  C   UNL     1       5.604   1.470   4.599  1.00  0.00     0.001 A 
ATOM     24  C   UNL     1       5.910   1.688   1.576  1.00  0.00     0.001 A 
ATOM     25  C   UNL     1       6.664   1.552   3.150  1.00  0.00     0.000 A 
ENDBRANCH   8  20
ENDBRANCH   4   6
ENDBRANCH   3   4
ENDBRANCH   2   3
ENDBRANCH   1   2
BRANCH   1  26
ATOM     26  O   UNL     1       4.961   5.546   4.394  1.00  0.00    -0.458 OA
BRANCH  26  27
ATOM     27  C   UNL     1       4.225   4.726   5.168  1.00  0.00     0.338 C 
ATOM     28  O   UNL     1       3.300   5.026   5.907  1.00  0.00    -0.246 OA
BRANCH  27  29
ATOM     29  C   UNL     1       4.621   3.340   4.974  1.00  0.00     0.060 A 
ATOM     30  C   UNL     1       4.808   2.619   3.334  1.00  0.00     0.016 A 
ATOM     31  C   UNL     1       4.412   2.264   6.338  1.00  0.00     0.016 A 
ATOM     32  C   UNL     1       4.718   0.599   3.171  1.00  0.00     0.010 A 
ATOM     33  C   UNL     1       4.398   0.500   6.197  1.00  0.00     0.010 A 
ATOM     34  C   UNL     1       4.549  -0.395   4.679  1.00  0.00    -0.014 A 
BRANCH  34  35
ATOM     35  C   UNL     1       4.854  -1.890   4.741  1.00  0.00     0.031 A 
ATOM     36  C   UNL     1       4.240  -2.784   5.817  1.00  0.00     0.074 A 
ATOM     37  C   UNL     1       5.819  -2.449   3.968  1.00  0.00     0.049 A 
ATOM     38  N   UNL     1       4.585  -3.998   6.190  1.00  0.00    -0.248 NA
ATOM     39  C   UNL     1       3.131  -2.233   6.611  1.00  0.00     0.031 C 
ATOM     40  C   UNL     1       6.594  -1.770   2.941  1.00  0.00     0.029 A 
ATOM     41  N   UNL     1       6.353  -3.725   3.934  1.00  0.00    -0.354 N 
ATOM     42  C   UNL     1       3.790  -4.316   7.293  1.00  0.00     0.074 A 
ATOM     43  C   UNL     1       2.989  -3.143   7.567  1.00  0.00     0.031 C 
ATOM     44  C   UNL     1       7.453  -2.600   2.351  1.00  0.00     0.029 A 
ATOM     45  C   UNL     1       7.365  -3.884   3.005  1.00  0.00     0.049 A 
ATOM     46  H   UNL     1       6.040  -4.454   4.517  1.00  0.00     0.167 HD
ATOM     47  C   UNL     1       3.697  -5.480   7.991  1.00  0.00     0.031 A 
ATOM     48  C   UNL     1       8.176  -4.909   2.684  1.00  0.00     0.031 A 
ATOM     49  C   UNL     1       4.418  -6.686   7.655  1.00  0.00     0.049 A 
ATOM     50  C   UNL     1       8.007  -6.201   3.401  1.00  0.00     0.074 A 
ATOM     51  C   UNL     1       4.301  -7.946   8.222  1.00  0.00     0.029 A 
ATOM     52  N   UNL     1       5.366  -6.794   6.649  1.00  0.00    -0.354 N 
ATOM     53  N   UNL     1       7.217  -6.470   4.410  1.00  0.00    -0.248 NA
ATOM     54  C   UNL     1       8.809  -7.333   2.926  1.00  0.00     0.031 C 
ATOM     55  C   UNL     1       5.199  -8.806   7.579  1.00  0.00     0.029 A 
ATOM     56  C   UNL     1       5.843  -8.094   6.581  1.00  0.00     0.049 A 
ATOM     57  H   UNL     1       5.658  -6.055   6.067  1.00  0.00     0.167 HD
ATOM     58  C   UNL     1       7.403  -7.816   4.676  1.00  0.00     0.074 A 
ATOM     59  C   UNL     1       8.371  -8.306   3.713  1.00  0.00     0.031 C 
ATOM     60  C   UNL     1       6.816  -8.572   5.632  1.00  0.00     0.031 A 
BRANCH  47  61
ATOM     61  C   UNL     1       2.751  -5.531   9.176  1.00  0.00    -0.014 A 
ATOM     62  C   UNL     1       1.357  -5.437   9.007  1.00  0.00     0.010 A 
ATOM     63  C   UNL     1       3.257  -5.731  10.477  1.00  0.00     0.010 A 
ATOM     64  C   UNL     1       0.498  -5.469  10.112  1.00  0.00     0.020 A 
ATOM     65  C   UNL     1       2.398  -5.798  11.582  1.00  0.00     0.020 A 
ATOM     66  C   UNL     1       1.024  -5.640  11.395  1.00  0.00     0.054 A 
BRANCH  66  67
ATOM     67  S   UNL     1      -0.115  -5.672  12.808  1.00  0.00     0.124 S 
ATOM     68  O   UNL     1      -0.487  -4.264  12.927  1.00  0.00    -0.237 OA
ATOM     69  O   UNL     1      -1.177  -6.563  12.347  1.00  0.00    -0.237 OA
ATOM     70  O   UNL     1       0.701  -6.195  13.901  1.00  0.00    -0.744 OA
ENDBRANCH  66  67
ENDBRANCH  47  61
BRANCH  48  71
ATOM     71  C   UNL     1       9.174  -4.738   1.586  1.00  0.00    -0.014 A 
ATOM     72  C   UNL     1       8.935  -5.299   0.320  1.00  0.00     0.010 A 
ATOM     73  C   UNL     1      10.305  -3.916   1.764  1.00  0.00     0.010 A 
ATOM     74  C   UNL     1       9.803  -5.044  -0.746  1.00  0.00     0.020 A 
ATOM     75  C   UNL     1      11.159  -3.634   0.692  1.00  0.00     0.020 A 
ATOM     76  C   UNL     1      10.906  -4.206  -0.556  1.00  0.00     0.054 A 
BRANCH  76  77
ATOM     77  S   UNL     1      11.964  -3.817  -1.980  1.00  0.00     0.124 S 
ATOM     78  O   UNL     1      12.694  -5.067  -2.166  1.00  0.00    -0.237 OA
ATOM     79  O   UNL     1      10.990  -3.493  -3.019  1.00  0.00    -0.237 OA
ATOM     80  O   UNL     1      12.764  -2.687  -1.514  1.00  0.00    -0.744 OA
ENDBRANCH  76  77
ENDBRANCH  48  71
BRANCH  60  81
ATOM     81  C   UNL     1       7.192 -10.024   5.659  1.00  0.00    -0.014 A 
ATOM     82  C   UNL     1       8.454 -10.435   6.122  1.00  0.00     0.010 A 
ATOM     83  C   UNL     1       6.268 -10.986   5.216  1.00  0.00     0.010 A 
ATOM     84  C   UNL     1       8.799 -11.787   6.109  1.00  0.00     0.020 A 
ATOM     85  C   UNL     1       6.601 -12.342   5.227  1.00  0.00     0.020 A 
ATOM     86  C   UNL     1       7.870 -12.732   5.661  1.00  0.00     0.054 A 
BRANCH  86  87
ATOM     87  S   UNL     1       8.330 -14.485   5.688  1.00  0.00     0.124 S 
ATOM     88  O   UNL     1       9.243 -14.577   4.552  1.00  0.00    -0.237 OA
ATOM     89  O   UNL     1       8.947 -14.634   7.004  1.00  0.00    -0.237 OA
ATOM     90  O   UNL     1       7.055 -15.179   5.522  1.00  0.00    -0.744 OA
ENDBRANCH  86  87
ENDBRANCH  60  81
ENDBRANCH  34  35
ENDBRANCH  27  29
ENDBRANCH  26  27
ENDBRANCH   1  26
TORSDOF 17
