REMARK SMILES COc1cc(OC)c(-c2cc(C(=O)OCCOC(=O)c3ccc(-c4c5nc(c(-c6ccc(S(=O)(=O)[O-])cc6)c6ccc([nH]6)c(-c6ccc(S(=O)(=O)[O-])cc6)c6nc(c(-c7ccc(S(=O)(=O)[O-])cc7)c7ccc4[nH]7)C=C6)C=C5)cc3)c3c(-c4ccc(Cl)cc4)[nH]nc3n2)cc1OC
REMARK SMILES IDX 16 1 15 2 14 3 12 4 13 5 11 6 9 7 10 8 92 9 91 10 80 11
REMARK SMILES IDX 90 12 81 13 89 14 8 16 3 17 4 18 94 19 5 20 93 21 2 22 1 23
REMARK SMILES IDX 95 24 96 25 6 26 7 27 82 28 83 29 88 30 84 31 87 32 85 33
REMARK SMILES IDX 86 34 17 35 18 36 19 37 20 38 21 39 79 40 22 41 78 42 23 43
REMARK SMILES IDX 24 44 25 45 72 46 26 47 77 48 71 49 73 50 27 51 76 52 70 53
REMARK SMILES IDX 69 54 28 56 58 57 39 58 57 59 40 60 43 61 56 62 74 63 41 64
REMARK SMILES IDX 42 65 55 67 75 68 44 69 29 70 30 71 38 72 31 73 37 74 32 75
REMARK SMILES IDX 33 76 34 77 35 78 36 79 59 80 60 81 68 82 61 83 67 84 62 85
REMARK SMILES IDX 63 86 64 87 65 88 66 89 45 90 46 91 54 92 47 93 53 94 48 95
REMARK SMILES IDX 49 96 50 97 51 98 52 99
REMARK H PARENT 89 15 73 55 43 66
REMARK Flexibility Score: inf
ROOT
ATOM      1  C   UNL     1       5.945   8.879  -2.413  1.00  0.00     0.275 C 
ENDROOT
BRANCH   1   2
ATOM      2  C   UNL     1       6.612   8.214  -1.219  1.00  0.00     0.275 C 
BRANCH   2   3
ATOM      3  O   UNL     1       5.579   7.749  -0.341  1.00  0.00    -0.458 OA
BRANCH   3   4
ATOM      4  C   UNL     1       5.496   8.307   0.892  1.00  0.00     0.339 C 
ATOM      5  O   UNL     1       6.363   8.956   1.444  1.00  0.00    -0.246 OA
BRANCH   4   6
ATOM      6  C   UNL     1       4.179   7.971   1.455  1.00  0.00     0.075 A 
ATOM      7  C   UNL     1       2.305   6.343   1.630  1.00  0.00     0.078 A 
ATOM      8  C   UNL     1       3.502   6.813   1.033  1.00  0.00     0.045 A 
ATOM      9  N   UNL     1       1.664   6.948   2.663  1.00  0.00    -0.226 NA
ATOM     10  C   UNL     1       2.243   8.117   3.047  1.00  0.00     0.182 A 
ATOM     11  C   UNL     1       3.462   8.627   2.464  1.00  0.00     0.061 A 
ATOM     12  N   UNL     1       1.776   8.931   3.991  1.00  0.00    -0.154 NA
ATOM     13  C   UNL     1       3.675   9.856   3.077  1.00  0.00     0.075 A 
ATOM     14  N   UNL     1       2.618   9.972   3.957  1.00  0.00    -0.275 N 
ATOM     15  H   UNL     1       2.491  10.768   4.523  1.00  0.00     0.190 HD
BRANCH   7  16
ATOM     16  C   UNL     1       1.762   5.053   1.150  1.00  0.00     0.046 A 
ATOM     17  C   UNL     1       1.095   2.508   0.065  1.00  0.00     0.164 A 
ATOM     18  C   UNL     1       0.160   3.555   0.096  1.00  0.00     0.097 A 
ATOM     19  C   UNL     1       2.363   2.705   0.599  1.00  0.00     0.161 A 
ATOM     20  C   UNL     1       0.484   4.827   0.614  1.00  0.00     0.132 A 
ATOM     21  C   UNL     1       2.660   3.955   1.154  1.00  0.00     0.064 A 
BRANCH  17  22
ATOM     22  O   UNL     1       0.773   1.375  -0.630  1.00  0.00    -0.493 OA
ATOM     23  C   UNL     1      -0.037   0.482   0.132  1.00  0.00     0.278 C 
ENDBRANCH  17  22
BRANCH  19  24
ATOM     24  O   UNL     1       3.436   1.860   0.633  1.00  0.00    -0.493 OA
ATOM     25  C   UNL     1       3.250   0.499   0.290  1.00  0.00     0.278 C 
ENDBRANCH  19  24
BRANCH  20  26
ATOM     26  O   UNL     1      -0.560   5.710   0.533  1.00  0.00    -0.496 OA
ATOM     27  C   UNL     1      -0.263   7.050   0.150  1.00  0.00     0.278 C 
ENDBRANCH  20  26
ENDBRANCH   7  16
BRANCH  13  28
ATOM     28  C   UNL     1       4.598  10.982   2.903  1.00  0.00     0.000 A 
ATOM     29  C   UNL     1       5.163  11.648   4.001  1.00  0.00     0.012 A 
ATOM     30  C   UNL     1       4.883  11.472   1.627  1.00  0.00     0.012 A 
ATOM     31  C   UNL     1       6.000  12.758   3.814  1.00  0.00     0.021 A 
ATOM     32  C   UNL     1       5.732  12.564   1.432  1.00  0.00     0.021 A 
ATOM     33  C   UNL     1       6.285  13.208   2.528  1.00  0.00     0.041 A 
ATOM     34  Cl  UNL     1       7.319  14.561   2.289  1.00  0.00    -0.084 Cl
ENDBRANCH  13  28
ENDBRANCH   4   6
ENDBRANCH   3   4
ENDBRANCH   2   3
ENDBRANCH   1   2
BRANCH   1  35
ATOM     35  O   UNL     1       5.257  10.049  -1.982  1.00  0.00    -0.458 OA
BRANCH  35  36
ATOM     36  C   UNL     1       3.920   9.973  -1.760  1.00  0.00     0.338 C 
ATOM     37  O   UNL     1       3.232   8.985  -1.708  1.00  0.00    -0.246 OA
BRANCH  36  38
ATOM     38  C   UNL     1       3.454  11.371  -1.599  1.00  0.00     0.060 A 
ATOM     39  C   UNL     1       2.123  11.628  -1.255  1.00  0.00     0.016 A 
ATOM     40  C   UNL     1       4.359  12.423  -1.825  1.00  0.00     0.016 A 
ATOM     41  C   UNL     1       1.675  12.942  -1.266  1.00  0.00     0.010 A 
ATOM     42  C   UNL     1       3.931  13.724  -1.780  1.00  0.00     0.010 A 
ATOM     43  C   UNL     1       2.574  13.961  -1.597  1.00  0.00    -0.014 A 
BRANCH  43  44
ATOM     44  C   UNL     1       2.083  15.273  -1.962  1.00  0.00     0.031 A 
ATOM     45  C   UNL     1       1.739  16.208  -0.871  1.00  0.00     0.074 A 
ATOM     46  C   UNL     1       2.127  15.654  -3.254  1.00  0.00     0.049 A 
ATOM     47  N   UNL     1       0.571  16.672  -0.580  1.00  0.00    -0.248 NA
ATOM     48  C   UNL     1       2.799  16.632   0.052  1.00  0.00     0.031 C 
ATOM     49  C   UNL     1       2.755  14.960  -4.388  1.00  0.00     0.029 A 
ATOM     50  N   UNL     1       1.724  16.826  -3.800  1.00  0.00    -0.354 N 
ATOM     51  C   UNL     1       0.757  17.585   0.453  1.00  0.00     0.074 A 
ATOM     52  C   UNL     1       2.122  17.422   0.889  1.00  0.00     0.031 C 
ATOM     53  C   UNL     1       2.893  15.823  -5.418  1.00  0.00     0.029 A 
ATOM     54  C   UNL     1       2.219  17.061  -5.072  1.00  0.00     0.049 A 
ATOM     55  H   UNL     1       1.129  17.456  -3.333  1.00  0.00     0.167 HD
ATOM     56  C   UNL     1      -0.176  18.535   0.747  1.00  0.00     0.031 A 
ATOM     57  C   UNL     1       2.127  18.220  -5.767  1.00  0.00     0.031 A 
ATOM     58  C   UNL     1      -1.419  18.290   0.062  1.00  0.00     0.049 A 
ATOM     59  C   UNL     1       0.996  18.985  -5.182  1.00  0.00     0.074 A 
ATOM     60  C   UNL     1      -2.356  17.277   0.085  1.00  0.00     0.029 A 
ATOM     61  N   UNL     1      -1.645  18.993  -1.100  1.00  0.00    -0.354 N 
ATOM     62  N   UNL     1      -0.243  18.576  -5.236  1.00  0.00    -0.248 NA
ATOM     63  C   UNL     1       1.280  19.955  -4.134  1.00  0.00     0.031 C 
ATOM     64  C   UNL     1      -2.768  17.130  -1.272  1.00  0.00     0.029 A 
ATOM     65  C   UNL     1      -2.105  18.098  -2.033  1.00  0.00     0.049 A 
ATOM     66  H   UNL     1      -1.504  19.958  -1.237  1.00  0.00     0.167 HD
ATOM     67  C   UNL     1      -0.784  18.895  -3.997  1.00  0.00     0.074 A 
ATOM     68  C   UNL     1       0.164  19.838  -3.406  1.00  0.00     0.031 C 
ATOM     69  C   UNL     1      -1.797  18.157  -3.449  1.00  0.00     0.031 A 
BRANCH  56  70
ATOM     70  C   UNL     1       0.118  19.868   1.384  1.00  0.00    -0.014 A 
ATOM     71  C   UNL     1      -0.962  20.711   1.720  1.00  0.00     0.010 A 
ATOM     72  C   UNL     1       1.407  20.435   1.414  1.00  0.00     0.010 A 
ATOM     73  C   UNL     1      -0.769  22.073   1.985  1.00  0.00     0.020 A 
ATOM     74  C   UNL     1       1.615  21.782   1.720  1.00  0.00     0.020 A 
ATOM     75  C   UNL     1       0.520  22.603   1.960  1.00  0.00     0.054 A 
BRANCH  75  76
ATOM     76  S   UNL     1       0.745  24.389   2.151  1.00  0.00     0.124 S 
ATOM     77  O   UNL     1       0.127  24.899   0.931  1.00  0.00    -0.237 OA
ATOM     78  O   UNL     1       0.024  24.664   3.390  1.00  0.00    -0.237 OA
ATOM     79  O   UNL     1       2.196  24.544   2.231  1.00  0.00    -0.744 OA
ENDBRANCH  75  76
ENDBRANCH  56  70
BRANCH  57  80
ATOM     80  C   UNL     1       3.165  18.799  -6.651  1.00  0.00    -0.014 A 
ATOM     81  C   UNL     1       2.869  19.842  -7.543  1.00  0.00     0.010 A 
ATOM     82  C   UNL     1       4.525  18.487  -6.432  1.00  0.00     0.010 A 
ATOM     83  C   UNL     1       3.898  20.581  -8.154  1.00  0.00     0.020 A 
ATOM     84  C   UNL     1       5.554  19.212  -7.042  1.00  0.00     0.020 A 
ATOM     85  C   UNL     1       5.235  20.272  -7.883  1.00  0.00     0.054 A 
BRANCH  85  86
ATOM     86  S   UNL     1       6.552  21.342  -8.534  1.00  0.00     0.124 S 
ATOM     87  O   UNL     1       6.526  21.034  -9.960  1.00  0.00    -0.237 OA
ATOM     88  O   UNL     1       6.087  22.676  -8.165  1.00  0.00    -0.237 OA
ATOM     89  O   UNL     1       7.747  20.888  -7.823  1.00  0.00    -0.744 OA
ENDBRANCH  85  86
ENDBRANCH  57  80
BRANCH  69  90
ATOM     90  C   UNL     1      -2.481  17.118  -4.314  1.00  0.00    -0.014 A 
ATOM     91  C   UNL     1      -1.813  15.991  -4.834  1.00  0.00     0.010 A 
ATOM     92  C   UNL     1      -3.880  17.181  -4.439  1.00  0.00     0.010 A 
ATOM     93  C   UNL     1      -2.524  14.963  -5.472  1.00  0.00     0.020 A 
ATOM     94  C   UNL     1      -4.596  16.153  -5.060  1.00  0.00     0.020 A 
ATOM     95  C   UNL     1      -3.915  15.050  -5.578  1.00  0.00     0.054 A 
BRANCH  95  96
ATOM     96  S   UNL     1      -4.837  13.683  -6.336  1.00  0.00     0.124 S 
ATOM     97  O   UNL     1      -4.481  13.804  -7.747  1.00  0.00    -0.237 OA
ATOM     98  O   UNL     1      -4.301  12.508  -5.651  1.00  0.00    -0.237 OA
ATOM     99  O   UNL     1      -6.233  13.987  -6.021  1.00  0.00    -0.744 OA
ENDBRANCH  95  96
ENDBRANCH  69  90
ENDBRANCH  43  44
ENDBRANCH  36  38
ENDBRANCH  35  36
ENDBRANCH   1  35
TORSDOF 19
