REMARK SMILES CC[C@](C)(NC(=O)NC[C@@H](C)[NH+](C)C)C(=O)OCCOC(=O)c1ccc(-c2c3nc(c(-c4ccc(S(=O)(=O)[O-])cc4)c4ccc([nH]4)c(-c4ccc(S(=O)(=O)[O-])cc4)c4nc(c(-c5ccc(S(=O)(=O)[O-])cc5)c5ccc2[nH]5)C=C4)C=C3)cc1
REMARK SMILES IDX 18 1 17 2 15 3 16 4 3 5 4 6 2 7 1 8 5 9 6 10 7 12 8 13 9 15
REMARK SMILES IDX 10 16 11 17 12 18 13 19 14 20 19 22 20 23 21 24 22 25 23 26
REMARK SMILES IDX 24 27 82 28 25 29 81 30 26 31 27 32 28 33 75 34 29 35 80 36
REMARK SMILES IDX 74 37 76 38 30 39 79 40 73 41 72 42 31 44 61 45 42 46 60 47
REMARK SMILES IDX 43 48 46 49 59 50 77 51 44 52 45 53 58 55 78 56 47 57 32 58
REMARK SMILES IDX 33 59 41 60 34 61 40 62 35 63 36 64 37 65 38 66 39 67 62 68
REMARK SMILES IDX 63 69 71 70 64 71 70 72 65 73 66 74 67 75 68 76 69 77 48 78
REMARK SMILES IDX 49 79 57 80 50 81 56 82 51 83 52 84 53 85 54 86 55 87
REMARK H PARENT 5 11 8 14 12 21 76 43 46 54
REMARK Flexibility Score: inf
ROOT
ATOM      1  C   UNL     1       4.431   2.042  -0.911  1.00  0.00     0.274 C 
ENDROOT
BRANCH   1   2
ATOM      2  O   UNL     1       3.074   2.244  -1.373  1.00  0.00    -0.460 OA
BRANCH   2   3
ATOM      3  C   UNL     1       2.270   1.140  -1.400  1.00  0.00     0.331 C 
ATOM      4  O   UNL     1       2.584   0.074  -0.882  1.00  0.00    -0.249 OA
BRANCH   3   5
ATOM      5  C   UNL     1       0.899   1.401  -2.118  1.00  0.00     0.136 C 
ATOM      6  C   UNL     1      -0.116   1.564  -0.958  1.00  0.00     0.047 C 
BRANCH   5   7
ATOM      7  C   UNL     1       0.500   0.182  -3.014  1.00  0.00     0.037 C 
ATOM      8  C   UNL     1      -0.958  -0.269  -2.968  1.00  0.00     0.007 C 
ENDBRANCH   5   7
BRANCH   5   9
ATOM      9  N   UNL     1       0.862   2.667  -2.904  1.00  0.00    -0.322 N 
ATOM     10  C   UNL     1       1.379   3.103  -4.063  1.00  0.00     0.315 C 
ATOM     11  H   UNL     1       0.320   3.359  -2.461  1.00  0.00     0.166 HD
ATOM     12  O   UNL     1       0.905   4.129  -4.557  1.00  0.00    -0.249 OA
ATOM     13  N   UNL     1       2.381   2.499  -4.725  1.00  0.00    -0.332 N 
ATOM     14  H   UNL     1       2.471   2.759  -5.671  1.00  0.00     0.165 HD
BRANCH  13  15
ATOM     15  C   UNL     1       3.345   1.529  -4.263  1.00  0.00     0.182 C 
BRANCH  15  16
ATOM     16  C   UNL     1       4.397   1.020  -5.273  1.00  0.00     0.200 C 
ATOM     17  C   UNL     1       5.546   2.040  -5.361  1.00  0.00     0.077 C 
BRANCH  16  18
ATOM     18  N   UNL     1       4.834  -0.360  -4.931  1.00  0.00    -0.336 N 
ATOM     19  C   UNL     1       5.832  -0.900  -5.846  1.00  0.00     0.332 C 
ATOM     20  C   UNL     1       5.252  -0.575  -3.547  1.00  0.00     0.332 C 
ATOM     21  H   UNL     1       3.966  -0.884  -5.046  1.00  0.00     0.347 HD
ENDBRANCH  16  18
ENDBRANCH  15  16
ENDBRANCH  13  15
ENDBRANCH   5   9
ENDBRANCH   3   5
ENDBRANCH   2   3
ENDBRANCH   1   2
BRANCH   1  22
ATOM     22  C   UNL     1       5.183   3.384  -0.911  1.00  0.00     0.275 C 
BRANCH  22  23
ATOM     23  O   UNL     1       5.017   4.017   0.365  1.00  0.00    -0.458 OA
BRANCH  23  24
ATOM     24  C   UNL     1       3.772   4.521   0.535  1.00  0.00     0.338 C 
ATOM     25  O   UNL     1       3.081   5.073  -0.300  1.00  0.00    -0.246 OA
BRANCH  24  26
ATOM     26  C   UNL     1       3.253   3.880   1.753  1.00  0.00     0.060 A 
ATOM     27  C   UNL     1       2.134   3.062   1.581  1.00  0.00     0.016 A 
ATOM     28  C   UNL     1       3.877   3.988   2.990  1.00  0.00     0.016 A 
ATOM     29  C   UNL     1       1.592   2.361   2.642  1.00  0.00     0.010 A 
ATOM     30  C   UNL     1       3.316   3.316   4.075  1.00  0.00     0.010 A 
ATOM     31  C   UNL     1       2.153   2.537   3.905  1.00  0.00    -0.014 A 
BRANCH  31  32
ATOM     32  C   UNL     1       1.351   2.175   5.086  1.00  0.00     0.031 A 
ATOM     33  C   UNL     1       0.640   3.301   5.775  1.00  0.00     0.074 A 
ATOM     34  C   UNL     1       1.231   0.904   5.497  1.00  0.00     0.049 A 
ATOM     35  N   UNL     1       0.117   3.346   6.967  1.00  0.00    -0.248 NA
ATOM     36  C   UNL     1       0.530   4.564   5.018  1.00  0.00     0.031 C 
ATOM     37  C   UNL     1       1.766  -0.270   4.807  1.00  0.00     0.029 A 
ATOM     38  N   UNL     1       0.622   0.394   6.612  1.00  0.00    -0.354 N 
ATOM     39  C   UNL     1      -0.309   4.659   7.133  1.00  0.00     0.074 A 
ATOM     40  C   UNL     1      -0.005   5.374   5.916  1.00  0.00     0.031 C 
ATOM     41  C   UNL     1       1.476  -1.367   5.529  1.00  0.00     0.029 A 
ATOM     42  C   UNL     1       0.805  -0.960   6.760  1.00  0.00     0.049 A 
ATOM     43  H   UNL     1       0.103   0.942   7.244  1.00  0.00     0.167 HD
ATOM     44  C   UNL     1      -0.879   5.213   8.225  1.00  0.00     0.031 A 
ATOM     45  C   UNL     1       0.514  -1.755   7.807  1.00  0.00     0.031 A 
ATOM     46  C   UNL     1      -1.189   4.453   9.403  1.00  0.00     0.049 A 
ATOM     47  C   UNL     1      -0.096  -1.118   9.028  1.00  0.00     0.074 A 
ATOM     48  C   UNL     1      -1.740   4.882  10.594  1.00  0.00     0.029 A 
ATOM     49  N   UNL     1      -0.988   3.083   9.518  1.00  0.00    -0.354 N 
ATOM     50  N   UNL     1      -0.399   0.145   9.233  1.00  0.00    -0.248 NA
ATOM     51  C   UNL     1      -0.390  -2.002  10.162  1.00  0.00     0.031 C 
ATOM     52  C   UNL     1      -1.845   3.773  11.442  1.00  0.00     0.029 A 
ATOM     53  C   UNL     1      -1.404   2.647  10.760  1.00  0.00     0.049 A 
ATOM     54  H   UNL     1      -0.604   2.508   8.817  1.00  0.00     0.167 HD
ATOM     55  C   UNL     1      -0.928   0.207  10.516  1.00  0.00     0.074 A 
ATOM     56  C   UNL     1      -0.921  -1.151  11.030  1.00  0.00     0.031 C 
ATOM     57  C   UNL     1      -1.375   1.280  11.216  1.00  0.00     0.031 A 
BRANCH  44  58
ATOM     58  C   UNL     1      -1.117   6.698   8.206  1.00  0.00    -0.014 A 
ATOM     59  C   UNL     1      -2.115   7.279   7.402  1.00  0.00     0.010 A 
ATOM     60  C   UNL     1      -0.305   7.532   8.996  1.00  0.00     0.010 A 
ATOM     61  C   UNL     1      -2.269   8.669   7.362  1.00  0.00     0.020 A 
ATOM     62  C   UNL     1      -0.473   8.919   8.979  1.00  0.00     0.020 A 
ATOM     63  C   UNL     1      -1.444   9.480   8.147  1.00  0.00     0.054 A 
BRANCH  63  64
ATOM     64  S   UNL     1      -1.674  11.279   8.091  1.00  0.00     0.124 S 
ATOM     65  O   UNL     1      -1.079  11.620   6.802  1.00  0.00    -0.237 OA
ATOM     66  O   UNL     1      -3.126  11.420   8.169  1.00  0.00    -0.237 OA
ATOM     67  O   UNL     1      -0.942  11.758   9.261  1.00  0.00    -0.744 OA
ENDBRANCH  63  64
ENDBRANCH  44  58
BRANCH  45  68
ATOM     68  C   UNL     1       0.861  -3.202   7.764  1.00  0.00    -0.014 A 
ATOM     69  C   UNL     1      -0.142  -4.183   7.687  1.00  0.00     0.010 A 
ATOM     70  C   UNL     1       2.210  -3.607   7.761  1.00  0.00     0.010 A 
ATOM     71  C   UNL     1       0.196  -5.539   7.605  1.00  0.00     0.020 A 
ATOM     72  C   UNL     1       2.552  -4.959   7.653  1.00  0.00     0.020 A 
ATOM     73  C   UNL     1       1.541  -5.918   7.582  1.00  0.00     0.054 A 
BRANCH  73  74
ATOM     74  S   UNL     1       1.959  -7.675   7.393  1.00  0.00     0.124 S 
ATOM     75  O   UNL     1       1.680  -8.199   8.726  1.00  0.00    -0.237 OA
ATOM     76  O   UNL     1       1.045  -8.107   6.338  1.00  0.00    -0.237 OA
ATOM     77  O   UNL     1       3.369  -7.651   7.011  1.00  0.00    -0.744 OA
ENDBRANCH  73  74
ENDBRANCH  45  68
BRANCH  57  78
ATOM     78  C   UNL     1      -1.923   1.013  12.587  1.00  0.00    -0.014 A 
ATOM     79  C   UNL     1      -1.066   0.761  13.672  1.00  0.00     0.010 A 
ATOM     80  C   UNL     1      -3.311   1.079  12.798  1.00  0.00     0.010 A 
ATOM     81  C   UNL     1      -1.595   0.547  14.945  1.00  0.00     0.020 A 
ATOM     82  C   UNL     1      -3.841   0.889  14.074  1.00  0.00     0.020 A 
ATOM     83  C   UNL     1      -2.979   0.609  15.137  1.00  0.00     0.054 A 
BRANCH  83  84
ATOM     84  S   UNL     1      -3.642   0.367  16.806  1.00  0.00     0.124 S 
ATOM     85  O   UNL     1      -3.548  -1.082  16.960  1.00  0.00    -0.237 OA
ATOM     86  O   UNL     1      -2.726   1.148  17.634  1.00  0.00    -0.237 OA
ATOM     87  O   UNL     1      -5.000   0.899  16.719  1.00  0.00    -0.744 OA
ENDBRANCH  83  84
ENDBRANCH  57  78
ENDBRANCH  31  32
ENDBRANCH  24  26
ENDBRANCH  23  24
ENDBRANCH  22  23
ENDBRANCH   1  22
TORSDOF 19
