REMARK SMILES O=C(C[NH2+]Cc1cccs1)OCCOC(=O)c1ccc(-c2c3nc(c(-c4ccc(S(=O)(=O)[O-])cc4)c4ccc([nH]4)c(-c4ccc(S(=O)(=O)[O-])cc4)c4nc(c(-c5ccc(S(=O)(=O)[O-])cc5)c5ccc2[nH]5)C=C4)C=C3)cc1
REMARK SMILES IDX 12 1 11 2 2 3 1 4 3 5 4 6 5 9 6 10 7 11 10 12 8 13 9 14
REMARK SMILES IDX 13 15 14 16 15 17 16 18 17 19 18 20 76 21 19 22 75 23 20 24
REMARK SMILES IDX 21 25 22 26 69 27 23 28 74 29 68 30 70 31 24 32 73 33 67 34
REMARK SMILES IDX 66 35 25 37 55 38 36 39 54 40 37 41 40 42 53 43 71 44 38 45
REMARK SMILES IDX 39 46 52 48 72 49 41 50 26 51 27 52 35 53 28 54 34 55 29 56
REMARK SMILES IDX 30 57 31 58 32 59 33 60 56 61 57 62 65 63 58 64 64 65 59 66
REMARK SMILES IDX 60 67 61 68 62 69 63 70 42 71 43 72 51 73 44 74 50 75 45 76
REMARK SMILES IDX 46 77 47 78 48 79 49 80
REMARK H PARENT 4 7 4 8 70 36 40 47
REMARK Flexibility Score: inf
ROOT
ATOM      1  C   UNL     1       4.573  -0.932  -0.745  1.00  0.00     0.274 C 
ENDROOT
BRANCH   1   2
ATOM      2  O   UNL     1       3.269  -1.272  -0.228  1.00  0.00    -0.458 OA
BRANCH   2   3
ATOM      3  C   UNL     1       2.616  -0.572   0.734  1.00  0.00     0.361 C 
ATOM      4  O   UNL     1       1.633  -1.053   1.295  1.00  0.00    -0.245 OA
BRANCH   3   5
ATOM      5  C   UNL     1       3.131   0.814   1.095  1.00  0.00     0.385 C 
BRANCH   5   6
ATOM      6  N   UNL     1       4.195   0.739   2.106  1.00  0.00    -0.333 N 
ATOM      7  H   UNL     1       4.750  -0.101   1.940  1.00  0.00     0.347 HD
ATOM      8  H   UNL     1       3.757   0.712   3.026  1.00  0.00     0.347 HD
BRANCH   6   9
ATOM      9  C   UNL     1       5.078   1.909   2.053  1.00  0.00     0.308 C 
BRANCH   9  10
ATOM     10  C   UNL     1       4.411   3.220   2.339  1.00  0.00     0.059 A 
ATOM     11  C   UNL     1       3.384   3.519   3.214  1.00  0.00     0.021 A 
ATOM     12  S   UNL     1       4.975   4.633   1.537  1.00  0.00    -0.143 S 
ATOM     13  C   UNL     1       3.104   4.912   3.264  1.00  0.00     0.012 A 
ATOM     14  C   UNL     1       3.896   5.633   2.399  1.00  0.00     0.065 A 
ENDBRANCH   9  10
ENDBRANCH   6   9
ENDBRANCH   5   6
ENDBRANCH   3   5
ENDBRANCH   2   3
ENDBRANCH   1   2
BRANCH   1  15
ATOM     15  C   UNL     1       4.491  -0.342  -2.155  1.00  0.00     0.275 C 
BRANCH  15  16
ATOM     16  O   UNL     1       4.003   1.014  -2.124  1.00  0.00    -0.458 OA
BRANCH  16  17
ATOM     17  C   UNL     1       2.672   1.168  -2.338  1.00  0.00     0.338 C 
ATOM     18  O   UNL     1       1.883   0.282  -2.621  1.00  0.00    -0.246 OA
BRANCH  17  19
ATOM     19  C   UNL     1       2.257   2.558  -2.016  1.00  0.00     0.060 A 
ATOM     20  C   UNL     1       0.956   2.760  -1.534  1.00  0.00     0.016 A 
ATOM     21  C   UNL     1       3.116   3.651  -2.169  1.00  0.00     0.016 A 
ATOM     22  C   UNL     1       0.499   4.050  -1.244  1.00  0.00     0.010 A 
ATOM     23  C   UNL     1       2.658   4.941  -1.872  1.00  0.00     0.010 A 
ATOM     24  C   UNL     1       1.337   5.155  -1.434  1.00  0.00    -0.014 A 
BRANCH  24  25
ATOM     25  C   UNL     1       0.826   6.543  -1.288  1.00  0.00     0.031 A 
ATOM     26  C   UNL     1       0.511   7.348  -2.516  1.00  0.00     0.074 A 
ATOM     27  C   UNL     1       0.655   7.110  -0.079  1.00  0.00     0.049 A 
ATOM     28  N   UNL     1       0.101   8.588  -2.601  1.00  0.00    -0.248 NA
ATOM     29  C   UNL     1       0.640   6.662  -3.811  1.00  0.00     0.031 C 
ATOM     30  C   UNL     1       0.821   6.437   1.203  1.00  0.00     0.029 A 
ATOM     31  N   UNL     1       0.351   8.407   0.262  1.00  0.00    -0.354 N 
ATOM     32  C   UNL     1      -0.146   8.809  -3.948  1.00  0.00     0.074 A 
ATOM     33  C   UNL     1       0.251   7.609  -4.654  1.00  0.00     0.031 C 
ATOM     34  C   UNL     1       0.730   7.347   2.188  1.00  0.00     0.029 A 
ATOM     35  C   UNL     1       0.503   8.663   1.604  1.00  0.00     0.049 A 
ATOM     36  H   UNL     1       0.053   9.083  -0.389  1.00  0.00     0.167 HD
ATOM     37  C   UNL     1      -0.704   9.893  -4.538  1.00  0.00     0.031 A 
ATOM     38  C   UNL     1       0.504   9.825   2.285  1.00  0.00     0.031 A 
ATOM     39  C   UNL     1      -1.063  11.103  -3.849  1.00  0.00     0.049 A 
ATOM     40  C   UNL     1       0.134  11.097   1.578  1.00  0.00     0.074 A 
ATOM     41  C   UNL     1      -1.681  12.232  -4.356  1.00  0.00     0.029 A 
ATOM     42  N   UNL     1      -0.809  11.355  -2.510  1.00  0.00    -0.354 N 
ATOM     43  N   UNL     1      -0.179  11.269   0.317  1.00  0.00    -0.248 NA
ATOM     44  C   UNL     1       0.057  12.318   2.392  1.00  0.00     0.031 C 
ATOM     45  C   UNL     1      -1.748  13.191  -3.337  1.00  0.00     0.029 A 
ATOM     46  C   UNL     1      -1.218  12.638  -2.183  1.00  0.00     0.049 A 
ATOM     47  H   UNL     1      -0.398  10.717  -1.883  1.00  0.00     0.167 HD
ATOM     48  C   UNL     1      -0.579  12.595   0.207  1.00  0.00     0.074 A 
ATOM     49  C   UNL     1      -0.423  13.192   1.517  1.00  0.00     0.031 C 
ATOM     50  C   UNL     1      -1.077  13.237  -0.879  1.00  0.00     0.031 A 
BRANCH  37  51
ATOM     51  C   UNL     1      -0.979   9.796  -6.011  1.00  0.00    -0.014 A 
ATOM     52  C   UNL     1      -2.020   8.978  -6.489  1.00  0.00     0.010 A 
ATOM     53  C   UNL     1      -0.215  10.542  -6.925  1.00  0.00     0.010 A 
ATOM     54  C   UNL     1      -2.264   8.873  -7.859  1.00  0.00     0.020 A 
ATOM     55  C   UNL     1      -0.470  10.456  -8.296  1.00  0.00     0.020 A 
ATOM     56  C   UNL     1      -1.482   9.607  -8.755  1.00  0.00     0.054 A 
BRANCH  56  57
ATOM     57  S   UNL     1      -1.821   9.454 -10.529  1.00  0.00     0.124 S 
ATOM     58  O   UNL     1      -1.285   8.127 -10.823  1.00  0.00    -0.237 OA
ATOM     59  O   UNL     1      -3.275   9.571 -10.590  1.00  0.00    -0.237 OA
ATOM     60  O   UNL     1      -1.084  10.569 -11.120  1.00  0.00    -0.744 OA
ENDBRANCH  56  57
ENDBRANCH  37  51
BRANCH  38  61
ATOM     61  C   UNL     1       0.888   9.840   3.721  1.00  0.00    -0.014 A 
ATOM     62  C   UNL     1      -0.073  10.010   4.730  1.00  0.00     0.010 A 
ATOM     63  C   UNL     1       2.242   9.692   4.079  1.00  0.00     0.010 A 
ATOM     64  C   UNL     1       0.316  10.054   6.073  1.00  0.00     0.020 A 
ATOM     65  C   UNL     1       2.632   9.718   5.420  1.00  0.00     0.020 A 
ATOM     66  C   UNL     1       1.666   9.909   6.409  1.00  0.00     0.054 A 
BRANCH  66  67
ATOM     67  S   UNL     1       2.137   9.944   8.161  1.00  0.00     0.124 S 
ATOM     68  O   UNL     1       1.887  11.338   8.516  1.00  0.00    -0.237 OA
ATOM     69  O   UNL     1       1.224   8.967   8.748  1.00  0.00    -0.237 OA
ATOM     70  O   UNL     1       3.542   9.544   8.146  1.00  0.00    -0.744 OA
ENDBRANCH  66  67
ENDBRANCH  38  61
BRANCH  50  71
ATOM     71  C   UNL     1      -1.583  14.640  -0.686  1.00  0.00    -0.014 A 
ATOM     72  C   UNL     1      -0.708  15.727  -0.516  1.00  0.00     0.010 A 
ATOM     73  C   UNL     1      -2.970  14.876  -0.722  1.00  0.00     0.010 A 
ATOM     74  C   UNL     1      -1.215  17.021  -0.361  1.00  0.00     0.020 A 
ATOM     75  C   UNL     1      -3.479  16.170  -0.593  1.00  0.00     0.020 A 
ATOM     76  C   UNL     1      -2.597  17.235  -0.401  1.00  0.00     0.054 A 
BRANCH  76  77
ATOM     77  S   UNL     1      -3.229  18.928  -0.250  1.00  0.00     0.124 S 
ATOM     78  O   UNL     1      -3.084  19.180   1.181  1.00  0.00    -0.237 OA
ATOM     79  O   UNL     1      -2.329  19.686  -1.116  1.00  0.00    -0.237 OA
ATOM     80  O   UNL     1      -4.605  18.828  -0.730  1.00  0.00    -0.744 OA
ENDBRANCH  76  77
ENDBRANCH  50  71
ENDBRANCH  24  25
ENDBRANCH  17  19
ENDBRANCH  16  17
ENDBRANCH  15  16
ENDBRANCH   1  15
TORSDOF 17
