REMARK SMILES Cc1csc([C@H](C)Nc2cc(C)c(N)c(C(=O)OCCOC(=O)c3ccc(-c4c5nc(c(-c6ccc(S(=O)(=O)[O-])cc6)c6ccc([nH]6)c(-c6ccc(S(=O)(=O)[O-])cc6)c6nc(c(-c7ccc(S(=O)(=O)[O-])cc7)c7ccc4[nH]7)C=C6)C=C5)cc3)c2)n1
REMARK SMILES IDX 19 1 18 2 16 3 17 4 15 5 9 6 10 7 84 8 11 9 12 10 13 11 8 12
REMARK SMILES IDX 6 14 7 15 5 16 1 17 2 18 3 19 85 20 4 21 14 22 20 25 21 26
REMARK SMILES IDX 22 27 23 28 24 29 25 30 83 31 26 32 82 33 27 34 28 35 29 36
REMARK SMILES IDX 76 37 30 38 81 39 75 40 77 41 31 42 80 43 74 44 73 45 32 47
REMARK SMILES IDX 62 48 43 49 61 50 44 51 47 52 60 53 78 54 45 55 46 56 59 58
REMARK SMILES IDX 79 59 48 60 33 61 34 62 42 63 35 64 41 65 36 66 37 67 38 68
REMARK SMILES IDX 39 69 40 70 63 71 64 72 72 73 65 74 71 75 66 76 67 77 68 78
REMARK SMILES IDX 69 79 70 80 49 81 50 82 58 83 51 84 57 85 52 86 53 87 54 88
REMARK SMILES IDX 55 89 56 90
REMARK H PARENT 8 13 14 23 14 24 77 46 47 57
REMARK Flexibility Score: inf
ROOT
ATOM      1  C   UNL     1       1.232   3.274   7.374  1.00  0.00     0.275 C 
ENDROOT
BRANCH   1   2
ATOM      2  O   UNL     1       1.486   3.352   5.955  1.00  0.00    -0.458 OA
BRANCH   2   3
ATOM      3  C   UNL     1       2.064   4.503   5.509  1.00  0.00     0.340 C 
ATOM      4  O   UNL     1       2.344   5.474   6.186  1.00  0.00    -0.246 OA
BRANCH   3   5
ATOM      5  C   UNL     1       2.382   4.385   4.057  1.00  0.00     0.085 A 
ATOM      6  C   UNL     1       1.774   3.518   1.856  1.00  0.00     0.036 A 
ATOM      7  C   UNL     1       3.003   3.979   1.383  1.00  0.00     0.031 A 
ATOM      8  C   UNL     1       1.500   3.689   3.215  1.00  0.00     0.043 A 
ATOM      9  C   UNL     1       3.892   4.706   2.197  1.00  0.00    -0.025 A 
ATOM     10  C   UNL     1       5.204   5.155   1.609  1.00  0.00     0.047 C 
ATOM     11  C   UNL     1       3.543   4.989   3.530  1.00  0.00     0.049 A 
BRANCH   6  12
ATOM     12  N   UNL     1       0.858   2.837   1.078  1.00  0.00    -0.376 N 
ATOM     13  H   UNL     1      -0.053   2.735   1.435  1.00  0.00     0.161 HD
BRANCH  12  14
ATOM     14  C   UNL     1       1.137   2.252  -0.240  1.00  0.00     0.135 C 
ATOM     15  C   UNL     1       0.240   1.006  -0.335  1.00  0.00     0.039 C 
BRANCH  14  16
ATOM     16  C   UNL     1       0.968   3.192  -1.438  1.00  0.00     0.115 A 
ATOM     17  C   UNL     1       1.130   6.544  -2.773  1.00  0.00     0.067 C 
ATOM     18  C   UNL     1       0.975   5.074  -2.639  1.00  0.00     0.049 A 
ATOM     19  C   UNL     1       0.782   4.168  -3.662  1.00  0.00     0.090 A 
ATOM     20  N   UNL     1       1.047   4.510  -1.377  1.00  0.00    -0.244 NA
ATOM     21  S   UNL     1       0.763   2.576  -3.042  1.00  0.00    -0.125 S 
ENDBRANCH  14  16
ENDBRANCH  12  14
ENDBRANCH   6  12
BRANCH  11  22
ATOM     22  N   UNL     1       4.406   5.738   4.330  1.00  0.00    -0.398 N 
ATOM     23  H   UNL     1       5.209   6.149   3.937  1.00  0.00     0.156 HD
ATOM     24  H   UNL     1       4.211   5.856   5.288  1.00  0.00     0.156 HD
ENDBRANCH  11  22
ENDBRANCH   3   5
ENDBRANCH   2   3
ENDBRANCH   1   2
BRANCH   1  25
ATOM     25  C   UNL     1       2.264   2.374   8.054  1.00  0.00     0.275 C 
BRANCH  25  26
ATOM     26  O   UNL     1       3.557   2.989   7.949  1.00  0.00    -0.458 OA
BRANCH  26  27
ATOM     27  C   UNL     1       4.610   2.148   7.811  1.00  0.00     0.338 C 
ATOM     28  O   UNL     1       4.583   0.929   7.885  1.00  0.00    -0.246 OA
BRANCH  27  29
ATOM     29  C   UNL     1       5.841   2.932   7.551  1.00  0.00     0.060 A 
ATOM     30  C   UNL     1       5.781   4.112   6.813  1.00  0.00     0.016 A 
ATOM     31  C   UNL     1       7.082   2.455   7.970  1.00  0.00     0.016 A 
ATOM     32  C   UNL     1       6.951   4.767   6.423  1.00  0.00     0.010 A 
ATOM     33  C   UNL     1       8.250   3.170   7.660  1.00  0.00     0.010 A 
ATOM     34  C   UNL     1       8.208   4.319   6.848  1.00  0.00    -0.014 A 
BRANCH  34  35
ATOM     35  C   UNL     1       9.466   4.992   6.386  1.00  0.00     0.031 A 
ATOM     36  C   UNL     1      10.560   4.178   5.731  1.00  0.00     0.074 A 
ATOM     37  C   UNL     1       9.647   6.327   6.503  1.00  0.00     0.049 A 
ATOM     38  N   UNL     1      11.805   4.505   5.486  1.00  0.00    -0.248 NA
ATOM     39  C   UNL     1      10.212   2.810   5.314  1.00  0.00     0.031 C 
ATOM     40  C   UNL     1       8.674   7.280   7.040  1.00  0.00     0.029 A 
ATOM     41  N   UNL     1      10.718   7.120   6.155  1.00  0.00    -0.354 N 
ATOM     42  C   UNL     1      12.406   3.360   4.971  1.00  0.00     0.074 A 
ATOM     43  C   UNL     1      11.387   2.334   4.927  1.00  0.00     0.031 C 
ATOM     44  C   UNL     1       9.159   8.525   6.920  1.00  0.00     0.029 A 
ATOM     45  C   UNL     1      10.524   8.459   6.410  1.00  0.00     0.049 A 
ATOM     46  H   UNL     1      11.546   6.762   5.761  1.00  0.00     0.167 HD
ATOM     47  C   UNL     1      13.691   3.176   4.577  1.00  0.00     0.031 A 
ATOM     48  C   UNL     1      11.358   9.514   6.302  1.00  0.00     0.031 A 
ATOM     49  C   UNL     1      14.688   4.215   4.549  1.00  0.00     0.049 A 
ATOM     50  C   UNL     1      12.784   9.288   5.884  1.00  0.00     0.074 A 
ATOM     51  C   UNL     1      16.021   4.121   4.185  1.00  0.00     0.029 A 
ATOM     52  N   UNL     1      14.453   5.544   4.860  1.00  0.00    -0.354 N 
ATOM     53  N   UNL     1      13.372   8.171   5.529  1.00  0.00    -0.248 NA
ATOM     54  C   UNL     1      13.670  10.462   5.887  1.00  0.00     0.031 C 
ATOM     55  C   UNL     1      16.599   5.390   4.302  1.00  0.00     0.029 A 
ATOM     56  C   UNL     1      15.614   6.281   4.694  1.00  0.00     0.049 A 
ATOM     57  H   UNL     1      13.589   5.911   5.156  1.00  0.00     0.167 HD
ATOM     58  C   UNL     1      14.695   8.507   5.268  1.00  0.00     0.074 A 
ATOM     59  C   UNL     1      14.816   9.935   5.476  1.00  0.00     0.031 C 
ATOM     60  C   UNL     1      15.722   7.702   4.903  1.00  0.00     0.031 A 
BRANCH  47  61
ATOM     61  C   UNL     1      14.110   1.782   4.187  1.00  0.00    -0.014 A 
ATOM     62  C   UNL     1      13.712   1.202   2.971  1.00  0.00     0.010 A 
ATOM     63  C   UNL     1      14.955   1.054   5.047  1.00  0.00     0.010 A 
ATOM     64  C   UNL     1      14.118  -0.095   2.640  1.00  0.00     0.020 A 
ATOM     65  C   UNL     1      15.386  -0.231   4.708  1.00  0.00     0.020 A 
ATOM     66  C   UNL     1      14.948  -0.805   3.513  1.00  0.00     0.054 A 
BRANCH  66  67
ATOM     67  S   UNL     1      15.477  -2.479   3.053  1.00  0.00     0.124 S 
ATOM     68  O   UNL     1      14.268  -3.257   3.309  1.00  0.00    -0.237 OA
ATOM     69  O   UNL     1      15.840  -2.328   1.646  1.00  0.00    -0.237 OA
ATOM     70  O   UNL     1      16.594  -2.750   3.955  1.00  0.00    -0.744 OA
ENDBRANCH  66  67
ENDBRANCH  47  61
BRANCH  48  71
ATOM     71  C   UNL     1      10.886  10.879   6.670  1.00  0.00    -0.014 A 
ATOM     72  C   UNL     1      10.736  11.876   5.690  1.00  0.00     0.010 A 
ATOM     73  C   UNL     1      10.577  11.187   8.008  1.00  0.00     0.010 A 
ATOM     74  C   UNL     1      10.290  13.155   6.041  1.00  0.00     0.020 A 
ATOM     75  C   UNL     1      10.100  12.453   8.358  1.00  0.00     0.020 A 
ATOM     76  C   UNL     1       9.970  13.433   7.373  1.00  0.00     0.054 A 
BRANCH  76  77
ATOM     77  S   UNL     1       9.323  15.073   7.804  1.00  0.00     0.124 S 
ATOM     78  O   UNL     1      10.541  15.876   7.849  1.00  0.00    -0.237 OA
ATOM     79  O   UNL     1       8.416  15.361   6.696  1.00  0.00    -0.237 OA
ATOM     80  O   UNL     1       8.668  14.852   9.091  1.00  0.00    -0.744 OA
ENDBRANCH  76  77
ENDBRANCH  48  71
BRANCH  60  81
ATOM     81  C   UNL     1      17.060   8.351   4.675  1.00  0.00    -0.014 A 
ATOM     82  C   UNL     1      17.856   8.772   5.755  1.00  0.00     0.010 A 
ATOM     83  C   UNL     1      17.541   8.508   3.363  1.00  0.00     0.010 A 
ATOM     84  C   UNL     1      19.098   9.369   5.524  1.00  0.00     0.020 A 
ATOM     85  C   UNL     1      18.792   9.086   3.130  1.00  0.00     0.020 A 
ATOM     86  C   UNL     1      19.556   9.526   4.212  1.00  0.00     0.054 A 
BRANCH  86  87
ATOM     87  S   UNL     1      21.186  10.275   3.938  1.00  0.00     0.124 S 
ATOM     88  O   UNL     1      20.913  11.691   4.170  1.00  0.00    -0.237 OA
ATOM     89  O   UNL     1      22.016   9.621   4.946  1.00  0.00    -0.237 OA
ATOM     90  O   UNL     1      21.501   9.920   2.556  1.00  0.00    -0.744 OA
ENDBRANCH  86  87
ENDBRANCH  60  81
ENDBRANCH  34  35
ENDBRANCH  27  29
ENDBRANCH  26  27
ENDBRANCH  25  26
ENDBRANCH   1  25
TORSDOF 18
