REMARK SMILES Cc1ccc(CNC(=O)c2csc(/C=C/C(=O)OCCOC(=O)c3ccc(-c4c5nc(c(-c6ccc(S(=O)(=O)[O-])cc6)c6ccc([nH]6)c(-c6ccc(S(=O)(=O)[O-])cc6)c6nc(c(-c7ccc(S(=O)(=O)[O-])cc7)c7ccc4[nH]7)C=C6)C=C5)cc3)c2)s1
REMARK SMILES IDX 19 1 18 2 16 3 17 4 15 5 14 6 13 7 10 8 11 9 84 10 12 11
REMARK SMILES IDX 8 12 7 13 9 15 6 16 5 17 1 18 2 19 3 20 85 21 4 22 20 23
REMARK SMILES IDX 21 24 22 25 23 26 24 27 25 28 83 29 26 30 82 31 27 32 28 33
REMARK SMILES IDX 29 34 76 35 30 36 81 37 75 38 77 39 31 40 80 41 74 42 73 43
REMARK SMILES IDX 32 45 62 46 43 47 61 48 44 49 47 50 60 51 78 52 45 53 46 54
REMARK SMILES IDX 59 56 79 57 48 58 33 59 34 60 42 61 35 62 41 63 36 64 37 65
REMARK SMILES IDX 38 66 39 67 40 68 63 69 64 70 72 71 65 72 71 73 66 74 67 75
REMARK SMILES IDX 68 76 69 77 70 78 49 79 50 80 58 81 51 82 57 83 52 84 53 85
REMARK SMILES IDX 54 86 55 87 56 88
REMARK H PARENT 7 14 77 44 47 55
REMARK Flexibility Score: inf
ROOT
ATOM      1  C   UNL     1      -7.080   2.770  -7.383  1.00  0.00     0.275 C 
ENDROOT
BRANCH   1   2
ATOM      2  O   UNL     1      -6.392   2.865  -6.122  1.00  0.00    -0.459 OA
BRANCH   2   3
ATOM      3  C   UNL     1      -5.175   3.456  -6.163  1.00  0.00     0.330 C 
ATOM      4  O   UNL     1      -4.574   3.796  -7.171  1.00  0.00    -0.247 OA
BRANCH   3   5
ATOM      5  C   UNL     1      -4.619   3.708  -4.821  1.00  0.00     0.095 C 
ATOM      6  C   UNL     1      -5.245   3.450  -3.662  1.00  0.00     0.026 C 
BRANCH   6   7
ATOM      7  C   UNL     1      -4.641   3.751  -2.405  1.00  0.00     0.028 A 
ATOM      8  C   UNL     1      -3.829   3.507  -0.199  1.00  0.00     0.051 A 
ATOM      9  C   UNL     1      -3.378   4.769  -0.530  1.00  0.00     0.079 A 
ATOM     10  C   UNL     1      -4.659   2.986  -1.251  1.00  0.00     0.033 A 
ATOM     11  S   UNL     1      -3.804   5.229  -2.116  1.00  0.00    -0.144 S 
BRANCH   8  12
ATOM     12  C   UNL     1      -3.495   2.878   1.075  1.00  0.00     0.252 C 
ATOM     13  N   UNL     1      -3.135   1.555   1.086  1.00  0.00    -0.347 N 
ATOM     14  H   UNL     1      -3.039   1.147   1.977  1.00  0.00     0.164 HD
ATOM     15  O   UNL     1      -3.491   3.504   2.132  1.00  0.00    -0.269 OA
BRANCH  13  16
ATOM     16  C   UNL     1      -2.875   0.678  -0.034  1.00  0.00     0.163 C 
BRANCH  16  17
ATOM     17  C   UNL     1      -1.531   0.039   0.104  1.00  0.00     0.024 A 
ATOM     18  C   UNL     1       2.384  -0.203   0.063  1.00  0.00     0.056 C 
ATOM     19  C   UNL     1       0.905  -0.377   0.113  1.00  0.00     0.002 A 
ATOM     20  C   UNL     1       0.176  -1.544   0.200  1.00  0.00     0.015 A 
ATOM     21  S   UNL     1      -0.110   0.996   0.043  1.00  0.00    -0.144 S 
ATOM     22  C   UNL     1      -1.228  -1.305   0.201  1.00  0.00     0.017 A 
ENDBRANCH  16  17
ENDBRANCH  13  16
ENDBRANCH   8  12
ENDBRANCH   6   7
ENDBRANCH   3   5
ENDBRANCH   2   3
ENDBRANCH   1   2
BRANCH   1  23
ATOM     23  C   UNL     1      -8.156   3.853  -7.510  1.00  0.00     0.275 C 
BRANCH  23  24
ATOM     24  O   UNL     1      -7.590   5.175  -7.581  1.00  0.00    -0.458 OA
BRANCH  24  25
ATOM     25  C   UNL     1      -7.424   5.794  -6.386  1.00  0.00     0.338 C 
ATOM     26  O   UNL     1      -7.724   5.356  -5.288  1.00  0.00    -0.246 OA
BRANCH  25  27
ATOM     27  C   UNL     1      -6.702   7.066  -6.575  1.00  0.00     0.060 A 
ATOM     28  C   UNL     1      -5.567   7.301  -5.793  1.00  0.00     0.016 A 
ATOM     29  C   UNL     1      -7.166   8.044  -7.460  1.00  0.00     0.016 A 
ATOM     30  C   UNL     1      -4.892   8.516  -5.891  1.00  0.00     0.010 A 
ATOM     31  C   UNL     1      -6.489   9.265  -7.552  1.00  0.00     0.010 A 
ATOM     32  C   UNL     1      -5.355   9.513  -6.761  1.00  0.00    -0.014 A 
BRANCH  32  33
ATOM     33  C   UNL     1      -4.670  10.828  -6.804  1.00  0.00     0.031 A 
ATOM     34  C   UNL     1      -5.275  12.015  -6.109  1.00  0.00     0.074 A 
ATOM     35  C   UNL     1      -3.490  10.950  -7.442  1.00  0.00     0.049 A 
ATOM     36  N   UNL     1      -4.832  13.244  -6.036  1.00  0.00    -0.248 NA
ATOM     37  C   UNL     1      -6.545  11.789  -5.402  1.00  0.00     0.031 C 
ATOM     38  C   UNL     1      -2.784   9.864  -8.122  1.00  0.00     0.029 A 
ATOM     39  N   UNL     1      -2.677  12.041  -7.616  1.00  0.00    -0.354 N 
ATOM     40  C   UNL     1      -5.767  13.941  -5.281  1.00  0.00     0.074 A 
ATOM     41  C   UNL     1      -6.817  13.003  -4.942  1.00  0.00     0.031 C 
ATOM     42  C   UNL     1      -1.635  10.341  -8.629  1.00  0.00     0.029 A 
ATOM     43  C   UNL     1      -1.542  11.771  -8.343  1.00  0.00     0.049 A 
ATOM     44  H   UNL     1      -2.886  12.932  -7.254  1.00  0.00     0.167 HD
ATOM     45  C   UNL     1      -5.752  15.242  -4.900  1.00  0.00     0.031 A 
ATOM     46  C   UNL     1      -0.547  12.585  -8.745  1.00  0.00     0.031 A 
ATOM     47  C   UNL     1      -4.716  16.177  -5.251  1.00  0.00     0.049 A 
ATOM     48  C   UNL     1      -0.588  14.041  -8.370  1.00  0.00     0.074 A 
ATOM     49  C   UNL     1      -4.609  17.514  -4.908  1.00  0.00     0.029 A 
ATOM     50  N   UNL     1      -3.609  15.878  -6.032  1.00  0.00    -0.354 N 
ATOM     51  N   UNL     1      -1.475  14.681  -7.646  1.00  0.00    -0.248 NA
ATOM     52  C   UNL     1       0.508  14.885  -8.867  1.00  0.00     0.031 C 
ATOM     53  C   UNL     1      -3.464  18.035  -5.522  1.00  0.00     0.029 A 
ATOM     54  C   UNL     1      -2.829  17.009  -6.204  1.00  0.00     0.049 A 
ATOM     55  H   UNL     1      -3.408  14.991  -6.409  1.00  0.00     0.167 HD
ATOM     56  C   UNL     1      -1.033  15.999  -7.584  1.00  0.00     0.074 A 
ATOM     57  C   UNL     1       0.206  16.061  -8.332  1.00  0.00     0.031 C 
ATOM     58  C   UNL     1      -1.603  17.060  -6.960  1.00  0.00     0.031 A 
BRANCH  45  59
ATOM     59  C   UNL     1      -6.919  15.735  -4.086  1.00  0.00    -0.014 A 
ATOM     60  C   UNL     1      -7.080  15.357  -2.741  1.00  0.00     0.010 A 
ATOM     61  C   UNL     1      -7.859  16.602  -4.671  1.00  0.00     0.010 A 
ATOM     62  C   UNL     1      -8.187  15.799  -2.010  1.00  0.00     0.020 A 
ATOM     63  C   UNL     1      -8.954  17.066  -3.937  1.00  0.00     0.020 A 
ATOM     64  C   UNL     1      -9.123  16.643  -2.616  1.00  0.00     0.054 A 
BRANCH  64  65
ATOM     65  S   UNL     1     -10.554  17.199  -1.650  1.00  0.00     0.124 S 
ATOM     66  O   UNL     1     -11.387  15.999  -1.631  1.00  0.00    -0.237 OA
ATOM     67  O   UNL     1      -9.956  17.568  -0.370  1.00  0.00    -0.237 OA
ATOM     68  O   UNL     1     -11.087  18.314  -2.429  1.00  0.00    -0.744 OA
ENDBRANCH  64  65
ENDBRANCH  45  59
BRANCH  46  69
ATOM     69  C   UNL     1       0.570  12.037  -9.561  1.00  0.00    -0.014 A 
ATOM     70  C   UNL     1       1.855  11.892  -9.010  1.00  0.00     0.010 A 
ATOM     71  C   UNL     1       0.346  11.639 -10.892  1.00  0.00     0.010 A 
ATOM     72  C   UNL     1       2.898  11.364  -9.777  1.00  0.00     0.020 A 
ATOM     73  C   UNL     1       1.380  11.088 -11.654  1.00  0.00     0.020 A 
ATOM     74  C   UNL     1       2.653  10.963 -11.094  1.00  0.00     0.054 A 
BRANCH  74  75
ATOM     75  S   UNL     1       4.004  10.220 -12.051  1.00  0.00     0.124 S 
ATOM     76  O   UNL     1       4.812  11.386 -12.391  1.00  0.00    -0.237 OA
ATOM     77  O   UNL     1       4.601   9.294 -11.091  1.00  0.00    -0.237 OA
ATOM     78  O   UNL     1       3.318   9.584 -13.173  1.00  0.00    -0.744 OA
ENDBRANCH  74  75
ENDBRANCH  46  69
BRANCH  58  79
ATOM     79  C   UNL     1      -0.880  18.378  -7.043  1.00  0.00    -0.014 A 
ATOM     80  C   UNL     1      -0.875  19.131  -8.230  1.00  0.00     0.010 A 
ATOM     81  C   UNL     1      -0.239  18.893  -5.901  1.00  0.00     0.010 A 
ATOM     82  C   UNL     1      -0.216  20.363  -8.283  1.00  0.00     0.020 A 
ATOM     83  C   UNL     1       0.401  20.135  -5.943  1.00  0.00     0.020 A 
ATOM     84  C   UNL     1       0.420  20.856  -7.139  1.00  0.00     0.054 A 
BRANCH  84  85
ATOM     85  S   UNL     1       1.233  22.476  -7.219  1.00  0.00     0.124 S 
ATOM     86  O   UNL     1       2.457  22.166  -7.952  1.00  0.00    -0.237 OA
ATOM     87  O   UNL     1       0.258  23.291  -7.939  1.00  0.00    -0.237 OA
ATOM     88  O   UNL     1       1.421  22.838  -5.816  1.00  0.00    -0.744 OA
ENDBRANCH  84  85
ENDBRANCH  58  79
ENDBRANCH  32  33
ENDBRANCH  25  27
ENDBRANCH  24  25
ENDBRANCH  23  24
ENDBRANCH   1  23
TORSDOF 18
