REMARK SMILES Cc1cc(/C=C2\C(=O)N(Cc3ccco3)C(=O)N=C2OCCOC(=O)c2ccc(-c3c4nc(c(-c5ccc(S(=O)(=O)[O-])cc5)c5ccc([nH]5)c(-c5ccc(S(=O)(=O)[O-])cc5)c5nc(c(-c6ccc(S(=O)(=O)[O-])cc6)c6ccc3[nH]6)C=C5)C=C4)cc2)c(C)n1-c1ccc(Cl)c(C(=O)[O-])c1
REMARK SMILES IDX 22 1 21 2 20 3 19 4 5 5 6 6 7 7 8 8 9 9 18 10 16 11 17 12
REMARK SMILES IDX 4 13 1 14 2 15 3 16 88 17 86 18 87 19 89 20 90 21 98 22
REMARK SMILES IDX 91 23 94 24 92 25 93 26 95 27 96 28 97 29 10 30 11 31 12 32
REMARK SMILES IDX 15 33 13 34 14 35 23 36 24 37 25 38 26 39 27 40 85 41 28 42
REMARK SMILES IDX 84 43 29 44 30 45 31 46 78 47 32 48 83 49 77 50 79 51 33 52
REMARK SMILES IDX 82 53 76 54 75 55 34 57 64 58 45 59 63 60 46 61 49 62 62 63
REMARK SMILES IDX 80 64 47 65 48 66 61 68 81 69 50 70 35 71 36 72 44 73 37 74
REMARK SMILES IDX 43 75 38 76 39 77 40 78 41 79 42 80 65 81 66 82 74 83 67 84
REMARK SMILES IDX 73 85 68 86 69 87 70 88 71 89 72 90 51 91 52 92 60 93 53 94
REMARK SMILES IDX 59 95 54 96 55 97 56 98 57 99 58 100
REMARK H PARENT 79 56 49 67
REMARK Flexibility Score: inf
ROOT
ATOM      1  C   UNL     1       0.808  -9.985   2.760  1.00  0.00     0.274 C 
ENDROOT
BRANCH   1   2
ATOM      2  C   UNL     1       0.955  -9.735   1.200  1.00  0.00     0.273 C 
BRANCH   2   3
ATOM      3  O   UNL     1       1.071  -8.287   0.828  1.00  0.00    -0.473 OA
BRANCH   3   4
ATOM      4  C   UNL     1      -0.122  -7.659   0.733  1.00  0.00     0.231 C 
ATOM      5  C   UNL     1       0.407  -5.206   0.314  1.00  0.00     0.029 C 
ATOM      6  C   UNL     1      -0.207  -6.210   0.994  1.00  0.00     0.103 C 
ATOM      7  C   UNL     1      -1.287  -5.970   1.974  1.00  0.00     0.267 C 
ATOM      8  O   UNL     1      -1.140  -5.196   2.911  1.00  0.00    -0.268 OA
ATOM      9  N   UNL     1      -2.417  -6.750   1.738  1.00  0.00    -0.250 N 
ATOM     10  N   UNL     1      -1.152  -8.418   0.641  1.00  0.00    -0.156 NA
ATOM     11  C   UNL     1      -2.333  -7.995   1.132  1.00  0.00     0.354 C 
ATOM     12  O   UNL     1      -3.247  -8.826   1.144  1.00  0.00    -0.245 OA
BRANCH   5  13
ATOM     13  C   UNL     1       0.223  -3.753   0.380  1.00  0.00    -0.003 A 
ATOM     14  C   UNL     1       1.254  -0.149  -0.094  1.00  0.00     0.065 C 
ATOM     15  C   UNL     1       0.658  -1.493   0.167  1.00  0.00     0.020 A 
ATOM     16  C   UNL     1       1.184  -2.767  -0.033  1.00  0.00     0.031 A 
ATOM     17  N   UNL     1      -0.569  -1.668   0.773  1.00  0.00    -0.318 N 
ATOM     18  C   UNL     1      -0.916  -3.017   0.694  1.00  0.00     0.027 A 
ATOM     19  C   UNL     1      -2.345  -3.403   0.899  1.00  0.00     0.065 C 
BRANCH  17  20
ATOM     20  C   UNL     1      -1.439  -0.665   1.284  1.00  0.00     0.046 A 
ATOM     21  C   UNL     1      -1.845  -0.759   2.618  1.00  0.00     0.028 A 
ATOM     22  C   UNL     1      -2.083   0.211   0.403  1.00  0.00     0.038 A 
ATOM     23  C   UNL     1      -2.921   0.005   3.066  1.00  0.00     0.023 A 
ATOM     24  C   UNL     1      -3.204   0.951   0.840  1.00  0.00     0.018 A 
ATOM     25  C   UNL     1      -3.618   0.840   2.181  1.00  0.00     0.050 A 
ATOM     26  Cl  UNL     1      -5.002   1.643   2.838  1.00  0.00    -0.084 Cl
BRANCH  24  27
ATOM     27  C   UNL     1      -3.973   1.760  -0.149  1.00  0.00     0.073 C 
ATOM     28  O   UNL     1      -4.970   2.438   0.029  1.00  0.00    -0.545 OA
ATOM     29  O   UNL     1      -3.462   1.670  -1.393  1.00  0.00    -0.545 OA
ENDBRANCH  24  27
ENDBRANCH  17  20
ENDBRANCH   5  13
BRANCH   9  30
ATOM     30  C   UNL     1      -3.603  -6.439   2.520  1.00  0.00     0.206 C 
BRANCH  30  31
ATOM     31  C   UNL     1      -4.865  -6.647   1.749  1.00  0.00     0.123 A 
ATOM     32  C   UNL     1      -5.701  -7.740   1.613  1.00  0.00     0.047 A 
ATOM     33  O   UNL     1      -5.336  -5.611   0.994  1.00  0.00    -0.467 OA
ATOM     34  C   UNL     1      -6.704  -7.376   0.694  1.00  0.00     0.042 A 
ATOM     35  C   UNL     1      -6.460  -6.062   0.371  1.00  0.00     0.195 A 
ENDBRANCH  30  31
ENDBRANCH   9  30
ENDBRANCH   3   4
ENDBRANCH   2   3
ENDBRANCH   1   2
BRANCH   1  36
ATOM     36  O   UNL     1      -0.255 -10.881   3.340  1.00  0.00    -0.458 OA
BRANCH  36  37
ATOM     37  C   UNL     1      -1.004 -10.389   4.412  1.00  0.00     0.338 C 
ATOM     38  O   UNL     1      -1.102  -9.178   4.594  1.00  0.00    -0.246 OA
BRANCH  37  39
ATOM     39  C   UNL     1      -1.816 -11.379   5.342  1.00  0.00     0.060 A 
ATOM     40  C   UNL     1      -3.202 -11.254   5.411  1.00  0.00     0.016 A 
ATOM     41  C   UNL     1      -1.314 -12.207   6.380  1.00  0.00     0.016 A 
ATOM     42  C   UNL     1      -4.022 -11.974   6.387  1.00  0.00     0.010 A 
ATOM     43  C   UNL     1      -2.163 -12.901   7.425  1.00  0.00     0.010 A 
ATOM     44  C   UNL     1      -3.572 -12.828   7.472  1.00  0.00    -0.014 A 
BRANCH  44  45
ATOM     45  C   UNL     1      -4.678 -13.178   8.719  1.00  0.00     0.031 A 
ATOM     46  C   UNL     1      -5.433 -11.896   8.800  1.00  0.00     0.074 A 
ATOM     47  C   UNL     1      -5.097 -14.072   9.746  1.00  0.00     0.049 A 
ATOM     48  N   UNL     1      -4.781 -10.795   9.032  1.00  0.00    -0.248 NA
ATOM     49  C   UNL     1      -6.781 -11.707   8.261  1.00  0.00     0.031 C 
ATOM     50  C   UNL     1      -4.473 -15.341  10.177  1.00  0.00     0.029 A 
ATOM     51  N   UNL     1      -6.217 -14.069  10.695  1.00  0.00    -0.354 N 
ATOM     52  C   UNL     1      -5.697  -9.781   8.968  1.00  0.00     0.074 A 
ATOM     53  C   UNL     1      -6.835 -10.369   8.271  1.00  0.00     0.031 C 
ATOM     54  C   UNL     1      -5.222 -16.018  11.107  1.00  0.00     0.029 A 
ATOM     55  C   UNL     1      -6.432 -15.283  11.493  1.00  0.00     0.049 A 
ATOM     56  H   UNL     1      -6.801 -13.283  10.793  1.00  0.00     0.167 HD
ATOM     57  C   UNL     1      -5.692  -8.906  10.014  1.00  0.00     0.031 A 
ATOM     58  C   UNL     1      -7.412 -15.655  12.444  1.00  0.00     0.031 A 
ATOM     59  C   UNL     1      -6.789  -9.149  10.915  1.00  0.00     0.049 A 
ATOM     60  C   UNL     1      -7.926 -14.402  13.017  1.00  0.00     0.074 A 
ATOM     61  C   UNL     1      -8.125  -9.445  10.726  1.00  0.00     0.029 A 
ATOM     62  N   UNL     1      -6.460  -9.585  12.183  1.00  0.00    -0.354 N 
ATOM     63  N   UNL     1      -7.252 -13.745  13.910  1.00  0.00    -0.248 NA
ATOM     64  C   UNL     1      -9.268 -13.893  12.751  1.00  0.00     0.031 C 
ATOM     65  C   UNL     1      -8.387 -10.496  11.632  1.00  0.00     0.029 A 
ATOM     66  C   UNL     1      -7.363 -10.553  12.569  1.00  0.00     0.049 A 
ATOM     67  H   UNL     1      -5.704  -9.259  12.724  1.00  0.00     0.167 HD
ATOM     68  C   UNL     1      -7.817 -12.508  13.861  1.00  0.00     0.074 A 
ATOM     69  C   UNL     1      -9.174 -12.726  13.392  1.00  0.00     0.031 C 
ATOM     70  C   UNL     1      -6.979 -11.471  13.613  1.00  0.00     0.031 A 
BRANCH  57  71
ATOM     71  C   UNL     1      -4.318  -8.486  10.485  1.00  0.00    -0.014 A 
ATOM     72  C   UNL     1      -3.916  -7.154  10.330  1.00  0.00     0.010 A 
ATOM     73  C   UNL     1      -3.382  -9.415  10.998  1.00  0.00     0.010 A 
ATOM     74  C   UNL     1      -2.595  -6.780  10.611  1.00  0.00     0.020 A 
ATOM     75  C   UNL     1      -2.056  -9.057  11.246  1.00  0.00     0.020 A 
ATOM     76  C   UNL     1      -1.667  -7.738  11.041  1.00  0.00     0.054 A 
BRANCH  76  77
ATOM     77  S   UNL     1       0.067  -7.246  11.242  1.00  0.00     0.124 S 
ATOM     78  O   UNL     1       0.318  -6.468  10.029  1.00  0.00    -0.237 OA
ATOM     79  O   UNL     1       0.024  -6.466  12.475  1.00  0.00    -0.237 OA
ATOM     80  O   UNL     1       0.792  -8.512  11.307  1.00  0.00    -0.744 OA
ENDBRANCH  76  77
ENDBRANCH  57  71
BRANCH  58  81
ATOM     81  C   UNL     1      -8.051 -16.832  13.325  1.00  0.00    -0.014 A 
ATOM     82  C   UNL     1      -8.555 -16.560  14.656  1.00  0.00     0.010 A 
ATOM     83  C   UNL     1      -8.562 -18.028  12.786  1.00  0.00     0.010 A 
ATOM     84  C   UNL     1      -9.552 -17.328  15.329  1.00  0.00     0.020 A 
ATOM     85  C   UNL     1      -9.550 -18.830  13.470  1.00  0.00     0.020 A 
ATOM     86  C   UNL     1     -10.071 -18.457  14.717  1.00  0.00     0.054 A 
BRANCH  86  87
ATOM     87  S   UNL     1     -11.502 -19.331  15.485  1.00  0.00     0.124 S 
ATOM     88  O   UNL     1     -10.931 -19.901  16.702  1.00  0.00    -0.237 OA
ATOM     89  O   UNL     1     -12.469 -18.255  15.694  1.00  0.00    -0.237 OA
ATOM     90  O   UNL     1     -11.893 -20.309  14.471  1.00  0.00    -0.744 OA
ENDBRANCH  86  87
ENDBRANCH  58  81
BRANCH  70  91
ATOM     91  C   UNL     1      -5.596 -11.531  14.243  1.00  0.00    -0.014 A 
ATOM     92  C   UNL     1      -4.712 -12.631  14.141  1.00  0.00     0.010 A 
ATOM     93  C   UNL     1      -5.180 -10.441  15.026  1.00  0.00     0.010 A 
ATOM     94  C   UNL     1      -3.508 -12.680  14.857  1.00  0.00     0.020 A 
ATOM     95  C   UNL     1      -3.956 -10.462  15.709  1.00  0.00     0.020 A 
ATOM     96  C   UNL     1      -3.144 -11.596  15.651  1.00  0.00     0.054 A 
BRANCH  96  97
ATOM     97  S   UNL     1      -1.613 -11.690  16.621  1.00  0.00     0.124 S 
ATOM     98  O   UNL     1      -1.982 -12.617  17.690  1.00  0.00    -0.237 OA
ATOM     99  O   UNL     1      -0.646 -12.210  15.658  1.00  0.00    -0.237 OA
ATOM    100  O   UNL     1      -1.395 -10.312  17.055  1.00  0.00    -0.744 OA
ENDBRANCH  96  97
ENDBRANCH  70  91
ENDBRANCH  44  45
ENDBRANCH  37  39
ENDBRANCH  36  37
ENDBRANCH   1  36
TORSDOF 18
