REMARK SMILES O=C(COc1ccc(-c2cc3cc(Br)ccc3oc2=O)cc1)OCCOC(=O)c1ccc(-c2c3nc(c(-c4ccc(S(=O)(=O)[O-])cc4)c4ccc([nH]4)c(-c4ccc(S(=O)(=O)[O-])cc4)c4nc(c(-c5ccc(S(=O)(=O)[O-])cc5)c5ccc2[nH]5)C=C4)C=C3)cc1
REMARK SMILES IDX 24 1 23 2 2 3 1 4 3 5 4 6 5 7 6 8 22 9 7 10 21 11 8 12 9 13
REMARK SMILES IDX 10 14 19 15 11 16 18 17 20 18 12 19 17 20 13 21 16 22 14 23
REMARK SMILES IDX 15 24 25 25 26 26 27 27 28 28 29 29 30 30 88 31 31 32 87 33
REMARK SMILES IDX 32 34 33 35 34 36 81 37 35 38 86 39 80 40 82 41 36 42 85 43
REMARK SMILES IDX 79 44 78 45 37 47 67 48 48 49 66 50 49 51 52 52 65 53 83 54
REMARK SMILES IDX 50 55 51 56 64 58 84 59 53 60 38 61 39 62 47 63 40 64 46 65
REMARK SMILES IDX 41 66 42 67 43 68 44 69 45 70 68 71 69 72 77 73 70 74 76 75
REMARK SMILES IDX 71 76 72 77 73 78 74 79 75 80 54 81 55 82 63 83 56 84 62 85
REMARK SMILES IDX 57 86 58 87 59 88 60 89 61 90
REMARK H PARENT 82 46 52 57
REMARK Flexibility Score: inf
ROOT
ATOM      1  C   UNL     1       4.795  -0.961  -0.513  1.00  0.00     0.274 C 
ENDROOT
BRANCH   1   2
ATOM      2  O   UNL     1       3.519  -0.922   0.153  1.00  0.00    -0.460 OA
BRANCH   2   3
ATOM      3  C   UNL     1       2.688   0.144   0.075  1.00  0.00     0.344 C 
ATOM      4  O   UNL     1       1.473  -0.025   0.169  1.00  0.00    -0.248 OA
BRANCH   3   5
ATOM      5  C   UNL     1       3.294   1.544  -0.094  1.00  0.00     0.351 C 
BRANCH   5   6
ATOM      6  O   UNL     1       3.987   2.100   1.004  1.00  0.00    -0.482 OA
BRANCH   6   7
ATOM      7  C   UNL     1       3.220   2.722   1.949  1.00  0.00     0.120 A 
ATOM      8  C   UNL     1       3.911   3.580   2.800  1.00  0.00     0.047 A 
ATOM      9  C   UNL     1       1.862   2.507   2.161  1.00  0.00     0.047 A 
ATOM     10  C   UNL     1       3.294   4.076   3.950  1.00  0.00     0.013 A 
ATOM     11  C   UNL     1       1.238   3.020   3.296  1.00  0.00     0.013 A 
ATOM     12  C   UNL     1       1.984   3.694   4.268  1.00  0.00    -0.011 A 
BRANCH  12  13
ATOM     13  C   UNL     1       1.554   3.781   5.702  1.00  0.00     0.068 A 
ATOM     14  C   UNL     1       0.308   3.484   6.150  1.00  0.00     0.028 A 
ATOM     15  C   UNL     1       2.505   3.020   6.603  1.00  0.00     0.344 A 
ATOM     16  C   UNL     1      -0.013   2.049   5.973  1.00  0.00     0.019 A 
ATOM     17  O   UNL     1       2.309   1.627   6.548  1.00  0.00    -0.422 OA
ATOM     18  O   UNL     1       3.414   3.545   7.231  1.00  0.00    -0.246 OA
ATOM     19  C   UNL     1      -1.264   1.592   5.569  1.00  0.00     0.027 A 
ATOM     20  C   UNL     1       1.061   1.152   6.082  1.00  0.00     0.138 A 
ATOM     21  C   UNL     1      -1.399   0.250   5.206  1.00  0.00     0.018 A 
ATOM     22  C   UNL     1       0.934  -0.179   5.709  1.00  0.00     0.049 A 
ATOM     23  Br  UNL     1      -3.075  -0.382   4.597  1.00  0.00    -0.051 Br
ATOM     24  C   UNL     1      -0.307  -0.627   5.251  1.00  0.00     0.019 A 
ENDBRANCH  12  13
ENDBRANCH   6   7
ENDBRANCH   5   6
ENDBRANCH   3   5
ENDBRANCH   2   3
ENDBRANCH   1   2
BRANCH   1  25
ATOM     25  C   UNL     1       4.629  -1.239  -2.013  1.00  0.00     0.275 C 
BRANCH  25  26
ATOM     26  O   UNL     1       4.114  -0.068  -2.679  1.00  0.00    -0.458 OA
BRANCH  26  27
ATOM     27  C   UNL     1       2.821  -0.112  -3.099  1.00  0.00     0.338 C 
ATOM     28  O   UNL     1       2.090  -1.079  -3.095  1.00  0.00    -0.246 OA
BRANCH  27  29
ATOM     29  C   UNL     1       2.373   1.283  -3.356  1.00  0.00     0.060 A 
ATOM     30  C   UNL     1       1.117   1.682  -2.878  1.00  0.00     0.016 A 
ATOM     31  C   UNL     1       3.208   2.213  -3.982  1.00  0.00     0.016 A 
ATOM     32  C   UNL     1       0.699   3.011  -3.022  1.00  0.00     0.010 A 
ATOM     33  C   UNL     1       2.782   3.536  -4.139  1.00  0.00     0.010 A 
ATOM     34  C   UNL     1       1.522   3.943  -3.669  1.00  0.00    -0.014 A 
BRANCH  34  35
ATOM     35  C   UNL     1       1.037   5.316  -3.964  1.00  0.00     0.031 A 
ATOM     36  C   UNL     1       0.403   5.591  -5.301  1.00  0.00     0.074 A 
ATOM     37  C   UNL     1       1.193   6.319  -3.079  1.00  0.00     0.049 A 
ATOM     38  N   UNL     1      -0.030   6.723  -5.793  1.00  0.00    -0.248 NA
ATOM     39  C   UNL     1       0.237   4.438  -6.201  1.00  0.00     0.031 C 
ATOM     40  C   UNL     1       1.771   6.192  -1.742  1.00  0.00     0.029 A 
ATOM     41  N   UNL     1       0.891   7.656  -3.189  1.00  0.00    -0.354 N 
ATOM     42  C   UNL     1      -0.520   6.422  -7.057  1.00  0.00     0.074 A 
ATOM     43  C   UNL     1      -0.312   5.005  -7.266  1.00  0.00     0.031 C 
ATOM     44  C   UNL     1       1.802   7.408  -1.164  1.00  0.00     0.029 A 
ATOM     45  C   UNL     1       1.272   8.401  -2.097  1.00  0.00     0.049 A 
ATOM     46  H   UNL     1       0.443   8.043  -3.975  1.00  0.00     0.167 HD
ATOM     47  C   UNL     1      -1.095   7.247  -7.963  1.00  0.00     0.031 A 
ATOM     48  C   UNL     1       1.222   9.732  -1.885  1.00  0.00     0.031 A 
ATOM     49  C   UNL     1      -1.289   8.659  -7.775  1.00  0.00     0.049 A 
ATOM     50  C   UNL     1       0.657  10.642  -2.949  1.00  0.00     0.074 A 
ATOM     51  C   UNL     1      -1.898   9.562  -8.629  1.00  0.00     0.029 A 
ATOM     52  N   UNL     1      -0.863   9.378  -6.671  1.00  0.00    -0.354 N 
ATOM     53  N   UNL     1       0.139  10.330  -4.112  1.00  0.00    -0.248 NA
ATOM     54  C   UNL     1       0.672  12.086  -2.667  1.00  0.00     0.031 C 
ATOM     55  C   UNL     1      -1.789  10.838  -8.067  1.00  0.00     0.029 A 
ATOM     56  C   UNL     1      -1.159  10.720  -6.840  1.00  0.00     0.049 A 
ATOM     57  H   UNL     1      -0.415   8.992  -5.883  1.00  0.00     0.167 HD
ATOM     58  C   UNL     1      -0.254  11.536  -4.688  1.00  0.00     0.074 A 
ATOM     59  C   UNL     1       0.072  12.580  -3.741  1.00  0.00     0.031 C 
ATOM     60  C   UNL     1      -0.831  11.756  -5.894  1.00  0.00     0.031 A 
BRANCH  47  61
ATOM     61  C   UNL     1      -1.542   6.646  -9.266  1.00  0.00    -0.014 A 
ATOM     62  C   UNL     1      -2.711   5.868  -9.338  1.00  0.00     0.010 A 
ATOM     63  C   UNL     1      -0.823   6.922 -10.442  1.00  0.00     0.010 A 
ATOM     64  C   UNL     1      -3.143   5.360 -10.566  1.00  0.00     0.020 A 
ATOM     65  C   UNL     1      -1.263   6.432 -11.674  1.00  0.00     0.020 A 
ATOM     66  C   UNL     1      -2.416   5.646 -11.726  1.00  0.00     0.054 A 
BRANCH  66  67
ATOM     67  S   UNL     1      -3.027   5.013 -13.312  1.00  0.00     0.124 S 
ATOM     68  O   UNL     1      -2.705   3.592 -13.213  1.00  0.00    -0.237 OA
ATOM     69  O   UNL     1      -4.449   5.340 -13.262  1.00  0.00    -0.237 OA
ATOM     70  O   UNL     1      -2.254   5.758 -14.303  1.00  0.00    -0.744 OA
ENDBRANCH  66  67
ENDBRANCH  47  61
BRANCH  48  71
ATOM     71  C   UNL     1       1.764  10.314  -0.626  1.00  0.00    -0.014 A 
ATOM     72  C   UNL     1       0.906  10.896   0.324  1.00  0.00     0.010 A 
ATOM     73  C   UNL     1       3.152  10.339  -0.399  1.00  0.00     0.010 A 
ATOM     74  C   UNL     1       1.428  11.521   1.461  1.00  0.00     0.020 A 
ATOM     75  C   UNL     1       3.676  10.939   0.749  1.00  0.00     0.020 A 
ATOM     76  C   UNL     1       2.811  11.543   1.663  1.00  0.00     0.054 A 
BRANCH  76  77
ATOM     77  S   UNL     1       3.470  12.344   3.152  1.00  0.00     0.124 S 
ATOM     78  O   UNL     1       3.367  13.758   2.805  1.00  0.00    -0.237 OA
ATOM     79  O   UNL     1       2.558  11.879   4.194  1.00  0.00    -0.237 OA
ATOM     80  O   UNL     1       4.830  11.819   3.246  1.00  0.00    -0.744 OA
ENDBRANCH  76  77
ENDBRANCH  48  71
BRANCH  60  81
ATOM     81  C   UNL     1      -1.173  13.176  -6.261  1.00  0.00    -0.014 A 
ATOM     82  C   UNL     1      -0.170  14.093  -6.623  1.00  0.00     0.010 A 
ATOM     83  C   UNL     1      -2.520  13.581  -6.308  1.00  0.00     0.010 A 
ATOM     84  C   UNL     1      -0.507  15.396  -7.002  1.00  0.00     0.020 A 
ATOM     85  C   UNL     1      -2.862  14.876  -6.710  1.00  0.00     0.020 A 
ATOM     86  C   UNL     1      -1.851  15.780  -7.043  1.00  0.00     0.054 A 
BRANCH  86  87
ATOM     87  S   UNL     1      -2.266  17.459  -7.590  1.00  0.00     0.124 S 
ATOM     88  O   UNL     1      -1.912  18.256  -6.419  1.00  0.00    -0.237 OA
ATOM     89  O   UNL     1      -1.407  17.641  -8.757  1.00  0.00    -0.237 OA
ATOM     90  O   UNL     1      -3.696  17.384  -7.883  1.00  0.00    -0.744 OA
ENDBRANCH  86  87
ENDBRANCH  60  81
ENDBRANCH  34  35
ENDBRANCH  27  29
ENDBRANCH  26  27
ENDBRANCH  25  26
ENDBRANCH   1  25
TORSDOF 17
