REMARK SMILES Cc1ccc(-c2cc(Cl)cc3c2O[C@H](C(F)(F)F)C(C(=O)OCCOC(=O)c2ccc(-c4c5nc(c(-c6ccc(S(=O)(=O)[O-])cc6)c6ccc([nH]6)c(-c6ccc(S(=O)(=O)[O-])cc6)c6nc(c(-c7ccc(S(=O)(=O)[O-])cc7)c7ccc4[nH]7)C=C6)C=C5)cc2)=C3)cc1F
REMARK SMILES IDX 24 1 23 2 22 3 20 4 21 5 19 6 6 7 7 8 12 9 8 10 11 11 13 12
REMARK SMILES IDX 9 13 10 14 88 15 14 16 5 17 1 18 2 19 3 20 90 21 4 22 89 23
REMARK SMILES IDX 91 24 15 25 16 26 17 27 18 28 25 29 26 30 27 31 28 32 29 33
REMARK SMILES IDX 87 34 30 35 86 36 31 37 32 38 33 39 80 40 34 41 85 42 79 43
REMARK SMILES IDX 81 44 35 45 84 46 78 47 77 48 36 50 66 51 47 52 65 53 48 54
REMARK SMILES IDX 51 55 64 56 82 57 49 58 50 59 63 61 83 62 52 63 37 64 38 65
REMARK SMILES IDX 46 66 39 67 45 68 40 69 41 70 42 71 43 72 44 73 67 74 68 75
REMARK SMILES IDX 76 76 69 77 75 78 70 79 71 80 72 81 73 82 74 83 53 84 54 85
REMARK SMILES IDX 62 86 55 87 61 88 56 89 57 90 58 91 59 92 60 93
REMARK H PARENT 81 49 51 60
REMARK Flexibility Score: inf
ROOT
ATOM      1  C   UNL     1      -4.242  -6.047   7.140  1.00  0.00     0.275 C 
ENDROOT
BRANCH   1   2
ATOM      2  C   UNL     1      -2.945  -6.159   6.335  1.00  0.00     0.275 C 
BRANCH   2   3
ATOM      3  O   UNL     1      -2.885  -5.169   5.284  1.00  0.00    -0.459 OA
BRANCH   3   4
ATOM      4  C   UNL     1      -3.096  -5.631   4.029  1.00  0.00     0.338 C 
ATOM      5  O   UNL     1      -3.300  -6.791   3.706  1.00  0.00    -0.246 OA
BRANCH   4   6
ATOM      6  C   UNL     1      -3.077  -4.520   3.057  1.00  0.00     0.087 C 
ATOM      7  C   UNL     1      -2.794  -1.621   0.037  1.00  0.00     0.026 A 
ATOM      8  C   UNL     1      -3.781  -1.599  -0.966  1.00  0.00     0.033 A 
ATOM      9  C   UNL     1      -2.917  -2.550   1.089  1.00  0.00     0.135 A 
ATOM     10  C   UNL     1      -4.862  -2.476  -0.919  1.00  0.00     0.042 A 
ATOM     11  C   UNL     1      -3.980  -3.452   1.101  1.00  0.00     0.019 A 
ATOM     12  O   UNL     1      -1.985  -2.502   2.095  1.00  0.00    -0.475 OA
ATOM     13  Cl  UNL     1      -6.060  -2.426  -2.151  1.00  0.00    -0.084 Cl
ATOM     14  C   UNL     1      -4.965  -3.404   0.109  1.00  0.00     0.032 A 
ATOM     15  C   UNL     1      -4.038  -4.470   2.128  1.00  0.00     0.027 C 
ATOM     16  C   UNL     1      -1.910  -3.580   3.065  1.00  0.00     0.316 C 
BRANCH   7  17
ATOM     17  C   UNL     1      -1.649  -0.706  -0.040  1.00  0.00    -0.012 A 
ATOM     18  C   UNL     1       1.753   1.949  -0.033  1.00  0.00     0.047 C 
ATOM     19  C   UNL     1       0.562   1.045  -0.065  1.00  0.00    -0.015 A 
ATOM     20  C   UNL     1      -0.740   1.553  -0.042  1.00  0.00     0.007 A 
ATOM     21  C   UNL     1       0.744  -0.338  -0.097  1.00  0.00     0.126 A 
ATOM     22  C   UNL     1      -1.835   0.685  -0.031  1.00  0.00     0.009 A 
ATOM     23  C   UNL     1      -0.340  -1.207  -0.092  1.00  0.00     0.048 A 
ATOM     24  F   UNL     1       1.984  -0.848  -0.118  1.00  0.00    -0.207 F 
ENDBRANCH   7  17
BRANCH  16  25
ATOM     25  C   UNL     1      -0.589  -4.337   2.855  1.00  0.00     0.430 C 
ATOM     26  F   UNL     1       0.469  -3.490   2.842  1.00  0.00    -0.167 F 
ATOM     27  F   UNL     1      -0.356  -5.226   3.850  1.00  0.00    -0.167 F 
ATOM     28  F   UNL     1      -0.573  -5.020   1.687  1.00  0.00    -0.167 F 
ENDBRANCH  16  25
ENDBRANCH   4   6
ENDBRANCH   3   4
ENDBRANCH   2   3
ENDBRANCH   1   2
BRANCH   1  29
ATOM     29  O   UNL     1      -5.374  -6.448   6.348  1.00  0.00    -0.458 OA
BRANCH  29  30
ATOM     30  C   UNL     1      -6.086  -5.431   5.812  1.00  0.00     0.338 C 
ATOM     31  O   UNL     1      -5.892  -4.236   5.952  1.00  0.00    -0.246 OA
BRANCH  30  32
ATOM     32  C   UNL     1      -7.085  -5.969   4.880  1.00  0.00     0.060 A 
ATOM     33  C   UNL     1      -8.437  -6.025   5.186  1.00  0.00     0.016 A 
ATOM     34  C   UNL     1      -6.654  -6.274   3.597  1.00  0.00     0.016 A 
ATOM     35  C   UNL     1      -9.341  -6.408   4.185  1.00  0.00     0.010 A 
ATOM     36  C   UNL     1      -7.562  -6.471   2.567  1.00  0.00     0.010 A 
ATOM     37  C   UNL     1      -8.922  -6.596   2.850  1.00  0.00    -0.014 A 
BRANCH  37  38
ATOM     38  C   UNL     1      -9.874  -6.949   1.755  1.00  0.00     0.031 A 
ATOM     39  C   UNL     1      -9.629  -8.158   0.875  1.00  0.00     0.074 A 
ATOM     40  C   UNL     1     -10.949  -6.164   1.524  1.00  0.00     0.049 A 
ATOM     41  N   UNL     1     -10.354  -8.614  -0.116  1.00  0.00    -0.248 NA
ATOM     42  C   UNL     1      -8.397  -8.937   1.102  1.00  0.00     0.031 C 
ATOM     43  C   UNL     1     -11.256  -4.923   2.239  1.00  0.00     0.029 A 
ATOM     44  N   UNL     1     -11.997  -6.303   0.646  1.00  0.00    -0.354 N 
ATOM     45  C   UNL     1      -9.660  -9.706  -0.628  1.00  0.00     0.074 A 
ATOM     46  C   UNL     1      -8.413  -9.792   0.090  1.00  0.00     0.031 C 
ATOM     47  C   UNL     1     -12.456  -4.471   1.845  1.00  0.00     0.029 A 
ATOM     48  C   UNL     1     -12.980  -5.350   0.805  1.00  0.00     0.049 A 
ATOM     49  H   UNL     1     -12.042  -7.015  -0.032  1.00  0.00     0.167 HD
ATOM     50  C   UNL     1     -10.047 -10.599  -1.569  1.00  0.00     0.031 A 
ATOM     51  C   UNL     1     -14.179  -5.207   0.202  1.00  0.00     0.031 A 
ATOM     52  C   UNL     1     -11.321 -10.550  -2.233  1.00  0.00     0.049 A 
ATOM     53  C   UNL     1     -14.603  -6.222  -0.823  1.00  0.00     0.074 A 
ATOM     54  C   UNL     1     -11.841 -11.447  -3.148  1.00  0.00     0.029 A 
ATOM     55  N   UNL     1     -12.280  -9.569  -2.039  1.00  0.00    -0.354 N 
ATOM     56  N   UNL     1     -13.961  -7.290  -1.234  1.00  0.00    -0.248 NA
ATOM     57  C   UNL     1     -15.914  -6.027  -1.459  1.00  0.00     0.031 C 
ATOM     58  C   UNL     1     -13.089 -10.974  -3.556  1.00  0.00     0.029 A 
ATOM     59  C   UNL     1     -13.382  -9.827  -2.834  1.00  0.00     0.049 A 
ATOM     60  H   UNL     1     -12.191  -8.803  -1.427  1.00  0.00     0.167 HD
ATOM     61  C   UNL     1     -14.797  -7.905  -2.159  1.00  0.00     0.074 A 
ATOM     62  C   UNL     1     -16.000  -7.102  -2.234  1.00  0.00     0.031 C 
ATOM     63  C   UNL     1     -14.582  -9.029  -2.884  1.00  0.00     0.031 A 
BRANCH  50  64
ATOM     64  C   UNL     1      -9.128 -11.753  -1.895  1.00  0.00    -0.014 A 
ATOM     65  C   UNL     1      -8.618 -11.906  -3.197  1.00  0.00     0.010 A 
ATOM     66  C   UNL     1      -8.878 -12.761  -0.945  1.00  0.00     0.010 A 
ATOM     67  C   UNL     1      -7.913 -13.061  -3.554  1.00  0.00     0.020 A 
ATOM     68  C   UNL     1      -8.142 -13.899  -1.286  1.00  0.00     0.020 A 
ATOM     69  C   UNL     1      -7.690 -14.055  -2.598  1.00  0.00     0.054 A 
BRANCH  69  70
ATOM     70  S   UNL     1      -6.821 -15.569  -3.091  1.00  0.00     0.124 S 
ATOM     71  O   UNL     1      -7.826 -16.252  -3.899  1.00  0.00    -0.237 OA
ATOM     72  O   UNL     1      -5.667 -15.051  -3.821  1.00  0.00    -0.237 OA
ATOM     73  O   UNL     1      -6.502 -16.211  -1.817  1.00  0.00    -0.744 OA
ENDBRANCH  69  70
ENDBRANCH  50  64
BRANCH  51  74
ATOM     74  C   UNL     1     -15.084  -4.101   0.631  1.00  0.00    -0.014 A 
ATOM     75  C   UNL     1     -14.734  -2.755   0.411  1.00  0.00     0.010 A 
ATOM     76  C   UNL     1     -16.258  -4.387   1.351  1.00  0.00     0.010 A 
ATOM     77  C   UNL     1     -15.501  -1.722   0.958  1.00  0.00     0.020 A 
ATOM     78  C   UNL     1     -17.048  -3.355   1.870  1.00  0.00     0.020 A 
ATOM     79  C   UNL     1     -16.645  -2.030   1.698  1.00  0.00     0.054 A 
BRANCH  79  80
ATOM     80  S   UNL     1     -17.584  -0.674   2.454  1.00  0.00     0.124 S 
ATOM     81  O   UNL     1     -16.707  -0.280   3.554  1.00  0.00    -0.237 OA
ATOM     82  O   UNL     1     -17.694   0.287   1.360  1.00  0.00    -0.237 OA
ATOM     83  O   UNL     1     -18.839  -1.306   2.853  1.00  0.00    -0.744 OA
ENDBRANCH  79  80
ENDBRANCH  51  74
BRANCH  63  84
ATOM     84  C   UNL     1     -15.657  -9.494  -3.831  1.00  0.00    -0.014 A 
ATOM     85  C   UNL     1     -16.299 -10.726  -3.601  1.00  0.00     0.010 A 
ATOM     86  C   UNL     1     -15.893  -8.811  -5.036  1.00  0.00     0.010 A 
ATOM     87  C   UNL     1     -17.109 -11.297  -4.585  1.00  0.00     0.020 A 
ATOM     88  C   UNL     1     -16.731  -9.363  -6.009  1.00  0.00     0.020 A 
ATOM     89  C   UNL     1     -17.305 -10.618  -5.790  1.00  0.00     0.054 A 
BRANCH  89  90
ATOM     90  S   UNL     1     -18.292 -11.414  -7.087  1.00  0.00     0.124 S 
ATOM     91  O   UNL     1     -17.392 -12.461  -7.559  1.00  0.00    -0.237 OA
ATOM     92  O   UNL     1     -19.468 -11.877  -6.354  1.00  0.00    -0.237 OA
ATOM     93  O   UNL     1     -18.546 -10.333  -8.037  1.00  0.00    -0.744 OA
ENDBRANCH  89  90
ENDBRANCH  63  84
ENDBRANCH  37  38
ENDBRANCH  30  32
ENDBRANCH  29  30
ENDBRANCH   1  29
TORSDOF 16
