REMARK SMILES C[C@](NC(=O)NCCC[NH3+])(C(=O)OCCOC(=O)c1ccc(-c2c3nc(c(-c4ccc(S(=O)(=O)[O-])cc4)c4ccc([nH]4)c(-c4ccc(S(=O)(=O)[O-])cc4)c4nc(c(-c5ccc(S(=O)(=O)[O-])cc5)c5ccc2[nH]5)C=C4)C=C3)cc1)C(F)(F)F
REMARK SMILES IDX 14 1 13 2 11 3 12 4 2 5 1 6 79 7 80 8 81 9 82 10 3 11 4 12
REMARK SMILES IDX 5 14 6 15 7 17 8 18 9 19 10 20 15 24 16 25 17 26 18 27 19 28
REMARK SMILES IDX 20 29 78 30 21 31 77 32 22 33 23 34 24 35 71 36 25 37 76 38
REMARK SMILES IDX 70 39 72 40 26 41 75 42 69 43 68 44 27 46 57 47 38 48 56 49
REMARK SMILES IDX 39 50 42 51 55 52 73 53 40 54 41 55 54 57 74 58 43 59 28 60
REMARK SMILES IDX 29 61 37 62 30 63 36 64 31 65 32 66 33 67 34 68 35 69 58 70
REMARK SMILES IDX 59 71 67 72 60 73 66 74 61 75 62 76 63 77 64 78 65 79 44 80
REMARK SMILES IDX 45 81 53 82 46 83 52 84 47 85 48 86 49 87 50 88 51 89
REMARK H PARENT 3 13 6 16 10 21 10 22 10 23 72 45 42 56
REMARK Flexibility Score: inf
ROOT
ATOM      1  C   UNL     1      -2.959   0.174  -1.001  1.00  0.00     0.274 C 
ENDROOT
BRANCH   1   2
ATOM      2  O   UNL     1      -1.516   0.276  -0.931  1.00  0.00    -0.460 OA
BRANCH   2   3
ATOM      3  C   UNL     1      -1.106   1.517  -0.555  1.00  0.00     0.341 C 
ATOM      4  O   UNL     1      -1.889   2.438  -0.320  1.00  0.00    -0.249 OA
BRANCH   3   5
ATOM      5  C   UNL     1       0.413   1.712  -0.439  1.00  0.00     0.232 C 
ATOM      6  C   UNL     1       0.612   2.938  -1.355  1.00  0.00     0.058 C 
BRANCH   5   7
ATOM      7  C   UNL     1       0.467   1.829   1.097  1.00  0.00     0.422 C 
ATOM      8  F   UNL     1      -0.231   0.801   1.651  1.00  0.00    -0.168 F 
ATOM      9  F   UNL     1       1.690   1.696   1.636  1.00  0.00    -0.168 F 
ATOM     10  F   UNL     1      -0.032   2.993   1.556  1.00  0.00    -0.168 F 
ENDBRANCH   5   7
BRANCH   5  11
ATOM     11  N   UNL     1       1.360   0.670  -0.891  1.00  0.00    -0.315 N 
ATOM     12  C   UNL     1       2.699   0.588  -0.742  1.00  0.00     0.315 C 
ATOM     13  H   UNL     1       0.950  -0.082  -1.377  1.00  0.00     0.166 HD
ATOM     14  O   UNL     1       3.240  -0.466  -1.088  1.00  0.00    -0.249 OA
ATOM     15  N   UNL     1       3.496   1.556  -0.248  1.00  0.00    -0.338 N 
ATOM     16  H   UNL     1       4.409   1.212  -0.115  1.00  0.00     0.165 HD
BRANCH  15  17
ATOM     17  C   UNL     1       3.417   2.973   0.154  1.00  0.00     0.123 C 
BRANCH  17  18
ATOM     18  C   UNL     1       3.747   3.256   1.627  1.00  0.00     0.082 C 
BRANCH  18  19
ATOM     19  C   UNL     1       5.024   4.048   1.881  1.00  0.00     0.260 C 
BRANCH  19  20
ATOM     20  N   UNL     1       5.022   5.340   1.202  1.00  0.00    -0.358 N 
ATOM     21  H   UNL     1       4.962   5.194   0.194  1.00  0.00     0.344 HD
ATOM     22  H   UNL     1       5.884   5.840   1.422  1.00  0.00     0.344 HD
ATOM     23  H   UNL     1       4.221   5.888   1.515  1.00  0.00     0.344 HD
ENDBRANCH  19  20
ENDBRANCH  18  19
ENDBRANCH  17  18
ENDBRANCH  15  17
ENDBRANCH   5  11
ENDBRANCH   3   5
ENDBRANCH   2   3
ENDBRANCH   1   2
BRANCH   1  24
ATOM     24  C   UNL     1      -3.592  -0.312   0.311  1.00  0.00     0.275 C 
BRANCH  24  25
ATOM     25  O   UNL     1      -3.107   0.410   1.457  1.00  0.00    -0.458 OA
BRANCH  25  26
ATOM     26  C   UNL     1      -3.335  -0.216   2.647  1.00  0.00     0.338 C 
ATOM     27  O   UNL     1      -3.965  -1.253   2.780  1.00  0.00    -0.246 OA
BRANCH  26  28
ATOM     28  C   UNL     1      -2.647   0.462   3.788  1.00  0.00     0.060 A 
ATOM     29  C   UNL     1      -1.844   1.585   3.614  1.00  0.00     0.016 A 
ATOM     30  C   UNL     1      -2.726  -0.099   5.064  1.00  0.00     0.016 A 
ATOM     31  C   UNL     1      -0.977   2.011   4.631  1.00  0.00     0.010 A 
ATOM     32  C   UNL     1      -1.967   0.426   6.124  1.00  0.00     0.010 A 
ATOM     33  C   UNL     1      -1.025   1.450   5.915  1.00  0.00    -0.014 A 
BRANCH  33  34
ATOM     34  C   UNL     1      -0.093   1.867   7.021  1.00  0.00     0.031 A 
ATOM     35  C   UNL     1       0.621   0.816   7.852  1.00  0.00     0.074 A 
ATOM     36  C   UNL     1       0.135   3.163   7.330  1.00  0.00     0.049 A 
ATOM     37  N   UNL     1       1.186   0.928   9.030  1.00  0.00    -0.248 NA
ATOM     38  C   UNL     1       0.681  -0.544   7.293  1.00  0.00     0.031 C 
ATOM     39  C   UNL     1      -0.390   4.328   6.615  1.00  0.00     0.029 A 
ATOM     40  N   UNL     1       0.884   3.720   8.345  1.00  0.00    -0.354 N 
ATOM     41  C   UNL     1       1.567  -0.361   9.396  1.00  0.00     0.074 A 
ATOM     42  C   UNL     1       1.190  -1.234   8.305  1.00  0.00     0.031 C 
ATOM     43  C   UNL     1       0.098   5.448   7.169  1.00  0.00     0.029 A 
ATOM     44  C   UNL     1       0.869   5.096   8.355  1.00  0.00     0.049 A 
ATOM     45  H   UNL     1       1.383   3.183   9.002  1.00  0.00     0.167 HD
ATOM     46  C   UNL     1       2.162  -0.784  10.540  1.00  0.00     0.031 A 
ATOM     47  C   UNL     1       1.358   5.989   9.240  1.00  0.00     0.031 A 
ATOM     48  C   UNL     1       2.630   0.087  11.588  1.00  0.00     0.049 A 
ATOM     49  C   UNL     1       2.012   5.508  10.504  1.00  0.00     0.074 A 
ATOM     50  C   UNL     1       3.256  -0.252  12.777  1.00  0.00     0.029 A 
ATOM     51  N   UNL     1       2.563   1.470  11.556  1.00  0.00    -0.354 N 
ATOM     52  N   UNL     1       2.241   4.279  10.898  1.00  0.00    -0.248 NA
ATOM     53  C   UNL     1       2.444   6.540  11.459  1.00  0.00     0.031 C 
ATOM     54  C   UNL     1       3.546   0.926  13.474  1.00  0.00     0.029 A 
ATOM     55  C   UNL     1       3.137   1.999  12.701  1.00  0.00     0.049 A 
ATOM     56  H   UNL     1       2.166   1.999  10.827  1.00  0.00     0.167 HD
ATOM     57  C   UNL     1       2.848   4.391  12.144  1.00  0.00     0.074 A 
ATOM     58  C   UNL     1       2.971   5.805  12.429  1.00  0.00     0.031 C 
ATOM     59  C   UNL     1       3.257   3.406  12.980  1.00  0.00     0.031 A 
BRANCH  46  60
ATOM     60  C   UNL     1       2.292  -2.271  10.751  1.00  0.00    -0.014 A 
ATOM     61  C   UNL     1       3.237  -3.044  10.055  1.00  0.00     0.010 A 
ATOM     62  C   UNL     1       1.464  -2.898  11.703  1.00  0.00     0.010 A 
ATOM     63  C   UNL     1       3.318  -4.424  10.272  1.00  0.00     0.020 A 
ATOM     64  C   UNL     1       1.561  -4.272  11.942  1.00  0.00     0.020 A 
ATOM     65  C   UNL     1       2.473  -5.030  11.208  1.00  0.00     0.054 A 
BRANCH  65  66
ATOM     66  S   UNL     1       2.600  -6.820  11.480  1.00  0.00     0.124 S 
ATOM     67  O   UNL     1       1.880  -7.350  10.325  1.00  0.00    -0.237 OA
ATOM     68  O   UNL     1       4.043  -7.048  11.478  1.00  0.00    -0.237 OA
ATOM     69  O   UNL     1       1.944  -7.021  12.769  1.00  0.00    -0.744 OA
ENDBRANCH  65  66
ENDBRANCH  46  60
BRANCH  47  70
ATOM     70  C   UNL     1       1.186   7.447   8.990  1.00  0.00    -0.014 A 
ATOM     71  C   UNL     1       2.293   8.244   8.651  1.00  0.00     0.010 A 
ATOM     72  C   UNL     1      -0.088   8.040   9.070  1.00  0.00     0.010 A 
ATOM     73  C   UNL     1       2.129   9.609   8.395  1.00  0.00     0.020 A 
ATOM     74  C   UNL     1      -0.260   9.396   8.785  1.00  0.00     0.020 A 
ATOM     75  C   UNL     1       0.852  10.175   8.457  1.00  0.00     0.054 A 
BRANCH  75  76
ATOM     76  S   UNL     1       0.643  11.928   8.040  1.00  0.00     0.124 S 
ATOM     77  O   UNL     1       1.060  12.585   9.274  1.00  0.00    -0.237 OA
ATOM     78  O   UNL     1       1.541  12.096   6.900  1.00  0.00    -0.237 OA
ATOM     79  O   UNL     1      -0.779  12.033   7.721  1.00  0.00    -0.744 OA
ENDBRANCH  75  76
ENDBRANCH  47  70
BRANCH  59  80
ATOM     80  C   UNL     1       3.913   3.824  14.268  1.00  0.00    -0.014 A 
ATOM     81  C   UNL     1       3.155   4.326  15.340  1.00  0.00     0.010 A 
ATOM     82  C   UNL     1       5.306   3.693  14.413  1.00  0.00     0.010 A 
ATOM     83  C   UNL     1       3.784   4.724  16.524  1.00  0.00     0.020 A 
ATOM     84  C   UNL     1       5.935   4.072  15.601  1.00  0.00     0.020 A 
ATOM     85  C   UNL     1       5.171   4.601  16.644  1.00  0.00     0.054 A 
BRANCH  85  86
ATOM     86  S   UNL     1       5.967   5.103  18.196  1.00  0.00     0.124 S 
ATOM     87  O   UNL     1       5.993   6.557  18.067  1.00  0.00    -0.237 OA
ATOM     88  O   UNL     1       5.058   4.579  19.212  1.00  0.00    -0.237 OA
ATOM     89  O   UNL     1       7.272   4.448  18.141  1.00  0.00    -0.744 OA
ENDBRANCH  85  86
ENDBRANCH  59  80
ENDBRANCH  33  34
ENDBRANCH  26  28
ENDBRANCH  25  26
ENDBRANCH  24  25
ENDBRANCH   1  24
TORSDOF 20
