REMARK SMILES O=C(OCCOC(=O)c1ccc(-c2c3nc(c(-c4ccc(S(=O)(=O)[O-])cc4)c4ccc([nH]4)c(-c4ccc(S(=O)(=O)[O-])cc4)c4nc(c(-c5ccc(S(=O)(=O)[O-])cc5)c5ccc2[nH]5)C=C4)C=C3)cc1)c1ccc(NC(=O)[C@@H]2CC=CC[C@@H]2C(=O)Nc2ccc(Br)cc2)cc1
REMARK SMILES IDX 4 1 3 2 2 3 1 4 69 5 70 6 93 7 71 8 92 9 72 10 73 11 74 12
REMARK SMILES IDX 75 14 76 15 77 16 81 17 78 18 80 19 79 20 82 21 83 22 84 23
REMARK SMILES IDX 85 25 86 26 91 27 87 28 90 29 88 30 89 31 5 32 6 33 7 34
REMARK SMILES IDX 8 35 9 36 10 37 68 38 11 39 67 40 12 41 13 42 14 43 61 44
REMARK SMILES IDX 15 45 66 46 60 47 62 48 16 49 65 50 59 51 58 52 17 54 47 55
REMARK SMILES IDX 28 56 46 57 29 58 32 59 45 60 63 61 30 62 31 63 44 65 64 66
REMARK SMILES IDX 33 67 18 68 19 69 27 70 20 71 26 72 21 73 22 74 23 75 24 76
REMARK SMILES IDX 25 77 48 78 49 79 57 80 50 81 56 82 51 83 52 84 53 85 54 86
REMARK SMILES IDX 55 87 34 88 35 89 43 90 36 91 42 92 37 93 38 94 39 95 40 96
REMARK SMILES IDX 41 97
REMARK H PARENT 73 13 84 24 62 53 32 64
REMARK Flexibility Score: inf
ROOT
ATOM      1  C   UNL     1      10.522  -1.449  -2.307  1.00  0.00     0.275 C 
ENDROOT
BRANCH   1   2
ATOM      2  O   UNL     1      10.446  -0.032  -2.548  1.00  0.00    -0.458 OA
BRANCH   2   3
ATOM      3  C   UNL     1       9.706   0.939  -1.964  1.00  0.00     0.338 C 
ATOM      4  O   UNL     1      10.130   2.094  -2.023  1.00  0.00    -0.246 OA
BRANCH   3   5
ATOM      5  C   UNL     1       8.387   0.717  -1.264  1.00  0.00     0.060 A 
ATOM      6  C   UNL     1       7.637  -0.462  -1.234  1.00  0.00     0.018 A 
ATOM      7  C   UNL     1       7.826   1.822  -0.598  1.00  0.00     0.018 A 
ATOM      8  C   UNL     1       6.496  -0.598  -0.404  1.00  0.00     0.027 A 
ATOM      9  C   UNL     1       6.655   1.701   0.181  1.00  0.00     0.027 A 
ATOM     10  C   UNL     1       6.091   0.447   0.422  1.00  0.00     0.041 A 
BRANCH  10  11
ATOM     11  N   UNL     1       5.305   0.258   1.595  1.00  0.00    -0.326 N 
ATOM     12  C   UNL     1       5.391  -0.650   2.657  1.00  0.00     0.228 C 
ATOM     13  H   UNL     1       4.553   0.889   1.674  1.00  0.00     0.169 HD
ATOM     14  O   UNL     1       4.501  -0.622   3.516  1.00  0.00    -0.274 OA
BRANCH  12  15
ATOM     15  C   UNL     1       6.520  -1.675   2.797  1.00  0.00     0.095 C 
ATOM     16  C   UNL     1       6.909  -2.373   4.152  1.00  0.00     0.041 C 
ATOM     17  C   UNL     1       7.840  -1.188   2.249  1.00  0.00     0.095 C 
ATOM     18  C   UNL     1       7.971  -3.460   3.907  1.00  0.00    -0.030 C 
ATOM     19  C   UNL     1       8.509  -2.482   1.708  1.00  0.00     0.041 C 
ATOM     20  C   UNL     1       8.655  -3.543   2.753  1.00  0.00    -0.030 C 
BRANCH  17  21
ATOM     21  C   UNL     1       8.648  -0.297   3.203  1.00  0.00     0.228 C 
ATOM     22  O   UNL     1       9.675  -0.757   3.710  1.00  0.00    -0.274 OA
ATOM     23  N   UNL     1       8.431   1.059   3.326  1.00  0.00    -0.326 N 
ATOM     24  H   UNL     1       9.290   1.539   3.350  1.00  0.00     0.169 HD
BRANCH  23  25
ATOM     25  C   UNL     1       7.357   1.974   3.428  1.00  0.00     0.041 A 
ATOM     26  C   UNL     1       7.562   3.245   2.866  1.00  0.00     0.027 A 
ATOM     27  C   UNL     1       6.178   1.789   4.145  1.00  0.00     0.027 A 
ATOM     28  C   UNL     1       6.574   4.244   2.873  1.00  0.00     0.018 A 
ATOM     29  C   UNL     1       5.164   2.777   4.143  1.00  0.00     0.018 A 
ATOM     30  C   UNL     1       5.355   3.986   3.478  1.00  0.00     0.018 A 
ATOM     31  Br  UNL     1       3.958   5.254   3.358  1.00  0.00    -0.051 Br
ENDBRANCH  23  25
ENDBRANCH  17  21
ENDBRANCH  12  15
ENDBRANCH  10  11
ENDBRANCH   3   5
ENDBRANCH   2   3
ENDBRANCH   1   2
BRANCH   1  32
ATOM     32  C   UNL     1      11.178  -1.874  -0.993  1.00  0.00     0.275 C 
BRANCH  32  33
ATOM     33  O   UNL     1      11.126  -0.873   0.030  1.00  0.00    -0.458 OA
BRANCH  33  34
ATOM     34  C   UNL     1      12.213  -0.063   0.078  1.00  0.00     0.338 C 
ATOM     35  O   UNL     1      13.176  -0.090  -0.685  1.00  0.00    -0.246 OA
BRANCH  34  36
ATOM     36  C   UNL     1      12.065   0.908   1.175  1.00  0.00     0.060 A 
ATOM     37  C   UNL     1      12.141   2.277   0.920  1.00  0.00     0.016 A 
ATOM     38  C   UNL     1      11.905   0.466   2.481  1.00  0.00     0.016 A 
ATOM     39  C   UNL     1      12.094   3.198   1.983  1.00  0.00     0.010 A 
ATOM     40  C   UNL     1      11.762   1.395   3.522  1.00  0.00     0.010 A 
ATOM     41  C   UNL     1      11.919   2.776   3.312  1.00  0.00    -0.014 A 
BRANCH  41  42
ATOM     42  C   UNL     1      12.030   3.723   4.480  1.00  0.00     0.031 A 
ATOM     43  C   UNL     1      13.036   3.435   5.585  1.00  0.00     0.074 A 
ATOM     44  C   UNL     1      11.271   4.839   4.598  1.00  0.00     0.049 A 
ATOM     45  N   UNL     1      13.339   4.160   6.636  1.00  0.00    -0.248 NA
ATOM     46  C   UNL     1      13.788   2.171   5.511  1.00  0.00     0.031 C 
ATOM     47  C   UNL     1      10.254   5.287   3.651  1.00  0.00     0.029 A 
ATOM     48  N   UNL     1      11.240   5.813   5.577  1.00  0.00    -0.354 N 
ATOM     49  C   UNL     1      14.305   3.437   7.330  1.00  0.00     0.074 A 
ATOM     50  C   UNL     1      14.450   2.171   6.654  1.00  0.00     0.031 C 
ATOM     51  C   UNL     1       9.683   6.420   4.096  1.00  0.00     0.029 A 
ATOM     52  C   UNL     1      10.322   6.817   5.346  1.00  0.00     0.049 A 
ATOM     53  H   UNL     1      11.822   5.793   6.370  1.00  0.00     0.167 HD
ATOM     54  C   UNL     1      15.066   3.799   8.390  1.00  0.00     0.031 A 
ATOM     55  C   UNL     1      10.046   7.953   6.023  1.00  0.00     0.031 A 
ATOM     56  C   UNL     1      14.972   5.061   9.066  1.00  0.00     0.049 A 
ATOM     57  C   UNL     1      10.882   8.332   7.220  1.00  0.00     0.074 A 
ATOM     58  C   UNL     1      15.757   5.541  10.099  1.00  0.00     0.029 A 
ATOM     59  N   UNL     1      14.035   6.039   8.783  1.00  0.00    -0.354 N 
ATOM     60  N   UNL     1      11.879   7.682   7.771  1.00  0.00    -0.248 NA
ATOM     61  C   UNL     1      10.591   9.629   7.852  1.00  0.00     0.031 C 
ATOM     62  C   UNL     1      15.252   6.785  10.486  1.00  0.00     0.029 A 
ATOM     63  C   UNL     1      14.203   7.111   9.643  1.00  0.00     0.049 A 
ATOM     64  H   UNL     1      13.352   5.982   8.076  1.00  0.00     0.167 HD
ATOM     65  C   UNL     1      12.370   8.519   8.771  1.00  0.00     0.074 A 
ATOM     66  C   UNL     1      11.563   9.719   8.748  1.00  0.00     0.031 C 
ATOM     67  C   UNL     1      13.409   8.312   9.617  1.00  0.00     0.031 A 
BRANCH  54  68
ATOM     68  C   UNL     1      16.095   2.805   8.868  1.00  0.00    -0.014 A 
ATOM     69  C   UNL     1      17.207   2.470   8.070  1.00  0.00     0.010 A 
ATOM     70  C   UNL     1      15.955   2.206  10.131  1.00  0.00     0.010 A 
ATOM     71  C   UNL     1      18.124   1.510   8.500  1.00  0.00     0.020 A 
ATOM     72  C   UNL     1      16.893   1.273  10.582  1.00  0.00     0.020 A 
ATOM     73  C   UNL     1      17.959   0.915   9.754  1.00  0.00     0.054 A 
BRANCH  73  74
ATOM     74  S   UNL     1      19.173  -0.318  10.293  1.00  0.00     0.124 S 
ATOM     75  O   UNL     1      18.848  -1.456   9.436  1.00  0.00    -0.237 OA
ATOM     76  O   UNL     1      20.446   0.339  10.008  1.00  0.00    -0.237 OA
ATOM     77  O   UNL     1      18.875  -0.503  11.711  1.00  0.00    -0.744 OA
ENDBRANCH  73  74
ENDBRANCH  54  68
BRANCH  55  78
ATOM     78  C   UNL     1       8.982   8.886   5.538  1.00  0.00    -0.014 A 
ATOM     79  C   UNL     1       9.324  10.133   4.980  1.00  0.00     0.010 A 
ATOM     80  C   UNL     1       7.621   8.553   5.669  1.00  0.00     0.010 A 
ATOM     81  C   UNL     1       8.331  11.040   4.597  1.00  0.00     0.020 A 
ATOM     82  C   UNL     1       6.624   9.448   5.261  1.00  0.00     0.020 A 
ATOM     83  C   UNL     1       6.985  10.692   4.739  1.00  0.00     0.054 A 
BRANCH  83  84
ATOM     84  S   UNL     1       5.717  11.877   4.205  1.00  0.00     0.124 S 
ATOM     85  O   UNL     1       5.836  12.928   5.210  1.00  0.00    -0.237 OA
ATOM     86  O   UNL     1       6.167  12.231   2.861  1.00  0.00    -0.237 OA
ATOM     87  O   UNL     1       4.480  11.100   4.255  1.00  0.00    -0.744 OA
ENDBRANCH  83  84
ENDBRANCH  55  78
BRANCH  67  88
ATOM     88  C   UNL     1      13.792   9.428  10.557  1.00  0.00    -0.014 A 
ATOM     89  C   UNL     1      12.963   9.817  11.624  1.00  0.00     0.010 A 
ATOM     90  C   UNL     1      15.039  10.062  10.396  1.00  0.00     0.010 A 
ATOM     91  C   UNL     1      13.354  10.849  12.483  1.00  0.00     0.020 A 
ATOM     92  C   UNL     1      15.449  11.069  11.273  1.00  0.00     0.020 A 
ATOM     93  C   UNL     1      14.594  11.470  12.301  1.00  0.00     0.054 A 
BRANCH  93  94
ATOM     94  S   UNL     1      15.089  12.789  13.443  1.00  0.00     0.124 S 
ATOM     95  O   UNL     1      14.219  13.888  13.034  1.00  0.00    -0.237 OA
ATOM     96  O   UNL     1      14.795  12.208  14.750  1.00  0.00    -0.237 OA
ATOM     97  O   UNL     1      16.509  12.981  13.158  1.00  0.00    -0.744 OA
ENDBRANCH  93  94
ENDBRANCH  67  88
ENDBRANCH  41  42
ENDBRANCH  34  36
ENDBRANCH  33  34
ENDBRANCH  32  33
ENDBRANCH   1  32
TORSDOF 18
