REMARK SMILES Cc1nc2cc(S(=O)(=O)N3CCC(C(=O)OCCOC(=O)c4ccc(-c5c6nc(c(-c7ccc(S(=O)(=O)[O-])cc7)c7ccc([nH]7)c(-c7ccc(S(=O)(=O)[O-])cc7)c7nc(c(-c8ccc(S(=O)(=O)[O-])cc8)c8ccc5[nH]8)C=C7)C=C6)cc4)CC3)ccc2n1C1CCCC1
REMARK SMILES IDX 17 1 16 2 14 3 15 4 13 5 10 6 11 7 83 8 12 9 82 10 7 11 8 12
REMARK SMILES IDX 9 13 6 14 1 15 2 16 3 17 87 18 4 19 86 20 5 21 85 22 84 23
REMARK SMILES IDX 88 24 89 25 92 26 90 27 91 28 18 29 19 30 20 31 21 32 22 33
REMARK SMILES IDX 23 34 81 35 24 36 80 37 25 38 26 39 27 40 74 41 28 42 79 43
REMARK SMILES IDX 73 44 75 45 29 46 78 47 72 48 71 49 30 51 60 52 41 53 59 54
REMARK SMILES IDX 42 55 45 56 58 57 76 58 43 59 44 60 57 62 77 63 46 64 31 65
REMARK SMILES IDX 32 66 40 67 33 68 39 69 34 70 35 71 36 72 37 73 38 74 61 75
REMARK SMILES IDX 62 76 70 77 63 78 69 79 64 80 65 81 66 82 67 83 68 84 47 85
REMARK SMILES IDX 48 86 56 87 49 88 55 89 50 90 51 91 52 92 53 93 54 94
REMARK H PARENT 75 50 45 61
REMARK Flexibility Score: inf
ROOT
ATOM      1  C   UNL     1      -2.881  -1.469  13.714  1.00  0.00     0.274 C 
ENDROOT
BRANCH   1   2
ATOM      2  O   UNL     1      -2.360  -1.950  12.456  1.00  0.00    -0.462 OA
BRANCH   2   3
ATOM      3  C   UNL     1      -3.172  -1.818  11.378  1.00  0.00     0.309 C 
ATOM      4  O   UNL     1      -4.319  -1.390  11.417  1.00  0.00    -0.252 OA
BRANCH   3   5
ATOM      5  C   UNL     1      -2.492  -2.179  10.076  1.00  0.00     0.102 C 
ATOM      6  N   UNL     1      -1.281  -3.422   7.811  1.00  0.00    -0.198 NA
ATOM      7  C   UNL     1      -0.433  -2.604   8.710  1.00  0.00     0.103 C 
ATOM      8  C   UNL     1      -2.743  -3.181   7.840  1.00  0.00     0.103 C 
ATOM      9  C   UNL     1      -1.010  -2.534  10.127  1.00  0.00     0.032 C 
ATOM     10  C   UNL     1      -3.229  -3.250   9.286  1.00  0.00     0.032 C 
BRANCH   6  11
ATOM     11  S   UNL     1      -0.608  -3.939   6.334  1.00  0.00     0.243 S 
ATOM     12  O   UNL     1      -1.545  -4.880   5.747  1.00  0.00    -0.207 OA
ATOM     13  O   UNL     1       0.758  -4.320   6.611  1.00  0.00    -0.207 OA
BRANCH  11  14
ATOM     14  C   UNL     1      -0.520  -2.546   5.226  1.00  0.00     0.085 A 
ATOM     15  C   UNL     1       0.960  -0.173  -0.064  1.00  0.00     0.088 C 
ATOM     16  C   UNL     1       0.582  -0.558   1.323  1.00  0.00     0.106 A 
ATOM     17  N   UNL     1       0.695  -1.783   1.792  1.00  0.00    -0.233 NA
ATOM     18  N   UNL     1       0.084   0.299   2.291  1.00  0.00    -0.325 N 
ATOM     19  C   UNL     1       0.176  -1.754   3.053  1.00  0.00     0.090 A 
ATOM     20  C   UNL     1      -0.205  -0.463   3.409  1.00  0.00     0.068 A 
ATOM     21  C   UNL     1       0.018  -2.811   3.958  1.00  0.00     0.052 A 
ATOM     22  C   UNL     1      -0.753  -0.183   4.668  1.00  0.00     0.030 A 
ATOM     23  C   UNL     1      -0.908  -1.250   5.568  1.00  0.00     0.024 A 
BRANCH  18  24
ATOM     24  C   UNL     1      -0.072   1.730   2.138  1.00  0.00     0.089 C 
ATOM     25  C   UNL     1      -1.491   2.276   2.277  1.00  0.00     0.025 C 
ATOM     26  C   UNL     1       0.727   2.595   3.115  1.00  0.00     0.025 C 
ATOM     27  C   UNL     1      -1.264   3.783   2.336  1.00  0.00     0.002 C 
ATOM     28  C   UNL     1       0.115   3.986   2.965  1.00  0.00     0.002 C 
ENDBRANCH  18  24
ENDBRANCH  11  14
ENDBRANCH   6  11
ENDBRANCH   3   5
ENDBRANCH   2   3
ENDBRANCH   1   2
BRANCH   1  29
ATOM     29  C   UNL     1      -2.062  -0.262  14.185  1.00  0.00     0.275 C 
BRANCH  29  30
ATOM     30  O   UNL     1      -2.381   0.868  13.359  1.00  0.00    -0.458 OA
BRANCH  30  31
ATOM     31  C   UNL     1      -1.454   1.230  12.439  1.00  0.00     0.338 C 
ATOM     32  O   UNL     1      -0.257   1.005  12.470  1.00  0.00    -0.246 OA
BRANCH  31  33
ATOM     33  C   UNL     1      -2.203   1.612  11.220  1.00  0.00     0.060 A 
ATOM     34  C   UNL     1      -3.502   2.128  11.293  1.00  0.00     0.016 A 
ATOM     35  C   UNL     1      -1.681   1.171  10.002  1.00  0.00     0.016 A 
ATOM     36  C   UNL     1      -4.343   2.015  10.191  1.00  0.00     0.010 A 
ATOM     37  C   UNL     1      -2.529   1.056   8.908  1.00  0.00     0.010 A 
ATOM     38  C   UNL     1      -3.882   1.390   9.029  1.00  0.00    -0.014 A 
BRANCH  38  39
ATOM     39  C   UNL     1      -4.762   1.297   7.866  1.00  0.00     0.031 A 
ATOM     40  C   UNL     1      -4.720   2.514   7.032  1.00  0.00     0.074 A 
ATOM     41  C   UNL     1      -5.517   0.252   7.464  1.00  0.00     0.049 A 
ATOM     42  N   UNL     1      -5.657   3.396   6.944  1.00  0.00    -0.248 NA
ATOM     43  C   UNL     1      -3.470   2.879   6.355  1.00  0.00     0.031 C 
ATOM     44  C   UNL     1      -5.611  -1.092   8.015  1.00  0.00     0.029 A 
ATOM     45  N   UNL     1      -6.335   0.173   6.374  1.00  0.00    -0.354 N 
ATOM     46  C   UNL     1      -5.186   4.359   6.070  1.00  0.00     0.074 A 
ATOM     47  C   UNL     1      -3.785   4.080   5.871  1.00  0.00     0.031 C 
ATOM     48  C   UNL     1      -6.204  -1.920   7.117  1.00  0.00     0.029 A 
ATOM     49  C   UNL     1      -6.707  -1.119   6.013  1.00  0.00     0.049 A 
ATOM     50  H   UNL     1      -6.639   0.969   5.880  1.00  0.00     0.167 HD
ATOM     51  C   UNL     1      -6.027   5.201   5.415  1.00  0.00     0.031 A 
ATOM     52  C   UNL     1      -7.404  -1.494   4.905  1.00  0.00     0.031 A 
ATOM     53  C   UNL     1      -7.352   5.193   5.967  1.00  0.00     0.049 A 
ATOM     54  C   UNL     1      -8.183  -0.307   4.473  1.00  0.00     0.074 A 
ATOM     55  C   UNL     1      -7.866   5.464   7.220  1.00  0.00     0.029 A 
ATOM     56  N   UNL     1      -8.313   4.460   5.309  1.00  0.00    -0.354 N 
ATOM     57  N   UNL     1      -9.187   0.174   5.150  1.00  0.00    -0.248 NA
ATOM     58  C   UNL     1      -7.567   0.608   3.524  1.00  0.00     0.031 C 
ATOM     59  C   UNL     1      -8.867   4.474   7.424  1.00  0.00     0.029 A 
ATOM     60  C   UNL     1      -8.963   3.712   6.258  1.00  0.00     0.049 A 
ATOM     61  H   UNL     1      -8.498   4.470   4.342  1.00  0.00     0.167 HD
ATOM     62  C   UNL     1      -9.045   1.549   5.053  1.00  0.00     0.074 A 
ATOM     63  C   UNL     1      -8.080   1.757   3.973  1.00  0.00     0.031 C 
ATOM     64  C   UNL     1      -9.501   2.385   6.030  1.00  0.00     0.031 A 
BRANCH  51  65
ATOM     65  C   UNL     1      -5.701   5.792   4.082  1.00  0.00    -0.014 A 
ATOM     66  C   UNL     1      -4.765   5.195   3.217  1.00  0.00     0.010 A 
ATOM     67  C   UNL     1      -6.479   6.843   3.566  1.00  0.00     0.010 A 
ATOM     68  C   UNL     1      -4.532   5.678   1.934  1.00  0.00     0.020 A 
ATOM     69  C   UNL     1      -6.295   7.300   2.254  1.00  0.00     0.020 A 
ATOM     70  C   UNL     1      -5.299   6.731   1.459  1.00  0.00     0.054 A 
BRANCH  70  71
ATOM     71  S   UNL     1      -5.007   7.282  -0.236  1.00  0.00     0.124 S 
ATOM     72  O   UNL     1      -3.740   7.997  -0.098  1.00  0.00    -0.237 OA
ATOM     73  O   UNL     1      -4.938   6.020  -0.969  1.00  0.00    -0.237 OA
ATOM     74  O   UNL     1      -6.171   8.112  -0.530  1.00  0.00    -0.744 OA
ENDBRANCH  70  71
ENDBRANCH  51  65
BRANCH  52  75
ATOM     75  C   UNL     1      -7.112  -2.612   3.960  1.00  0.00    -0.014 A 
ATOM     76  C   UNL     1      -5.838  -3.211   3.933  1.00  0.00     0.010 A 
ATOM     77  C   UNL     1      -7.967  -2.848   2.860  1.00  0.00     0.010 A 
ATOM     78  C   UNL     1      -5.386  -3.906   2.802  1.00  0.00     0.020 A 
ATOM     79  C   UNL     1      -7.519  -3.541   1.722  1.00  0.00     0.020 A 
ATOM     80  C   UNL     1      -6.210  -4.020   1.682  1.00  0.00     0.054 A 
BRANCH  80  81
ATOM     81  S   UNL     1      -5.505  -4.686   0.143  1.00  0.00     0.124 S 
ATOM     82  O   UNL     1      -4.566  -3.634  -0.236  1.00  0.00    -0.237 OA
ATOM     83  O   UNL     1      -4.903  -5.941   0.584  1.00  0.00    -0.237 OA
ATOM     84  O   UNL     1      -6.663  -4.832  -0.735  1.00  0.00    -0.744 OA
ENDBRANCH  80  81
ENDBRANCH  52  75
BRANCH  64  85
ATOM     85  C   UNL     1     -10.412   1.855   7.119  1.00  0.00    -0.014 A 
ATOM     86  C   UNL     1     -11.546   2.630   7.432  1.00  0.00     0.010 A 
ATOM     87  C   UNL     1     -10.078   0.787   7.975  1.00  0.00     0.010 A 
ATOM     88  C   UNL     1     -12.287   2.394   8.590  1.00  0.00     0.020 A 
ATOM     89  C   UNL     1     -10.840   0.523   9.127  1.00  0.00     0.020 A 
ATOM     90  C   UNL     1     -11.920   1.351   9.441  1.00  0.00     0.054 A 
BRANCH  90  91
ATOM     91  S   UNL     1     -12.862   1.138  10.977  1.00  0.00     0.124 S 
ATOM     92  O   UNL     1     -12.442   2.298  11.761  1.00  0.00    -0.237 OA
ATOM     93  O   UNL     1     -14.247   1.171  10.512  1.00  0.00    -0.237 OA
ATOM     94  O   UNL     1     -12.414  -0.154  11.492  1.00  0.00    -0.744 OA
ENDBRANCH  90  91
ENDBRANCH  64  85
ENDBRANCH  38  39
ENDBRANCH  31  33
ENDBRANCH  30  31
ENDBRANCH  29  30
ENDBRANCH   1  29
TORSDOF 17
