REMARK SMILES CC(C)(C)OC(=O)N1CCC[C@H]1C(=O)N1CCC[C@H]1C(=O)N1CCC[C@@H]1C(=O)OCCOC(=O)c1ccc(-c2c3nc(c(-c4ccc(S(=O)(=O)[O-])cc4)c4ccc([nH]4)c(-c4ccc(S(=O)(=O)[O-])cc4)c4nc(c(-c5ccc(S(=O)(=O)[O-])cc5)c5ccc2[nH]5)C=C4)C=C3)cc1
REMARK SMILES IDX 27 1 28 2 26 3 22 4 23 5 24 6 25 7 20 8 21 9 19 10 15 11
REMARK SMILES IDX 16 12 17 13 18 14 13 15 14 16 12 17 8 18 9 19 10 20 11 21
REMARK SMILES IDX 6 22 7 23 5 24 2 25 1 26 3 27 4 28 29 29 30 30 31 31 32 32
REMARK SMILES IDX 33 33 34 34 35 35 36 36 94 37 37 38 93 39 38 40 39 41 40 42
REMARK SMILES IDX 87 43 41 44 92 45 86 46 88 47 42 48 91 49 85 50 84 51 43 53
REMARK SMILES IDX 73 54 54 55 72 56 55 57 58 58 71 59 89 60 56 61 57 62 70 64
REMARK SMILES IDX 90 65 59 66 44 67 45 68 53 69 46 70 52 71 47 72 48 73 49 74
REMARK SMILES IDX 50 75 51 76 74 77 75 78 83 79 76 80 82 81 77 82 78 83 79 84
REMARK SMILES IDX 80 85 81 86 60 87 61 88 69 89 62 90 68 91 63 92 64 93 65 94
REMARK SMILES IDX 66 95 67 96
REMARK H PARENT 88 52 58 63
REMARK Flexibility Score: inf
ROOT
ATOM      1  C   UNL     1       1.584  -4.024   7.171  1.00  0.00     0.328 C 
ATOM      2  O   UNL     1       2.109  -5.120   7.007  1.00  0.00    -0.250 OA
ENDROOT
BRANCH   1   3
ATOM      3  C   UNL     1       0.369  -3.825   8.081  1.00  0.00     0.195 C 
ATOM      4  N   UNL     1      -0.842  -3.775   7.293  1.00  0.00    -0.327 N 
ATOM      5  C   UNL     1      -1.781  -2.852   7.882  1.00  0.00     0.120 C 
ATOM      6  C   UNL     1      -0.887  -1.774   8.459  1.00  0.00     0.024 C 
ATOM      7  C   UNL     1       0.360  -2.536   8.915  1.00  0.00     0.039 C 
BRANCH   4   8
ATOM      8  C   UNL     1      -1.240  -4.893   6.582  1.00  0.00     0.246 C 
ATOM      9  O   UNL     1      -1.208  -6.030   7.038  1.00  0.00    -0.272 OA
BRANCH   8  10
ATOM     10  C   UNL     1      -1.702  -4.532   5.169  1.00  0.00     0.174 C 
ATOM     11  N   UNL     1      -1.355  -5.508   4.138  1.00  0.00    -0.329 N 
ATOM     12  C   UNL     1      -2.551  -6.104   3.581  1.00  0.00     0.120 C 
ATOM     13  C   UNL     1      -3.592  -5.014   3.761  1.00  0.00     0.024 C 
ATOM     14  C   UNL     1      -3.224  -4.405   5.109  1.00  0.00     0.037 C 
BRANCH  11  15
ATOM     15  C   UNL     1      -0.071  -5.506   3.634  1.00  0.00     0.246 C 
ATOM     16  O   UNL     1       0.894  -5.189   4.333  1.00  0.00    -0.272 OA
BRANCH  15  17
ATOM     17  C   UNL     1       0.095  -5.648   2.107  1.00  0.00     0.178 C 
ATOM     18  N   UNL     1       0.820  -4.455   1.652  1.00  0.00    -0.296 N 
ATOM     19  C   UNL     1       2.147  -4.782   1.184  1.00  0.00     0.124 C 
ATOM     20  C   UNL     1       1.994  -6.217   0.712  1.00  0.00     0.024 C 
ATOM     21  C   UNL     1       0.992  -6.819   1.700  1.00  0.00     0.037 C 
BRANCH  18  22
ATOM     22  C   UNL     1       0.250  -3.212   1.752  1.00  0.00     0.410 C 
ATOM     23  O   UNL     1      -0.829  -3.024   2.296  1.00  0.00    -0.224 OA
BRANCH  22  24
ATOM     24  O   UNL     1       0.992  -2.244   1.157  1.00  0.00    -0.444 OA
BRANCH  24  25
ATOM     25  C   UNL     1       0.565  -0.856   1.199  1.00  0.00     0.106 C 
ATOM     26  C   UNL     1       1.298  -0.179   0.032  1.00  0.00     0.056 C 
ATOM     27  C   UNL     1       1.029  -0.239   2.521  1.00  0.00     0.056 C 
ATOM     28  C   UNL     1      -0.943  -0.643   0.984  1.00  0.00     0.056 C 
ENDBRANCH  24  25
ENDBRANCH  22  24
ENDBRANCH  18  22
ENDBRANCH  15  17
ENDBRANCH  11  15
ENDBRANCH   8  10
ENDBRANCH   4   8
ENDBRANCH   1   3
BRANCH   1  29
ATOM     29  O   UNL     1       1.990  -2.875   6.561  1.00  0.00    -0.461 OA
BRANCH  29  30
ATOM     30  C   UNL     1       3.116  -3.035   5.681  1.00  0.00     0.274 C 
BRANCH  30  31
ATOM     31  C   UNL     1       4.460  -2.866   6.406  1.00  0.00     0.275 C 
BRANCH  31  32
ATOM     32  O   UNL     1       4.734  -3.920   7.353  1.00  0.00    -0.458 OA
BRANCH  32  33
ATOM     33  C   UNL     1       4.282  -3.690   8.610  1.00  0.00     0.338 C 
ATOM     34  O   UNL     1       3.752  -2.668   9.018  1.00  0.00    -0.246 OA
BRANCH  33  35
ATOM     35  C   UNL     1       4.353  -4.911   9.434  1.00  0.00     0.060 A 
ATOM     36  C   UNL     1       3.153  -5.422   9.935  1.00  0.00     0.016 A 
ATOM     37  C   UNL     1       5.566  -5.481   9.815  1.00  0.00     0.016 A 
ATOM     38  C   UNL     1       3.144  -6.495  10.813  1.00  0.00     0.010 A 
ATOM     39  C   UNL     1       5.561  -6.562  10.709  1.00  0.00     0.010 A 
ATOM     40  C   UNL     1       4.351  -7.065  11.223  1.00  0.00    -0.014 A 
BRANCH  40  41
ATOM     41  C   UNL     1       4.316  -8.135  12.249  1.00  0.00     0.031 A 
ATOM     42  C   UNL     1       4.771  -7.838  13.650  1.00  0.00     0.074 A 
ATOM     43  C   UNL     1       3.802  -9.341  11.940  1.00  0.00     0.049 A 
ATOM     44  N   UNL     1       4.838  -8.638  14.683  1.00  0.00    -0.248 NA
ATOM     45  C   UNL     1       5.208  -6.460  13.926  1.00  0.00     0.031 C 
ATOM     46  C   UNL     1       3.261  -9.718  10.632  1.00  0.00     0.029 A 
ATOM     47  N   UNL     1       3.638 -10.467  12.706  1.00  0.00    -0.354 N 
ATOM     48  C   UNL     1       5.348  -7.870  15.723  1.00  0.00     0.074 A 
ATOM     49  C   UNL     1       5.592  -6.546  15.192  1.00  0.00     0.031 C 
ATOM     50  C   UNL     1       2.813 -10.982  10.692  1.00  0.00     0.029 A 
ATOM     51  C   UNL     1       3.084 -11.522  12.020  1.00  0.00     0.049 A 
ATOM     52  H   UNL     1       3.892 -10.514  13.656  1.00  0.00     0.167 HD
ATOM     53  C   UNL     1       5.590  -8.238  17.005  1.00  0.00     0.031 A 
ATOM     54  C   UNL     1       2.847 -12.789  12.410  1.00  0.00     0.031 A 
ATOM     55  C   UNL     1       5.340  -9.559  17.521  1.00  0.00     0.049 A 
ATOM     56  C   UNL     1       3.191 -13.192  13.818  1.00  0.00     0.074 A 
ATOM     57  C   UNL     1       5.546 -10.034  18.805  1.00  0.00     0.029 A 
ATOM     58  N   UNL     1       4.831 -10.617  16.781  1.00  0.00    -0.354 N 
ATOM     59  N   UNL     1       3.684 -12.458  14.789  1.00  0.00    -0.248 NA
ATOM     60  C   UNL     1       2.944 -14.592  14.186  1.00  0.00     0.031 C 
ATOM     61  C   UNL     1       5.220 -11.395  18.825  1.00  0.00     0.029 A 
ATOM     62  C   UNL     1       4.743 -11.751  17.573  1.00  0.00     0.049 A 
ATOM     63  H   UNL     1       4.571 -10.569  15.833  1.00  0.00     0.167 HD
ATOM     64  C   UNL     1       3.783 -13.302  15.889  1.00  0.00     0.074 A 
ATOM     65  C   UNL     1       3.280 -14.595  15.469  1.00  0.00     0.031 C 
ATOM     66  C   UNL     1       4.247 -13.032  17.135  1.00  0.00     0.031 A 
BRANCH  53  67
ATOM     67  C   UNL     1       6.200  -7.211  17.924  1.00  0.00    -0.014 A 
ATOM     68  C   UNL     1       5.469  -6.096  18.373  1.00  0.00     0.010 A 
ATOM     69  C   UNL     1       7.522  -7.385  18.373  1.00  0.00     0.010 A 
ATOM     70  C   UNL     1       6.061  -5.156  19.222  1.00  0.00     0.020 A 
ATOM     71  C   UNL     1       8.109  -6.463  19.245  1.00  0.00     0.020 A 
ATOM     72  C   UNL     1       7.379  -5.345  19.652  1.00  0.00     0.054 A 
BRANCH  72  73
ATOM     73  S   UNL     1       8.115  -4.121  20.770  1.00  0.00     0.124 S 
ATOM     74  O   UNL     1       8.299  -2.974  19.884  1.00  0.00    -0.237 OA
ATOM     75  O   UNL     1       7.086  -3.964  21.795  1.00  0.00    -0.237 OA
ATOM     76  O   UNL     1       9.348  -4.760  21.223  1.00  0.00    -0.744 OA
ENDBRANCH  72  73
ENDBRANCH  53  67
BRANCH  54  77
ATOM     77  C   UNL     1       2.285 -13.773  11.443  1.00  0.00    -0.014 A 
ATOM     78  C   UNL     1       0.994 -14.301  11.616  1.00  0.00     0.010 A 
ATOM     79  C   UNL     1       3.044 -14.182  10.329  1.00  0.00     0.010 A 
ATOM     80  C   UNL     1       0.480 -15.232  10.707  1.00  0.00     0.020 A 
ATOM     81  C   UNL     1       2.522 -15.087   9.401  1.00  0.00     0.020 A 
ATOM     82  C   UNL     1       1.247 -15.616   9.603  1.00  0.00     0.054 A 
BRANCH  82  83
ATOM     83  S   UNL     1       0.544 -16.792   8.413  1.00  0.00     0.124 S 
ATOM     84  O   UNL     1       0.576 -18.042   9.165  1.00  0.00    -0.237 OA
ATOM     85  O   UNL     1      -0.785 -16.236   8.167  1.00  0.00    -0.237 OA
ATOM     86  O   UNL     1       1.460 -16.721   7.277  1.00  0.00    -0.744 OA
ENDBRANCH  82  83
ENDBRANCH  54  77
BRANCH  66  87
ATOM     87  C   UNL     1       4.198 -14.150  18.145  1.00  0.00    -0.014 A 
ATOM     88  C   UNL     1       5.052 -15.263  18.049  1.00  0.00     0.010 A 
ATOM     89  C   UNL     1       3.304 -14.064  19.229  1.00  0.00     0.010 A 
ATOM     90  C   UNL     1       4.983 -16.290  18.995  1.00  0.00     0.020 A 
ATOM     91  C   UNL     1       3.256 -15.072  20.194  1.00  0.00     0.020 A 
ATOM     92  C   UNL     1       4.083 -16.188  20.061  1.00  0.00     0.054 A 
BRANCH  92  93
ATOM     93  S   UNL     1       4.033 -17.521  21.290  1.00  0.00     0.124 S 
ATOM     94  O   UNL     1       3.376 -18.594  20.548  1.00  0.00    -0.237 OA
ATOM     95  O   UNL     1       5.447 -17.736  21.587  1.00  0.00    -0.237 OA
ATOM     96  O   UNL     1       3.251 -16.953  22.386  1.00  0.00    -0.744 OA
ENDBRANCH  92  93
ENDBRANCH  66  87
ENDBRANCH  40  41
ENDBRANCH  33  35
ENDBRANCH  32  33
ENDBRANCH  31  32
ENDBRANCH  30  31
ENDBRANCH  29  30
ENDBRANCH   1  29
TORSDOF 21
