REMARK SMILES C[C@@H](NC(=O)N[C@H]1CCCCC[C@@H]1C(=O)OCCOC(=O)c1ccc(-c2c3nc(c(-c4ccc(S(=O)(=O)[O-])cc4)c4ccc([nH]4)c(-c4ccc(S(=O)(=O)[O-])cc4)c4nc(c(-c5ccc(S(=O)(=O)[O-])cc5)c5ccc2[nH]5)C=C4)C=C3)cc1)c1nccs1
REMARK SMILES IDX 17 1 16 2 14 3 15 4 13 5 7 6 6 7 3 8 4 9 5 11 2 13 1 14
REMARK SMILES IDX 82 15 83 16 86 17 84 18 85 19 8 20 12 22 11 23 10 24 9 25
REMARK SMILES IDX 18 27 19 28 20 29 21 30 22 31 23 32 81 33 24 34 80 35 25 36
REMARK SMILES IDX 26 37 27 38 74 39 28 40 79 41 73 42 75 43 29 44 78 45 72 46
REMARK SMILES IDX 71 47 30 49 60 50 41 51 59 52 42 53 45 54 58 55 76 56 43 57
REMARK SMILES IDX 44 58 57 60 77 61 46 62 31 63 32 64 40 65 33 66 39 67 34 68
REMARK SMILES IDX 35 69 36 70 37 71 38 72 61 73 62 74 70 75 63 76 69 77 64 78
REMARK SMILES IDX 65 79 66 80 67 81 68 82 47 83 48 84 56 85 49 86 55 87 50 88
REMARK SMILES IDX 51 89 52 90 53 91 54 92
REMARK H PARENT 3 10 6 12 75 48 45 59
REMARK Flexibility Score: 100.00
ROOT
ATOM      1  C   UNL     1       2.703   0.772   1.381  1.00  0.00     0.274 C 
ENDROOT
BRANCH   1   2
ATOM      2  O   UNL     1       1.546  -0.029   1.697  1.00  0.00    -0.462 OA
BRANCH   2   3
ATOM      3  C   UNL     1       0.383   0.399   1.139  1.00  0.00     0.311 C 
ATOM      4  O   UNL     1       0.320   1.417   0.459  1.00  0.00    -0.252 OA
BRANCH   3   5
ATOM      5  C   UNL     1      -0.826  -0.523   1.386  1.00  0.00     0.121 C 
BRANCH   5   6
ATOM      6  C   UNL     1      -1.998   0.377   1.843  1.00  0.00     0.098 C 
BRANCH   6   7
ATOM      7  N   UNL     1      -2.425   1.292   0.784  1.00  0.00    -0.335 N 
ATOM      8  N   UNL     1      -2.626   3.464   1.748  1.00  0.00    -0.329 N 
ATOM      9  C   UNL     1      -2.813   2.568   0.779  1.00  0.00     0.315 C 
ATOM     10  H   UNL     1      -3.421   4.037   1.852  1.00  0.00     0.166 HD
ATOM     11  O   UNL     1      -3.464   2.943  -0.202  1.00  0.00    -0.249 OA
ATOM     12  H   UNL     1      -2.426   0.880  -0.110  1.00  0.00     0.165 HD
BRANCH   8  13
ATOM     13  C   UNL     1      -1.575   3.848   2.710  1.00  0.00     0.140 C 
ATOM     14  C   UNL     1      -0.334   4.395   2.009  1.00  0.00     0.039 C 
BRANCH  13  15
ATOM     15  C   UNL     1      -1.345   2.881   3.852  1.00  0.00     0.115 A 
ATOM     16  N   UNL     1      -2.314   2.394   4.610  1.00  0.00    -0.247 NA
ATOM     17  S   UNL     1       0.240   2.334   4.302  1.00  0.00    -0.125 S 
ATOM     18  C   UNL     1      -1.813   1.460   5.494  1.00  0.00     0.123 A 
ATOM     19  C   UNL     1      -0.453   1.264   5.444  1.00  0.00     0.087 A 
ENDBRANCH  13  15
ENDBRANCH   8  13
ENDBRANCH   6   7
BRANCH   6  20
ATOM     20  C   UNL     1      -3.248  -0.280   2.456  1.00  0.00     0.026 CG0
ATOM     21  G   UNL     1      -3.607  -1.682   1.981  1.00  0.00     0.000 G0
ENDBRANCH   6  20
ENDBRANCH   5   6
BRANCH   5  22
ATOM     22  C   UNL     1      -0.495  -1.685   2.336  1.00  0.00     0.017 C 
BRANCH  22  23
ATOM     23  C   UNL     1      -1.387  -2.912   2.155  1.00  0.00     0.001 C 
BRANCH  23  24
ATOM     24  C   UNL     1      -2.797  -2.756   2.697  1.00  0.00     0.000 C 
BRANCH  24  25
ATOM     25  C   UNL     1      -3.607  -1.682   1.981  1.00  0.00     0.002 CG0
ATOM     26  G   UNL     1      -3.248  -0.280   2.456  1.00  0.00     0.000 G0
ENDBRANCH  24  25
ENDBRANCH  23  24
ENDBRANCH  22  23
ENDBRANCH   5  22
ENDBRANCH   3   5
ENDBRANCH   2   3
ENDBRANCH   1   2
BRANCH   1  27
ATOM     27  C   UNL     1       3.448   0.259   0.144  1.00  0.00     0.275 C 
BRANCH  27  28
ATOM     28  O   UNL     1       2.656   0.351  -1.055  1.00  0.00    -0.458 OA
BRANCH  28  29
ATOM     29  C   UNL     1       1.979  -0.776  -1.375  1.00  0.00     0.338 C 
ATOM     30  O   UNL     1       1.989  -1.838  -0.775  1.00  0.00    -0.246 OA
BRANCH  29  31
ATOM     31  C   UNL     1       1.115  -0.542  -2.541  1.00  0.00     0.060 A 
ATOM     32  C   UNL     1      -0.215  -0.180  -2.324  1.00  0.00     0.016 A 
ATOM     33  C   UNL     1       1.562  -0.847  -3.824  1.00  0.00     0.016 A 
ATOM     34  C   UNL     1      -1.128  -0.191  -3.369  1.00  0.00     0.010 A 
ATOM     35  C   UNL     1       0.656  -0.802  -4.888  1.00  0.00     0.010 A 
ATOM     36  C   UNL     1      -0.702  -0.507  -4.660  1.00  0.00    -0.014 A 
BRANCH  36  37
ATOM     37  C   UNL     1      -1.690  -0.600  -5.759  1.00  0.00     0.031 A 
ATOM     38  C   UNL     1      -1.962  -1.934  -6.394  1.00  0.00     0.074 A 
ATOM     39  C   UNL     1      -2.353   0.498  -6.167  1.00  0.00     0.049 A 
ATOM     40  N   UNL     1      -2.630  -2.211  -7.482  1.00  0.00    -0.248 NA
ATOM     41  C   UNL     1      -1.399  -3.115  -5.715  1.00  0.00     0.031 C 
ATOM     42  C   UNL     1      -2.242   1.830  -5.567  1.00  0.00     0.029 A 
ATOM     43  N   UNL     1      -3.253   0.667  -7.188  1.00  0.00    -0.354 N 
ATOM     44  C   UNL     1      -2.524  -3.586  -7.651  1.00  0.00     0.074 A 
ATOM     45  C   UNL     1      -1.733  -4.090  -6.549  1.00  0.00     0.031 C 
ATOM     46  C   UNL     1      -3.045   2.678  -6.228  1.00  0.00     0.029 A 
ATOM     47  C   UNL     1      -3.667   1.969  -7.341  1.00  0.00     0.049 A 
ATOM     48  H   UNL     1      -3.571  -0.071  -7.756  1.00  0.00     0.167 HD
ATOM     49  C   UNL     1      -3.032  -4.353  -8.645  1.00  0.00     0.031 A 
ATOM     50  C   UNL     1      -4.420   2.538  -8.301  1.00  0.00     0.031 A 
ATOM     51  C   UNL     1      -3.835  -3.835  -9.720  1.00  0.00     0.049 A 
ATOM     52  C   UNL     1      -4.931   1.679  -9.423  1.00  0.00     0.074 A 
ATOM     53  C   UNL     1      -4.388  -4.516 -10.790  1.00  0.00     0.029 A 
ATOM     54  N   UNL     1      -4.213  -2.506  -9.851  1.00  0.00    -0.354 N 
ATOM     55  N   UNL     1      -4.764   0.391  -9.613  1.00  0.00    -0.248 NA
ATOM     56  C   UNL     1      -5.719   2.348 -10.465  1.00  0.00     0.031 C 
ATOM     57  C   UNL     1      -5.072  -3.591 -11.586  1.00  0.00     0.029 A 
ATOM     58  C   UNL     1      -4.983  -2.344 -10.988  1.00  0.00     0.049 A 
ATOM     59  H   UNL     1      -3.968  -1.786  -9.226  1.00  0.00     0.167 HD
ATOM     60  C   UNL     1      -5.438   0.092 -10.790  1.00  0.00     0.074 A 
ATOM     61  C   UNL     1      -6.026   1.331 -11.261  1.00  0.00     0.031 C 
ATOM     62  C   UNL     1      -5.559  -1.098 -11.428  1.00  0.00     0.031 A 
BRANCH  49  63
ATOM     63  C   UNL     1      -2.680  -5.815  -8.642  1.00  0.00    -0.014 A 
ATOM     64  C   UNL     1      -3.264  -6.712  -7.730  1.00  0.00     0.010 A 
ATOM     65  C   UNL     1      -1.753  -6.302  -9.582  1.00  0.00     0.010 A 
ATOM     66  C   UNL     1      -2.896  -8.061  -7.733  1.00  0.00     0.020 A 
ATOM     67  C   UNL     1      -1.399  -7.654  -9.603  1.00  0.00     0.020 A 
ATOM     68  C   UNL     1      -1.960  -8.522  -8.664  1.00  0.00     0.054 A 
BRANCH  68  69
ATOM     69  S   UNL     1      -1.501 -10.277  -8.653  1.00  0.00     0.124 S 
ATOM     70  O   UNL     1      -0.608 -10.347  -7.499  1.00  0.00    -0.237 OA
ATOM     71  O   UNL     1      -2.789 -10.947  -8.491  1.00  0.00    -0.237 OA
ATOM     72  O   UNL     1      -0.859 -10.476  -9.950  1.00  0.00    -0.744 OA
ENDBRANCH  68  69
ENDBRANCH  49  63
BRANCH  50  73
ATOM     73  C   UNL     1      -4.677   4.003  -8.268  1.00  0.00    -0.014 A 
ATOM     74  C   UNL     1      -5.954   4.502  -7.961  1.00  0.00     0.010 A 
ATOM     75  C   UNL     1      -3.628   4.910  -8.511  1.00  0.00     0.010 A 
ATOM     76  C   UNL     1      -6.179   5.882  -7.907  1.00  0.00     0.020 A 
ATOM     77  C   UNL     1      -3.843   6.288  -8.432  1.00  0.00     0.020 A 
ATOM     78  C   UNL     1      -5.122   6.766  -8.141  1.00  0.00     0.054 A 
BRANCH  78  79
ATOM     79  S   UNL     1      -5.418   8.552  -8.006  1.00  0.00     0.124 S 
ATOM     80  O   UNL     1      -6.081   8.845  -9.272  1.00  0.00    -0.237 OA
ATOM     81  O   UNL     1      -6.258   8.649  -6.815  1.00  0.00    -0.237 OA
ATOM     82  O   UNL     1      -4.075   9.109  -7.857  1.00  0.00    -0.744 OA
ENDBRANCH  78  79
ENDBRANCH  50  73
BRANCH  62  83
ATOM     83  C   UNL     1      -6.386  -1.123 -12.681  1.00  0.00    -0.014 A 
ATOM     84  C   UNL     1      -5.878  -0.632 -13.895  1.00  0.00     0.010 A 
ATOM     85  C   UNL     1      -7.667  -1.705 -12.652  1.00  0.00     0.010 A 
ATOM     86  C   UNL     1      -6.646  -0.705 -15.059  1.00  0.00     0.020 A 
ATOM     87  C   UNL     1      -8.429  -1.797 -13.817  1.00  0.00     0.020 A 
ATOM     88  C   UNL     1      -7.918  -1.286 -15.012  1.00  0.00     0.054 A 
BRANCH  88  89
ATOM     89  S   UNL     1      -8.876  -1.421 -16.546  1.00  0.00     0.124 S 
ATOM     90  O   UNL     1      -9.377  -0.059 -16.712  1.00  0.00    -0.237 OA
ATOM     91  O   UNL     1      -7.872  -1.844 -17.519  1.00  0.00    -0.237 OA
ATOM     92  O   UNL     1      -9.891  -2.425 -16.232  1.00  0.00    -0.744 OA
ENDBRANCH  88  89
ENDBRANCH  62  83
ENDBRANCH  36  37
ENDBRANCH  29  31
ENDBRANCH  28  29
ENDBRANCH  27  28
ENDBRANCH   1  27
TORSDOF 17
