REMARK SMILES COc1ccc2c(C)cc(SCC(=O)OCCOC(=O)c3ccc(-c4c5nc(c(-c6ccc(S(=O)(=O)[O-])cc6)c6ccc([nH]6)c(-c6ccc(S(=O)(=O)[O-])cc6)c6nc(c(-c7ccc(S(=O)(=O)[O-])cc7)c7ccc4[nH]7)C=C6)C=C5)cc3)nc2c1
REMARK SMILES IDX 16 1 15 2 13 3 14 4 12 5 11 6 10 7 3 8 4 9 83 10 5 11 82 12
REMARK SMILES IDX 6 13 81 14 7 15 8 16 9 17 2 18 1 19 17 20 18 21 19 22 20 23
REMARK SMILES IDX 21 24 22 25 80 26 23 27 79 28 24 29 25 30 26 31 73 32 27 33
REMARK SMILES IDX 78 34 72 35 74 36 28 37 77 38 71 39 70 40 29 42 59 43 40 44
REMARK SMILES IDX 58 45 41 46 44 47 57 48 75 49 42 50 43 51 56 53 76 54 45 55
REMARK SMILES IDX 30 56 31 57 39 58 32 59 38 60 33 61 34 62 35 63 36 64 37 65
REMARK SMILES IDX 60 66 61 67 69 68 62 69 68 70 63 71 64 72 65 73 66 74 67 75
REMARK SMILES IDX 46 76 47 77 55 78 48 79 54 80 49 81 50 82 51 83 52 84 53 85
REMARK H PARENT 74 41 44 52
REMARK Flexibility Score: inf
ROOT
ATOM      1  C   UNL     1      -1.217   9.631  -3.791  1.00  0.00     0.274 C 
ENDROOT
BRANCH   1   2
ATOM      2  O   UNL     1      -1.514   8.297  -4.252  1.00  0.00    -0.461 OA
BRANCH   2   3
ATOM      3  C   UNL     1      -1.504   8.117  -5.598  1.00  0.00     0.316 C 
ATOM      4  O   UNL     1      -1.214   8.996  -6.406  1.00  0.00    -0.251 OA
BRANCH   3   5
ATOM      5  C   UNL     1      -1.877   6.727  -6.065  1.00  0.00     0.199 C 
BRANCH   5   6
ATOM      6  S   UNL     1      -2.462   5.588  -4.779  1.00  0.00    -0.095 SA
BRANCH   6   7
ATOM      7  C   UNL     1      -1.010   4.699  -4.253  1.00  0.00     0.098 A 
ATOM      8  C   UNL     1       0.359   1.106  -1.435  1.00  0.00     0.121 A 
ATOM      9  C   UNL     1       1.700   1.383  -1.667  1.00  0.00     0.047 A 
ATOM     10  C   UNL     1      -0.618   1.870  -2.079  1.00  0.00     0.075 A 
ATOM     11  C   UNL     1       2.047   2.416  -2.535  1.00  0.00     0.014 A 
ATOM     12  C   UNL     1      -0.299   2.922  -2.925  1.00  0.00     0.075 A 
ATOM     13  C   UNL     1       1.059   3.193  -3.178  1.00  0.00     0.003 A 
ATOM     14  N   UNL     1      -1.298   3.648  -3.455  1.00  0.00    -0.241 NA
ATOM     15  C   UNL     1       1.351   4.246  -4.067  1.00  0.00    -0.039 A 
ATOM     16  C   UNL     1       2.763   4.599  -4.436  1.00  0.00     0.045 C 
ATOM     17  C   UNL     1       0.297   5.016  -4.583  1.00  0.00     0.039 A 
BRANCH   8  18
ATOM     18  O   UNL     1      -0.120   0.123  -0.613  1.00  0.00    -0.497 OA
ATOM     19  C   UNL     1       0.820  -0.456   0.285  1.00  0.00     0.278 C 
ENDBRANCH   8  18
ENDBRANCH   6   7
ENDBRANCH   5   6
ENDBRANCH   3   5
ENDBRANCH   2   3
ENDBRANCH   1   2
BRANCH   1  20
ATOM     20  C   UNL     1       0.236   9.744  -3.343  1.00  0.00     0.275 C 
BRANCH  20  21
ATOM     21  O   UNL     1       1.111   9.375  -4.423  1.00  0.00    -0.458 OA
BRANCH  21  22
ATOM     22  C   UNL     1       2.011   8.413  -4.126  1.00  0.00     0.338 C 
ATOM     23  O   UNL     1       2.183   7.874  -3.045  1.00  0.00    -0.246 OA
BRANCH  22  24
ATOM     24  C   UNL     1       2.818   8.061  -5.310  1.00  0.00     0.060 A 
ATOM     25  C   UNL     1       2.224   7.778  -6.545  1.00  0.00     0.016 A 
ATOM     26  C   UNL     1       4.188   7.857  -5.122  1.00  0.00     0.016 A 
ATOM     27  C   UNL     1       2.996   7.225  -7.572  1.00  0.00     0.010 A 
ATOM     28  C   UNL     1       4.965   7.357  -6.166  1.00  0.00     0.010 A 
ATOM     29  C   UNL     1       4.372   7.013  -7.389  1.00  0.00    -0.014 A 
BRANCH  29  30
ATOM     30  C   UNL     1       5.229   6.503  -8.488  1.00  0.00     0.031 A 
ATOM     31  C   UNL     1       5.854   5.138  -8.423  1.00  0.00     0.074 A 
ATOM     32  C   UNL     1       5.505   7.324  -9.516  1.00  0.00     0.049 A 
ATOM     33  N   UNL     1       6.747   4.600  -9.214  1.00  0.00    -0.248 NA
ATOM     34  C   UNL     1       5.421   4.260  -7.327  1.00  0.00     0.031 C 
ATOM     35  C   UNL     1       4.944   8.664  -9.701  1.00  0.00     0.029 A 
ATOM     36  N   UNL     1       6.349   7.162 -10.583  1.00  0.00    -0.354 N 
ATOM     37  C   UNL     1       6.991   3.328  -8.707  1.00  0.00     0.074 A 
ATOM     38  C   UNL     1       6.158   3.176  -7.533  1.00  0.00     0.031 C 
ATOM     39  C   UNL     1       5.467   9.206 -10.810  1.00  0.00     0.029 A 
ATOM     40  C   UNL     1       6.439   8.277 -11.377  1.00  0.00     0.049 A 
ATOM     41  H   UNL     1       6.842   6.328 -10.762  1.00  0.00     0.167 HD
ATOM     42  C   UNL     1       7.836   2.378  -9.176  1.00  0.00     0.031 A 
ATOM     43  C   UNL     1       7.246   8.547 -12.419  1.00  0.00     0.031 A 
ATOM     44  C   UNL     1       8.671   2.541 -10.337  1.00  0.00     0.049 A 
ATOM     45  C   UNL     1       8.242   7.520 -12.862  1.00  0.00     0.074 A 
ATOM     46  C   UNL     1       9.527   1.622 -10.920  1.00  0.00     0.029 A 
ATOM     47  N   UNL     1       8.767   3.705 -11.084  1.00  0.00    -0.354 N 
ATOM     48  N   UNL     1       8.452   6.319 -12.379  1.00  0.00    -0.248 NA
ATOM     49  C   UNL     1       9.117   7.888 -13.982  1.00  0.00     0.031 C 
ATOM     50  C   UNL     1      10.176   2.247 -11.992  1.00  0.00     0.029 A 
ATOM     51  C   UNL     1       9.694   3.542 -12.100  1.00  0.00     0.049 A 
ATOM     52  H   UNL     1       8.252   4.527 -10.916  1.00  0.00     0.167 HD
ATOM     53  C   UNL     1       9.477   5.781 -13.145  1.00  0.00     0.074 A 
ATOM     54  C   UNL     1       9.840   6.785 -14.126  1.00  0.00     0.031 C 
ATOM     55  C   UNL     1      10.060   4.560 -13.049  1.00  0.00     0.031 A 
BRANCH  42  56
ATOM     56  C   UNL     1       7.930   1.086  -8.410  1.00  0.00    -0.014 A 
ATOM     57  C   UNL     1       6.928   0.104  -8.512  1.00  0.00     0.010 A 
ATOM     58  C   UNL     1       9.064   0.829  -7.618  1.00  0.00     0.010 A 
ATOM     59  C   UNL     1       7.045  -1.100  -7.810  1.00  0.00     0.020 A 
ATOM     60  C   UNL     1       9.191  -0.380  -6.927  1.00  0.00     0.020 A 
ATOM     61  C   UNL     1       8.172  -1.331  -7.014  1.00  0.00     0.054 A 
BRANCH  61  62
ATOM     62  S   UNL     1       8.312  -2.906  -6.124  1.00  0.00     0.124 S 
ATOM     63  O   UNL     1       7.427  -2.684  -4.983  1.00  0.00    -0.237 OA
ATOM     64  O   UNL     1       7.839  -3.879  -7.106  1.00  0.00    -0.237 OA
ATOM     65  O   UNL     1       9.734  -2.994  -5.801  1.00  0.00    -0.744 OA
ENDBRANCH  61  62
ENDBRANCH  42  56
BRANCH  43  66
ATOM     66  C   UNL     1       7.148   9.873 -13.078  1.00  0.00    -0.014 A 
ATOM     67  C   UNL     1       6.482  10.004 -14.306  1.00  0.00     0.010 A 
ATOM     68  C   UNL     1       7.641  11.021 -12.431  1.00  0.00     0.010 A 
ATOM     69  C   UNL     1       6.294  11.268 -14.871  1.00  0.00     0.020 A 
ATOM     70  C   UNL     1       7.438  12.287 -12.984  1.00  0.00     0.020 A 
ATOM     71  C   UNL     1       6.766  12.402 -14.203  1.00  0.00     0.054 A 
BRANCH  71  72
ATOM     72  S   UNL     1       6.412  14.042 -14.892  1.00  0.00     0.124 S 
ATOM     73  O   UNL     1       7.449  14.173 -15.910  1.00  0.00    -0.237 OA
ATOM     74  O   UNL     1       5.047  13.892 -15.393  1.00  0.00    -0.237 OA
ATOM     75  O   UNL     1       6.546  14.929 -13.739  1.00  0.00    -0.744 OA
ENDBRANCH  71  72
ENDBRANCH  43  66
BRANCH  55  76
ATOM     76  C   UNL     1      11.142   4.248 -14.041  1.00  0.00    -0.014 A 
ATOM     77  C   UNL     1      12.438   4.770 -13.881  1.00  0.00     0.010 A 
ATOM     78  C   UNL     1      10.864   3.411 -15.136  1.00  0.00     0.010 A 
ATOM     79  C   UNL     1      13.431   4.485 -14.821  1.00  0.00     0.020 A 
ATOM     80  C   UNL     1      11.860   3.111 -16.068  1.00  0.00     0.020 A 
ATOM     81  C   UNL     1      13.133   3.664 -15.913  1.00  0.00     0.054 A 
BRANCH  81  82
ATOM     82  S   UNL     1      14.440   3.288 -17.113  1.00  0.00     0.124 S 
ATOM     83  O   UNL     1      14.445   4.491 -17.940  1.00  0.00    -0.237 OA
ATOM     84  O   UNL     1      15.617   3.102 -16.267  1.00  0.00    -0.237 OA
ATOM     85  O   UNL     1      13.960   2.077 -17.775  1.00  0.00    -0.744 OA
ENDBRANCH  81  82
ENDBRANCH  55  76
ENDBRANCH  29  30
ENDBRANCH  22  24
ENDBRANCH  21  22
ENDBRANCH  20  21
ENDBRANCH   1  20
TORSDOF 17
