REMARK SMILES Cc1cccc(C(=O)OCCOC(=O)c2ccc(-c3c4nc(c(-c5ccc(S(=O)(=O)[O-])cc5)c5ccc([nH]5)c(-c5ccc(S(=O)(=O)[O-])cc5)c5nc(c(-c6ccc(S(=O)(=O)[O-])cc6)c6ccc3[nH]6)C=C5)C=C4)cc2)c1OC[C@@H]1C[C@H]2CC[C@@H]1C2
REMARK SMILES IDX 10 1 9 2 7 3 8 4 6 5 1 6 2 7 3 8 75 9 4 10 5 11 76 12 77 13
REMARK SMILES IDX 78 14 79 15 83 16 80 17 82 18 84 19 81 20 11 21 12 22 13 23
REMARK SMILES IDX 14 24 15 25 16 26 74 27 17 28 73 29 18 30 19 31 20 32 67 33
REMARK SMILES IDX 21 34 72 35 66 36 68 37 22 38 71 39 65 40 64 41 23 43 53 44
REMARK SMILES IDX 34 45 52 46 35 47 38 48 51 49 69 50 36 51 37 52 50 54 70 55
REMARK SMILES IDX 39 56 24 57 25 58 33 59 26 60 32 61 27 62 28 63 29 64 30 65
REMARK SMILES IDX 31 66 54 67 55 68 63 69 56 70 62 71 57 72 58 73 59 74 60 75
REMARK SMILES IDX 61 76 40 77 41 78 49 79 42 80 48 81 43 82 44 83 45 84 46 85
REMARK SMILES IDX 47 86
REMARK H PARENT 68 42 38 53
REMARK Flexibility Score: inf
ROOT
ATOM      1  C   UNL     1      -0.799   4.502  -1.680  1.00  0.00     0.275 C 
ENDROOT
BRANCH   1   2
ATOM      2  O   UNL     1      -0.622   3.074  -1.709  1.00  0.00    -0.458 OA
BRANCH   2   3
ATOM      3  C   UNL     1       0.109   2.618  -0.648  1.00  0.00     0.342 C 
ATOM      4  O   UNL     1       0.546   3.292   0.247  1.00  0.00    -0.246 OA
BRANCH   3   5
ATOM      5  C   UNL     1       0.360   1.163  -0.755  1.00  0.00     0.102 A 
ATOM      6  C   UNL     1       3.036  -1.316  -1.876  1.00  0.00     0.048 C 
ATOM      7  C   UNL     1       1.777  -0.728  -1.300  1.00  0.00    -0.008 A 
ATOM      8  C   UNL     1       0.726  -1.605  -0.991  1.00  0.00     0.007 A 
ATOM      9  C   UNL     1       1.618   0.661  -1.102  1.00  0.00     0.136 A 
ATOM     10  C   UNL     1      -0.496  -1.108  -0.562  1.00  0.00     0.001 A 
ATOM     11  C   UNL     1      -0.680   0.270  -0.472  1.00  0.00     0.019 A 
BRANCH   9  12
ATOM     12  O   UNL     1       2.705   1.437  -1.385  1.00  0.00    -0.492 OA
BRANCH  12  13
ATOM     13  C   UNL     1       3.296   2.208  -0.329  1.00  0.00     0.233 C 
BRANCH  13  14
ATOM     14  C   UNL     1       3.382   1.615   1.095  1.00  0.00     0.030 C 
ATOM     15  C   UNL     1       4.335   2.467   1.979  1.00  0.00     0.011 C 
ATOM     16  C   UNL     1       4.023   0.213   1.222  1.00  0.00    -0.004 C 
ATOM     17  C   UNL     1       5.344   1.436   2.519  1.00  0.00    -0.010 C 
ATOM     18  C   UNL     1       3.729  -0.335   2.632  1.00  0.00     0.004 C 
ATOM     19  C   UNL     1       5.516   0.516   1.315  1.00  0.00     0.007 C 
ATOM     20  C   UNL     1       4.637   0.516   3.527  1.00  0.00     0.004 C 
ENDBRANCH  13  14
ENDBRANCH  12  13
ENDBRANCH   9  12
ENDBRANCH   3   5
ENDBRANCH   2   3
ENDBRANCH   1   2
BRANCH   1  21
ATOM     21  C   UNL     1      -1.831   4.999  -2.712  1.00  0.00     0.275 C 
BRANCH  21  22
ATOM     22  O   UNL     1      -3.229   4.719  -2.483  1.00  0.00    -0.458 OA
BRANCH  22  23
ATOM     23  C   UNL     1      -3.538   3.475  -2.030  1.00  0.00     0.338 C 
ATOM     24  O   UNL     1      -3.534   2.480  -2.729  1.00  0.00    -0.246 OA
BRANCH  23  25
ATOM     25  C   UNL     1      -3.615   3.539  -0.545  1.00  0.00     0.060 A 
ATOM     26  C   UNL     1      -3.430   2.369   0.196  1.00  0.00     0.016 A 
ATOM     27  C   UNL     1      -3.539   4.786   0.078  1.00  0.00     0.016 A 
ATOM     28  C   UNL     1      -2.987   2.439   1.519  1.00  0.00     0.010 A 
ATOM     29  C   UNL     1      -3.028   4.861   1.350  1.00  0.00     0.010 A 
ATOM     30  C   UNL     1      -2.743   3.693   2.072  1.00  0.00    -0.014 A 
BRANCH  30  31
ATOM     31  C   UNL     1      -2.450   3.953   3.473  1.00  0.00     0.031 A 
ATOM     32  C   UNL     1      -1.085   3.910   4.051  1.00  0.00     0.074 A 
ATOM     33  C   UNL     1      -3.525   4.453   4.125  1.00  0.00     0.049 A 
ATOM     34  N   UNL     1      -0.820   4.284   5.255  1.00  0.00    -0.248 NA
ATOM     35  C   UNL     1       0.111   3.436   3.356  1.00  0.00     0.031 C 
ATOM     36  C   UNL     1      -3.605   5.166   5.389  1.00  0.00     0.029 A 
ATOM     37  N   UNL     1      -4.875   4.298   3.792  1.00  0.00    -0.354 N 
ATOM     38  C   UNL     1       0.547   4.311   5.426  1.00  0.00     0.074 A 
ATOM     39  C   UNL     1       1.089   3.748   4.221  1.00  0.00     0.031 C 
ATOM     40  C   UNL     1      -4.859   5.032   5.864  1.00  0.00     0.029 A 
ATOM     41  C   UNL     1      -5.527   4.066   4.997  1.00  0.00     0.049 A 
ATOM     42  H   UNL     1      -5.278   4.344   2.895  1.00  0.00     0.167 HD
ATOM     43  C   UNL     1       1.041   4.886   6.557  1.00  0.00     0.031 A 
ATOM     44  C   UNL     1      -5.885   2.804   5.398  1.00  0.00     0.031 A 
ATOM     45  C   UNL     1      -0.024   4.987   7.548  1.00  0.00     0.049 A 
ATOM     46  C   UNL     1      -5.186   2.443   6.697  1.00  0.00     0.074 A 
ATOM     47  C   UNL     1      -0.894   6.004   7.895  1.00  0.00     0.029 A 
ATOM     48  N   UNL     1      -0.562   3.804   8.044  1.00  0.00    -0.354 N 
ATOM     49  N   UNL     1      -3.953   2.769   6.995  1.00  0.00    -0.248 NA
ATOM     50  C   UNL     1      -5.887   1.797   7.802  1.00  0.00     0.031 C 
ATOM     51  C   UNL     1      -2.050   5.390   8.458  1.00  0.00     0.029 A 
ATOM     52  C   UNL     1      -1.849   4.017   8.493  1.00  0.00     0.049 A 
ATOM     53  H   UNL     1      -0.092   2.939   8.071  1.00  0.00     0.167 HD
ATOM     54  C   UNL     1      -3.741   2.521   8.329  1.00  0.00     0.074 A 
ATOM     55  C   UNL     1      -4.965   1.871   8.776  1.00  0.00     0.031 C 
ATOM     56  C   UNL     1      -2.634   2.915   9.027  1.00  0.00     0.031 A 
BRANCH  43  57
ATOM     57  C   UNL     1       2.396   5.542   6.716  1.00  0.00    -0.014 A 
ATOM     58  C   UNL     1       2.603   6.394   7.826  1.00  0.00     0.010 A 
ATOM     59  C   UNL     1       3.437   5.498   5.768  1.00  0.00     0.010 A 
ATOM     60  C   UNL     1       3.744   7.203   7.951  1.00  0.00     0.020 A 
ATOM     61  C   UNL     1       4.594   6.293   5.889  1.00  0.00     0.020 A 
ATOM     62  C   UNL     1       4.729   7.162   6.969  1.00  0.00     0.054 A 
BRANCH  62  63
ATOM     63  S   UNL     1       6.154   8.276   7.106  1.00  0.00     0.124 S 
ATOM     64  O   UNL     1       5.535   9.593   6.980  1.00  0.00    -0.237 OA
ATOM     65  O   UNL     1       6.685   7.955   8.428  1.00  0.00    -0.237 OA
ATOM     66  O   UNL     1       7.009   7.887   5.986  1.00  0.00    -0.744 OA
ENDBRANCH  62  63
ENDBRANCH  43  57
BRANCH  44  67
ATOM     67  C   UNL     1      -6.216   1.835   4.302  1.00  0.00    -0.014 A 
ATOM     68  C   UNL     1      -7.261   2.175   3.413  1.00  0.00     0.010 A 
ATOM     69  C   UNL     1      -5.363   0.776   3.943  1.00  0.00     0.010 A 
ATOM     70  C   UNL     1      -7.362   1.586   2.147  1.00  0.00     0.020 A 
ATOM     71  C   UNL     1      -5.477   0.161   2.680  1.00  0.00     0.020 A 
ATOM     72  C   UNL     1      -6.446   0.603   1.774  1.00  0.00     0.054 A 
BRANCH  72  73
ATOM     73  S   UNL     1      -6.426   0.070   0.033  1.00  0.00     0.124 S 
ATOM     74  O   UNL     1      -7.649  -0.719  -0.066  1.00  0.00    -0.237 OA
ATOM     75  O   UNL     1      -6.444   1.349  -0.675  1.00  0.00    -0.237 OA
ATOM     76  O   UNL     1      -5.177  -0.681  -0.076  1.00  0.00    -0.744 OA
ENDBRANCH  72  73
ENDBRANCH  44  67
BRANCH  56  77
ATOM     77  C   UNL     1      -2.249   2.368  10.380  1.00  0.00    -0.014 A 
ATOM     78  C   UNL     1      -2.700   1.129  10.861  1.00  0.00     0.010 A 
ATOM     79  C   UNL     1      -1.275   3.043  11.153  1.00  0.00     0.010 A 
ATOM     80  C   UNL     1      -2.286   0.638  12.103  1.00  0.00     0.020 A 
ATOM     81  C   UNL     1      -0.809   2.533  12.366  1.00  0.00     0.020 A 
ATOM     82  C   UNL     1      -1.350   1.349  12.852  1.00  0.00     0.054 A 
BRANCH  82  83
ATOM     83  S   UNL     1      -0.802   0.682  14.439  1.00  0.00     0.124 S 
ATOM     84  O   UNL     1      -1.848   1.161  15.339  1.00  0.00    -0.237 OA
ATOM     85  O   UNL     1      -0.794  -0.760  14.202  1.00  0.00    -0.237 OA
ATOM     86  O   UNL     1       0.515   1.283  14.629  1.00  0.00    -0.744 OA
ENDBRANCH  82  83
ENDBRANCH  56  77
ENDBRANCH  30  31
ENDBRANCH  23  25
ENDBRANCH  22  23
ENDBRANCH  21  22
ENDBRANCH   1  21
TORSDOF 17
