REMARK SMILES Cc1ccc(C[N@H+]2CCC[C@@H](C(=O)OCCOC(=O)c3ccc(-c4c5nc(c(-c6ccc(S(=O)(=O)[O-])cc6)c6ccc([nH]6)c(-c6ccc(S(=O)(=O)[O-])cc6)c6nc(c(-c7ccc(S(=O)(=O)[O-])cc7)c7ccc4[nH]7)C=C6)C=C5)cc3)C2)o1
REMARK SMILES IDX 16 1 15 2 14 3 12 4 13 5 11 6 7 7 8 8 80 9 9 11 10 12 6 13
REMARK SMILES IDX 5 14 1 15 2 16 3 17 81 18 4 19 17 20 18 21 19 22 20 23 21 24
REMARK SMILES IDX 79 25 22 26 78 27 23 28 24 29 25 30 72 31 26 32 77 33 71 34
REMARK SMILES IDX 73 35 27 36 76 37 70 38 69 39 28 41 58 42 39 43 57 44 40 45
REMARK SMILES IDX 43 46 56 47 74 48 41 49 42 50 55 52 75 53 44 54 29 55 30 56
REMARK SMILES IDX 38 57 31 58 37 59 32 60 33 61 34 62 35 63 36 64 59 65 60 66
REMARK SMILES IDX 68 67 61 68 67 69 62 70 63 71 64 72 65 73 66 74 45 75 46 76
REMARK SMILES IDX 54 77 47 78 53 79 48 80 49 81 50 82 51 83 52 84
REMARK H PARENT 7 10 73 40 43 51
REMARK Flexibility Score: inf
ROOT
ATOM      1  C   UNL     1       2.598   6.135   3.536  1.00  0.00     0.275 C 
ENDROOT
BRANCH   1   2
ATOM      2  C   UNL     1       1.579   6.772   2.595  1.00  0.00     0.274 C 
BRANCH   2   3
ATOM      3  O   UNL     1       0.288   6.148   2.731  1.00  0.00    -0.462 OA
BRANCH   3   4
ATOM      4  C   UNL     1      -0.026   5.263   1.744  1.00  0.00     0.314 C 
ATOM      5  O   UNL     1       0.688   5.041   0.773  1.00  0.00    -0.252 OA
BRANCH   4   6
ATOM      6  C   UNL     1      -1.390   4.621   1.962  1.00  0.00     0.154 C 
ATOM      7  N   UNL     1      -2.726   2.667   1.104  1.00  0.00    -0.328 N 
ATOM      8  C   UNL     1      -2.709   2.031   2.422  1.00  0.00     0.262 C 
ATOM      9  C   UNL     1      -1.534   3.506   0.913  1.00  0.00     0.278 C 
ATOM     10  H   UNL     1      -3.548   3.270   1.072  1.00  0.00     0.348 HD
ATOM     11  C   UNL     1      -2.730   3.108   3.508  1.00  0.00     0.062 C 
ATOM     12  C   UNL     1      -1.555   4.077   3.387  1.00  0.00     0.027 C 
BRANCH   7  13
ATOM     13  C   UNL     1      -2.886   1.688   0.002  1.00  0.00     0.338 C 
BRANCH  13  14
ATOM     14  C   UNL     1      -1.750   0.742  -0.216  1.00  0.00     0.158 A 
ATOM     15  C   UNL     1       1.606   0.639  -1.434  1.00  0.00     0.087 C 
ATOM     16  C   UNL     1       0.287   0.262  -0.888  1.00  0.00     0.101 A 
ATOM     17  C   UNL     1      -0.248  -0.912  -0.406  1.00  0.00     0.046 A 
ATOM     18  O   UNL     1      -0.632   1.261  -0.805  1.00  0.00    -0.460 OA
ATOM     19  C   UNL     1      -1.563  -0.603   0.026  1.00  0.00     0.052 A 
ENDBRANCH  13  14
ENDBRANCH   7  13
ENDBRANCH   4   6
ENDBRANCH   3   4
ENDBRANCH   2   3
ENDBRANCH   1   2
BRANCH   1  20
ATOM     20  O   UNL     1       2.701   4.719   3.303  1.00  0.00    -0.458 OA
BRANCH  20  21
ATOM     21  C   UNL     1       2.342   3.938   4.348  1.00  0.00     0.338 C 
ATOM     22  O   UNL     1       1.948   4.301   5.443  1.00  0.00    -0.246 OA
BRANCH  21  23
ATOM     23  C   UNL     1       2.521   2.519   4.008  1.00  0.00     0.060 A 
ATOM     24  C   UNL     1       1.630   1.891   3.139  1.00  0.00     0.016 A 
ATOM     25  C   UNL     1       3.494   1.778   4.682  1.00  0.00     0.016 A 
ATOM     26  C   UNL     1       1.658   0.504   3.003  1.00  0.00     0.010 A 
ATOM     27  C   UNL     1       3.565   0.396   4.489  1.00  0.00     0.010 A 
ATOM     28  C   UNL     1       2.623  -0.259   3.679  1.00  0.00    -0.014 A 
BRANCH  28  29
ATOM     29  C   UNL     1       2.622  -1.740   3.563  1.00  0.00     0.031 A 
ATOM     30  C   UNL     1       2.295  -2.598   4.755  1.00  0.00     0.074 A 
ATOM     31  C   UNL     1       2.894  -2.319   2.378  1.00  0.00     0.049 A 
ATOM     32  N   UNL     1       2.317  -3.903   4.862  1.00  0.00    -0.248 NA
ATOM     33  C   UNL     1       1.905  -1.901   5.991  1.00  0.00     0.031 C 
ATOM     34  C   UNL     1       3.210  -1.602   1.143  1.00  0.00     0.029 A 
ATOM     35  N   UNL     1       2.924  -3.641   2.013  1.00  0.00    -0.354 N 
ATOM     36  C   UNL     1       2.002  -4.182   6.186  1.00  0.00     0.074 A 
ATOM     37  C   UNL     1       1.776  -2.910   6.842  1.00  0.00     0.031 C 
ATOM     38  C   UNL     1       3.337  -2.488   0.142  1.00  0.00     0.029 A 
ATOM     39  C   UNL     1       3.172  -3.836   0.676  1.00  0.00     0.049 A 
ATOM     40  H   UNL     1       2.781  -4.379   2.648  1.00  0.00     0.167 HD
ATOM     41  C   UNL     1       1.925  -5.385   6.805  1.00  0.00     0.031 A 
ATOM     42  C   UNL     1       3.266  -4.972  -0.042  1.00  0.00     0.031 A 
ATOM     43  C   UNL     1       2.130  -6.649   6.151  1.00  0.00     0.049 A 
ATOM     44  C   UNL     1       3.140  -6.294   0.657  1.00  0.00     0.074 A 
ATOM     45  C   UNL     1       2.102  -7.921   6.699  1.00  0.00     0.029 A 
ATOM     46  N   UNL     1       2.388  -6.804   4.797  1.00  0.00    -0.354 N 
ATOM     47  N   UNL     1       2.897  -6.535   1.923  1.00  0.00    -0.248 NA
ATOM     48  C   UNL     1       3.329  -7.497  -0.165  1.00  0.00     0.031 C 
ATOM     49  C   UNL     1       2.368  -8.843   5.679  1.00  0.00     0.029 A 
ATOM     50  C   UNL     1       2.527  -8.147   4.491  1.00  0.00     0.049 A 
ATOM     51  H   UNL     1       2.461  -6.067   4.149  1.00  0.00     0.167 HD
ATOM     52  C   UNL     1       2.925  -7.917   2.055  1.00  0.00     0.074 A 
ATOM     53  C   UNL     1       3.167  -8.461   0.733  1.00  0.00     0.031 C 
ATOM     54  C   UNL     1       2.785  -8.668   3.174  1.00  0.00     0.031 A 
BRANCH  41  55
ATOM     55  C   UNL     1       1.668  -5.376   8.286  1.00  0.00    -0.014 A 
ATOM     56  C   UNL     1       0.383  -5.143   8.807  1.00  0.00     0.010 A 
ATOM     57  C   UNL     1       2.737  -5.606   9.172  1.00  0.00     0.010 A 
ATOM     58  C   UNL     1       0.181  -5.094  10.190  1.00  0.00     0.020 A 
ATOM     59  C   UNL     1       2.536  -5.575  10.554  1.00  0.00     0.020 A 
ATOM     60  C   UNL     1       1.262  -5.296  11.054  1.00  0.00     0.054 A 
BRANCH  60  61
ATOM     61  S   UNL     1       0.986  -5.216  12.846  1.00  0.00     0.124 S 
ATOM     62  O   UNL     1       0.977  -3.775  13.082  1.00  0.00    -0.237 OA
ATOM     63  O   UNL     1      -0.302  -5.886  13.008  1.00  0.00    -0.237 OA
ATOM     64  O   UNL     1       2.131  -5.933  13.403  1.00  0.00    -0.744 OA
ENDBRANCH  60  61
ENDBRANCH  41  55
BRANCH  42  65
ATOM     65  C   UNL     1       3.497  -4.898  -1.507  1.00  0.00    -0.014 A 
ATOM     66  C   UNL     1       2.448  -5.176  -2.400  1.00  0.00     0.010 A 
ATOM     67  C   UNL     1       4.749  -4.509  -2.016  1.00  0.00     0.010 A 
ATOM     68  C   UNL     1       2.645  -5.061  -3.779  1.00  0.00     0.020 A 
ATOM     69  C   UNL     1       4.943  -4.373  -3.392  1.00  0.00     0.020 A 
ATOM     70  C   UNL     1       3.891  -4.657  -4.266  1.00  0.00     0.054 A 
BRANCH  70  71
ATOM     71  S   UNL     1       4.114  -4.423  -6.052  1.00  0.00     0.124 S 
ATOM     72  O   UNL     1       4.455  -5.772  -6.493  1.00  0.00    -0.237 OA
ATOM     73  O   UNL     1       2.807  -3.929  -6.480  1.00  0.00    -0.237 OA
ATOM     74  O   UNL     1       5.194  -3.442  -6.128  1.00  0.00    -0.744 OA
ENDBRANCH  70  71
ENDBRANCH  42  65
BRANCH  54  75
ATOM     75  C   UNL     1       2.913 -10.156   3.016  1.00  0.00    -0.014 A 
ATOM     76  C   UNL     1       4.179 -10.753   2.878  1.00  0.00     0.010 A 
ATOM     77  C   UNL     1       1.766 -10.969   3.040  1.00  0.00     0.010 A 
ATOM     78  C   UNL     1       4.295 -12.138   2.740  1.00  0.00     0.020 A 
ATOM     79  C   UNL     1       1.880 -12.356   2.918  1.00  0.00     0.020 A 
ATOM     80  C   UNL     1       3.143 -12.930   2.755  1.00  0.00     0.054 A 
BRANCH  80  81
ATOM     81  S   UNL     1       3.315 -14.731   2.611  1.00  0.00     0.124 S 
ATOM     82  O   UNL     1       3.490 -14.904   1.172  1.00  0.00    -0.237 OA
ATOM     83  O   UNL     1       4.494 -15.012   3.426  1.00  0.00    -0.237 OA
ATOM     84  O   UNL     1       2.057 -15.240   3.153  1.00  0.00    -0.744 OA
ENDBRANCH  80  81
ENDBRANCH  54  75
ENDBRANCH  28  29
ENDBRANCH  21  23
ENDBRANCH  20  21
ENDBRANCH   1  20
TORSDOF 16
