REMARK SMILES CC1(C)CC[NH+](CC[C@H]2CCC[C@]2([NH3+])C(=O)OCCOC(=O)c2ccc(-c3c4nc(c(-c5ccc(S(=O)(=O)[O-])cc5)c5ccc([nH]5)c(-c5ccc(S(=O)(=O)[O-])cc5)c5nc(c(-c6ccc(S(=O)(=O)[O-])cc6)c6ccc3[nH]6)C=C5)C=C4)cc2)CC1
REMARK SMILES IDX 18 1 17 2 15 3 16 4 13 5 9 6 10 7 11 8 12 9 8 10 7 11 6 12
REMARK SMILES IDX 1 13 2 14 3 15 4 16 84 17 5 18 83 19 14 21 19 25 20 26 21 27
REMARK SMILES IDX 22 28 23 29 24 30 82 31 25 32 81 33 26 34 27 35 28 36 75 37
REMARK SMILES IDX 29 38 80 39 74 40 76 41 30 42 79 43 73 44 72 45 31 47 61 48
REMARK SMILES IDX 42 49 60 50 43 51 46 52 59 53 77 54 44 55 45 56 58 58 78 59
REMARK SMILES IDX 47 60 32 61 33 62 41 63 34 64 40 65 35 66 36 67 37 68 38 69
REMARK SMILES IDX 39 70 62 71 63 72 71 73 64 74 70 75 65 76 66 77 67 78 68 79
REMARK SMILES IDX 69 80 48 81 49 82 57 83 50 84 56 85 51 86 52 87 53 88 54 89
REMARK SMILES IDX 55 90
REMARK H PARENT 6 20 14 22 14 23 14 24 76 46 46 57
REMARK Flexibility Score: inf
ROOT
ATOM      1  C   UNL     1      -2.643   2.622   5.938  1.00  0.00     0.274 C 
ENDROOT
BRANCH   1   2
ATOM      2  O   UNL     1      -1.481   2.220   5.166  1.00  0.00    -0.457 OA
BRANCH   2   3
ATOM      3  C   UNL     1      -0.861   3.224   4.471  1.00  0.00     0.368 C 
ATOM      4  O   UNL     1      -1.133   4.409   4.643  1.00  0.00    -0.245 OA
BRANCH   3   5
ATOM      5  C   UNL     1       0.200   2.715   3.416  1.00  0.00     0.195 C 
ATOM      6  C   UNL     1      -0.100   1.271   2.878  1.00  0.00     0.068 C 
ATOM      7  C   UNL     1       1.016   0.381   3.489  1.00  0.00     0.011 C 
ATOM      8  C   UNL     1       1.644   1.199   4.608  1.00  0.00     0.008 C 
ATOM      9  C   UNL     1       1.584   2.612   4.069  1.00  0.00     0.081 C 
BRANCH   6  10
ATOM     10  C   UNL     1      -0.190   1.106   1.338  1.00  0.00     0.072 C 
BRANCH  10  11
ATOM     11  C   UNL     1      -1.256   0.113   0.842  1.00  0.00     0.262 C 
BRANCH  11  12
ATOM     12  N   UNL     1      -2.641   0.563   0.713  1.00  0.00    -0.335 N 
ATOM     13  C   UNL     1      -5.487   2.993   1.280  1.00  0.00     0.011 C 
ATOM     14  C   UNL     1      -3.993   3.075   1.625  1.00  0.00    -0.025 C 
ATOM     15  C   UNL     1      -3.752   4.415   2.355  1.00  0.00     0.011 C 
ATOM     16  C   UNL     1      -3.611   1.920   2.561  1.00  0.00     0.068 C 
ATOM     17  C   UNL     1      -3.110   3.022   0.360  1.00  0.00     0.068 C 
ATOM     18  C   UNL     1      -3.480   0.555   1.894  1.00  0.00     0.262 C 
ATOM     19  C   UNL     1      -2.949   1.620  -0.241  1.00  0.00     0.262 C 
ATOM     20  H   UNL     1      -2.958  -0.268   0.211  1.00  0.00     0.348 HD
ENDBRANCH  11  12
ENDBRANCH  10  11
ENDBRANCH   6  10
BRANCH   5  21
ATOM     21  N   UNL     1       0.321   3.765   2.383  1.00  0.00    -0.343 N 
ATOM     22  H   UNL     1       1.000   3.473   1.679  1.00  0.00     0.345 HD
ATOM     23  H   UNL     1       0.632   4.634   2.816  1.00  0.00     0.345 HD
ATOM     24  H   UNL     1      -0.586   3.912   1.940  1.00  0.00     0.345 HD
ENDBRANCH   5  21
ENDBRANCH   3   5
ENDBRANCH   2   3
ENDBRANCH   1   2
BRANCH   1  25
ATOM     25  C   UNL     1      -2.812   1.740   7.173  1.00  0.00     0.275 C 
BRANCH  25  26
ATOM     26  O   UNL     1      -1.820   2.161   8.116  1.00  0.00    -0.458 OA
BRANCH  26  27
ATOM     27  C   UNL     1      -0.783   1.314   8.286  1.00  0.00     0.338 C 
ATOM     28  O   UNL     1      -0.777   0.106   8.141  1.00  0.00    -0.246 OA
BRANCH  27  29
ATOM     29  C   UNL     1       0.420   2.132   8.514  1.00  0.00     0.060 A 
ATOM     30  C   UNL     1       0.683   3.182   7.631  1.00  0.00     0.016 A 
ATOM     31  C   UNL     1       1.357   1.776   9.476  1.00  0.00     0.016 A 
ATOM     32  C   UNL     1       1.926   3.793   7.620  1.00  0.00     0.010 A 
ATOM     33  C   UNL     1       2.563   2.481   9.541  1.00  0.00     0.010 A 
ATOM     34  C   UNL     1       2.882   3.462   8.579  1.00  0.00    -0.014 A 
BRANCH  34  35
ATOM     35  C   UNL     1       4.243   4.060   8.529  1.00  0.00     0.031 A 
ATOM     36  C   UNL     1       5.437   3.144   8.527  1.00  0.00     0.074 A 
ATOM     37  C   UNL     1       4.431   5.394   8.463  1.00  0.00     0.049 A 
ATOM     38  N   UNL     1       6.674   3.401   8.857  1.00  0.00    -0.248 NA
ATOM     39  C   UNL     1       5.196   1.745   8.133  1.00  0.00     0.031 C 
ATOM     40  C   UNL     1       3.380   6.408   8.337  1.00  0.00     0.029 A 
ATOM     41  N   UNL     1       5.591   6.128   8.489  1.00  0.00    -0.354 N 
ATOM     42  C   UNL     1       7.331   2.176   8.824  1.00  0.00     0.074 A 
ATOM     43  C   UNL     1       6.366   1.184   8.403  1.00  0.00     0.031 C 
ATOM     44  C   UNL     1       3.944   7.622   8.246  1.00  0.00     0.029 A 
ATOM     45  C   UNL     1       5.380   7.486   8.447  1.00  0.00     0.049 A 
ATOM     46  H   UNL     1       6.486   5.722   8.534  1.00  0.00     0.167 HD
ATOM     47  C   UNL     1       8.618   1.912   9.150  1.00  0.00     0.031 A 
ATOM     48  C   UNL     1       6.231   8.514   8.631  1.00  0.00     0.031 A 
ATOM     49  C   UNL     1       9.572   2.933   9.490  1.00  0.00     0.049 A 
ATOM     50  C   UNL     1       7.655   8.207   8.996  1.00  0.00     0.074 A 
ATOM     51  C   UNL     1      10.896   2.792   9.867  1.00  0.00     0.029 A 
ATOM     52  N   UNL     1       9.308   4.295   9.454  1.00  0.00    -0.354 N 
ATOM     53  N   UNL     1       8.234   7.038   9.135  1.00  0.00    -0.248 NA
ATOM     54  C   UNL     1       8.528   9.355   9.268  1.00  0.00     0.031 C 
ATOM     55  C   UNL     1      11.426   4.071  10.076  1.00  0.00     0.029 A 
ATOM     56  C   UNL     1      10.444   5.007   9.791  1.00  0.00     0.049 A 
ATOM     57  H   UNL     1       8.439   4.695   9.221  1.00  0.00     0.167 HD
ATOM     58  C   UNL     1       9.540   7.308   9.519  1.00  0.00     0.074 A 
ATOM     59  C   UNL     1       9.673   8.752   9.561  1.00  0.00     0.031 C 
ATOM     60  C   UNL     1      10.539   6.443   9.824  1.00  0.00     0.031 A 
BRANCH  47  61
ATOM     61  C   UNL     1       9.035   0.469   9.229  1.00  0.00    -0.014 A 
ATOM     62  C   UNL     1       9.236  -0.315   8.080  1.00  0.00     0.010 A 
ATOM     63  C   UNL     1       9.240  -0.111  10.496  1.00  0.00     0.010 A 
ATOM     64  C   UNL     1       9.595  -1.662   8.198  1.00  0.00     0.020 A 
ATOM     65  C   UNL     1       9.622  -1.450  10.617  1.00  0.00     0.020 A 
ATOM     66  C   UNL     1       9.778  -2.223   9.466  1.00  0.00     0.054 A 
BRANCH  66  67
ATOM     67  S   UNL     1      10.255  -3.969   9.596  1.00  0.00     0.124 S 
ATOM     68  O   UNL     1       8.987  -4.646   9.336  1.00  0.00    -0.237 OA
ATOM     69  O   UNL     1      11.266  -4.107   8.551  1.00  0.00    -0.237 OA
ATOM     70  O   UNL     1      10.757  -4.090  10.963  1.00  0.00    -0.744 OA
ENDBRANCH  66  67
ENDBRANCH  47  61
BRANCH  48  71
ATOM     71  C   UNL     1       5.726   9.913   8.573  1.00  0.00    -0.014 A 
ATOM     72  C   UNL     1       6.082  10.759   7.510  1.00  0.00     0.010 A 
ATOM     73  C   UNL     1       4.844  10.391   9.561  1.00  0.00     0.010 A 
ATOM     74  C   UNL     1       5.561  12.055   7.432  1.00  0.00     0.020 A 
ATOM     75  C   UNL     1       4.298  11.674   9.470  1.00  0.00     0.020 A 
ATOM     76  C   UNL     1       4.667  12.502   8.409  1.00  0.00     0.054 A 
BRANCH  76  77
ATOM     77  S   UNL     1       3.931  14.153   8.247  1.00  0.00     0.124 S 
ATOM     78  O   UNL     1       4.996  15.011   8.755  1.00  0.00    -0.237 OA
ATOM     79  O   UNL     1       3.669  14.249   6.813  1.00  0.00    -0.237 OA
ATOM     80  O   UNL     1       2.735  14.075   9.084  1.00  0.00    -0.744 OA
ENDBRANCH  76  77
ENDBRANCH  48  71
BRANCH  60  81
ATOM     81  C   UNL     1      11.862   7.043  10.199  1.00  0.00    -0.014 A 
ATOM     82  C   UNL     1      12.071   7.587  11.477  1.00  0.00     0.010 A 
ATOM     83  C   UNL     1      12.919   7.024   9.271  1.00  0.00     0.010 A 
ATOM     84  C   UNL     1      13.312   8.130  11.814  1.00  0.00     0.020 A 
ATOM     85  C   UNL     1      14.166   7.549   9.612  1.00  0.00     0.020 A 
ATOM     86  C   UNL     1      14.351   8.112  10.877  1.00  0.00     0.054 A 
BRANCH  86  87
ATOM     87  S   UNL     1      15.966   8.790  11.345  1.00  0.00     0.124 S 
ATOM     88  O   UNL     1      15.737  10.227  11.223  1.00  0.00    -0.237 OA
ATOM     89  O   UNL     1      16.143   8.294  12.708  1.00  0.00    -0.237 OA
ATOM     90  O   UNL     1      16.879   8.217  10.358  1.00  0.00    -0.744 OA
ENDBRANCH  86  87
ENDBRANCH  60  81
ENDBRANCH  34  35
ENDBRANCH  27  29
ENDBRANCH  26  27
ENDBRANCH  25  26
ENDBRANCH   1  25
TORSDOF 18
