REMARK SMILES CCn1ccc([C@@H](C)NC(=O)c2cnn([C@H](C)C(=O)OCCOC(=O)c3ccc(-c4c5nc(c(-c6ccc(S(=O)(=O)[O-])cc6)c6ccc([nH]6)c(-c6ccc(S(=O)(=O)[O-])cc6)c6nc(c(-c7ccc(S(=O)(=O)[O-])cc7)c7ccc4[nH]7)C=C6)C=C5)cc3)c2)n1
REMARK SMILES IDX 21 1 20 2 18 3 19 4 16 5 17 6 15 7 12 8 13 9 86 10 14 11
REMARK SMILES IDX 10 12 9 13 11 15 7 16 8 17 6 18 3 19 4 20 87 21 5 22 2 23
REMARK SMILES IDX 1 24 22 25 23 26 24 27 25 28 26 29 27 30 85 31 28 32 84 33
REMARK SMILES IDX 29 34 30 35 31 36 78 37 32 38 83 39 77 40 79 41 33 42 82 43
REMARK SMILES IDX 76 44 75 45 34 47 64 48 45 49 63 50 46 51 49 52 62 53 80 54
REMARK SMILES IDX 47 55 48 56 61 58 81 59 50 60 35 61 36 62 44 63 37 64 43 65
REMARK SMILES IDX 38 66 39 67 40 68 41 69 42 70 65 71 66 72 74 73 67 74 73 75
REMARK SMILES IDX 68 76 69 77 70 78 71 79 72 80 51 81 52 82 60 83 53 84 59 85
REMARK SMILES IDX 54 86 55 87 56 88 57 89 58 90
REMARK H PARENT 9 14 79 46 49 57
REMARK Flexibility Score: inf
ROOT
ATOM      1  C   UNL     1       6.593  -3.097  -7.643  1.00  0.00     0.274 C 
ENDROOT
BRANCH   1   2
ATOM      2  O   UNL     1       5.991  -2.410  -6.531  1.00  0.00    -0.460 OA
BRANCH   2   3
ATOM      3  C   UNL     1       6.744  -2.301  -5.400  1.00  0.00     0.330 C 
ATOM      4  O   UNL     1       7.853  -2.813  -5.254  1.00  0.00    -0.250 OA
BRANCH   3   5
ATOM      5  C   UNL     1       6.067  -1.498  -4.306  1.00  0.00     0.213 C 
ATOM      6  C   UNL     1       5.269  -0.273  -4.736  1.00  0.00     0.046 C 
BRANCH   5   7
ATOM      7  N   UNL     1       5.259  -2.396  -3.497  1.00  0.00    -0.258 N 
ATOM      8  C   UNL     1       4.487  -3.568  -1.814  1.00  0.00     0.077 A 
ATOM      9  C   UNL     1       3.940  -3.975  -3.049  1.00  0.00     0.149 A 
ATOM     10  C   UNL     1       5.281  -2.488  -2.135  1.00  0.00     0.123 A 
ATOM     11  N   UNL     1       4.390  -3.251  -4.073  1.00  0.00    -0.180 NA
BRANCH   8  12
ATOM     12  C   UNL     1       4.286  -4.108  -0.494  1.00  0.00     0.254 C 
ATOM     13  N   UNL     1       4.511  -5.443  -0.300  1.00  0.00    -0.344 N 
ATOM     14  H   UNL     1       4.197  -5.810   0.558  1.00  0.00     0.164 HD
ATOM     15  O   UNL     1       3.937  -3.412   0.456  1.00  0.00    -0.269 OA
BRANCH  13  16
ATOM     16  C   UNL     1       5.156  -6.396  -1.201  1.00  0.00     0.130 C 
ATOM     17  C   UNL     1       4.186  -7.516  -1.557  1.00  0.00     0.038 C 
BRANCH  16  18
ATOM     18  C   UNL     1       6.410  -6.912  -0.545  1.00  0.00     0.084 A 
ATOM     19  N   UNL     1       8.478  -7.349  -0.327  1.00  0.00    -0.273 N 
ATOM     20  C   UNL     1       7.908  -7.780   0.838  1.00  0.00     0.109 A 
ATOM     21  N   UNL     1       7.581  -6.849  -1.194  1.00  0.00    -0.176 NA
ATOM     22  C   UNL     1       6.565  -7.508   0.731  1.00  0.00     0.047 A 
BRANCH  19  23
ATOM     23  C   UNL     1       9.884  -7.454  -0.672  1.00  0.00     0.141 C 
ATOM     24  C   UNL     1      10.331  -6.632  -1.872  1.00  0.00     0.029 C 
ENDBRANCH  19  23
ENDBRANCH  16  18
ENDBRANCH  13  16
ENDBRANCH   8  12
ENDBRANCH   5   7
ENDBRANCH   3   5
ENDBRANCH   2   3
ENDBRANCH   1   2
BRANCH   1  25
ATOM     25  C   UNL     1       7.302  -2.124  -8.575  1.00  0.00     0.275 C 
BRANCH  25  26
ATOM     26  O   UNL     1       8.486  -1.602  -7.973  1.00  0.00    -0.458 OA
BRANCH  26  27
ATOM     27  C   UNL     1       8.290  -0.480  -7.246  1.00  0.00     0.338 C 
ATOM     28  O   UNL     1       7.221   0.006  -6.924  1.00  0.00    -0.246 OA
BRANCH  27  29
ATOM     29  C   UNL     1       9.556   0.219  -7.033  1.00  0.00     0.060 A 
ATOM     30  C   UNL     1       9.505   1.384  -6.258  1.00  0.00     0.016 A 
ATOM     31  C   UNL     1      10.644  -0.084  -7.858  1.00  0.00     0.016 A 
ATOM     32  C   UNL     1      10.454   2.356  -6.475  1.00  0.00     0.010 A 
ATOM     33  C   UNL     1      11.579   0.893  -8.087  1.00  0.00     0.010 A 
ATOM     34  C   UNL     1      11.419   2.128  -7.458  1.00  0.00    -0.014 A 
BRANCH  34  35
ATOM     35  C   UNL     1      12.284   3.225  -7.824  1.00  0.00     0.031 A 
ATOM     36  C   UNL     1      13.383   3.477  -6.872  1.00  0.00     0.074 A 
ATOM     37  C   UNL     1      12.178   3.837  -9.017  1.00  0.00     0.049 A 
ATOM     38  N   UNL     1      13.598   4.532  -6.161  1.00  0.00    -0.248 NA
ATOM     39  C   UNL     1      14.285   2.350  -6.582  1.00  0.00     0.031 C 
ATOM     40  C   UNL     1      11.349   3.443 -10.161  1.00  0.00     0.029 A 
ATOM     41  N   UNL     1      12.922   4.860  -9.509  1.00  0.00    -0.354 N 
ATOM     42  C   UNL     1      14.780   4.279  -5.477  1.00  0.00     0.074 A 
ATOM     43  C   UNL     1      15.052   2.872  -5.628  1.00  0.00     0.031 C 
ATOM     44  C   UNL     1      11.830   4.044 -11.273  1.00  0.00     0.029 A 
ATOM     45  C   UNL     1      12.907   4.945 -10.893  1.00  0.00     0.049 A 
ATOM     46  H   UNL     1      13.426   5.483  -8.937  1.00  0.00     0.167 HD
ATOM     47  C   UNL     1      15.595   5.279  -5.045  1.00  0.00     0.031 A 
ATOM     48  C   UNL     1      13.802   5.616 -11.659  1.00  0.00     0.031 A 
ATOM     49  C   UNL     1      14.940   6.558  -5.040  1.00  0.00     0.049 A 
ATOM     50  C   UNL     1      14.499   6.591 -10.778  1.00  0.00     0.074 A 
ATOM     51  C   UNL     1      13.808   7.062  -4.430  1.00  0.00     0.029 A 
ATOM     52  N   UNL     1      15.240   7.431  -6.061  1.00  0.00    -0.354 N 
ATOM     53  N   UNL     1      13.911   7.617 -10.226  1.00  0.00    -0.248 NA
ATOM     54  C   UNL     1      15.749   6.185 -10.151  1.00  0.00     0.031 C 
ATOM     55  C   UNL     1      13.219   7.925  -5.399  1.00  0.00     0.029 A 
ATOM     56  C   UNL     1      14.049   7.934  -6.522  1.00  0.00     0.049 A 
ATOM     57  H   UNL     1      16.138   7.652  -6.397  1.00  0.00     0.167 HD
ATOM     58  C   UNL     1      14.476   7.720  -8.962  1.00  0.00     0.074 A 
ATOM     59  C   UNL     1      15.670   6.881  -9.012  1.00  0.00     0.031 C 
ATOM     60  C   UNL     1      13.778   8.246  -7.911  1.00  0.00     0.031 A 
BRANCH  47  61
ATOM     61  C   UNL     1      17.093   5.136  -5.010  1.00  0.00    -0.014 A 
ATOM     62  C   UNL     1      17.866   6.141  -4.401  1.00  0.00     0.010 A 
ATOM     63  C   UNL     1      17.777   4.182  -5.796  1.00  0.00     0.010 A 
ATOM     64  C   UNL     1      19.248   6.215  -4.615  1.00  0.00     0.020 A 
ATOM     65  C   UNL     1      19.158   4.217  -5.973  1.00  0.00     0.020 A 
ATOM     66  C   UNL     1      19.880   5.259  -5.412  1.00  0.00     0.054 A 
BRANCH  66  67
ATOM     67  S   UNL     1      21.641   5.431  -5.785  1.00  0.00     0.124 S 
ATOM     68  O   UNL     1      21.649   6.614  -6.639  1.00  0.00    -0.237 OA
ATOM     69  O   UNL     1      22.224   5.601  -4.457  1.00  0.00    -0.237 OA
ATOM     70  O   UNL     1      21.974   4.173  -6.449  1.00  0.00    -0.744 OA
ENDBRANCH  66  67
ENDBRANCH  47  61
BRANCH  48  71
ATOM     71  C   UNL     1      14.329   5.207 -12.986  1.00  0.00    -0.014 A 
ATOM     72  C   UNL     1      15.110   6.090 -13.753  1.00  0.00     0.010 A 
ATOM     73  C   UNL     1      14.290   3.854 -13.386  1.00  0.00     0.010 A 
ATOM     74  C   UNL     1      15.873   5.623 -14.838  1.00  0.00     0.020 A 
ATOM     75  C   UNL     1      15.034   3.385 -14.473  1.00  0.00     0.020 A 
ATOM     76  C   UNL     1      15.845   4.268 -15.178  1.00  0.00     0.054 A 
BRANCH  76  77
ATOM     77  S   UNL     1      16.973   3.640 -16.456  1.00  0.00     0.124 S 
ATOM     78  O   UNL     1      16.395   4.191 -17.678  1.00  0.00    -0.237 OA
ATOM     79  O   UNL     1      18.256   4.206 -16.051  1.00  0.00    -0.237 OA
ATOM     80  O   UNL     1      16.870   2.188 -16.320  1.00  0.00    -0.744 OA
ENDBRANCH  76  77
ENDBRANCH  48  71
BRANCH  60  81
ATOM     81  C   UNL     1      12.480   8.970  -8.191  1.00  0.00    -0.014 A 
ATOM     82  C   UNL     1      11.371   8.361  -8.811  1.00  0.00     0.010 A 
ATOM     83  C   UNL     1      12.321  10.261  -7.657  1.00  0.00     0.010 A 
ATOM     84  C   UNL     1      10.146   9.036  -8.915  1.00  0.00     0.020 A 
ATOM     85  C   UNL     1      11.098  10.932  -7.740  1.00  0.00     0.020 A 
ATOM     86  C   UNL     1      10.017  10.319  -8.376  1.00  0.00     0.054 A 
BRANCH  86  87
ATOM     87  S   UNL     1       8.412  11.162  -8.459  1.00  0.00     0.124 S 
ATOM     88  O   UNL     1       8.280  11.453  -9.884  1.00  0.00    -0.237 OA
ATOM     89  O   UNL     1       7.489  10.158  -7.933  1.00  0.00    -0.237 OA
ATOM     90  O   UNL     1       8.589  12.335  -7.603  1.00  0.00    -0.744 OA
ENDBRANCH  86  87
ENDBRANCH  60  81
ENDBRANCH  34  35
ENDBRANCH  27  29
ENDBRANCH  26  27
ENDBRANCH  25  26
ENDBRANCH   1  25
TORSDOF 19
