REMARK SMILES CSCC[C@@H](C(=O)OCCOC(=O)c1ccc(-c2c3nc(c(-c4ccc(S(=O)(=O)[O-])cc4)c4ccc([nH]4)c(-c4ccc(S(=O)(=O)[O-])cc4)c4nc(c(-c5ccc(S(=O)(=O)[O-])cc5)c5ccc2[nH]5)C=C4)C=C3)cc1)N1C(=O)/C(=C/c2ccc(-c3ccccc3Cl)o2)SC1=S
REMARK SMILES IDX 9 1 8 2 6 3 7 4 5 5 4 6 3 7 2 8 1 9 74 10 75 11 92 12 76 13
REMARK SMILES IDX 77 14 91 15 93 16 78 17 79 18 80 19 90 20 81 21 82 22 83 23
REMARK SMILES IDX 84 24 88 25 85 26 87 27 89 28 86 29 10 30 11 31 12 32 13 33
REMARK SMILES IDX 14 34 15 35 73 36 16 37 72 38 17 39 18 40 19 41 66 42 20 43
REMARK SMILES IDX 71 44 65 45 67 46 21 47 70 48 64 49 63 50 22 52 52 53 33 54
REMARK SMILES IDX 51 55 34 56 37 57 50 58 68 59 35 60 36 61 49 63 69 64 38 65
REMARK SMILES IDX 23 66 24 67 32 68 25 69 31 70 26 71 27 72 28 73 29 74 30 75
REMARK SMILES IDX 53 76 54 77 62 78 55 79 61 80 56 81 57 82 58 83 59 84 60 85
REMARK SMILES IDX 39 86 40 87 48 88 41 89 47 90 42 91 43 92 44 93 45 94 46 95
REMARK H PARENT 67 51 37 62
REMARK Flexibility Score: inf
ROOT
ATOM      1  C   UNL     1       4.318  -1.832   0.158  1.00  0.00     0.274 C 
ENDROOT
BRANCH   1   2
ATOM      2  O   UNL     1       2.918  -2.130   0.348  1.00  0.00    -0.461 OA
BRANCH   2   3
ATOM      3  C   UNL     1       2.134  -2.207  -0.759  1.00  0.00     0.329 C 
ATOM      4  O   UNL     1       2.554  -2.062  -1.902  1.00  0.00    -0.250 OA
BRANCH   3   5
ATOM      5  C   UNL     1       0.635  -2.355  -0.433  1.00  0.00     0.202 C 
BRANCH   5   6
ATOM      6  C   UNL     1       0.309  -2.753   1.015  1.00  0.00     0.048 C 
BRANCH   6   7
ATOM      7  C   UNL     1       0.571  -1.674   2.081  1.00  0.00     0.072 C 
BRANCH   7   8
ATOM      8  S   UNL     1      -0.289  -0.075   1.846  1.00  0.00    -0.165 SA
ATOM      9  C   UNL     1       0.912   0.823   0.819  1.00  0.00     0.085 C 
ENDBRANCH   7   8
ENDBRANCH   6   7
ENDBRANCH   5   6
BRANCH   5  10
ATOM     10  N   UNL     1      -0.015  -3.187  -1.484  1.00  0.00    -0.278 N 
ATOM     11  C   UNL     1      -0.034  -4.572  -1.407  1.00  0.00     0.267 C 
ATOM     12  C   UNL     1      -0.523  -2.641  -2.653  1.00  0.00     0.149 C 
ATOM     13  O   UNL     1       0.402  -5.241  -0.482  1.00  0.00    -0.268 OA
ATOM     14  C   UNL     1      -0.591  -5.167  -2.659  1.00  0.00     0.084 C 
ATOM     15  S   UNL     1      -1.055  -3.910  -3.733  1.00  0.00    -0.054 SA
ATOM     16  S   UNL     1      -0.675  -1.032  -3.082  1.00  0.00    -0.052 S 
ATOM     17  C   UNL     1      -0.643  -6.491  -2.874  1.00  0.00     0.068 C 
BRANCH  17  18
ATOM     18  C   UNL     1      -0.949  -7.075  -4.141  1.00  0.00     0.128 A 
ATOM     19  C   UNL     1      -0.455  -6.746  -5.401  1.00  0.00     0.051 A 
ATOM     20  O   UNL     1      -1.774  -8.172  -4.303  1.00  0.00    -0.457 OA
ATOM     21  C   UNL     1      -0.975  -7.658  -6.337  1.00  0.00     0.051 A 
ATOM     22  C   UNL     1      -1.813  -8.485  -5.631  1.00  0.00     0.136 A 
BRANCH  22  23
ATOM     23  C   UNL     1      -2.677  -9.572  -6.060  1.00  0.00     0.036 A 
ATOM     24  C   UNL     1      -2.118 -10.599  -6.840  1.00  0.00     0.013 A 
ATOM     25  C   UNL     1      -4.065  -9.574  -5.850  1.00  0.00     0.052 A 
ATOM     26  C   UNL     1      -2.916 -11.600  -7.398  1.00  0.00     0.001 A 
ATOM     27  C   UNL     1      -4.865 -10.574  -6.420  1.00  0.00     0.021 A 
ATOM     28  Cl  UNL     1      -4.875  -8.322  -4.968  1.00  0.00    -0.084 Cl
ATOM     29  C   UNL     1      -4.292 -11.582  -7.195  1.00  0.00     0.002 A 
ENDBRANCH  22  23
ENDBRANCH  17  18
ENDBRANCH   5  10
ENDBRANCH   3   5
ENDBRANCH   2   3
ENDBRANCH   1   2
BRANCH   1  30
ATOM     30  C   UNL     1       5.177  -3.056   0.455  1.00  0.00     0.275 C 
BRANCH  30  31
ATOM     31  O   UNL     1       4.947  -4.046  -0.557  1.00  0.00    -0.458 OA
BRANCH  31  32
ATOM     32  C   UNL     1       4.166  -5.088  -0.188  1.00  0.00     0.338 C 
ATOM     33  O   UNL     1       3.724  -5.326   0.921  1.00  0.00    -0.246 OA
BRANCH  32  34
ATOM     34  C   UNL     1       3.894  -5.896  -1.384  1.00  0.00     0.060 A 
ATOM     35  C   UNL     1       3.160  -5.336  -2.426  1.00  0.00     0.016 A 
ATOM     36  C   UNL     1       4.302  -7.226  -1.448  1.00  0.00     0.016 A 
ATOM     37  C   UNL     1       2.761  -6.125  -3.496  1.00  0.00     0.010 A 
ATOM     38  C   UNL     1       3.971  -7.992  -2.571  1.00  0.00     0.010 A 
ATOM     39  C   UNL     1       3.162  -7.464  -3.594  1.00  0.00    -0.014 A 
BRANCH  39  40
ATOM     40  C   UNL     1       2.683  -8.319  -4.720  1.00  0.00     0.031 A 
ATOM     41  C   UNL     1       1.949  -9.606  -4.433  1.00  0.00     0.074 A 
ATOM     42  C   UNL     1       2.838  -7.935  -6.003  1.00  0.00     0.049 A 
ATOM     43  N   UNL     1       1.648 -10.586  -5.247  1.00  0.00    -0.248 NA
ATOM     44  C   UNL     1       1.510  -9.821  -3.046  1.00  0.00     0.031 C 
ATOM     45  C   UNL     1       3.426  -6.672  -6.451  1.00  0.00     0.029 A 
ATOM     46  N   UNL     1       2.478  -8.562  -7.173  1.00  0.00    -0.354 N 
ATOM     47  C   UNL     1       1.046 -11.560  -4.457  1.00  0.00     0.074 A 
ATOM     48  C   UNL     1       1.020 -11.050  -3.104  1.00  0.00     0.031 C 
ATOM     49  C   UNL     1       3.329  -6.588  -7.785  1.00  0.00     0.029 A 
ATOM     50  C   UNL     1       2.794  -7.843  -8.301  1.00  0.00     0.049 A 
ATOM     51  H   UNL     1       2.036  -9.441  -7.200  1.00  0.00     0.167 HD
ATOM     52  C   UNL     1       0.569 -12.774  -4.824  1.00  0.00     0.031 A 
ATOM     53  C   UNL     1       2.731  -8.170  -9.607  1.00  0.00     0.031 A 
ATOM     54  C   UNL     1       0.548 -13.257  -6.179  1.00  0.00     0.049 A 
ATOM     55  C   UNL     1       2.262  -9.542  -9.996  1.00  0.00     0.074 A 
ATOM     56  C   UNL     1       0.066 -14.462  -6.657  1.00  0.00     0.029 A 
ATOM     57  N   UNL     1       1.012 -12.548  -7.275  1.00  0.00    -0.354 N 
ATOM     58  N   UNL     1       1.826 -10.509  -9.225  1.00  0.00    -0.248 NA
ATOM     59  C   UNL     1       2.308  -9.879 -11.425  1.00  0.00     0.031 C 
ATOM     60  C   UNL     1       0.249 -14.486  -8.044  1.00  0.00     0.029 A 
ATOM     61  C   UNL     1       0.796 -13.273  -8.434  1.00  0.00     0.049 A 
ATOM     62  H   UNL     1       1.434 -11.659  -7.236  1.00  0.00     0.167 HD
ATOM     63  C   UNL     1       1.557 -11.576 -10.074  1.00  0.00     0.074 A 
ATOM     64  C   UNL     1       1.851 -11.125 -11.420  1.00  0.00     0.031 C 
ATOM     65  C   UNL     1       1.111 -12.818  -9.764  1.00  0.00     0.031 A 
BRANCH  52  66
ATOM     66  C   UNL     1       0.088 -13.687  -3.728  1.00  0.00    -0.014 A 
ATOM     67  C   UNL     1      -1.116 -13.455  -3.040  1.00  0.00     0.010 A 
ATOM     68  C   UNL     1       0.871 -14.804  -3.380  1.00  0.00     0.010 A 
ATOM     69  C   UNL     1      -1.496 -14.289  -1.982  1.00  0.00     0.020 A 
ATOM     70  C   UNL     1       0.482 -15.654  -2.342  1.00  0.00     0.020 A 
ATOM     71  C   UNL     1      -0.687 -15.376  -1.632  1.00  0.00     0.054 A 
BRANCH  71  72
ATOM     72  S   UNL     1      -1.182 -16.429  -0.240  1.00  0.00     0.124 S 
ATOM     73  O   UNL     1      -0.860 -15.583   0.906  1.00  0.00    -0.237 OA
ATOM     74  O   UNL     1      -2.607 -16.639  -0.485  1.00  0.00    -0.237 OA
ATOM     75  O   UNL     1      -0.346 -17.618  -0.391  1.00  0.00    -0.744 OA
ENDBRANCH  71  72
ENDBRANCH  52  66
BRANCH  53  76
ATOM     76  C   UNL     1       3.220  -7.194 -10.620  1.00  0.00    -0.014 A 
ATOM     77  C   UNL     1       2.326  -6.525 -11.471  1.00  0.00     0.010 A 
ATOM     78  C   UNL     1       4.589  -6.862 -10.666  1.00  0.00     0.010 A 
ATOM     79  C   UNL     1       2.787  -5.520 -12.329  1.00  0.00     0.020 A 
ATOM     80  C   UNL     1       5.047  -5.837 -11.497  1.00  0.00     0.020 A 
ATOM     81  C   UNL     1       4.142  -5.171 -12.324  1.00  0.00     0.054 A 
BRANCH  81  82
ATOM     82  S   UNL     1       4.702  -3.774 -13.338  1.00  0.00     0.124 S 
ATOM     83  O   UNL     1       4.798  -4.380 -14.662  1.00  0.00    -0.237 OA
ATOM     84  O   UNL     1       3.626  -2.801 -13.163  1.00  0.00    -0.237 OA
ATOM     85  O   UNL     1       5.973  -3.398 -12.723  1.00  0.00    -0.744 OA
ENDBRANCH  81  82
ENDBRANCH  53  76
BRANCH  65  86
ATOM     86  C   UNL     1       0.889 -13.778 -10.898  1.00  0.00    -0.014 A 
ATOM     87  C   UNL     1       1.969 -14.432 -11.514  1.00  0.00     0.010 A 
ATOM     88  C   UNL     1      -0.424 -14.086 -11.300  1.00  0.00     0.010 A 
ATOM     89  C   UNL     1       1.740 -15.375 -12.520  1.00  0.00     0.020 A 
ATOM     90  C   UNL     1      -0.657 -15.042 -12.290  1.00  0.00     0.020 A 
ATOM     91  C   UNL     1       0.428 -15.676 -12.899  1.00  0.00     0.054 A 
BRANCH  91  92
ATOM     92  S   UNL     1       0.153 -16.954 -14.157  1.00  0.00     0.124 S 
ATOM     93  O   UNL     1       0.530 -16.257 -15.384  1.00  0.00    -0.237 OA
ATOM     94  O   UNL     1       1.058 -18.020 -13.735  1.00  0.00    -0.237 OA
ATOM     95  O   UNL     1      -1.269 -17.264 -14.028  1.00  0.00    -0.744 OA
ENDBRANCH  91  92
ENDBRANCH  65  86
ENDBRANCH  39  40
ENDBRANCH  32  34
ENDBRANCH  31  32
ENDBRANCH  30  31
ENDBRANCH   1  30
TORSDOF 20
