REMARK SMILES NS(=O)(=O)c1ccc(-n2nc(C(=O)NCCCC(=O)OCCOC(=O)c3ccc(-c4c5nc(c(-c6ccc(S(=O)(=O)[O-])cc6)c6ccc([nH]6)c(-c6ccc(S(=O)(=O)[O-])cc6)c6nc(c(-c7ccc(S(=O)(=O)[O-])cc7)c7ccc4[nH]7)C=C6)C=C5)cc3)cc2-c2ccccc2)cc1
REMARK SMILES IDX 18 1 19 2 17 3 16 4 15 5 14 6 12 7 13 8 11 10 9 11 10 12
REMARK SMILES IDX 87 13 86 14 8 15 5 16 6 17 95 18 7 19 94 20 2 21 3 22 4 23
REMARK SMILES IDX 1 24 88 27 89 28 93 29 90 30 92 31 91 32 20 33 21 34 22 35
REMARK SMILES IDX 23 36 24 37 25 38 26 39 27 40 85 41 28 42 84 43 29 44 30 45
REMARK SMILES IDX 31 46 78 47 32 48 83 49 77 50 79 51 33 52 82 53 76 54 75 55
REMARK SMILES IDX 34 57 64 58 45 59 63 60 46 61 49 62 62 63 80 64 47 65 48 66
REMARK SMILES IDX 61 68 81 69 50 70 35 71 36 72 44 73 37 74 43 75 38 76 39 77
REMARK SMILES IDX 40 78 41 79 42 80 65 81 66 82 74 83 67 84 73 85 68 86 69 87
REMARK SMILES IDX 70 88 71 89 72 90 51 91 52 92 60 93 53 94 59 95 54 96 55 97
REMARK SMILES IDX 56 98 57 99 58 100
REMARK H PARENT 14 9 1 25 1 26 79 56 49 67
REMARK Flexibility Score: inf
ROOT
ATOM      1  C   UNL     1       3.923 -10.838  -9.494  1.00  0.00     0.305 C 
ATOM      2  O   UNL     1       4.003 -11.486 -10.531  1.00  0.00    -0.252 OA
ENDROOT
BRANCH   1   3
ATOM      3  C   UNL     1       4.307  -9.379  -9.402  1.00  0.00     0.124 C 
BRANCH   3   4
ATOM      4  C   UNL     1       3.303  -8.414  -8.776  1.00  0.00     0.033 C 
BRANCH   4   5
ATOM      5  C   UNL     1       2.917  -8.642  -7.316  1.00  0.00     0.117 C 
BRANCH   5   6
ATOM      6  N   UNL     1       4.046  -8.496  -6.413  1.00  0.00    -0.351 N 
ATOM      7  C   UNL     1       4.213  -7.712  -5.292  1.00  0.00     0.271 C 
ATOM      8  O   UNL     1       5.351  -7.661  -4.819  1.00  0.00    -0.267 OA
ATOM      9  H   UNL     1       4.825  -9.053  -6.641  1.00  0.00     0.163 HD
BRANCH   7  10
ATOM     10  C   UNL     1       3.069  -7.001  -4.681  1.00  0.00     0.151 A 
ATOM     11  N   UNL     1       2.024  -5.612  -3.426  1.00  0.00    -0.232 N 
ATOM     12  N   UNL     1       3.248  -5.887  -3.937  1.00  0.00    -0.162 NA
ATOM     13  C   UNL     1       1.024  -6.337  -4.054  1.00  0.00     0.075 A 
ATOM     14  C   UNL     1       1.691  -7.341  -4.720  1.00  0.00     0.065 A 
BRANCH  11  15
ATOM     15  C   UNL     1       1.850  -4.678  -2.373  1.00  0.00     0.065 A 
ATOM     16  C   UNL     1       1.201  -2.717  -0.515  1.00  0.00     0.082 A 
ATOM     17  C   UNL     1       0.575  -3.963  -0.443  1.00  0.00     0.024 A 
ATOM     18  C   UNL     1       2.187  -2.464  -1.478  1.00  0.00     0.024 A 
ATOM     19  C   UNL     1       0.899  -4.944  -1.374  1.00  0.00     0.030 A 
ATOM     20  C   UNL     1       2.538  -3.461  -2.396  1.00  0.00     0.030 A 
BRANCH  16  21
ATOM     21  S   UNL     1       0.665  -1.474   0.619  1.00  0.00     0.238 S 
ATOM     22  O   UNL     1       1.323  -1.685   1.877  1.00  0.00    -0.207 OA
ATOM     23  O   UNL     1      -0.776  -1.336   0.501  1.00  0.00    -0.207 OA
BRANCH  21  24
ATOM     24  N   UNL     1       1.285  -0.037   0.007  1.00  0.00    -0.225 NA
ATOM     25  H   UNL     1       1.014   0.736   0.615  1.00  0.00     0.137 HD
ATOM     26  H   UNL     1       0.914   0.122  -0.930  1.00  0.00     0.137 HD
ENDBRANCH  21  24
ENDBRANCH  16  21
ENDBRANCH  11  15
BRANCH  13  27
ATOM     27  C   UNL     1      -0.408  -6.026  -4.026  1.00  0.00     0.000 A 
ATOM     28  C   UNL     1      -0.861  -4.704  -4.174  1.00  0.00     0.010 A 
ATOM     29  C   UNL     1      -1.350  -7.050  -3.888  1.00  0.00     0.010 A 
ATOM     30  C   UNL     1      -2.224  -4.409  -4.144  1.00  0.00     0.001 A 
ATOM     31  C   UNL     1      -2.715  -6.755  -3.870  1.00  0.00     0.001 A 
ATOM     32  C   UNL     1      -3.150  -5.436  -3.991  1.00  0.00     0.000 A 
ENDBRANCH  13  27
ENDBRANCH   7  10
ENDBRANCH   5   6
ENDBRANCH   4   5
ENDBRANCH   3   4
ENDBRANCH   1   3
BRANCH   1  33
ATOM     33  O   UNL     1       3.580 -11.353  -8.285  1.00  0.00    -0.462 OA
BRANCH  33  34
ATOM     34  C   UNL     1       3.128 -12.720  -8.274  1.00  0.00     0.274 C 
BRANCH  34  35
ATOM     35  C   UNL     1       1.623 -12.819  -8.483  1.00  0.00     0.275 C 
BRANCH  35  36
ATOM     36  O   UNL     1       1.249 -12.498  -9.823  1.00  0.00    -0.458 OA
BRANCH  36  37
ATOM     37  C   UNL     1       0.827 -11.225  -9.997  1.00  0.00     0.338 C 
ATOM     38  O   UNL     1       1.017 -10.287  -9.242  1.00  0.00    -0.246 OA
BRANCH  37  39
ATOM     39  C   UNL     1      -0.112 -11.162 -11.121  1.00  0.00     0.060 A 
ATOM     40  C   UNL     1      -0.509  -9.901 -11.577  1.00  0.00     0.016 A 
ATOM     41  C   UNL     1      -0.774 -12.330 -11.519  1.00  0.00     0.016 A 
ATOM     42  C   UNL     1      -1.661  -9.804 -12.334  1.00  0.00     0.010 A 
ATOM     43  C   UNL     1      -1.933 -12.229 -12.254  1.00  0.00     0.010 A 
ATOM     44  C   UNL     1      -2.398 -10.964 -12.606  1.00  0.00    -0.014 A 
BRANCH  44  45
ATOM     45  C   UNL     1      -3.576 -10.860 -13.447  1.00  0.00     0.031 A 
ATOM     46  C   UNL     1      -3.226 -10.551 -14.852  1.00  0.00     0.074 A 
ATOM     47  C   UNL     1      -4.822 -11.166 -13.036  1.00  0.00     0.049 A 
ATOM     48  N   UNL     1      -3.431  -9.442 -15.480  1.00  0.00    -0.248 NA
ATOM     49  C   UNL     1      -2.367 -11.505 -15.577  1.00  0.00     0.031 C 
ATOM     50  C   UNL     1      -5.225 -11.736 -11.748  1.00  0.00     0.029 A 
ATOM     51  N   UNL     1      -5.991 -11.141 -13.735  1.00  0.00    -0.354 N 
ATOM     52  C   UNL     1      -2.965  -9.666 -16.768  1.00  0.00     0.074 A 
ATOM     53  C   UNL     1      -2.121 -10.832 -16.700  1.00  0.00     0.031 C 
ATOM     54  C   UNL     1      -6.486 -12.218 -11.848  1.00  0.00     0.029 A 
ATOM     55  C   UNL     1      -7.021 -11.879 -13.157  1.00  0.00     0.049 A 
ATOM     56  H   UNL     1      -6.099 -10.643 -14.578  1.00  0.00     0.167 HD
ATOM     57  C   UNL     1      -3.577  -9.093 -17.840  1.00  0.00     0.031 A 
ATOM     58  C   UNL     1      -8.197 -12.238 -13.740  1.00  0.00     0.031 A 
ATOM     59  C   UNL     1      -4.408  -7.982 -17.450  1.00  0.00     0.049 A 
ATOM     60  C   UNL     1      -8.422 -11.314 -14.877  1.00  0.00     0.074 A 
ATOM     61  C   UNL     1      -4.197  -6.805 -16.758  1.00  0.00     0.029 A 
ATOM     62  N   UNL     1      -5.764  -8.204 -17.420  1.00  0.00    -0.354 N 
ATOM     63  N   UNL     1      -8.657 -10.042 -14.727  1.00  0.00    -0.248 NA
ATOM     64  C   UNL     1      -7.939 -11.706 -16.191  1.00  0.00     0.031 C 
ATOM     65  C   UNL     1      -5.367  -6.627 -15.963  1.00  0.00     0.029 A 
ATOM     66  C   UNL     1      -6.263  -7.652 -16.268  1.00  0.00     0.049 A 
ATOM     67  H   UNL     1      -6.287  -8.677 -18.107  1.00  0.00     0.167 HD
ATOM     68  C   UNL     1      -7.922  -9.430 -15.731  1.00  0.00     0.074 A 
ATOM     69  C   UNL     1      -7.594 -10.506 -16.666  1.00  0.00     0.031 C 
ATOM     70  C   UNL     1      -7.412  -8.174 -15.557  1.00  0.00     0.031 A 
BRANCH  57  71
ATOM     71  C   UNL     1      -3.784  -9.841 -19.134  1.00  0.00    -0.014 A 
ATOM     72  C   UNL     1      -4.345  -9.165 -20.233  1.00  0.00     0.010 A 
ATOM     73  C   UNL     1      -3.704 -11.249 -19.222  1.00  0.00     0.010 A 
ATOM     74  C   UNL     1      -4.837  -9.869 -21.341  1.00  0.00     0.020 A 
ATOM     75  C   UNL     1      -4.146 -11.956 -20.339  1.00  0.00     0.020 A 
ATOM     76  C   UNL     1      -4.734 -11.261 -21.383  1.00  0.00     0.054 A 
BRANCH  76  77
ATOM     77  S   UNL     1      -5.417 -12.164 -22.793  1.00  0.00     0.124 S 
ATOM     78  O   UNL     1      -6.847 -11.920 -22.640  1.00  0.00    -0.237 OA
ATOM     79  O   UNL     1      -4.775 -11.497 -23.922  1.00  0.00    -0.237 OA
ATOM     80  O   UNL     1      -4.983 -13.539 -22.559  1.00  0.00    -0.744 OA
ENDBRANCH  76  77
ENDBRANCH  57  71
BRANCH  58  81
ATOM     81  C   UNL     1      -8.958 -13.508 -13.594  1.00  0.00    -0.014 A 
ATOM     82  C   UNL     1     -10.240 -13.656 -14.163  1.00  0.00     0.010 A 
ATOM     83  C   UNL     1      -8.302 -14.677 -13.160  1.00  0.00     0.010 A 
ATOM     84  C   UNL     1     -10.805 -14.929 -14.365  1.00  0.00     0.020 A 
ATOM     85  C   UNL     1      -8.861 -15.947 -13.350  1.00  0.00     0.020 A 
ATOM     86  C   UNL     1     -10.098 -16.070 -13.978  1.00  0.00     0.054 A 
BRANCH  86  87
ATOM     87  S   UNL     1     -10.731 -17.716 -14.424  1.00  0.00     0.124 S 
ATOM     88  O   UNL     1     -11.876 -17.863 -13.531  1.00  0.00    -0.237 OA
ATOM     89  O   UNL     1     -11.048 -17.564 -15.841  1.00  0.00    -0.237 OA
ATOM     90  O   UNL     1      -9.605 -18.605 -14.138  1.00  0.00    -0.744 OA
ENDBRANCH  86  87
ENDBRANCH  58  81
BRANCH  70  91
ATOM     91  C   UNL     1      -7.952  -7.336 -14.417  1.00  0.00    -0.014 A 
ATOM     92  C   UNL     1      -7.935  -7.719 -13.060  1.00  0.00     0.010 A 
ATOM     93  C   UNL     1      -8.429  -6.053 -14.738  1.00  0.00     0.010 A 
ATOM     94  C   UNL     1      -8.440  -6.866 -12.066  1.00  0.00     0.020 A 
ATOM     95  C   UNL     1      -8.910  -5.190 -13.752  1.00  0.00     0.020 A 
ATOM     96  C   UNL     1      -8.935  -5.608 -12.422  1.00  0.00     0.054 A 
BRANCH  96  97
ATOM     97  S   UNL     1      -9.610  -4.513 -11.142  1.00  0.00     0.124 S 
ATOM     98  O   UNL     1     -10.808  -5.228 -10.712  1.00  0.00    -0.237 OA
ATOM     99  O   UNL     1      -8.527  -4.452 -10.163  1.00  0.00    -0.237 OA
ATOM    100  O   UNL     1      -9.861  -3.260 -11.853  1.00  0.00    -0.744 OA
ENDBRANCH  96  97
ENDBRANCH  70  91
ENDBRANCH  44  45
ENDBRANCH  37  39
ENDBRANCH  36  37
ENDBRANCH  35  36
ENDBRANCH  34  35
ENDBRANCH  33  34
ENDBRANCH   1  33
TORSDOF 22
