REMARK SMILES O=C(OCCOC(=O)c1ccc(-c2c3nc(c(-c4ccc(S(=O)(=O)[O-])cc4)c4ccc([nH]4)c(-c4ccc(S(=O)(=O)[O-])cc4)c4nc(c(-c5ccc(S(=O)(=O)[O-])cc5)c5ccc2[nH]5)C=C4)C=C3)cc1)c1ccc(C[C@H]2SC(=O)N(c3ccccc3)C2=O)cc1
REMARK SMILES IDX 4 1 3 2 2 3 1 4 69 5 70 6 88 7 71 8 87 9 72 10 73 11 74 12
REMARK SMILES IDX 75 13 85 14 76 15 78 16 86 17 77 18 79 19 80 20 84 21 81 22
REMARK SMILES IDX 83 23 82 24 5 25 6 26 7 27 8 28 9 29 10 30 68 31 11 32 67 33
REMARK SMILES IDX 12 34 13 35 14 36 61 37 15 38 66 39 60 40 62 41 16 42 65 43
REMARK SMILES IDX 59 44 58 45 17 47 47 48 28 49 46 50 29 51 32 52 45 53 63 54
REMARK SMILES IDX 30 55 31 56 44 58 64 59 33 60 18 61 19 62 27 63 20 64 26 65
REMARK SMILES IDX 21 66 22 67 23 68 24 69 25 70 48 71 49 72 57 73 50 74 56 75
REMARK SMILES IDX 51 76 52 77 53 78 54 79 55 80 34 81 35 82 43 83 36 84 42 85
REMARK SMILES IDX 37 86 38 87 39 88 40 89 41 90
REMARK H PARENT 62 46 32 57
REMARK Flexibility Score: inf
ROOT
ATOM      1  C   UNL     1       8.221  -3.326   7.638  1.00  0.00     0.275 C 
ENDROOT
BRANCH   1   2
ATOM      2  O   UNL     1       7.691  -4.643   7.890  1.00  0.00    -0.458 OA
BRANCH   2   3
ATOM      3  C   UNL     1       6.978  -5.468   7.082  1.00  0.00     0.338 C 
ATOM      4  O   UNL     1       6.319  -6.365   7.607  1.00  0.00    -0.246 OA
BRANCH   3   5
ATOM      5  C   UNL     1       7.012  -5.416   5.580  1.00  0.00     0.060 A 
ATOM      6  C   UNL     1       7.667  -4.453   4.824  1.00  0.00     0.016 A 
ATOM      7  C   UNL     1       6.393  -6.464   4.870  1.00  0.00     0.016 A 
ATOM      8  C   UNL     1       7.771  -4.553   3.442  1.00  0.00     0.004 A 
ATOM      9  C   UNL     1       6.406  -6.511   3.464  1.00  0.00     0.004 A 
ATOM     10  C   UNL     1       7.085  -5.534   2.736  1.00  0.00    -0.046 A 
BRANCH  10  11
ATOM     11  C   UNL     1       7.062  -5.459   1.228  1.00  0.00     0.060 C 
BRANCH  11  12
ATOM     12  C   UNL     1       6.165  -4.320   0.691  1.00  0.00     0.151 C 
ATOM     13  S   UNL     1       6.673  -2.631   1.159  1.00  0.00    -0.050 SA
ATOM     14  C   UNL     1       6.229  -4.293  -0.822  1.00  0.00     0.248 C 
ATOM     15  C   UNL     1       7.529  -2.391  -0.344  1.00  0.00     0.293 C 
ATOM     16  N   UNL     1       7.036  -3.262  -1.288  1.00  0.00    -0.240 N 
ATOM     17  O   UNL     1       5.673  -5.155  -1.497  1.00  0.00    -0.273 OA
ATOM     18  O   UNL     1       8.366  -1.514  -0.448  1.00  0.00    -0.261 OA
BRANCH  16  19
ATOM     19  C   UNL     1       7.291  -3.065  -2.672  1.00  0.00     0.053 A 
ATOM     20  C   UNL     1       6.258  -3.243  -3.603  1.00  0.00     0.027 A 
ATOM     21  C   UNL     1       8.544  -2.641  -3.134  1.00  0.00     0.027 A 
ATOM     22  C   UNL     1       6.468  -2.994  -4.960  1.00  0.00     0.002 A 
ATOM     23  C   UNL     1       8.763  -2.425  -4.497  1.00  0.00     0.002 A 
ATOM     24  C   UNL     1       7.723  -2.593  -5.407  1.00  0.00     0.000 A 
ENDBRANCH  16  19
ENDBRANCH  11  12
ENDBRANCH  10  11
ENDBRANCH   3   5
ENDBRANCH   2   3
ENDBRANCH   1   2
BRANCH   1  25
ATOM     25  C   UNL     1       9.731  -3.333   7.335  1.00  0.00     0.275 C 
BRANCH  25  26
ATOM     26  O   UNL     1      10.094  -4.294   6.324  1.00  0.00    -0.458 OA
BRANCH  26  27
ATOM     27  C   UNL     1      10.398  -5.535   6.787  1.00  0.00     0.338 C 
ATOM     28  O   UNL     1      10.577  -5.829   7.958  1.00  0.00    -0.246 OA
BRANCH  27  29
ATOM     29  C   UNL     1      10.338  -6.544   5.694  1.00  0.00     0.060 A 
ATOM     30  C   UNL     1       9.950  -7.845   6.040  1.00  0.00     0.016 A 
ATOM     31  C   UNL     1      10.649  -6.255   4.361  1.00  0.00     0.016 A 
ATOM     32  C   UNL     1       9.943  -8.864   5.082  1.00  0.00     0.010 A 
ATOM     33  C   UNL     1      10.612  -7.274   3.393  1.00  0.00     0.010 A 
ATOM     34  C   UNL     1      10.313  -8.600   3.757  1.00  0.00    -0.014 A 
BRANCH  34  35
ATOM     35  C   UNL     1      10.567  -9.741   2.826  1.00  0.00     0.031 A 
ATOM     36  C   UNL     1      11.994 -10.128   2.517  1.00  0.00     0.074 A 
ATOM     37  C   UNL     1       9.567 -10.483   2.309  1.00  0.00     0.049 A 
ATOM     38  N   UNL     1      12.449 -11.159   1.848  1.00  0.00    -0.248 NA
ATOM     39  C   UNL     1      13.046  -9.234   3.026  1.00  0.00     0.031 C 
ATOM     40  C   UNL     1       8.139 -10.254   2.520  1.00  0.00     0.029 A 
ATOM     41  N   UNL     1       9.612 -11.601   1.507  1.00  0.00    -0.354 N 
ATOM     42  C   UNL     1      13.834 -11.039   1.863  1.00  0.00     0.074 A 
ATOM     43  C   UNL     1      14.142  -9.806   2.553  1.00  0.00     0.031 C 
ATOM     44  C   UNL     1       7.444 -11.213   1.879  1.00  0.00     0.029 A 
ATOM     45  C   UNL     1       8.374 -12.121   1.206  1.00  0.00     0.049 A 
ATOM     46  H   UNL     1      10.453 -11.993   1.178  1.00  0.00     0.167 HD
ATOM     47  C   UNL     1      14.775 -11.882   1.373  1.00  0.00     0.031 A 
ATOM     48  C   UNL     1       8.025 -13.211   0.490  1.00  0.00     0.031 A 
ATOM     49  C   UNL     1      14.495 -13.110   0.680  1.00  0.00     0.049 A 
ATOM     50  C   UNL     1       9.089 -14.110  -0.094  1.00  0.00     0.074 A 
ATOM     51  C   UNL     1      15.394 -14.043   0.188  1.00  0.00     0.029 A 
ATOM     52  N   UNL     1      13.229 -13.573   0.366  1.00  0.00    -0.354 N 
ATOM     53  N   UNL     1      10.393 -14.020  -0.000  1.00  0.00    -0.248 NA
ATOM     54  C   UNL     1       8.623 -15.278  -0.860  1.00  0.00     0.031 C 
ATOM     55  C   UNL     1      14.671 -15.041  -0.474  1.00  0.00     0.029 A 
ATOM     56  C   UNL     1      13.321 -14.763  -0.337  1.00  0.00     0.049 A 
ATOM     57  H   UNL     1      12.387 -13.123   0.608  1.00  0.00     0.167 HD
ATOM     58  C   UNL     1      10.900 -15.145  -0.649  1.00  0.00     0.074 A 
ATOM     59  C   UNL     1       9.764 -15.899  -1.132  1.00  0.00     0.031 C 
ATOM     60  C   UNL     1      12.193 -15.524  -0.812  1.00  0.00     0.031 A 
BRANCH  47  61
ATOM     61  C   UNL     1      16.215 -11.480   1.558  1.00  0.00    -0.014 A 
ATOM     62  C   UNL     1      16.817 -11.494   2.829  1.00  0.00     0.010 A 
ATOM     63  C   UNL     1      16.975 -11.088   0.442  1.00  0.00     0.010 A 
ATOM     64  C   UNL     1      18.137 -11.067   2.989  1.00  0.00     0.020 A 
ATOM     65  C   UNL     1      18.305 -10.690   0.593  1.00  0.00     0.020 A 
ATOM     66  C   UNL     1      18.870 -10.658   1.870  1.00  0.00     0.054 A 
BRANCH  66  67
ATOM     67  S   UNL     1      20.577 -10.096   2.106  1.00  0.00     0.124 S 
ATOM     68  O   UNL     1      20.378  -8.779   2.707  1.00  0.00    -0.237 OA
ATOM     69  O   UNL     1      21.132 -11.114   2.994  1.00  0.00    -0.237 OA
ATOM     70  O   UNL     1      21.128 -10.086   0.753  1.00  0.00    -0.744 OA
ENDBRANCH  66  67
ENDBRANCH  47  61
BRANCH  48  71
ATOM     71  C   UNL     1       6.586 -13.555   0.306  1.00  0.00    -0.014 A 
ATOM     72  C   UNL     1       6.032 -14.677   0.948  1.00  0.00     0.010 A 
ATOM     73  C   UNL     1       5.772 -12.780  -0.540  1.00  0.00     0.010 A 
ATOM     74  C   UNL     1       4.697 -15.031   0.731  1.00  0.00     0.020 A 
ATOM     75  C   UNL     1       4.429 -13.117  -0.739  1.00  0.00     0.020 A 
ATOM     76  C   UNL     1       3.903 -14.248  -0.111  1.00  0.00     0.054 A 
BRANCH  76  77
ATOM     77  S   UNL     1       2.161 -14.701  -0.344  1.00  0.00     0.124 S 
ATOM     78  O   UNL     1       2.266 -15.884  -1.192  1.00  0.00    -0.237 OA
ATOM     79  O   UNL     1       1.712 -14.940   1.025  1.00  0.00    -0.237 OA
ATOM     80  O   UNL     1       1.584 -13.521  -0.983  1.00  0.00    -0.744 OA
ENDBRANCH  76  77
ENDBRANCH  48  71
BRANCH  60  81
ATOM     81  C   UNL     1      12.466 -16.845  -1.488  1.00  0.00    -0.014 A 
ATOM     82  C   UNL     1      12.243 -17.036  -2.864  1.00  0.00     0.010 A 
ATOM     83  C   UNL     1      13.011 -17.903  -0.735  1.00  0.00     0.010 A 
ATOM     84  C   UNL     1      12.521 -18.270  -3.462  1.00  0.00     0.020 A 
ATOM     85  C   UNL     1      13.317 -19.128  -1.335  1.00  0.00     0.020 A 
ATOM     86  C   UNL     1      13.053 -19.310  -2.693  1.00  0.00     0.054 A 
BRANCH  86  87
ATOM     87  S   UNL     1      13.435 -20.892  -3.498  1.00  0.00     0.124 S 
ATOM     88  O   UNL     1      12.106 -21.467  -3.684  1.00  0.00    -0.237 OA
ATOM     89  O   UNL     1      14.117 -20.475  -4.721  1.00  0.00    -0.237 OA
ATOM     90  O   UNL     1      14.281 -21.580  -2.525  1.00  0.00    -0.744 OA
ENDBRANCH  86  87
ENDBRANCH  60  81
ENDBRANCH  34  35
ENDBRANCH  27  29
ENDBRANCH  26  27
ENDBRANCH  25  26
ENDBRANCH   1  25
TORSDOF 17
