REMARK SMILES CCc1cc(/C=C/C(=O)OCCOC(=O)c2ccc(-c3c4nc(c(-c5ccc(S(=O)(=O)[O-])cc5)c5ccc([nH]5)c(-c5ccc(S(=O)(=O)[O-])cc5)c5nc(c(-c6ccc(S(=O)(=O)[O-])cc6)c6ccc3[nH]6)C=C5)C=C4)cc2)cc(C(=O)c2ccccc2)c1
REMARK SMILES IDX 11 1 10 2 8 3 9 4 7 5 6 6 5 7 3 8 4 9 86 10 77 11 76 12 2 13
REMARK SMILES IDX 1 14 78 15 79 16 80 17 81 18 85 19 82 20 84 21 83 22 12 23
REMARK SMILES IDX 13 24 14 25 15 26 16 27 17 28 75 29 18 30 74 31 19 32 20 33
REMARK SMILES IDX 21 34 68 35 22 36 73 37 67 38 69 39 23 40 72 41 66 42 65 43
REMARK SMILES IDX 24 45 54 46 35 47 53 48 36 49 39 50 52 51 70 52 37 53 38 54
REMARK SMILES IDX 51 56 71 57 40 58 25 59 26 60 34 61 27 62 33 63 28 64 29 65
REMARK SMILES IDX 30 66 31 67 32 68 55 69 56 70 64 71 57 72 63 73 58 74 59 75
REMARK SMILES IDX 60 76 61 77 62 78 41 79 42 80 50 81 43 82 49 83 44 84 45 85
REMARK SMILES IDX 46 86 47 87 48 88
REMARK H PARENT 69 44 39 55
REMARK Flexibility Score: inf
ROOT
ATOM      1  C   UNL     1      -0.923  -9.922   0.204  1.00  0.00     0.275 C 
ENDROOT
BRANCH   1   2
ATOM      2  O   UNL     1      -0.329  -8.670   0.591  1.00  0.00    -0.459 OA
BRANCH   2   3
ATOM      3  C   UNL     1       0.487  -8.096  -0.325  1.00  0.00     0.330 C 
ATOM      4  O   UNL     1       0.838  -8.588  -1.387  1.00  0.00    -0.247 OA
BRANCH   3   5
ATOM      5  C   UNL     1       0.873  -6.719   0.044  1.00  0.00     0.094 C 
ATOM      6  C   UNL     1       0.501  -6.082   1.166  1.00  0.00     0.015 C 
BRANCH   6   7
ATOM      7  C   UNL     1       0.807  -4.665   1.409  1.00  0.00    -0.024 A 
ATOM      8  C   UNL     1       0.866  -2.337   0.636  1.00  0.00    -0.047 A 
ATOM      9  C   UNL     1       0.608  -3.699   0.410  1.00  0.00     0.011 A 
ATOM     10  C   UNL     1       1.329  -1.951   1.899  1.00  0.00     0.016 A 
ATOM     11  C   UNL     1       1.481  -2.891   2.930  1.00  0.00     0.023 A 
ATOM     12  C   UNL     1       1.227  -4.247   2.675  1.00  0.00     0.020 A 
BRANCH   8  13
ATOM     13  C   UNL     1       0.590  -1.363  -0.489  1.00  0.00     0.032 C 
ATOM     14  C   UNL     1       0.967   0.094  -0.250  1.00  0.00     0.009 C 
ENDBRANCH   8  13
BRANCH  11  15
ATOM     15  C   UNL     1       1.941  -2.498   4.295  1.00  0.00     0.193 C 
ATOM     16  O   UNL     1       2.380  -3.349   5.065  1.00  0.00    -0.289 OA
BRANCH  15  17
ATOM     17  C   UNL     1       1.919  -1.086   4.748  1.00  0.00     0.022 A 
ATOM     18  C   UNL     1       3.062  -0.573   5.371  1.00  0.00     0.012 A 
ATOM     19  C   UNL     1       0.790  -0.276   4.579  1.00  0.00     0.012 A 
ATOM     20  C   UNL     1       3.095   0.762   5.776  1.00  0.00     0.001 A 
ATOM     21  C   UNL     1       0.830   1.061   4.980  1.00  0.00     0.001 A 
ATOM     22  C   UNL     1       1.983   1.580   5.570  1.00  0.00     0.000 A 
ENDBRANCH  15  17
ENDBRANCH  11  15
ENDBRANCH   6   7
ENDBRANCH   3   5
ENDBRANCH   2   3
ENDBRANCH   1   2
BRANCH   1  23
ATOM     23  C   UNL     1      -2.388  -9.735  -0.206  1.00  0.00     0.275 C 
BRANCH  23  24
ATOM     24  O   UNL     1      -2.513  -8.989  -1.431  1.00  0.00    -0.458 OA
BRANCH  24  25
ATOM     25  C   UNL     1      -2.647  -7.649  -1.279  1.00  0.00     0.338 C 
ATOM     26  O   UNL     1      -2.700  -7.029  -0.230  1.00  0.00    -0.246 OA
BRANCH  25  27
ATOM     27  C   UNL     1      -2.600  -6.991  -2.597  1.00  0.00     0.060 A 
ATOM     28  C   UNL     1      -1.651  -5.984  -2.793  1.00  0.00     0.016 A 
ATOM     29  C   UNL     1      -3.513  -7.309  -3.606  1.00  0.00     0.016 A 
ATOM     30  C   UNL     1      -1.608  -5.290  -4.000  1.00  0.00     0.010 A 
ATOM     31  C   UNL     1      -3.469  -6.611  -4.818  1.00  0.00     0.010 A 
ATOM     32  C   UNL     1      -2.521  -5.592  -5.020  1.00  0.00    -0.014 A 
BRANCH  32  33
ATOM     33  C   UNL     1      -2.490  -4.823  -6.289  1.00  0.00     0.031 A 
ATOM     34  C   UNL     1      -3.525  -3.768  -6.559  1.00  0.00     0.074 A 
ATOM     35  C   UNL     1      -1.514  -5.056  -7.187  1.00  0.00     0.049 A 
ATOM     36  N   UNL     1      -3.669  -3.005  -7.613  1.00  0.00    -0.248 NA
ATOM     37  C   UNL     1      -4.527  -3.539  -5.507  1.00  0.00     0.031 C 
ATOM     38  C   UNL     1      -0.431  -6.028  -7.023  1.00  0.00     0.029 A 
ATOM     39  N   UNL     1      -1.273  -4.490  -8.413  1.00  0.00    -0.354 N 
ATOM     40  C   UNL     1      -4.779  -2.209  -7.357  1.00  0.00     0.074 A 
ATOM     41  C   UNL     1      -5.285  -2.599  -6.057  1.00  0.00     0.031 C 
ATOM     42  C   UNL     1       0.364  -5.982  -8.105  1.00  0.00     0.029 A 
ATOM     43  C   UNL     1      -0.174  -5.011  -9.054  1.00  0.00     0.049 A 
ATOM     44  H   UNL     1      -1.834  -3.778  -8.797  1.00  0.00     0.167 HD
ATOM     45  C   UNL     1      -5.325  -1.241  -8.131  1.00  0.00     0.031 A 
ATOM     46  C   UNL     1       0.332  -4.751 -10.275  1.00  0.00     0.031 A 
ATOM     47  C   UNL     1      -4.832  -0.866  -9.431  1.00  0.00     0.049 A 
ATOM     48  C   UNL     1      -0.338  -3.724 -11.147  1.00  0.00     0.074 A 
ATOM     49  C   UNL     1      -5.315   0.108 -10.288  1.00  0.00     0.029 A 
ATOM     50  N   UNL     1      -3.748  -1.453 -10.066  1.00  0.00    -0.354 N 
ATOM     51  N   UNL     1      -1.379  -2.972 -10.883  1.00  0.00    -0.248 NA
ATOM     52  C   UNL     1       0.237  -3.513 -12.483  1.00  0.00     0.031 C 
ATOM     53  C   UNL     1      -4.554   0.077 -11.461  1.00  0.00     0.029 A 
ATOM     54  C   UNL     1      -3.563  -0.881 -11.314  1.00  0.00     0.049 A 
ATOM     55  H   UNL     1      -3.192  -2.171  -9.687  1.00  0.00     0.167 HD
ATOM     56  C   UNL     1      -1.574  -2.185 -12.013  1.00  0.00     0.074 A 
ATOM     57  C   UNL     1      -0.533  -2.542 -12.956  1.00  0.00     0.031 C 
ATOM     58  C   UNL     1      -2.529  -1.251 -12.247  1.00  0.00     0.031 A 
BRANCH  45  59
ATOM     59  C   UNL     1      -6.548  -0.540  -7.602  1.00  0.00    -0.014 A 
ATOM     60  C   UNL     1      -6.455   0.388  -6.549  1.00  0.00     0.010 A 
ATOM     61  C   UNL     1      -7.803  -0.792  -8.184  1.00  0.00     0.010 A 
ATOM     62  C   UNL     1      -7.603   1.019  -6.060  1.00  0.00     0.020 A 
ATOM     63  C   UNL     1      -8.950  -0.146  -7.713  1.00  0.00     0.020 A 
ATOM     64  C   UNL     1      -8.844   0.742  -6.640  1.00  0.00     0.054 A 
BRANCH  64  65
ATOM     65  S   UNL     1     -10.318   1.576  -5.989  1.00  0.00     0.124 S 
ATOM     66  O   UNL     1     -10.535   0.863  -4.732  1.00  0.00    -0.237 OA
ATOM     67  O   UNL     1      -9.872   2.960  -5.855  1.00  0.00    -0.237 OA
ATOM     68  O   UNL     1     -11.329   1.347  -7.017  1.00  0.00    -0.744 OA
ENDBRANCH  64  65
ENDBRANCH  45  59
BRANCH  46  69
ATOM     69  C   UNL     1       1.530  -5.493 -10.753  1.00  0.00    -0.014 A 
ATOM     70  C   UNL     1       2.769  -4.844 -10.885  1.00  0.00     0.010 A 
ATOM     71  C   UNL     1       1.435  -6.861 -11.067  1.00  0.00     0.010 A 
ATOM     72  C   UNL     1       3.891  -5.548 -11.334  1.00  0.00     0.020 A 
ATOM     73  C   UNL     1       2.560  -7.574 -11.491  1.00  0.00     0.020 A 
ATOM     74  C   UNL     1       3.779  -6.910 -11.632  1.00  0.00     0.054 A 
BRANCH  74  75
ATOM     75  S   UNL     1       5.260  -7.818 -12.157  1.00  0.00     0.124 S 
ATOM     76  O   UNL     1       5.416  -7.370 -13.537  1.00  0.00    -0.237 OA
ATOM     77  O   UNL     1       6.274  -7.341 -11.219  1.00  0.00    -0.237 OA
ATOM     78  O   UNL     1       4.878  -9.218 -11.991  1.00  0.00    -0.744 OA
ENDBRANCH  74  75
ENDBRANCH  46  69
BRANCH  58  79
ATOM     79  C   UNL     1      -2.481  -0.532 -13.569  1.00  0.00    -0.014 A 
ATOM     80  C   UNL     1      -2.872  -1.171 -14.758  1.00  0.00     0.010 A 
ATOM     81  C   UNL     1      -2.085   0.817 -13.613  1.00  0.00     0.010 A 
ATOM     82  C   UNL     1      -2.840  -0.482 -15.974  1.00  0.00     0.020 A 
ATOM     83  C   UNL     1      -2.075   1.517 -14.823  1.00  0.00     0.020 A 
ATOM     84  C   UNL     1      -2.440   0.858 -15.999  1.00  0.00     0.054 A 
BRANCH  84  85
ATOM     85  S   UNL     1      -2.448   1.745 -17.581  1.00  0.00     0.124 S 
ATOM     86  O   UNL     1      -1.254   1.216 -18.232  1.00  0.00    -0.237 OA
ATOM     87  O   UNL     1      -3.720   1.337 -18.173  1.00  0.00    -0.237 OA
ATOM     88  O   UNL     1      -2.374   3.151 -17.189  1.00  0.00    -0.744 OA
ENDBRANCH  84  85
ENDBRANCH  58  79
ENDBRANCH  32  33
ENDBRANCH  25  27
ENDBRANCH  24  25
ENDBRANCH  23  24
ENDBRANCH   1  23
TORSDOF 18
