REMARK SMILES CCCC[C@H](C(=O)OCCOC(=O)c1ccc(-c2c3nc(c(-c4ccc(S(=O)(=O)[O-])cc4)c4ccc([nH]4)c(-c4ccc(S(=O)(=O)[O-])cc4)c4nc(c(-c5ccc(S(=O)(=O)[O-])cc5)c5ccc2[nH]5)C=C4)C=C3)cc1)[C@H](O)c1ccc(C(F)(F)F)cc1
REMARK SMILES IDX 9 1 8 2 6 3 7 4 5 5 4 6 3 7 2 8 1 9 74 10 76 11 77 12 85 13
REMARK SMILES IDX 78 14 84 15 79 16 80 17 81 18 82 19 83 20 75 21 10 23 11 24
REMARK SMILES IDX 12 25 13 26 14 27 15 28 73 29 16 30 72 31 17 32 18 33 19 34
REMARK SMILES IDX 66 35 20 36 71 37 65 38 67 39 21 40 70 41 64 42 63 43 22 45
REMARK SMILES IDX 52 46 33 47 51 48 34 49 37 50 50 51 68 52 35 53 36 54 49 56
REMARK SMILES IDX 69 57 38 58 23 59 24 60 32 61 25 62 31 63 26 64 27 65 28 66
REMARK SMILES IDX 29 67 30 68 53 69 54 70 62 71 55 72 61 73 56 74 57 75 58 76
REMARK SMILES IDX 59 77 60 78 39 79 40 80 48 81 41 82 47 83 42 84 43 85 44 86
REMARK SMILES IDX 45 87 46 88
REMARK H PARENT 75 22 67 44 37 55
REMARK Flexibility Score: inf
ROOT
ATOM      1  C   UNL     1      -3.748   4.923   1.962  1.00  0.00     0.274 C 
ENDROOT
BRANCH   1   2
ATOM      2  O   UNL     1      -3.136   3.658   2.298  1.00  0.00    -0.462 OA
BRANCH   2   3
ATOM      3  C   UNL     1      -1.873   3.434   1.885  1.00  0.00     0.312 C 
ATOM      4  O   UNL     1      -1.270   4.200   1.137  1.00  0.00    -0.252 OA
BRANCH   3   5
ATOM      5  C   UNL     1      -1.223   2.157   2.438  1.00  0.00     0.132 C 
BRANCH   5   6
ATOM      6  C   UNL     1       0.169   2.615   2.975  1.00  0.00     0.018 C 
BRANCH   6   7
ATOM      7  C   UNL     1       1.168   1.581   3.494  1.00  0.00     0.001 C 
BRANCH   7   8
ATOM      8  C   UNL     1       1.714   0.614   2.450  1.00  0.00    -0.003 C 
ATOM      9  C   UNL     1       2.562   1.302   1.391  1.00  0.00     0.004 C 
ENDBRANCH   7   8
ENDBRANCH   6   7
ENDBRANCH   5   6
BRANCH   5  10
ATOM     10  C   UNL     1      -1.948   1.331   3.534  1.00  0.00     0.158 C 
BRANCH  10  11
ATOM     11  C   UNL     1      -3.459   1.219   3.562  1.00  0.00    -0.019 A 
ATOM     12  C   UNL     1      -4.200   2.105   4.363  1.00  0.00     0.007 A 
ATOM     13  C   UNL     1      -4.153   0.229   2.853  1.00  0.00     0.007 A 
ATOM     14  C   UNL     1      -5.594   2.043   4.410  1.00  0.00     0.013 A 
ATOM     15  C   UNL     1      -5.547   0.138   2.932  1.00  0.00     0.013 A 
ATOM     16  C   UNL     1      -6.282   1.051   3.702  1.00  0.00     0.056 A 
BRANCH  16  17
ATOM     17  C   UNL     1      -7.788   0.993   3.734  1.00  0.00     0.416 C 
ATOM     18  F   UNL     1      -8.328   1.541   4.859  1.00  0.00    -0.166 F 
ATOM     19  F   UNL     1      -8.353   1.661   2.689  1.00  0.00    -0.166 F 
ATOM     20  F   UNL     1      -8.278  -0.278   3.671  1.00  0.00    -0.166 F 
ENDBRANCH  16  17
ENDBRANCH  10  11
BRANCH  10  21
ATOM     21  O   UNL     1      -1.462  -0.023   3.431  1.00  0.00    -0.388 OA
ATOM     22  H   UNL     1      -1.740  -0.403   2.583  1.00  0.00     0.211 HD
ENDBRANCH  10  21
ENDBRANCH   5  10
ENDBRANCH   3   5
ENDBRANCH   2   3
ENDBRANCH   1   2
BRANCH   1  23
ATOM     23  C   UNL     1      -3.887   5.756   3.235  1.00  0.00     0.275 C 
BRANCH  23  24
ATOM     24  O   UNL     1      -2.569   6.043   3.734  1.00  0.00    -0.458 OA
BRANCH  24  25
ATOM     25  C   UNL     1      -2.403   6.009   5.076  1.00  0.00     0.338 C 
ATOM     26  O   UNL     1      -3.280   5.842   5.913  1.00  0.00    -0.246 OA
BRANCH  25  27
ATOM     27  C   UNL     1      -0.966   6.169   5.405  1.00  0.00     0.060 A 
ATOM     28  C   UNL     1       0.020   5.763   4.506  1.00  0.00     0.016 A 
ATOM     29  C   UNL     1      -0.588   6.670   6.653  1.00  0.00     0.016 A 
ATOM     30  C   UNL     1       1.363   5.768   4.882  1.00  0.00     0.010 A 
ATOM     31  C   UNL     1       0.772   6.795   6.977  1.00  0.00     0.010 A 
ATOM     32  C   UNL     1       1.769   6.329   6.103  1.00  0.00    -0.014 A 
BRANCH  32  33
ATOM     33  C   UNL     1       3.223   6.463   6.429  1.00  0.00     0.031 A 
ATOM     34  C   UNL     1       3.793   5.909   7.713  1.00  0.00     0.074 A 
ATOM     35  C   UNL     1       4.047   7.100   5.568  1.00  0.00     0.049 A 
ATOM     36  N   UNL     1       4.988   6.075   8.224  1.00  0.00    -0.248 NA
ATOM     37  C   UNL     1       2.903   5.079   8.540  1.00  0.00     0.031 C 
ATOM     38  C   UNL     1       3.648   7.685   4.284  1.00  0.00     0.029 A 
ATOM     39  N   UNL     1       5.397   7.350   5.632  1.00  0.00    -0.354 N 
ATOM     40  C   UNL     1       4.972   5.434   9.459  1.00  0.00     0.074 A 
ATOM     41  C   UNL     1       3.649   4.866   9.616  1.00  0.00     0.031 C 
ATOM     42  C   UNL     1       4.733   8.155   3.654  1.00  0.00     0.029 A 
ATOM     43  C   UNL     1       5.890   8.004   4.526  1.00  0.00     0.049 A 
ATOM     44  H   UNL     1       5.958   7.086   6.396  1.00  0.00     0.167 HD
ATOM     45  C   UNL     1       5.963   5.335  10.380  1.00  0.00     0.031 A 
ATOM     46  C   UNL     1       7.122   8.470   4.246  1.00  0.00     0.031 A 
ATOM     47  C   UNL     1       7.293   5.859  10.203  1.00  0.00     0.049 A 
ATOM     48  C   UNL     1       8.208   8.328   5.269  1.00  0.00     0.074 A 
ATOM     49  C   UNL     1       8.368   5.796  11.076  1.00  0.00     0.029 A 
ATOM     50  N   UNL     1       7.740   6.523   9.071  1.00  0.00    -0.354 N 
ATOM     51  N   UNL     1       8.149   7.771   6.455  1.00  0.00    -0.248 NA
ATOM     52  C   UNL     1       9.518   8.896   4.927  1.00  0.00     0.031 C 
ATOM     53  C   UNL     1       9.455   6.449  10.483  1.00  0.00     0.029 A 
ATOM     54  C   UNL     1       9.070   6.881   9.225  1.00  0.00     0.049 A 
ATOM     55  H   UNL     1       7.193   6.713   8.275  1.00  0.00     0.167 HD
ATOM     56  C   UNL     1       9.414   7.932   7.007  1.00  0.00     0.074 A 
ATOM     57  C   UNL     1      10.224   8.605   6.011  1.00  0.00     0.031 C 
ATOM     58  C   UNL     1       9.858   7.566   8.234  1.00  0.00     0.031 A 
BRANCH  45  59
ATOM     59  C   UNL     1       5.633   4.670  11.692  1.00  0.00    -0.014 A 
ATOM     60  C   UNL     1       5.477   3.276  11.794  1.00  0.00     0.010 A 
ATOM     61  C   UNL     1       5.516   5.457  12.853  1.00  0.00     0.010 A 
ATOM     62  C   UNL     1       5.169   2.688  13.025  1.00  0.00     0.020 A 
ATOM     63  C   UNL     1       5.231   4.870  14.090  1.00  0.00     0.020 A 
ATOM     64  C   UNL     1       5.040   3.490  14.164  1.00  0.00     0.054 A 
BRANCH  64  65
ATOM     65  S   UNL     1       4.649   2.703  15.752  1.00  0.00     0.124 S 
ATOM     66  O   UNL     1       3.220   2.434  15.609  1.00  0.00    -0.237 OA
ATOM     67  O   UNL     1       5.511   1.524  15.751  1.00  0.00    -0.237 OA
ATOM     68  O   UNL     1       4.996   3.723  16.739  1.00  0.00    -0.744 OA
ENDBRANCH  64  65
ENDBRANCH  45  59
BRANCH  46  69
ATOM     69  C   UNL     1       7.371   9.154   2.948  1.00  0.00    -0.014 A 
ATOM     70  C   UNL     1       8.124   8.524   1.942  1.00  0.00     0.010 A 
ATOM     71  C   UNL     1       6.808  10.418   2.692  1.00  0.00     0.010 A 
ATOM     72  C   UNL     1       8.302   9.142   0.701  1.00  0.00     0.020 A 
ATOM     73  C   UNL     1       6.960  11.025   1.443  1.00  0.00     0.020 A 
ATOM     74  C   UNL     1       7.712  10.385   0.456  1.00  0.00     0.054 A 
BRANCH  74  75
ATOM     75  S   UNL     1       7.867  11.128  -1.192  1.00  0.00     0.124 S 
ATOM     76  O   UNL     1       9.197  11.724  -1.132  1.00  0.00    -0.237 OA
ATOM     77  O   UNL     1       7.728   9.975  -2.078  1.00  0.00    -0.237 OA
ATOM     78  O   UNL     1       6.755  12.076  -1.241  1.00  0.00    -0.744 OA
ENDBRANCH  74  75
ENDBRANCH  46  69
BRANCH  58  79
ATOM     79  C   UNL     1      11.290   7.887   8.558  1.00  0.00    -0.014 A 
ATOM     80  C   UNL     1      11.683   9.202   8.863  1.00  0.00     0.010 A 
ATOM     81  C   UNL     1      12.251   6.860   8.567  1.00  0.00     0.010 A 
ATOM     82  C   UNL     1      13.023   9.493   9.133  1.00  0.00     0.020 A 
ATOM     83  C   UNL     1      13.588   7.144   8.857  1.00  0.00     0.020 A 
ATOM     84  C   UNL     1      13.968   8.462   9.120  1.00  0.00     0.054 A 
BRANCH  84  85
ATOM     85  S   UNL     1      15.700   8.857   9.486  1.00  0.00     0.124 S 
ATOM     86  O   UNL     1      16.153   9.433   8.223  1.00  0.00    -0.237 OA
ATOM     87  O   UNL     1      15.591   9.795  10.601  1.00  0.00    -0.237 OA
ATOM     88  O   UNL     1      16.284   7.561   9.826  1.00  0.00    -0.744 OA
ENDBRANCH  84  85
ENDBRANCH  58  79
ENDBRANCH  32  33
ENDBRANCH  25  27
ENDBRANCH  24  25
ENDBRANCH  23  24
ENDBRANCH   1  23
TORSDOF 21
