REMARK SMILES COc1ccc(Br)c([C@H]2[NH2+][C@H](C(=O)OCCOC(=O)c3ccc(-c4c5nc(c(-c6ccc(S(=O)(=O)[O-])cc6)c6ccc([nH]6)c(-c6ccc(S(=O)(=O)[O-])cc6)c6nc(c(-c7ccc(S(=O)(=O)[O-])cc7)c7ccc4[nH]7)C=C6)C=C5)cc3)CS2)c1O
REMARK SMILES IDX 16 1 15 2 14 3 12 4 13 5 11 6 9 7 10 8 81 9 80 12 8 13 3 14
REMARK SMILES IDX 4 15 82 16 5 17 6 18 7 19 2 20 1 21 83 22 17 24 18 25 19 26
REMARK SMILES IDX 20 27 21 28 79 29 22 30 78 31 23 32 24 33 25 34 72 35 26 36
REMARK SMILES IDX 77 37 71 38 73 39 27 40 76 41 70 42 69 43 28 45 58 46 39 47
REMARK SMILES IDX 57 48 40 49 43 50 56 51 74 52 41 53 42 54 55 56 75 57 44 58
REMARK SMILES IDX 29 59 30 60 38 61 31 62 37 63 32 64 33 65 34 66 35 67 36 68
REMARK SMILES IDX 59 69 60 70 68 71 61 72 67 73 62 74 63 75 64 76 65 77 66 78
REMARK SMILES IDX 45 79 46 80 54 81 47 82 53 83 48 84 49 85 50 86 51 87 52 88
REMARK H PARENT 10 10 10 11 83 23 73 44 43 55
REMARK Flexibility Score: inf
ROOT
ATOM      1  C   UNL     1       2.612  -4.113  -1.339  1.00  0.00     0.275 C 
ENDROOT
BRANCH   1   2
ATOM      2  C   UNL     1       2.335  -2.642  -1.034  1.00  0.00     0.274 C 
BRANCH   2   3
ATOM      3  O   UNL     1       3.083  -1.775  -1.908  1.00  0.00    -0.458 OA
BRANCH   3   4
ATOM      4  C   UNL     1       4.141  -1.125  -1.356  1.00  0.00     0.365 C 
ATOM      5  O   UNL     1       4.468  -1.220  -0.176  1.00  0.00    -0.245 OA
BRANCH   4   6
ATOM      6  C   UNL     1       4.875  -0.179  -2.314  1.00  0.00     0.304 C 
ATOM      7  C   UNL     1       3.531   0.035  -4.288  1.00  0.00     0.279 C 
ATOM      8  N   UNL     1       4.787  -0.515  -3.757  1.00  0.00    -0.319 N 
ATOM      9  S   UNL     1       3.037   1.457  -3.261  1.00  0.00    -0.087 SA
ATOM     10  H   UNL     1       5.579  -0.107  -4.254  1.00  0.00     0.348 HD
ATOM     11  H   UNL     1       4.806  -1.527  -3.882  1.00  0.00     0.348 HD
ATOM     12  C   UNL     1       4.417   1.255  -2.110  1.00  0.00     0.153 C 
BRANCH   7  13
ATOM     13  C   UNL     1       3.619   0.259  -5.793  1.00  0.00     0.080 A 
ATOM     14  C   UNL     1       4.189   1.610  -7.770  1.00  0.00     0.161 A 
ATOM     15  C   UNL     1       3.782   0.600  -8.628  1.00  0.00     0.051 A 
ATOM     16  C   UNL     1       4.117   1.442  -6.377  1.00  0.00     0.169 A 
ATOM     17  C   UNL     1       3.331  -0.599  -8.088  1.00  0.00     0.020 A 
ATOM     18  C   UNL     1       3.250  -0.770  -6.694  1.00  0.00     0.032 A 
ATOM     19  Br  UNL     1       2.615  -2.476  -6.123  1.00  0.00    -0.050 Br
BRANCH  14  20
ATOM     20  O   UNL     1       4.579   2.810  -8.309  1.00  0.00    -0.493 OA
ATOM     21  C   UNL     1       6.004   2.916  -8.366  1.00  0.00     0.278 C 
ENDBRANCH  14  20
BRANCH  16  22
ATOM     22  O   UNL     1       4.557   2.478  -5.596  1.00  0.00    -0.504 OA
ATOM     23  H   UNL     1       4.886   3.259  -5.996  1.00  0.00     0.293 HD
ENDBRANCH  16  22
ENDBRANCH   7  13
ENDBRANCH   4   6
ENDBRANCH   3   4
ENDBRANCH   2   3
ENDBRANCH   1   2
BRANCH   1  24
ATOM     24  O   UNL     1       3.996  -4.433  -1.121  1.00  0.00    -0.458 OA
BRANCH  24  25
ATOM     25  C   UNL     1       4.758  -4.443  -2.240  1.00  0.00     0.338 C 
ATOM     26  O   UNL     1       4.393  -4.280  -3.390  1.00  0.00    -0.246 OA
BRANCH  25  27
ATOM     27  C   UNL     1       6.168  -4.606  -1.863  1.00  0.00     0.060 A 
ATOM     28  C   UNL     1       7.031  -3.522  -2.037  1.00  0.00     0.016 A 
ATOM     29  C   UNL     1       6.651  -5.844  -1.433  1.00  0.00     0.016 A 
ATOM     30  C   UNL     1       8.393  -3.674  -1.787  1.00  0.00     0.010 A 
ATOM     31  C   UNL     1       8.018  -5.995  -1.185  1.00  0.00     0.010 A 
ATOM     32  C   UNL     1       8.899  -4.916  -1.376  1.00  0.00    -0.014 A 
BRANCH  32  33
ATOM     33  C   UNL     1      10.361  -5.103  -1.210  1.00  0.00     0.031 A 
ATOM     34  C   UNL     1      11.142  -5.849  -2.255  1.00  0.00     0.074 A 
ATOM     35  C   UNL     1      10.988  -4.592  -0.134  1.00  0.00     0.049 A 
ATOM     36  N   UNL     1      12.409  -6.174  -2.264  1.00  0.00    -0.248 NA
ATOM     37  C   UNL     1      10.398  -6.288  -3.447  1.00  0.00     0.031 C 
ATOM     38  C   UNL     1      10.346  -3.815   0.928  1.00  0.00     0.029 A 
ATOM     39  N   UNL     1      12.305  -4.655   0.245  1.00  0.00    -0.354 N 
ATOM     40  C   UNL     1      12.614  -6.868  -3.451  1.00  0.00     0.074 A 
ATOM     41  C   UNL     1      11.336  -6.931  -4.129  1.00  0.00     0.031 C 
ATOM     42  C   UNL     1      11.273  -3.472   1.838  1.00  0.00     0.029 A 
ATOM     43  C   UNL     1      12.561  -4.040   1.447  1.00  0.00     0.049 A 
ATOM     44  H   UNL     1      13.000  -5.098  -0.293  1.00  0.00     0.167 HD
ATOM     45  C   UNL     1      13.762  -7.402  -3.933  1.00  0.00     0.031 A 
ATOM     46  C   UNL     1      13.698  -3.963   2.165  1.00  0.00     0.031 A 
ATOM     47  C   UNL     1      15.029  -7.344  -3.253  1.00  0.00     0.049 A 
ATOM     48  C   UNL     1      14.948  -4.613   1.637  1.00  0.00     0.074 A 
ATOM     49  C   UNL     1      16.249  -7.858  -3.659  1.00  0.00     0.029 A 
ATOM     50  N   UNL     1      15.241  -6.736  -2.025  1.00  0.00    -0.354 N 
ATOM     51  N   UNL     1      15.123  -5.271   0.516  1.00  0.00    -0.248 NA
ATOM     52  C   UNL     1      16.153  -4.510   2.471  1.00  0.00     0.031 C 
ATOM     53  C   UNL     1      17.190  -7.595  -2.656  1.00  0.00     0.029 A 
ATOM     54  C   UNL     1      16.566  -6.875  -1.650  1.00  0.00     0.049 A 
ATOM     55  H   UNL     1      14.550  -6.272  -1.498  1.00  0.00     0.167 HD
ATOM     56  C   UNL     1      16.461  -5.647   0.502  1.00  0.00     0.074 A 
ATOM     57  C   UNL     1      17.054  -5.129   1.719  1.00  0.00     0.031 C 
ATOM     58  C   UNL     1      17.139  -6.358  -0.433  1.00  0.00     0.031 A 
BRANCH  45  59
ATOM     59  C   UNL     1      13.687  -8.129  -5.248  1.00  0.00    -0.014 A 
ATOM     60  C   UNL     1      13.551  -7.428  -6.460  1.00  0.00     0.010 A 
ATOM     61  C   UNL     1      13.783  -9.532  -5.275  1.00  0.00     0.010 A 
ATOM     62  C   UNL     1      13.472  -8.120  -7.672  1.00  0.00     0.020 A 
ATOM     63  C   UNL     1      13.726 -10.226  -6.487  1.00  0.00     0.020 A 
ATOM     64  C   UNL     1      13.553  -9.516  -7.677  1.00  0.00     0.054 A 
BRANCH  64  65
ATOM     65  S   UNL     1      13.458 -10.392  -9.263  1.00  0.00     0.124 S 
ATOM     66  O   UNL     1      12.032 -10.306  -9.568  1.00  0.00    -0.237 OA
ATOM     67  O   UNL     1      14.332  -9.598 -10.123  1.00  0.00    -0.237 OA
ATOM     68  O   UNL     1      13.949 -11.731  -8.950  1.00  0.00    -0.744 OA
ENDBRANCH  64  65
ENDBRANCH  45  59
BRANCH  46  69
ATOM     69  C   UNL     1      13.696  -3.266   3.479  1.00  0.00    -0.014 A 
ATOM     70  C   UNL     1      14.341  -2.028   3.636  1.00  0.00     0.010 A 
ATOM     71  C   UNL     1      13.028  -3.836   4.579  1.00  0.00     0.010 A 
ATOM     72  C   UNL     1      14.327  -1.375   4.873  1.00  0.00     0.020 A 
ATOM     73  C   UNL     1      12.991  -3.175   5.809  1.00  0.00     0.020 A 
ATOM     74  C   UNL     1      13.650  -1.952   5.951  1.00  0.00     0.054 A 
BRANCH  74  75
ATOM     75  S   UNL     1      13.588  -1.060   7.530  1.00  0.00     0.124 S 
ATOM     76  O   UNL     1      14.918  -1.315   8.074  1.00  0.00    -0.237 OA
ATOM     77  O   UNL     1      13.329   0.314   7.109  1.00  0.00    -0.237 OA
ATOM     78  O   UNL     1      12.485  -1.703   8.242  1.00  0.00    -0.744 OA
ENDBRANCH  74  75
ENDBRANCH  46  69
BRANCH  58  79
ATOM     79  C   UNL     1      18.604  -6.596  -0.190  1.00  0.00    -0.014 A 
ATOM     80  C   UNL     1      19.040  -7.539   0.757  1.00  0.00     0.010 A 
ATOM     81  C   UNL     1      19.557  -5.901  -0.957  1.00  0.00     0.010 A 
ATOM     82  C   UNL     1      20.405  -7.763   0.953  1.00  0.00     0.020 A 
ATOM     83  C   UNL     1      20.922  -6.138  -0.780  1.00  0.00     0.020 A 
ATOM     84  C   UNL     1      21.338  -7.059   0.185  1.00  0.00     0.054 A 
BRANCH  84  85
ATOM     85  S   UNL     1      23.105  -7.396   0.425  1.00  0.00     0.124 S 
ATOM     86  O   UNL     1      23.385  -6.676   1.664  1.00  0.00    -0.237 OA
ATOM     87  O   UNL     1      23.146  -8.853   0.522  1.00  0.00    -0.237 OA
ATOM     88  O   UNL     1      23.729  -6.840  -0.774  1.00  0.00    -0.744 OA
ENDBRANCH  84  85
ENDBRANCH  58  79
ENDBRANCH  32  33
ENDBRANCH  25  27
ENDBRANCH  24  25
ENDBRANCH   1  24
TORSDOF 17
