REMARK SMILES Cc1ccc(C[NH2+]CCC(=O)OCCOC(=O)c2ccc(-c3c4nc(c(-c5ccc(S(=O)(=O)[O-])cc5)c5ccc([nH]5)c(-c5ccc(S(=O)(=O)[O-])cc5)c5nc(c(-c6ccc(S(=O)(=O)[O-])cc6)c6ccc3[nH]6)C=C5)C=C4)cc2)cc1
REMARK SMILES IDX 13 1 12 2 10 3 11 4 9 5 8 6 7 7 6 10 5 11 1 12 2 13 3 14
REMARK SMILES IDX 79 15 4 16 78 17 14 18 15 19 16 20 17 21 18 22 19 23 77 24
REMARK SMILES IDX 20 25 76 26 21 27 22 28 23 29 70 30 24 31 75 32 69 33 71 34
REMARK SMILES IDX 25 35 74 36 68 37 67 38 26 40 56 41 37 42 55 43 38 44 41 45
REMARK SMILES IDX 54 46 72 47 39 48 40 49 53 51 73 52 42 53 27 54 28 55 36 56
REMARK SMILES IDX 29 57 35 58 30 59 31 60 32 61 33 62 34 63 57 64 58 65 66 66
REMARK SMILES IDX 59 67 65 68 60 69 61 70 62 71 63 72 64 73 43 74 44 75 52 76
REMARK SMILES IDX 45 77 51 78 46 79 47 80 48 81 49 82 50 83
REMARK H PARENT 7 8 7 9 71 39 41 50
REMARK Flexibility Score: inf
ROOT
ATOM      1  C   UNL     1      -2.812   1.117  -4.847  1.00  0.00     0.274 C 
ENDROOT
BRANCH   1   2
ATOM      2  O   UNL     1      -3.215   1.098  -3.471  1.00  0.00    -0.462 OA
BRANCH   2   3
ATOM      3  C   UNL     1      -3.167  -0.095  -2.814  1.00  0.00     0.311 C 
ATOM      4  O   UNL     1      -2.622  -1.096  -3.223  1.00  0.00    -0.252 OA
BRANCH   3   5
ATOM      5  C   UNL     1      -3.882   0.076  -1.496  1.00  0.00     0.184 C 
BRANCH   5   6
ATOM      6  C   UNL     1      -4.294  -1.221  -0.824  1.00  0.00     0.272 C 
BRANCH   6   7
ATOM      7  N   UNL     1      -3.205  -1.910  -0.130  1.00  0.00    -0.342 N 
ATOM      8  H   UNL     1      -3.573  -2.771   0.274  1.00  0.00     0.346 HD
ATOM      9  H   UNL     1      -2.475  -2.090  -0.818  1.00  0.00     0.346 HD
BRANCH   7  10
ATOM     10  C   UNL     1      -2.604  -1.111   0.943  1.00  0.00     0.297 C 
BRANCH  10  11
ATOM     11  C   UNL     1      -1.169  -0.747   0.639  1.00  0.00     0.006 A 
ATOM     12  C   UNL     1       2.970   0.190  -0.149  1.00  0.00     0.044 C 
ATOM     13  C   UNL     1       1.526  -0.124   0.101  1.00  0.00    -0.051 A 
ATOM     14  C   UNL     1       1.121  -1.455   0.245  1.00  0.00     0.004 A 
ATOM     15  C   UNL     1       0.573   0.893   0.206  1.00  0.00     0.004 A 
ATOM     16  C   UNL     1      -0.211  -1.762   0.514  1.00  0.00     0.010 A 
ATOM     17  C   UNL     1      -0.763   0.584   0.476  1.00  0.00     0.010 A 
ENDBRANCH  10  11
ENDBRANCH   7  10
ENDBRANCH   6   7
ENDBRANCH   5   6
ENDBRANCH   3   5
ENDBRANCH   2   3
ENDBRANCH   1   2
BRANCH   1  18
ATOM     18  C   UNL     1      -3.733   0.291  -5.775  1.00  0.00     0.275 C 
BRANCH  18  19
ATOM     19  O   UNL     1      -5.098   0.763  -5.814  1.00  0.00    -0.458 OA
BRANCH  19  20
ATOM     20  C   UNL     1      -5.898   0.425  -4.755  1.00  0.00     0.338 C 
ATOM     21  O   UNL     1      -6.000  -0.699  -4.289  1.00  0.00    -0.246 OA
BRANCH  20  22
ATOM     22  C   UNL     1      -6.210   1.673  -3.995  1.00  0.00     0.060 A 
ATOM     23  C   UNL     1      -6.798   1.623  -2.716  1.00  0.00     0.016 A 
ATOM     24  C   UNL     1      -5.472   2.785  -4.370  1.00  0.00     0.016 A 
ATOM     25  C   UNL     1      -6.501   2.620  -1.770  1.00  0.00     0.010 A 
ATOM     26  C   UNL     1      -4.967   3.579  -3.382  1.00  0.00     0.010 A 
ATOM     27  C   UNL     1      -5.521   3.558  -2.092  1.00  0.00    -0.014 A 
BRANCH  27  28
ATOM     28  C   UNL     1      -5.170   4.771  -1.358  1.00  0.00     0.031 A 
ATOM     29  C   UNL     1      -4.276   4.848  -0.189  1.00  0.00     0.074 A 
ATOM     30  C   UNL     1      -5.495   5.875  -2.075  1.00  0.00     0.049 A 
ATOM     31  N   UNL     1      -4.133   5.922   0.509  1.00  0.00    -0.248 NA
ATOM     32  C   UNL     1      -3.451   3.753   0.308  1.00  0.00     0.031 C 
ATOM     33  C   UNL     1      -4.997   7.234  -2.007  1.00  0.00     0.029 A 
ATOM     34  N   UNL     1      -6.481   5.941  -3.069  1.00  0.00    -0.354 N 
ATOM     35  C   UNL     1      -3.020   5.776   1.310  1.00  0.00     0.074 A 
ATOM     36  C   UNL     1      -2.685   4.374   1.221  1.00  0.00     0.031 C 
ATOM     37  C   UNL     1      -5.875   8.033  -2.645  1.00  0.00     0.029 A 
ATOM     38  C   UNL     1      -7.029   7.211  -3.005  1.00  0.00     0.049 A 
ATOM     39  H   UNL     1      -6.734   5.223  -3.693  1.00  0.00     0.167 HD
ATOM     40  C   UNL     1      -2.445   6.896   1.841  1.00  0.00     0.031 A 
ATOM     41  C   UNL     1      -8.313   7.361  -2.567  1.00  0.00     0.031 A 
ATOM     42  C   UNL     1      -3.217   8.084   1.476  1.00  0.00     0.049 A 
ATOM     43  C   UNL     1      -8.310   8.120  -1.262  1.00  0.00     0.074 A 
ATOM     44  C   UNL     1      -3.049   9.041   0.490  1.00  0.00     0.029 A 
ATOM     45  N   UNL     1      -4.518   8.216   1.945  1.00  0.00    -0.354 N 
ATOM     46  N   UNL     1      -7.303   8.143  -0.430  1.00  0.00    -0.248 NA
ATOM     47  C   UNL     1      -9.411   8.972  -0.837  1.00  0.00     0.031 C 
ATOM     48  C   UNL     1      -4.305   9.675   0.289  1.00  0.00     0.029 A 
ATOM     49  C   UNL     1      -5.218   9.123   1.174  1.00  0.00     0.049 A 
ATOM     50  H   UNL     1      -4.888   7.731   2.718  1.00  0.00     0.167 HD
ATOM     51  C   UNL     1      -7.543   9.070   0.546  1.00  0.00     0.074 A 
ATOM     52  C   UNL     1      -8.893   9.533   0.270  1.00  0.00     0.031 C 
ATOM     53  C   UNL     1      -6.610   9.426   1.478  1.00  0.00     0.031 A 
BRANCH  40  54
ATOM     54  C   UNL     1      -1.076   6.998   2.486  1.00  0.00    -0.014 A 
ATOM     55  C   UNL     1      -0.433   8.259   2.521  1.00  0.00     0.010 A 
ATOM     56  C   UNL     1      -0.363   5.930   3.060  1.00  0.00     0.010 A 
ATOM     57  C   UNL     1       0.856   8.440   3.041  1.00  0.00     0.020 A 
ATOM     58  C   UNL     1       0.939   6.095   3.580  1.00  0.00     0.020 A 
ATOM     59  C   UNL     1       1.544   7.350   3.559  1.00  0.00     0.054 A 
BRANCH  59  60
ATOM     60  S   UNL     1       3.220   7.608   4.204  1.00  0.00     0.124 S 
ATOM     61  O   UNL     1       3.938   8.090   3.026  1.00  0.00    -0.237 OA
ATOM     62  O   UNL     1       3.007   8.596   5.257  1.00  0.00    -0.237 OA
ATOM     63  O   UNL     1       3.621   6.282   4.669  1.00  0.00    -0.744 OA
ENDBRANCH  59  60
ENDBRANCH  40  54
BRANCH  41  64
ATOM     64  C   UNL     1      -9.223   6.218  -2.936  1.00  0.00    -0.014 A 
ATOM     65  C   UNL     1      -9.472   6.017  -4.316  1.00  0.00     0.010 A 
ATOM     66  C   UNL     1      -9.459   5.138  -2.061  1.00  0.00     0.010 A 
ATOM     67  C   UNL     1      -9.807   4.753  -4.821  1.00  0.00     0.020 A 
ATOM     68  C   UNL     1      -9.809   3.868  -2.567  1.00  0.00     0.020 A 
ATOM     69  C   UNL     1      -9.934   3.675  -3.946  1.00  0.00     0.054 A 
BRANCH  69  70
ATOM     70  S   UNL     1     -10.078   2.003  -4.662  1.00  0.00     0.124 S 
ATOM     71  O   UNL     1     -11.390   2.049  -5.298  1.00  0.00    -0.237 OA
ATOM     72  O   UNL     1      -8.938   1.960  -5.576  1.00  0.00    -0.237 OA
ATOM     73  O   UNL     1      -9.971   1.123  -3.502  1.00  0.00    -0.744 OA
ENDBRANCH  69  70
ENDBRANCH  41  64
BRANCH  53  74
ATOM     74  C   UNL     1      -6.899  10.192   2.743  1.00  0.00    -0.014 A 
ATOM     75  C   UNL     1      -8.177  10.300   3.306  1.00  0.00     0.010 A 
ATOM     76  C   UNL     1      -5.817  10.708   3.500  1.00  0.00     0.010 A 
ATOM     77  C   UNL     1      -8.381  10.959   4.522  1.00  0.00     0.020 A 
ATOM     78  C   UNL     1      -6.001  11.311   4.744  1.00  0.00     0.020 A 
ATOM     79  C   UNL     1      -7.291  11.461   5.233  1.00  0.00     0.054 A 
BRANCH  79  80
ATOM     80  S   UNL     1      -7.573  12.252   6.832  1.00  0.00     0.124 S 
ATOM     81  O   UNL     1      -7.931  13.610   6.432  1.00  0.00    -0.237 OA
ATOM     82  O   UNL     1      -8.662  11.458   7.398  1.00  0.00    -0.237 OA
ATOM     83  O   UNL     1      -6.290  12.115   7.515  1.00  0.00    -0.744 OA
ENDBRANCH  79  80
ENDBRANCH  53  74
ENDBRANCH  27  28
ENDBRANCH  20  22
ENDBRANCH  19  20
ENDBRANCH  18  19
ENDBRANCH   1  18
TORSDOF 18
