REMARK SMILES Nc1ccc(-c2cc(Cl)cc3c2O[C@H](C(F)(F)F)C(C(=O)OCCOC(=O)c2ccc(-c4c5nc(c(-c6ccc(S(=O)(=O)[O-])cc6)c6ccc([nH]6)c(-c6ccc(S(=O)(=O)[O-])cc6)c6nc(c(-c7ccc(S(=O)(=O)[O-])cc7)c7ccc4[nH]7)C=C6)C=C5)cc2)=C3)cc1
REMARK SMILES IDX 24 1 23 2 22 3 20 4 21 5 19 6 6 7 7 8 12 9 8 10 11 11 13 12
REMARK SMILES IDX 9 13 10 14 88 15 14 16 5 17 2 18 3 19 90 20 4 21 89 22 1 23
REMARK SMILES IDX 15 26 16 27 17 28 18 29 25 30 26 31 27 32 28 33 29 34 87 35
REMARK SMILES IDX 30 36 86 37 31 38 32 39 33 40 80 41 34 42 85 43 79 44 81 45
REMARK SMILES IDX 35 46 84 47 78 48 77 49 36 51 66 52 47 53 65 54 48 55 51 56
REMARK SMILES IDX 64 57 82 58 49 59 50 60 63 62 83 63 52 64 37 65 38 66 46 67
REMARK SMILES IDX 39 68 45 69 40 70 41 71 42 72 43 73 44 74 67 75 68 76 76 77
REMARK SMILES IDX 69 78 75 79 70 80 71 81 72 82 73 83 74 84 53 85 54 86 62 87
REMARK SMILES IDX 55 88 61 89 56 90 57 91 58 92 59 93 60 94
REMARK H PARENT 1 24 1 25 81 50 51 61
REMARK Flexibility Score: inf
ROOT
ATOM      1  C   UNL     1      -7.160  -2.603   6.942  1.00  0.00     0.275 C 
ENDROOT
BRANCH   1   2
ATOM      2  C   UNL     1      -6.174  -3.481   6.169  1.00  0.00     0.275 C 
BRANCH   2   3
ATOM      3  O   UNL     1      -5.486  -2.727   5.146  1.00  0.00    -0.459 OA
BRANCH   3   4
ATOM      4  C   UNL     1      -5.884  -2.965   3.874  1.00  0.00     0.338 C 
ATOM      5  O   UNL     1      -6.735  -3.763   3.515  1.00  0.00    -0.246 OA
BRANCH   4   6
ATOM      6  C   UNL     1      -5.155  -2.092   2.933  1.00  0.00     0.087 C 
ATOM      7  C   UNL     1      -3.051   0.036  -0.006  1.00  0.00     0.026 A 
ATOM      8  C   UNL     1      -3.785   0.677  -1.023  1.00  0.00     0.033 A 
ATOM      9  C   UNL     1      -3.754  -0.628   1.019  1.00  0.00     0.135 A 
ATOM     10  C   UNL     1      -5.177   0.658  -1.015  1.00  0.00     0.042 A 
ATOM     11  C   UNL     1      -5.147  -0.673   0.994  1.00  0.00     0.019 A 
ATOM     12  O   UNL     1      -3.021  -1.181   2.039  1.00  0.00    -0.475 OA
ATOM     13  Cl  UNL     1      -6.051   1.452  -2.265  1.00  0.00    -0.084 Cl
ATOM     14  C   UNL     1      -5.863  -0.016  -0.013  1.00  0.00     0.032 A 
ATOM     15  C   UNL     1      -5.854  -1.440   1.997  1.00  0.00     0.027 C 
ATOM     16  C   UNL     1      -3.658  -2.084   2.979  1.00  0.00     0.316 C 
BRANCH   7  17
ATOM     17  C   UNL     1      -1.583   0.043  -0.049  1.00  0.00    -0.014 A 
ATOM     18  C   UNL     1       1.243   0.036  -0.055  1.00  0.00     0.031 A 
ATOM     19  C   UNL     1       0.533  -1.162  -0.092  1.00  0.00     0.026 A 
ATOM     20  C   UNL     1       0.534   1.238  -0.038  1.00  0.00     0.026 A 
ATOM     21  C   UNL     1      -0.863  -1.161  -0.093  1.00  0.00     0.011 A 
ATOM     22  C   UNL     1      -0.864   1.244  -0.033  1.00  0.00     0.011 A 
BRANCH  18  23
ATOM     23  N   UNL     1       2.625   0.033  -0.058  1.00  0.00    -0.399 N 
ATOM     24  H   UNL     1       3.115  -0.821  -0.070  1.00  0.00     0.156 HD
ATOM     25  H   UNL     1       3.119   0.885  -0.048  1.00  0.00     0.156 HD
ENDBRANCH  18  23
ENDBRANCH   7  17
BRANCH  16  26
ATOM     26  C   UNL     1      -3.087  -3.496   2.767  1.00  0.00     0.430 C 
ATOM     27  F   UNL     1      -1.732  -3.490   2.786  1.00  0.00    -0.167 F 
ATOM     28  F   UNL     1      -3.480  -4.347   3.746  1.00  0.00    -0.167 F 
ATOM     29  F   UNL     1      -3.471  -4.030   1.586  1.00  0.00    -0.167 F 
ENDBRANCH  16  26
ENDBRANCH   4   6
ENDBRANCH   3   4
ENDBRANCH   2   3
ENDBRANCH   1   2
BRANCH   1  30
ATOM     30  O   UNL     1      -8.269  -2.231   6.106  1.00  0.00    -0.458 OA
BRANCH  30  31
ATOM     31  C   UNL     1      -8.216  -0.977   5.602  1.00  0.00     0.338 C 
ATOM     32  O   UNL     1      -7.365  -0.130   5.807  1.00  0.00    -0.246 OA
BRANCH  31  33
ATOM     33  C   UNL     1      -9.298  -0.803   4.625  1.00  0.00     0.060 A 
ATOM     34  C   UNL     1     -10.414  -0.021   4.889  1.00  0.00     0.016 A 
ATOM     35  C   UNL     1      -9.106  -1.330   3.355  1.00  0.00     0.016 A 
ATOM     36  C   UNL     1     -11.341   0.203   3.861  1.00  0.00     0.010 A 
ATOM     37  C   UNL     1      -9.928  -0.962   2.299  1.00  0.00     0.010 A 
ATOM     38  C   UNL     1     -11.092  -0.233   2.541  1.00  0.00    -0.014 A 
BRANCH  38  39
ATOM     39  C   UNL     1     -12.043   0.041   1.424  1.00  0.00     0.031 A 
ATOM     40  C   UNL     1     -12.582  -1.086   0.567  1.00  0.00     0.074 A 
ATOM     41  C   UNL     1     -12.406   1.313   1.155  1.00  0.00     0.049 A 
ATOM     42  N   UNL     1     -13.441  -1.027  -0.421  1.00  0.00    -0.248 NA
ATOM     43  C   UNL     1     -12.068  -2.446   0.813  1.00  0.00     0.031 C 
ATOM     44  C   UNL     1     -11.885   2.500   1.838  1.00  0.00     0.029 A 
ATOM     45  N   UNL     1     -13.316   1.823   0.261  1.00  0.00    -0.354 N 
ATOM     46  C   UNL     1     -13.547  -2.325  -0.913  1.00  0.00     0.074 A 
ATOM     47  C   UNL     1     -12.603  -3.134  -0.184  1.00  0.00     0.031 C 
ATOM     48  C   UNL     1     -12.551   3.583   1.411  1.00  0.00     0.029 A 
ATOM     49  C   UNL     1     -13.508   3.182   0.384  1.00  0.00     0.049 A 
ATOM     50  H   UNL     1     -13.787   1.271  -0.404  1.00  0.00     0.167 HD
ATOM     51  C   UNL     1     -14.394  -2.816  -1.848  1.00  0.00     0.031 A 
ATOM     52  C   UNL     1     -14.371   4.013  -0.236  1.00  0.00     0.031 A 
ATOM     53  C   UNL     1     -15.381  -2.018  -2.524  1.00  0.00     0.049 A 
ATOM     54  C   UNL     1     -15.339   3.443  -1.235  1.00  0.00     0.074 A 
ATOM     55  C   UNL     1     -16.345  -2.433  -3.424  1.00  0.00     0.029 A 
ATOM     56  N   UNL     1     -15.544  -0.651  -2.360  1.00  0.00    -0.354 N 
ATOM     57  N   UNL     1     -15.482   2.197  -1.619  1.00  0.00    -0.248 NA
ATOM     58  C   UNL     1     -16.271   4.381  -1.875  1.00  0.00     0.031 C 
ATOM     59  C   UNL     1     -17.051  -1.308  -3.851  1.00  0.00     0.029 A 
ATOM     60  C   UNL     1     -16.579  -0.203  -3.160  1.00  0.00     0.049 A 
ATOM     61  H   UNL     1     -15.003  -0.084  -1.763  1.00  0.00     0.167 HD
ATOM     62  C   UNL     1     -16.527   2.198  -2.535  1.00  0.00     0.074 A 
ATOM     63  C   UNL     1     -16.998   3.565  -2.630  1.00  0.00     0.031 C 
ATOM     64  C   UNL     1     -17.042   1.161  -3.239  1.00  0.00     0.031 A 
BRANCH  51  65
ATOM     65  C   UNL     1     -14.350  -4.294  -2.159  1.00  0.00    -0.014 A 
ATOM     66  C   UNL     1     -14.023  -4.735  -3.455  1.00  0.00     0.010 A 
ATOM     67  C   UNL     1     -14.755  -5.243  -1.201  1.00  0.00     0.010 A 
ATOM     68  C   UNL     1     -14.134  -6.086  -3.796  1.00  0.00     0.020 A 
ATOM     69  C   UNL     1     -14.833  -6.599  -1.528  1.00  0.00     0.020 A 
ATOM     70  C   UNL     1     -14.549  -7.009  -2.832  1.00  0.00     0.054 A 
BRANCH  70  71
ATOM     71  S   UNL     1     -14.728  -8.752  -3.301  1.00  0.00     0.124 S 
ATOM     72  O   UNL     1     -15.952  -8.733  -4.096  1.00  0.00    -0.237 OA
ATOM     73  O   UNL     1     -13.496  -9.012  -4.042  1.00  0.00    -0.237 OA
ATOM     74  O   UNL     1     -14.828  -9.443  -2.017  1.00  0.00    -0.744 OA
ENDBRANCH  70  71
ENDBRANCH  51  65
BRANCH  52  75
ATOM     75  C   UNL     1     -14.400   5.452   0.155  1.00  0.00    -0.014 A 
ATOM     76  C   UNL     1     -13.304   6.292  -0.116  1.00  0.00     0.010 A 
ATOM     77  C   UNL     1     -15.479   5.961   0.901  1.00  0.00     0.010 A 
ATOM     78  C   UNL     1     -13.256   7.588   0.407  1.00  0.00     0.020 A 
ATOM     79  C   UNL     1     -15.450   7.269   1.397  1.00  0.00     0.020 A 
ATOM     80  C   UNL     1     -14.322   8.062   1.175  1.00  0.00     0.054 A 
BRANCH  80  81
ATOM     81  S   UNL     1     -14.201   9.718   1.908  1.00  0.00     0.124 S 
ATOM     82  O   UNL     1     -13.250   9.496   2.993  1.00  0.00    -0.237 OA
ATOM     83  O   UNL     1     -13.709  10.524   0.794  1.00  0.00    -0.237 OA
ATOM     84  O   UNL     1     -15.570  10.008   2.326  1.00  0.00    -0.744 OA
ENDBRANCH  80  81
ENDBRANCH  52  75
BRANCH  64  85
ATOM     85  C   UNL     1     -18.177   1.433  -4.190  1.00  0.00    -0.014 A 
ATOM     86  C   UNL     1     -19.443   0.868  -3.945  1.00  0.00     0.010 A 
ATOM     87  C   UNL     1     -17.948   2.102  -5.405  1.00  0.00     0.010 A 
ATOM     88  C   UNL     1     -20.443   0.921  -4.918  1.00  0.00     0.020 A 
ATOM     89  C   UNL     1     -18.957   2.186  -6.367  1.00  0.00     0.020 A 
ATOM     90  C   UNL     1     -20.188   1.568  -6.129  1.00  0.00     0.054 A 
BRANCH  90  91
ATOM     91  S   UNL     1     -21.477   1.573  -7.404  1.00  0.00     0.124 S 
ATOM     92  O   UNL     1     -21.425   0.201  -7.900  1.00  0.00    -0.237 OA
ATOM     93  O   UNL     1     -22.676   1.923  -6.646  1.00  0.00    -0.237 OA
ATOM     94  O   UNL     1     -21.025   2.595  -8.346  1.00  0.00    -0.744 OA
ENDBRANCH  90  91
ENDBRANCH  64  85
ENDBRANCH  38  39
ENDBRANCH  31  33
ENDBRANCH  30  31
ENDBRANCH   1  30
TORSDOF 17
