REMARK SMILES Cc1cc(NC(=O)CC2(CC(=O)OCCOC(=O)c3ccc(-c4c5nc(c(-c6ccc(S(=O)(=O)[O-])cc6)c6ccc([nH]6)c(-c6ccc(S(=O)(=O)[O-])cc6)c6nc(c(-c7ccc(S(=O)(=O)[O-])cc7)c7ccc4[nH]7)C=C6)C=C5)cc3)CCCC2)ccn1
REMARK SMILES IDX 14 1 13 2 11 3 12 4 10 5 9 6 79 7 82 8 80 9 81 10 8 11 6 12
REMARK SMILES IDX 5 13 7 15 4 16 1 17 2 18 3 19 85 20 84 21 83 22 15 23 16 24
REMARK SMILES IDX 17 25 18 26 19 27 20 28 78 29 21 30 77 31 22 32 23 33 24 34
REMARK SMILES IDX 71 35 25 36 76 37 70 38 72 39 26 40 75 41 69 42 68 43 27 45
REMARK SMILES IDX 57 46 38 47 56 48 39 49 42 50 55 51 73 52 40 53 41 54 54 56
REMARK SMILES IDX 74 57 43 58 28 59 29 60 37 61 30 62 36 63 31 64 32 65 33 66
REMARK SMILES IDX 34 67 35 68 58 69 59 70 67 71 60 72 66 73 61 74 62 75 63 76
REMARK SMILES IDX 64 77 65 78 44 79 45 80 53 81 46 82 52 83 47 84 48 85 49 86
REMARK SMILES IDX 50 87 51 88
REMARK H PARENT 5 14 72 44 42 55
REMARK Flexibility Score: inf
ROOT
ATOM      1  C   UNL     1      -8.023   0.058   1.926  1.00  0.00     0.274 C 
ENDROOT
BRANCH   1   2
ATOM      2  O   UNL     1      -6.586   0.055   1.806  1.00  0.00    -0.462 OA
BRANCH   2   3
ATOM      3  C   UNL     1      -5.939  -0.714   2.713  1.00  0.00     0.306 C 
ATOM      4  O   UNL     1      -6.499  -1.392   3.569  1.00  0.00    -0.252 OA
BRANCH   3   5
ATOM      5  C   UNL     1      -4.428  -0.645   2.652  1.00  0.00     0.130 C 
BRANCH   5   6
ATOM      6  C   UNL     1      -3.655   0.134   1.549  1.00  0.00    -0.011 C 
ATOM      7  C   UNL     1      -2.209   0.320   2.068  1.00  0.00     0.008 C 
ATOM      8  C   UNL     1      -4.056   1.619   1.414  1.00  0.00     0.008 C 
ATOM      9  C   UNL     1      -2.265   1.485   3.055  1.00  0.00     0.001 C 
ATOM     10  C   UNL     1      -3.469   2.321   2.633  1.00  0.00     0.001 C 
BRANCH   6  11
ATOM     11  C   UNL     1      -3.747  -0.570   0.168  1.00  0.00     0.108 C 
BRANCH  11  12
ATOM     12  C   UNL     1      -2.882  -1.803  -0.026  1.00  0.00     0.224 C 
ATOM     13  N   UNL     1      -1.567  -1.779  -0.370  1.00  0.00    -0.326 N 
ATOM     14  H   UNL     1      -1.163  -2.676  -0.399  1.00  0.00     0.169 HD
ATOM     15  O   UNL     1      -3.356  -2.916   0.223  1.00  0.00    -0.275 OA
BRANCH  13  16
ATOM     16  C   UNL     1      -0.658  -0.761  -0.694  1.00  0.00     0.044 A 
ATOM     17  C   UNL     1       3.016  -0.167  -0.017  1.00  0.00     0.067 C 
ATOM     18  C   UNL     1       1.611   0.017  -0.507  1.00  0.00     0.039 A 
ATOM     19  C   UNL     1       0.677  -1.004  -0.362  1.00  0.00     0.049 A 
ATOM     20  N   UNL     1       1.283   1.235  -0.992  1.00  0.00    -0.261 NA
ATOM     21  C   UNL     1       0.004   1.419  -1.380  1.00  0.00     0.113 A 
ATOM     22  C   UNL     1      -0.990   0.460  -1.262  1.00  0.00     0.046 A 
ENDBRANCH  13  16
ENDBRANCH  11  12
ENDBRANCH   6  11
ENDBRANCH   5   6
ENDBRANCH   3   5
ENDBRANCH   2   3
ENDBRANCH   1   2
BRANCH   1  23
ATOM     23  C   UNL     1      -8.663  -0.865   0.895  1.00  0.00     0.275 C 
BRANCH  23  24
ATOM     24  O   UNL     1      -8.080  -2.175   0.971  1.00  0.00    -0.458 OA
BRANCH  24  25
ATOM     25  C   UNL     1      -7.422  -2.584  -0.135  1.00  0.00     0.338 C 
ATOM     26  O   UNL     1      -7.338  -1.990  -1.206  1.00  0.00    -0.246 OA
BRANCH  25  27
ATOM     27  C   UNL     1      -6.805  -3.897   0.101  1.00  0.00     0.060 A 
ATOM     28  C   UNL     1      -5.902  -4.075   1.147  1.00  0.00     0.016 A 
ATOM     29  C   UNL     1      -7.038  -4.929  -0.809  1.00  0.00     0.016 A 
ATOM     30  C   UNL     1      -5.164  -5.255   1.236  1.00  0.00     0.010 A 
ATOM     31  C   UNL     1      -6.363  -6.143  -0.663  1.00  0.00     0.010 A 
ATOM     32  C   UNL     1      -5.394  -6.309   0.341  1.00  0.00    -0.014 A 
BRANCH  32  33
ATOM     33  C   UNL     1      -4.630  -7.582   0.440  1.00  0.00     0.031 A 
ATOM     34  C   UNL     1      -3.799  -8.066  -0.721  1.00  0.00     0.074 A 
ATOM     35  C   UNL     1      -4.714  -8.331   1.557  1.00  0.00     0.049 A 
ATOM     36  N   UNL     1      -3.261  -9.243  -0.916  1.00  0.00    -0.248 NA
ATOM     37  C   UNL     1      -3.553  -7.105  -1.809  1.00  0.00     0.031 C 
ATOM     38  C   UNL     1      -5.442  -7.965   2.774  1.00  0.00     0.029 A 
ATOM     39  N   UNL     1      -4.192  -9.569   1.844  1.00  0.00    -0.354 N 
ATOM     40  C   UNL     1      -2.661  -9.185  -2.170  1.00  0.00     0.074 A 
ATOM     41  C   UNL     1      -2.898  -7.854  -2.688  1.00  0.00     0.031 C 
ATOM     42  C   UNL     1      -5.311  -8.947   3.678  1.00  0.00     0.029 A 
ATOM     43  C   UNL     1      -4.564 -10.046   3.078  1.00  0.00     0.049 A 
ATOM     44  H   UNL     1      -3.608 -10.065   1.226  1.00  0.00     0.167 HD
ATOM     45  C   UNL     1      -1.984 -10.156  -2.829  1.00  0.00     0.031 A 
ATOM     46  C   UNL     1      -4.376 -11.250   3.650  1.00  0.00     0.031 A 
ATOM     47  C   UNL     1      -1.720 -11.467  -2.292  1.00  0.00     0.049 A 
ATOM     48  C   UNL     1      -3.656 -12.322   2.888  1.00  0.00     0.074 A 
ATOM     49  C   UNL     1      -1.026 -12.513  -2.877  1.00  0.00     0.029 A 
ATOM     50  N   UNL     1      -2.127 -11.909  -1.043  1.00  0.00    -0.354 N 
ATOM     51  N   UNL     1      -3.140 -12.269   1.683  1.00  0.00    -0.248 NA
ATOM     52  C   UNL     1      -3.504 -13.621   3.556  1.00  0.00     0.031 C 
ATOM     53  C   UNL     1      -1.044 -13.599  -1.994  1.00  0.00     0.029 A 
ATOM     54  C   UNL     1      -1.710 -13.214  -0.843  1.00  0.00     0.049 A 
ATOM     55  H   UNL     1      -2.638 -11.373  -0.393  1.00  0.00     0.167 HD
ATOM     56  C   UNL     1      -2.590 -13.524   1.454  1.00  0.00     0.074 A 
ATOM     57  C   UNL     1      -2.822 -14.309   2.650  1.00  0.00     0.031 C 
ATOM     58  C   UNL     1      -1.952 -13.984   0.350  1.00  0.00     0.031 A 
BRANCH  45  59
ATOM     59  C   UNL     1      -1.505  -9.856  -4.225  1.00  0.00    -0.014 A 
ATOM     60  C   UNL     1      -0.395  -9.027  -4.458  1.00  0.00     0.010 A 
ATOM     61  C   UNL     1      -2.143 -10.470  -5.319  1.00  0.00     0.010 A 
ATOM     62  C   UNL     1       0.051  -8.793  -5.763  1.00  0.00     0.020 A 
ATOM     63  C   UNL     1      -1.688 -10.255  -6.624  1.00  0.00     0.020 A 
ATOM     64  C   UNL     1      -0.602  -9.406  -6.838  1.00  0.00     0.054 A 
BRANCH  64  65
ATOM     65  S   UNL     1       0.016  -9.113  -8.520  1.00  0.00     0.124 S 
ATOM     66  O   UNL     1      -0.479  -7.765  -8.791  1.00  0.00    -0.237 OA
ATOM     67  O   UNL     1       1.463  -9.228  -8.358  1.00  0.00    -0.237 OA
ATOM     68  O   UNL     1      -0.606 -10.175  -9.307  1.00  0.00    -0.744 OA
ENDBRANCH  64  65
ENDBRANCH  45  59
BRANCH  46  69
ATOM     69  C   UNL     1      -4.931 -11.511   5.005  1.00  0.00    -0.014 A 
ATOM     70  C   UNL     1      -4.080 -11.605   6.118  1.00  0.00     0.010 A 
ATOM     71  C   UNL     1      -6.322 -11.625   5.190  1.00  0.00     0.010 A 
ATOM     72  C   UNL     1      -4.610 -11.812   7.395  1.00  0.00     0.020 A 
ATOM     73  C   UNL     1      -6.856 -11.805   6.468  1.00  0.00     0.020 A 
ATOM     74  C   UNL     1      -5.995 -11.907   7.562  1.00  0.00     0.054 A 
BRANCH  74  75
ATOM     75  S   UNL     1      -6.668 -12.100   9.236  1.00  0.00     0.124 S 
ATOM     76  O   UNL     1      -6.462 -13.524   9.482  1.00  0.00    -0.237 OA
ATOM     77  O   UNL     1      -5.835 -11.194  10.023  1.00  0.00    -0.237 OA
ATOM     78  O   UNL     1      -8.061 -11.683   9.091  1.00  0.00    -0.744 OA
ENDBRANCH  74  75
ENDBRANCH  46  69
BRANCH  58  79
ATOM     79  C   UNL     1      -1.431 -15.393   0.400  1.00  0.00    -0.014 A 
ATOM     80  C   UNL     1      -2.297 -16.492   0.272  1.00  0.00     0.010 A 
ATOM     81  C   UNL     1      -0.050 -15.617   0.544  1.00  0.00     0.010 A 
ATOM     82  C   UNL     1      -1.794 -17.795   0.318  1.00  0.00     0.020 A 
ATOM     83  C   UNL     1       0.459 -16.917   0.570  1.00  0.00     0.020 A 
ATOM     84  C   UNL     1      -0.418 -17.999   0.471  1.00  0.00     0.054 A 
BRANCH  84  85
ATOM     85  S   UNL     1       0.219 -19.697   0.496  1.00  0.00     0.124 S 
ATOM     86  O   UNL     1      -0.116 -20.127   1.851  1.00  0.00    -0.237 OA
ATOM     87  O   UNL     1      -0.538 -20.343  -0.574  1.00  0.00    -0.237 OA
ATOM     88  O   UNL     1       1.646 -19.533   0.229  1.00  0.00    -0.744 OA
ENDBRANCH  84  85
ENDBRANCH  58  79
ENDBRANCH  32  33
ENDBRANCH  25  27
ENDBRANCH  24  25
ENDBRANCH  23  24
ENDBRANCH   1  23
TORSDOF 18
