REMARK SMILES O=C(C[C@H]1C(=O)O[C@H]2[C@@H]3OC(=O)c4cc(O)c(O)c(O)c4-c4ccccc4C(=O)OC[C@@H]2O[C@@H](OC(=O)c2cc(O)c(O)c(O)c2)[C@@H]3OC(=O)c2cc(O)c(O)c3c2[C@@H]1[C@@H](O)C(=O)O3)OCCOC(=O)c1ccc(-c2c3nc(c(-c4ccc(S(=O)(=O)[O-])cc4)c4ccc([nH]4)c(-c4ccc(S(=O)(=O)[O-])cc4)c4nc(c(-c5ccc(S(=O)(=O)[O-])cc5)c5ccc2[nH]5)C=C4)C=C3)cc1
REMARK SMILES IDX 4 1 3 3 2 4 1 5 65 6 66 7 67 8 68 9 69 10 70 11 71 12 72 13
REMARK SMILES IDX 130 14 73 15 129 16 74 17 75 18 76 19 123 20 77 21 128 22
REMARK SMILES IDX 122 23 124 24 78 25 127 26 121 27 120 28 79 30 109 31 90 32
REMARK SMILES IDX 108 33 91 34 94 35 107 36 125 37 92 38 93 39 106 41 126 42
REMARK SMILES IDX 95 43 80 44 81 45 89 46 82 47 88 48 83 49 84 50 85 51 86 52
REMARK SMILES IDX 87 53 110 54 111 55 119 56 112 57 118 58 113 59 114 60
REMARK SMILES IDX 115 61 116 62 117 63 96 64 97 65 105 66 98 67 104 68 99 69
REMARK SMILES IDX 100 70 101 71 102 72 103 73 59 74 58 75 60 76 51 77 57 78
REMARK SMILES IDX 62 79 52 80 55 81 64 82 63 83 53 84 61 85 49 87 50 88 48 89
REMARK SMILES IDX 47 90 9 91 34 92 8 93 33 94 32 95 10 97 11 98 12 99 13 100
REMARK SMILES IDX 14 101 21 102 15 103 19 104 17 105 22 106 23 107 27 108
REMARK SMILES IDX 24 109 26 110 25 111 28 112 29 113 30 114 31 115 16 117
REMARK SMILES IDX 20 119 18 121 35 123 36 124 37 125 38 126 39 127 46 128
REMARK SMILES IDX 40 129 44 130 42 131 41 132 45 134 43 136 7 138 5 139 6 140
REMARK SMILES IDX 56 142 54 144
REMARK H PARENT 124 29 94 40 61 86 16 118 20 120 18 122 41 133 45 135 43 137
REMARK H PARENT 56 143 54 145
REMARK Flexibility Score: 170.00
ROOT
ATOM      1  C   UNL     1       5.590  -1.729  -1.028  1.00  0.00     0.121 CG0
ATOM      2  G   UNL     1       6.769  -1.625   0.769  1.00  0.00     0.000 G0
ENDROOT
BRANCH   1   3
ATOM      3  C   UNL     1       4.389  -0.937  -2.059  1.00  0.00     0.138 C 
BRANCH   3   4
ATOM      4  C   UNL     1       4.422  -0.748  -3.614  1.00  0.00     0.306 C 
ATOM      5  O   UNL     1       4.251  -1.629  -4.457  1.00  0.00    -0.252 OA
BRANCH   4   6
ATOM      6  O   UNL     1       4.393   0.522  -4.026  1.00  0.00    -0.462 OA
BRANCH   6   7
ATOM      7  C   UNL     1       3.510   1.317  -3.261  1.00  0.00     0.274 C 
BRANCH   7   8
ATOM      8  C   UNL     1       2.004   0.874  -3.258  1.00  0.00     0.275 C 
BRANCH   8   9
ATOM      9  O   UNL     1       1.572  -0.350  -2.537  1.00  0.00    -0.458 OA
BRANCH   9  10
ATOM     10  C   UNL     1       0.998  -1.390  -3.247  1.00  0.00     0.338 C 
ATOM     11  O   UNL     1       1.007  -1.451  -4.468  1.00  0.00    -0.246 OA
BRANCH  10  12
ATOM     12  C   UNL     1       0.397  -2.505  -2.384  1.00  0.00     0.060 A 
ATOM     13  C   UNL     1      -0.211  -2.292  -1.144  1.00  0.00     0.016 A 
ATOM     14  C   UNL     1       0.371  -3.832  -2.840  1.00  0.00     0.016 A 
ATOM     15  C   UNL     1      -0.664  -3.379  -0.320  1.00  0.00     0.010 A 
ATOM     16  C   UNL     1      -0.076  -4.911  -2.006  1.00  0.00     0.010 A 
ATOM     17  C   UNL     1      -0.513  -4.730  -0.675  1.00  0.00    -0.014 A 
BRANCH  17  18
ATOM     18  C   UNL     1      -1.029  -5.897   0.174  1.00  0.00     0.031 A 
ATOM     19  C   UNL     1      -0.582  -6.384   1.567  1.00  0.00     0.074 A 
ATOM     20  C   UNL     1      -2.254  -6.370  -0.100  1.00  0.00     0.049 A 
ATOM     21  N   UNL     1      -0.578  -7.586   2.129  1.00  0.00    -0.248 NA
ATOM     22  C   UNL     1      -0.214  -5.339   2.512  1.00  0.00     0.031 C 
ATOM     23  C   UNL     1      -3.131  -5.869  -1.147  1.00  0.00     0.029 A 
ATOM     24  N   UNL     1      -3.010  -7.274   0.601  1.00  0.00    -0.354 N 
ATOM     25  C   UNL     1       0.019  -7.447   3.408  1.00  0.00     0.074 A 
ATOM     26  C   UNL     1       0.087  -6.033   3.612  1.00  0.00     0.031 C 
ATOM     27  C   UNL     1      -4.347  -6.398  -0.957  1.00  0.00     0.029 A 
ATOM     28  C   UNL     1      -4.297  -7.350   0.159  1.00  0.00     0.049 A 
ATOM     29  H   UNL     1      -2.659  -7.812   1.346  1.00  0.00     0.167 HD
ATOM     30  C   UNL     1       0.476  -8.423   4.263  1.00  0.00     0.031 A 
ATOM     31  C   UNL     1      -5.319  -8.099   0.610  1.00  0.00     0.031 A 
ATOM     32  C   UNL     1      -0.464  -9.437   4.658  1.00  0.00     0.049 A 
ATOM     33  C   UNL     1      -5.168  -8.970   1.833  1.00  0.00     0.074 A 
ATOM     34  C   UNL     1      -0.424 -10.281   5.759  1.00  0.00     0.029 A 
ATOM     35  N   UNL     1      -1.711  -9.552   4.097  1.00  0.00    -0.354 N 
ATOM     36  N   UNL     1      -4.136  -9.139   2.626  1.00  0.00    -0.248 NA
ATOM     37  C   UNL     1      -6.358  -9.733   2.236  1.00  0.00     0.031 C 
ATOM     38  C   UNL     1      -1.678 -10.869   5.887  1.00  0.00     0.029 A 
ATOM     39  C   UNL     1      -2.493 -10.337   4.901  1.00  0.00     0.049 A 
ATOM     40  H   UNL     1      -1.998  -9.136   3.252  1.00  0.00     0.167 HD
ATOM     41  C   UNL     1      -4.578  -9.990   3.643  1.00  0.00     0.074 A 
ATOM     42  C   UNL     1      -5.966 -10.275   3.380  1.00  0.00     0.031 C 
ATOM     43  C   UNL     1      -3.894 -10.516   4.688  1.00  0.00     0.031 A 
BRANCH  30  44
ATOM     44  C   UNL     1       1.768  -8.450   5.125  1.00  0.00    -0.014 A 
ATOM     45  C   UNL     1       2.525  -9.670   5.157  1.00  0.00     0.010 A 
ATOM     46  C   UNL     1       2.196  -7.461   6.004  1.00  0.00     0.010 A 
ATOM     47  C   UNL     1       3.619  -9.884   6.016  1.00  0.00     0.020 A 
ATOM     48  C   UNL     1       3.324  -7.649   6.840  1.00  0.00     0.020 A 
ATOM     49  C   UNL     1       4.013  -8.861   6.864  1.00  0.00     0.054 A 
BRANCH  49  50
ATOM     50  S   UNL     1       5.384  -9.121   8.032  1.00  0.00     0.124 S 
ATOM     51  O   UNL     1       4.742  -9.909   9.081  1.00  0.00    -0.237 OA
ATOM     52  O   UNL     1       6.374  -9.834   7.229  1.00  0.00    -0.237 OA
ATOM     53  O   UNL     1       5.764  -7.763   8.418  1.00  0.00    -0.744 OA
ENDBRANCH  49  50
ENDBRANCH  30  44
BRANCH  31  54
ATOM     54  C   UNL     1      -6.607  -7.977  -0.111  1.00  0.00    -0.014 A 
ATOM     55  C   UNL     1      -6.670  -8.293  -1.482  1.00  0.00     0.010 A 
ATOM     56  C   UNL     1      -7.730  -7.431   0.529  1.00  0.00     0.010 A 
ATOM     57  C   UNL     1      -7.805  -7.981  -2.221  1.00  0.00     0.020 A 
ATOM     58  C   UNL     1      -8.895  -7.186  -0.195  1.00  0.00     0.020 A 
ATOM     59  C   UNL     1      -8.910  -7.428  -1.570  1.00  0.00     0.054 A 
BRANCH  59  60
ATOM     60  S   UNL     1     -10.357  -6.998  -2.564  1.00  0.00     0.124 S 
ATOM     61  O   UNL     1      -9.855  -5.875  -3.350  1.00  0.00    -0.237 OA
ATOM     62  O   UNL     1     -10.600  -8.232  -3.307  1.00  0.00    -0.237 OA
ATOM     63  O   UNL     1     -11.368  -6.662  -1.566  1.00  0.00    -0.744 OA
ENDBRANCH  59  60
ENDBRANCH  31  54
BRANCH  43  64
ATOM     64  C   UNL     1      -4.590 -11.388   5.688  1.00  0.00    -0.014 A 
ATOM     65  C   UNL     1      -4.610 -11.006   7.045  1.00  0.00     0.010 A 
ATOM     66  C   UNL     1      -4.984 -12.683   5.323  1.00  0.00     0.010 A 
ATOM     67  C   UNL     1      -4.954 -11.931   8.028  1.00  0.00     0.020 A 
ATOM     68  C   UNL     1      -5.379 -13.593   6.300  1.00  0.00     0.020 A 
ATOM     69  C   UNL     1      -5.329 -13.222   7.646  1.00  0.00     0.054 A 
BRANCH  69  70
ATOM     70  S   UNL     1      -5.702 -14.432   8.938  1.00  0.00     0.124 S 
ATOM     71  O   UNL     1      -4.396 -14.636   9.556  1.00  0.00    -0.237 OA
ATOM     72  O   UNL     1      -6.685 -13.724   9.754  1.00  0.00    -0.237 OA
ATOM     73  O   UNL     1      -6.226 -15.576   8.194  1.00  0.00    -0.744 OA
ENDBRANCH  69  70
ENDBRANCH  43  64
ENDBRANCH  17  18
ENDBRANCH  10  12
ENDBRANCH   9  10
ENDBRANCH   8   9
ENDBRANCH   7   8
ENDBRANCH   6   7
ENDBRANCH   4   6
ENDBRANCH   3   4
ENDBRANCH   1   3
BRANCH   1  74
ATOM     74  C   UNL     1       4.273  -3.006  -1.092  1.00  0.00     0.079 C 
ATOM     75  C   UNL     1       4.110  -4.426   0.378  1.00  0.00     0.021 A 
ATOM     76  C   UNL     1       5.087  -3.653  -2.803  1.00  0.00     0.232 C 
ATOM     77  C   UNL     1       4.244  -4.102   1.657  1.00  0.00     0.071 A 
ATOM     78  C   UNL     1       4.820  -6.077  -0.330  1.00  0.00     0.180 A 
ATOM     79  C   UNL     1       4.878  -5.231  -3.284  1.00  0.00     0.341 C 
ATOM     80  C   UNL     1       5.135  -5.172   1.792  1.00  0.00     0.066 A 
ATOM     81  C   UNL     1       5.410  -7.201  -0.050  1.00  0.00     0.201 A 
ATOM     82  O   UNL     1       4.940  -6.187  -2.101  1.00  0.00    -0.420 OA
ATOM     83  O   UNL     1       4.804  -5.623  -4.439  1.00  0.00    -0.249 OA
ATOM     84  C   UNL     1       5.588  -6.758   1.140  1.00  0.00     0.162 A 
BRANCH  76  85
ATOM     85  O   UNL     1       5.944  -2.745  -3.512  1.00  0.00    -0.381 OA
ATOM     86  H   UNL     1       6.707  -2.520  -2.957  1.00  0.00     0.211 HD
ENDBRANCH  76  85
BRANCH  77  87
ATOM     87  C   UNL     1       4.509  -2.892   2.634  1.00  0.00     0.339 C 
ATOM     88  O   UNL     1       5.015  -2.998   3.740  1.00  0.00    -0.246 OA
BRANCH  87  89
ATOM     89  O   UNL     1       4.416  -1.660   2.143  1.00  0.00    -0.448 OA
BRANCH  89  90
ATOM     90  C   UNL     1       4.781  -1.662   0.793  1.00  0.00     0.290 C 
ATOM     91  C   UNL     1       5.809  -3.306   0.244  1.00  0.00     0.267 C 
ATOM     92  C   UNL     1       5.794  -0.051   0.135  1.00  0.00     0.357 C 
ATOM     93  C   UNL     1       7.140  -3.118  -0.192  1.00  0.00     0.254 C 
ATOM     94  O   UNL     1       7.428  -0.655  -0.706  1.00  0.00    -0.329 OA
ATOM     95  C   UNL     1       8.153  -2.466  -0.863  1.00  0.00     0.205 CG1
ATOM     96  G   UNL     1       8.475  -4.277   0.041  1.00  0.00     0.000 G1
BRANCH  91  97
ATOM     97  O   UNL     1       5.218  -4.469  -1.053  1.00  0.00    -0.450 OA
BRANCH  97  98
ATOM     98  C   UNL     1       3.400  -4.938  -1.336  1.00  0.00     0.339 C 
ATOM     99  O   UNL     1       2.839  -4.455  -2.318  1.00  0.00    -0.246 OA
BRANCH  98 100
ATOM    100  C   UNL     1       2.600  -6.204  -0.243  1.00  0.00     0.075 A 
ATOM    101  C   UNL     1       2.082  -6.961  -1.331  1.00  0.00     0.066 A 
ATOM    102  C   UNL     1       2.871  -6.901   1.246  1.00  0.00     0.043 A 
ATOM    103  C   UNL     1       1.671  -8.243  -1.185  1.00  0.00     0.162 A 
ATOM    104  C   UNL     1       2.359  -8.226   1.201  1.00  0.00     0.170 A 
ATOM    105  C   UNL     1       1.735  -8.829   0.058  1.00  0.00     0.200 A 
BRANCH 102 106
ATOM    106  C   UNL     1       3.645  -6.428   2.862  1.00  0.00     0.001 A 
ATOM    107  C   UNL     1       2.786  -5.461   3.441  1.00  0.00     0.010 A 
ATOM    108  C   UNL     1       5.245  -6.386   3.598  1.00  0.00     0.068 A 
ATOM    109  C   UNL     1       3.048  -4.751   4.619  1.00  0.00     0.001 A 
ATOM    110  C   UNL     1       5.287  -5.794   4.883  1.00  0.00     0.016 A 
ATOM    111  C   UNL     1       4.213  -4.991   5.358  1.00  0.00     0.001 A 
BRANCH 108 112
ATOM    112  C   UNL     1       7.064  -6.137   2.833  1.00  0.00     0.338 C 
ATOM    113  O   UNL     1       7.954  -6.558   3.562  1.00  0.00    -0.246 OA
BRANCH 112 114
ATOM    114  O   UNL     1       7.736  -5.016   1.646  1.00  0.00    -0.459 OA
BRANCH 114 115
ATOM    115  C   UNL     1       8.475  -4.277   0.041  1.00  0.00     0.269 CG1
ATOM    116  G   UNL     1       8.153  -2.466  -0.863  1.00  0.00     0.000 G1
ENDBRANCH 114 115
ENDBRANCH 112 114
ENDBRANCH 108 112
ENDBRANCH 102 106
BRANCH 103 117
ATOM    117  O   UNL     1       1.274  -8.909  -2.305  1.00  0.00    -0.504 OA
ATOM    118  H   UNL     1       1.247  -8.464  -3.129  1.00  0.00     0.293 HD
ENDBRANCH 103 117
BRANCH 104 119
ATOM    119  O   UNL     1       2.513  -9.113   2.225  1.00  0.00    -0.504 OA
ATOM    120  H   UNL     1       2.158  -9.977   2.154  1.00  0.00     0.293 HD
ENDBRANCH 104 119
BRANCH 105 121
ATOM    121  O   UNL     1       1.155 -10.073   0.142  1.00  0.00    -0.502 OA
ATOM    122  H   UNL     1       0.752 -10.453  -0.614  1.00  0.00     0.293 HD
ENDBRANCH 105 121
ENDBRANCH  98 100
ENDBRANCH  97  98
ENDBRANCH  91  97
BRANCH  92 123
ATOM    123  O   UNL     1       4.901   1.064  -0.289  1.00  0.00    -0.428 OA
BRANCH 123 124
ATOM    124  C   UNL     1       3.642   1.050   0.305  1.00  0.00     0.340 C 
ATOM    125  O   UNL     1       3.109   0.088   0.836  1.00  0.00    -0.246 OA
BRANCH 124 126
ATOM    126  C   UNL     1       2.701   2.173   0.206  1.00  0.00     0.067 A 
ATOM    127  C   UNL     1       1.316   1.843   0.198  1.00  0.00     0.066 A 
ATOM    128  C   UNL     1       3.107   3.494   0.319  1.00  0.00     0.066 A 
ATOM    129  C   UNL     1       0.354   2.829   0.282  1.00  0.00     0.162 A 
ATOM    130  C   UNL     1       2.115   4.472   0.412  1.00  0.00     0.162 A 
ATOM    131  C   UNL     1       0.753   4.145   0.393  1.00  0.00     0.200 A 
BRANCH 129 132
ATOM    132  O   UNL     1      -0.963   2.482   0.268  1.00  0.00    -0.504 OA
ATOM    133  H   UNL     1      -1.209   1.581   0.191  1.00  0.00     0.293 HD
ENDBRANCH 129 132
BRANCH 130 134
ATOM    134  O   UNL     1       2.437   5.794   0.544  1.00  0.00    -0.504 OA
ATOM    135  H   UNL     1       1.758   6.438   0.605  1.00  0.00     0.293 HD
ENDBRANCH 130 134
BRANCH 131 136
ATOM    136  O   UNL     1      -0.204   5.115   0.500  1.00  0.00    -0.502 OA
ATOM    137  H   UNL     1      -1.111   4.881   0.486  1.00  0.00     0.293 HD
ENDBRANCH 131 136
ENDBRANCH 124 126
ENDBRANCH 123 124
ENDBRANCH  92 123
BRANCH  93 138
ATOM    138  O   UNL     1       7.703  -2.538   0.859  1.00  0.00    -0.455 OA
BRANCH 138 139
ATOM    139  C   UNL     1       6.769  -1.625   0.769  1.00  0.00     0.310 CG0
ATOM    140  O   UNL     1       6.740  -0.995   1.833  1.00  0.00    -0.252 OA
ATOM    141  G   UNL     1       5.590  -1.729  -1.028  1.00  0.00     0.000 G0
ENDBRANCH 138 139
ENDBRANCH  93 138
ENDBRANCH  89  90
ENDBRANCH  87  89
ENDBRANCH  77  87
BRANCH  81 142
ATOM    142  O   UNL     1       5.525  -8.349  -0.655  1.00  0.00    -0.502 OA
ATOM    143  H   UNL     1       6.013  -9.042  -0.255  1.00  0.00     0.293 HD
ENDBRANCH  81 142
BRANCH  84 144
ATOM    144  O   UNL     1       5.796  -7.898   1.965  1.00  0.00    -0.504 OA
ATOM    145  H   UNL     1       5.947  -7.790   2.883  1.00  0.00     0.293 HD
ENDBRANCH  84 144
ENDBRANCH   1  74
TORSDOF 27
