REMARK SMILES O=C(OCCOC(=O)[C@@H]1CCCCC[C@@H]1NC(=O)c1cc(F)ccc1Br)c1ccc(-c2c3nc(c(-c4ccc(S(=O)(=O)[O-])cc4)c4ccc([nH]4)c(-c4ccc(S(=O)(=O)[O-])cc4)c4nc(c(-c5ccc(S(=O)(=O)[O-])cc5)c5ccc2[nH]5)C=C4)C=C3)cc1
REMARK SMILES IDX 5 1 4 2 3 3 2 4 1 5 27 6 28 7 86 8 29 9 85 10 30 11 31 12
REMARK SMILES IDX 32 13 79 14 33 15 84 16 78 17 80 18 34 19 83 20 77 21 76 22
REMARK SMILES IDX 35 24 65 25 46 26 64 27 47 28 50 29 63 30 81 31 48 32 49 33
REMARK SMILES IDX 62 35 82 36 51 37 36 38 37 39 45 40 38 41 44 42 39 43 40 44
REMARK SMILES IDX 41 45 42 46 43 47 66 48 67 49 75 50 68 51 74 52 69 53 70 54
REMARK SMILES IDX 71 55 72 56 73 57 52 58 53 59 61 60 54 61 60 62 55 63 56 64
REMARK SMILES IDX 57 65 58 66 59 67 6 68 7 69 8 70 9 71 10 72 11 73 15 75
REMARK SMILES IDX 14 76 13 77 12 78 16 80 17 81 18 83 19 84 20 85 25 86 21 87
REMARK SMILES IDX 24 88 26 89 22 90 23 91
REMARK H PARENT 80 23 50 34 16 82
REMARK Flexibility Score: 90.00
ROOT
ATOM      1  C   UNL     1       4.639  -0.183   1.905  1.00  0.00     0.274 C 
ENDROOT
BRANCH   1   2
ATOM      2  C   UNL     1       4.137   0.967   1.018  1.00  0.00     0.275 C 
BRANCH   2   3
ATOM      3  O   UNL     1       2.959   0.524   0.312  1.00  0.00    -0.458 OA
BRANCH   3   4
ATOM      4  C   UNL     1       2.764   1.059  -0.920  1.00  0.00     0.338 C 
ATOM      5  O   UNL     1       2.267   2.148  -1.132  1.00  0.00    -0.246 OA
BRANCH   4   6
ATOM      6  C   UNL     1       3.026   0.032  -1.967  1.00  0.00     0.060 A 
ATOM      7  C   UNL     1       4.317  -0.456  -2.167  1.00  0.00     0.016 A 
ATOM      8  C   UNL     1       1.977  -0.488  -2.738  1.00  0.00     0.016 A 
ATOM      9  C   UNL     1       4.545  -1.473  -3.110  1.00  0.00     0.010 A 
ATOM     10  C   UNL     1       2.215  -1.512  -3.687  1.00  0.00     0.010 A 
ATOM     11  C   UNL     1       3.506  -2.024  -3.896  1.00  0.00    -0.014 A 
BRANCH  11  12
ATOM     12  C   UNL     1       3.825  -3.043  -4.986  1.00  0.00     0.031 A 
ATOM     13  C   UNL     1       4.779  -2.604  -6.060  1.00  0.00     0.074 A 
ATOM     14  C   UNL     1       3.556  -4.375  -4.880  1.00  0.00     0.049 A 
ATOM     15  N   UNL     1       5.503  -3.355  -6.840  1.00  0.00    -0.248 NA
ATOM     16  C   UNL     1       5.054  -1.163  -6.182  1.00  0.00     0.031 C 
ATOM     17  C   UNL     1       2.978  -4.924  -3.675  1.00  0.00     0.029 A 
ATOM     18  N   UNL     1       3.887  -5.523  -5.601  1.00  0.00    -0.354 N 
ATOM     19  C   UNL     1       6.388  -2.506  -7.473  1.00  0.00     0.074 A 
ATOM     20  C   UNL     1       6.085  -1.164  -7.017  1.00  0.00     0.031 C 
ATOM     21  C   UNL     1       3.107  -6.255  -3.645  1.00  0.00     0.029 A 
ATOM     22  C   UNL     1       3.716  -6.708  -4.876  1.00  0.00     0.049 A 
ATOM     23  H   UNL     1       4.210  -5.501  -6.531  1.00  0.00     0.167 HD
ATOM     24  C   UNL     1       7.347  -2.826  -8.370  1.00  0.00     0.031 A 
ATOM     25  C   UNL     1       4.094  -8.002  -5.039  1.00  0.00     0.031 A 
ATOM     26  C   UNL     1       7.603  -4.159  -8.863  1.00  0.00     0.049 A 
ATOM     27  C   UNL     1       5.017  -8.322  -6.178  1.00  0.00     0.074 A 
ATOM     28  C   UNL     1       8.289  -4.527 -10.009  1.00  0.00     0.029 A 
ATOM     29  N   UNL     1       7.192  -5.339  -8.258  1.00  0.00    -0.354 N 
ATOM     30  N   UNL     1       5.667  -7.475  -6.932  1.00  0.00    -0.248 NA
ATOM     31  C   UNL     1       5.340  -9.735  -6.436  1.00  0.00     0.031 C 
ATOM     32  C   UNL     1       8.237  -5.919 -10.132  1.00  0.00     0.029 A 
ATOM     33  C   UNL     1       7.583  -6.430  -9.024  1.00  0.00     0.049 A 
ATOM     34  H   UNL     1       6.697  -5.395  -7.409  1.00  0.00     0.167 HD
ATOM     35  C   UNL     1       6.505  -8.237  -7.724  1.00  0.00     0.074 A 
ATOM     36  C   UNL     1       6.304  -9.621  -7.341  1.00  0.00     0.031 C 
ATOM     37  C   UNL     1       7.357  -7.812  -8.685  1.00  0.00     0.031 A 
BRANCH  24  38
ATOM     38  C   UNL     1       7.983  -1.675  -9.084  1.00  0.00    -0.014 A 
ATOM     39  C   UNL     1       9.100  -0.970  -8.608  1.00  0.00     0.010 A 
ATOM     40  C   UNL     1       7.419  -1.333 -10.326  1.00  0.00     0.010 A 
ATOM     41  C   UNL     1       9.657   0.051  -9.390  1.00  0.00     0.020 A 
ATOM     42  C   UNL     1       7.980  -0.335 -11.112  1.00  0.00     0.020 A 
ATOM     43  C   UNL     1       9.097   0.352 -10.640  1.00  0.00     0.054 A 
BRANCH  43  44
ATOM     44  S   UNL     1       9.873   1.608 -11.691  1.00  0.00     0.124 S 
ATOM     45  O   UNL     1       9.444   2.847 -11.047  1.00  0.00    -0.237 OA
ATOM     46  O   UNL     1      11.295   1.295 -11.572  1.00  0.00    -0.237 OA
ATOM     47  O   UNL     1       9.293   1.360 -13.009  1.00  0.00    -0.744 OA
ENDBRANCH  43  44
ENDBRANCH  24  38
BRANCH  25  48
ATOM     48  C   UNL     1       3.766  -9.079  -4.023  1.00  0.00    -0.014 A 
ATOM     49  C   UNL     1       4.792  -9.792  -3.368  1.00  0.00     0.010 A 
ATOM     50  C   UNL     1       2.434  -9.427  -3.714  1.00  0.00     0.010 A 
ATOM     51  C   UNL     1       4.505 -10.846  -2.484  1.00  0.00     0.020 A 
ATOM     52  C   UNL     1       2.139 -10.456  -2.801  1.00  0.00     0.020 A 
ATOM     53  C   UNL     1       3.178 -11.180  -2.213  1.00  0.00     0.054 A 
BRANCH  53  54
ATOM     54  S   UNL     1       2.823 -12.556  -1.075  1.00  0.00     0.124 S 
ATOM     55  O   UNL     1       3.115 -13.720  -1.905  1.00  0.00    -0.237 OA
ATOM     56  O   UNL     1       3.757 -12.312   0.022  1.00  0.00    -0.237 OA
ATOM     57  O   UNL     1       1.415 -12.365  -0.738  1.00  0.00    -0.744 OA
ENDBRANCH  53  54
ENDBRANCH  25  48
BRANCH  37  58
ATOM     58  C   UNL     1       8.026  -8.877  -9.509  1.00  0.00    -0.014 A 
ATOM     59  C   UNL     1       7.245  -9.661 -10.378  1.00  0.00     0.010 A 
ATOM     60  C   UNL     1       9.418  -9.063  -9.479  1.00  0.00     0.010 A 
ATOM     61  C   UNL     1       7.836 -10.629 -11.187  1.00  0.00     0.020 A 
ATOM     62  C   UNL     1      10.019 -10.020 -10.307  1.00  0.00     0.020 A 
ATOM     63  C   UNL     1       9.221 -10.798 -11.151  1.00  0.00     0.054 A 
BRANCH  63  64
ATOM     64  S   UNL     1       9.960 -12.009 -12.280  1.00  0.00     0.124 S 
ATOM     65  O   UNL     1       9.547 -13.275 -11.683  1.00  0.00    -0.237 OA
ATOM     66  O   UNL     1       9.327 -11.681 -13.556  1.00  0.00    -0.237 OA
ATOM     67  O   UNL     1      11.391 -11.722 -12.209  1.00  0.00    -0.744 OA
ENDBRANCH  63  64
ENDBRANCH  37  58
ENDBRANCH  11  12
ENDBRANCH   4   6
ENDBRANCH   3   4
ENDBRANCH   2   3
ENDBRANCH   1   2
BRANCH   1  68
ATOM     68  O   UNL     1       4.559  -1.407   1.153  1.00  0.00    -0.462 OA
BRANCH  68  69
ATOM     69  C   UNL     1       3.448  -2.163   1.415  1.00  0.00     0.311 C 
ATOM     70  O   UNL     1       2.838  -2.151   2.475  1.00  0.00    -0.252 OA
BRANCH  69  71
ATOM     71  C   UNL     1       3.002  -2.878   0.142  1.00  0.00     0.121 C 
BRANCH  71  72
ATOM     72  C   UNL     1       1.470  -3.045   0.220  1.00  0.00     0.017 C 
BRANCH  72  73
ATOM     73  C   UNL     1       0.867  -4.052  -0.729  1.00  0.00     0.001 CG0
ATOM     74  G   UNL     1       0.954  -5.466  -0.179  1.00  0.00     0.000 G0
ENDBRANCH  72  73
ENDBRANCH  71  72
BRANCH  71  75
ATOM     75  C   UNL     1       3.893  -4.088  -0.261  1.00  0.00     0.096 C 
BRANCH  75  76
ATOM     76  C   UNL     1       3.539  -5.316   0.576  1.00  0.00     0.026 C 
BRANCH  76  77
ATOM     77  C   UNL     1       2.330  -6.109   0.039  1.00  0.00     0.002 C 
BRANCH  77  78
ATOM     78  C   UNL     1       0.954  -5.466  -0.179  1.00  0.00     0.000 CG0
ATOM     79  G   UNL     1       0.867  -4.052  -0.729  1.00  0.00     0.000 G0
ENDBRANCH  77  78
ENDBRANCH  76  77
ENDBRANCH  75  76
BRANCH  75  80
ATOM     80  N   UNL     1       5.335  -3.708  -0.294  1.00  0.00    -0.348 N 
ATOM     81  C   UNL     1       6.479  -4.001  -1.006  1.00  0.00     0.252 C 
ATOM     82  H   UNL     1       5.529  -3.046   0.408  1.00  0.00     0.164 HD
ATOM     83  O   UNL     1       7.434  -3.237  -0.822  1.00  0.00    -0.269 OA
BRANCH  81  84
ATOM     84  C   UNL     1       6.698  -5.063  -2.019  1.00  0.00     0.056 A 
ATOM     85  C   UNL     1       6.422  -4.755  -3.347  1.00  0.00     0.054 A 
ATOM     86  C   UNL     1       7.589  -6.132  -1.804  1.00  0.00     0.030 A 
ATOM     87  C   UNL     1       6.896  -5.550  -4.391  1.00  0.00     0.124 A 
ATOM     88  C   UNL     1       8.055  -6.938  -2.871  1.00  0.00     0.019 A 
ATOM     89  Br  UNL     1       8.338  -6.484  -0.097  1.00  0.00    -0.050 Br
ATOM     90  F   UNL     1       6.634  -5.211  -5.649  1.00  0.00    -0.207 F 
ATOM     91  C   UNL     1       7.681  -6.660  -4.175  1.00  0.00     0.040 A 
ENDBRANCH  81  84
ENDBRANCH  75  80
ENDBRANCH  71  75
ENDBRANCH  69  71
ENDBRANCH  68  69
ENDBRANCH   1  68
TORSDOF 16
