REMARK SMILES CCOc1ccc(-c2ccc(=O)n(CC(=O)OCCOC(=O)c3ccc(-c4c5nc(c(-c6ccc(S(=O)(=O)[O-])cc6)c6ccc([nH]6)c(-c6ccc(S(=O)(=O)[O-])cc6)c6nc(c(-c7ccc(S(=O)(=O)[O-])cc7)c7ccc4[nH]7)C=C6)C=C5)cc3)n2)cc1
REMARK SMILES IDX 18 1 17 2 15 3 16 4 14 5 13 6 8 7 9 8 83 9 10 10 11 11 12 12
REMARK SMILES IDX 7 13 4 14 5 15 85 16 6 17 84 18 3 19 2 20 1 21 19 22 20 23
REMARK SMILES IDX 21 24 22 25 23 26 24 27 82 28 25 29 81 30 26 31 27 32 28 33
REMARK SMILES IDX 75 34 29 35 80 36 74 37 76 38 30 39 79 40 73 41 72 42 31 44
REMARK SMILES IDX 61 45 42 46 60 47 43 48 46 49 59 50 77 51 44 52 45 53 58 55
REMARK SMILES IDX 78 56 47 57 32 58 33 59 41 60 34 61 40 62 35 63 36 64 37 65
REMARK SMILES IDX 38 66 39 67 62 68 63 69 71 70 64 71 70 72 65 73 66 74 67 75
REMARK SMILES IDX 68 76 69 77 48 78 49 79 57 80 50 81 56 82 51 83 52 84 53 85
REMARK SMILES IDX 54 86 55 87
REMARK H PARENT 76 43 46 54
REMARK Flexibility Score: inf
ROOT
ATOM      1  C   UNL     1       9.580   5.543   5.501  1.00  0.00     0.274 C 
ENDROOT
BRANCH   1   2
ATOM      2  O   UNL     1       8.980   4.715   4.486  1.00  0.00    -0.461 OA
BRANCH   2   3
ATOM      3  C   UNL     1       9.138   5.137   3.201  1.00  0.00     0.328 C 
ATOM      4  O   UNL     1       9.650   6.206   2.879  1.00  0.00    -0.250 OA
BRANCH   3   5
ATOM      5  C   UNL     1       8.576   4.173   2.170  1.00  0.00     0.270 C 
BRANCH   5   6
ATOM      6  N   UNL     1       8.117   2.898   2.705  1.00  0.00    -0.218 N 
ATOM      7  C   UNL     1       6.328   1.571   3.156  1.00  0.00     0.091 A 
ATOM      8  C   UNL     1       7.165   0.473   3.670  1.00  0.00     0.036 A 
ATOM      9  N   UNL     1       6.761   2.721   2.752  1.00  0.00    -0.169 NA
ATOM     10  C   UNL     1       8.482   0.642   3.537  1.00  0.00     0.075 A 
ATOM     11  C   UNL     1       9.027   1.881   2.942  1.00  0.00     0.267 A 
ATOM     12  O   UNL     1      10.224   1.946   2.691  1.00  0.00    -0.268 OA
BRANCH   7  13
ATOM     13  C   UNL     1       4.898   1.286   2.976  1.00  0.00     0.002 A 
ATOM     14  C   UNL     1       2.211   0.875   2.457  1.00  0.00     0.119 A 
ATOM     15  C   UNL     1       2.684   0.801   3.771  1.00  0.00     0.047 A 
ATOM     16  C   UNL     1       3.070   1.194   1.409  1.00  0.00     0.047 A 
ATOM     17  C   UNL     1       4.042   0.998   4.038  1.00  0.00     0.014 A 
ATOM     18  C   UNL     1       4.418   1.388   1.666  1.00  0.00     0.014 A 
BRANCH  14  19
ATOM     19  O   UNL     1       0.870   0.738   2.232  1.00  0.00    -0.494 OA
BRANCH  19  20
ATOM     20  C   UNL     1       0.550  -0.493   1.570  1.00  0.00     0.226 C 
ATOM     21  C   UNL     1       0.511  -0.336   0.057  1.00  0.00     0.049 C 
ENDBRANCH  19  20
ENDBRANCH  14  19
ENDBRANCH   7  13
ENDBRANCH   5   6
ENDBRANCH   3   5
ENDBRANCH   2   3
ENDBRANCH   1   2
BRANCH   1  22
ATOM     22  C   UNL     1      10.841   4.871   6.031  1.00  0.00     0.275 C 
BRANCH  22  23
ATOM     23  O   UNL     1      11.750   4.654   4.940  1.00  0.00    -0.458 OA
BRANCH  23  24
ATOM     24  C   UNL     1      12.151   3.373   4.759  1.00  0.00     0.338 C 
ATOM     25  O   UNL     1      11.900   2.414   5.468  1.00  0.00    -0.246 OA
BRANCH  24  26
ATOM     26  C   UNL     1      13.042   3.320   3.587  1.00  0.00     0.060 A 
ATOM     27  C   UNL     1      12.572   3.666   2.318  1.00  0.00     0.016 A 
ATOM     28  C   UNL     1      14.341   2.843   3.752  1.00  0.00     0.016 A 
ATOM     29  C   UNL     1      13.374   3.462   1.198  1.00  0.00     0.010 A 
ATOM     30  C   UNL     1      15.173   2.720   2.638  1.00  0.00     0.010 A 
ATOM     31  C   UNL     1      14.688   2.999   1.347  1.00  0.00    -0.014 A 
BRANCH  31  32
ATOM     32  C   UNL     1      15.560   2.784   0.165  1.00  0.00     0.031 A 
ATOM     33  C   UNL     1      16.059   1.403  -0.162  1.00  0.00     0.074 A 
ATOM     34  C   UNL     1      15.927   3.831  -0.599  1.00  0.00     0.049 A 
ATOM     35  N   UNL     1      16.959   1.036  -1.038  1.00  0.00    -0.248 NA
ATOM     36  C   UNL     1      15.479   0.289   0.607  1.00  0.00     0.031 C 
ATOM     37  C   UNL     1      15.480   5.214  -0.417  1.00  0.00     0.029 A 
ATOM     38  N   UNL     1      16.772   3.895  -1.679  1.00  0.00    -0.354 N 
ATOM     39  C   UNL     1      17.086  -0.341  -0.898  1.00  0.00     0.074 A 
ATOM     40  C   UNL     1      16.176  -0.744   0.153  1.00  0.00     0.031 C 
ATOM     41  C   UNL     1      16.042   5.985  -1.361  1.00  0.00     0.029 A 
ATOM     42  C   UNL     1      16.941   5.168  -2.168  1.00  0.00     0.049 A 
ATOM     43  H   UNL     1      17.213   3.105  -2.066  1.00  0.00     0.167 HD
ATOM     44  C   UNL     1      17.891  -1.190  -1.581  1.00  0.00     0.031 A 
ATOM     45  C   UNL     1      17.757   5.636  -3.132  1.00  0.00     0.031 A 
ATOM     46  C   UNL     1      18.776  -0.787  -2.642  1.00  0.00     0.049 A 
ATOM     47  C   UNL     1      18.674   4.682  -3.843  1.00  0.00     0.074 A 
ATOM     48  C   UNL     1      19.616  -1.577  -3.409  1.00  0.00     0.029 A 
ATOM     49  N   UNL     1      18.933   0.516  -3.090  1.00  0.00    -0.354 N 
ATOM     50  N   UNL     1      18.800   3.387  -3.683  1.00  0.00    -0.248 NA
ATOM     51  C   UNL     1      19.567   5.256  -4.859  1.00  0.00     0.031 C 
ATOM     52  C   UNL     1      20.310  -0.744  -4.295  1.00  0.00     0.029 A 
ATOM     53  C   UNL     1      19.869   0.556  -4.110  1.00  0.00     0.049 A 
ATOM     54  H   UNL     1      18.450   1.297  -2.735  1.00  0.00     0.167 HD
ATOM     55  C   UNL     1      19.775   2.987  -4.589  1.00  0.00     0.074 A 
ATOM     56  C   UNL     1      20.195   4.176  -5.304  1.00  0.00     0.031 C 
ATOM     57  C   UNL     1      20.277   1.748  -4.809  1.00  0.00     0.031 A 
BRANCH  44  58
ATOM     58  C   UNL     1      17.878  -2.640  -1.175  1.00  0.00    -0.014 A 
ATOM     59  C   UNL     1      16.798  -3.481  -1.494  1.00  0.00     0.010 A 
ATOM     60  C   UNL     1      18.985  -3.176  -0.491  1.00  0.00     0.010 A 
ATOM     61  C   UNL     1      16.808  -4.823  -1.103  1.00  0.00     0.020 A 
ATOM     62  C   UNL     1      19.009  -4.523  -0.118  1.00  0.00     0.020 A 
ATOM     63  C   UNL     1      17.911  -5.334  -0.412  1.00  0.00     0.054 A 
BRANCH  63  64
ATOM     64  S   UNL     1      17.908  -7.083   0.071  1.00  0.00     0.124 S 
ATOM     65  O   UNL     1      16.995  -7.079   1.212  1.00  0.00    -0.237 OA
ATOM     66  O   UNL     1      17.409  -7.750  -1.129  1.00  0.00    -0.237 OA
ATOM     67  O   UNL     1      19.306  -7.356   0.395  1.00  0.00    -0.744 OA
ENDBRANCH  63  64
ENDBRANCH  44  58
BRANCH  45  68
ATOM     68  C   UNL     1      17.764   7.088  -3.453  1.00  0.00    -0.014 A 
ATOM     69  C   UNL     1      17.213   7.553  -4.659  1.00  0.00     0.010 A 
ATOM     70  C   UNL     1      18.301   8.015  -2.541  1.00  0.00     0.010 A 
ATOM     71  C   UNL     1      17.207   8.920  -4.952  1.00  0.00     0.020 A 
ATOM     72  C   UNL     1      18.274   9.384  -2.819  1.00  0.00     0.020 A 
ATOM     73  C   UNL     1      17.736   9.827  -4.029  1.00  0.00     0.054 A 
BRANCH  73  74
ATOM     74  S   UNL     1      17.665  11.602  -4.400  1.00  0.00     0.124 S 
ATOM     75  O   UNL     1      18.757  11.755  -5.355  1.00  0.00    -0.237 OA
ATOM     76  O   UNL     1      16.319  11.759  -4.948  1.00  0.00    -0.237 OA
ATOM     77  O   UNL     1      17.875  12.231  -3.098  1.00  0.00    -0.744 OA
ENDBRANCH  73  74
ENDBRANCH  45  68
BRANCH  57  78
ATOM     78  C   UNL     1      21.315   1.608  -5.888  1.00  0.00    -0.014 A 
ATOM     79  C   UNL     1      22.638   2.037  -5.681  1.00  0.00     0.010 A 
ATOM     80  C   UNL     1      20.972   0.998  -7.107  1.00  0.00     0.010 A 
ATOM     81  C   UNL     1      23.595   1.881  -6.688  1.00  0.00     0.020 A 
ATOM     82  C   UNL     1      21.930   0.821  -8.107  1.00  0.00     0.020 A 
ATOM     83  C   UNL     1      23.234   1.276  -7.896  1.00  0.00     0.054 A 
BRANCH  83  84
ATOM     84  S   UNL     1      24.501   1.043  -9.173  1.00  0.00     0.124 S 
ATOM     85  O   UNL     1      24.619   2.387  -9.732  1.00  0.00    -0.237 OA
ATOM     86  O   UNL     1      25.654   0.579  -8.404  1.00  0.00    -0.237 OA
ATOM     87  O   UNL     1      23.914   0.045 -10.065  1.00  0.00    -0.744 OA
ENDBRANCH  83  84
ENDBRANCH  57  78
ENDBRANCH  31  32
ENDBRANCH  24  26
ENDBRANCH  23  24
ENDBRANCH  22  23
ENDBRANCH   1  22
TORSDOF 18
