REMARK SMILES COc1ccc(CCn2c(-c3cccnc3)cc(C(=O)OCCOC(=O)c3ccc(-c4c5nc(c(-c6ccc(S(=O)(=O)[O-])cc6)c6ccc([nH]6)c(-c6ccc(S(=O)(=O)[O-])cc6)c6nc(c(-c7ccc(S(=O)(=O)[O-])cc7)c7ccc4[nH]7)C=C6)C=C5)cc3)c2C)cc1OC
REMARK SMILES IDX 22 1 21 2 19 3 20 4 18 5 9 6 10 7 87 8 17 9 88 10 8 11 7 12
REMARK SMILES IDX 6 13 3 14 4 15 90 16 5 17 89 18 2 19 1 20 91 21 92 22 11 23
REMARK SMILES IDX 12 24 16 25 13 26 15 27 14 28 23 29 24 30 25 31 26 32 27 33
REMARK SMILES IDX 28 34 86 35 29 36 85 37 30 38 31 39 32 40 79 41 33 42 84 43
REMARK SMILES IDX 78 44 80 45 34 46 83 47 77 48 76 49 35 51 65 52 46 53 64 54
REMARK SMILES IDX 47 55 50 56 63 57 81 58 48 59 49 60 62 62 82 63 51 64 36 65
REMARK SMILES IDX 37 66 45 67 38 68 44 69 39 70 40 71 41 72 42 73 43 74 66 75
REMARK SMILES IDX 67 76 75 77 68 78 74 79 69 80 70 81 71 82 72 83 73 84 52 85
REMARK SMILES IDX 53 86 61 87 54 88 60 89 55 90 56 91 57 92 58 93 59 94
REMARK H PARENT 80 50 50 61
REMARK Flexibility Score: inf
ROOT
ATOM      1  C   UNL     1      -3.429   7.275   7.253  1.00  0.00     0.275 C 
ENDROOT
BRANCH   1   2
ATOM      2  O   UNL     1      -2.958   5.899   7.318  1.00  0.00    -0.458 OA
BRANCH   2   3
ATOM      3  C   UNL     1      -1.919   5.585   6.499  1.00  0.00     0.340 C 
ATOM      4  O   UNL     1      -1.484   6.340   5.626  1.00  0.00    -0.246 OA
BRANCH   3   5
ATOM      5  C   UNL     1      -1.285   4.294   6.787  1.00  0.00     0.081 A 
ATOM      6  N   UNL     1       0.405   2.822   7.017  1.00  0.00    -0.344 N 
ATOM      7  C   UNL     1      -0.772   2.082   7.138  1.00  0.00     0.051 A 
ATOM      8  C   UNL     1       0.090   4.167   6.937  1.00  0.00     0.030 A 
ATOM      9  C   UNL     1      -1.821   2.984   6.962  1.00  0.00     0.044 A 
ATOM     10  C   UNL     1       1.072   5.296   7.000  1.00  0.00     0.065 C 
BRANCH   6  11
ATOM     11  C   UNL     1       1.768   2.309   6.963  1.00  0.00     0.127 C 
BRANCH  11  12
ATOM     12  C   UNL     1       2.125   1.141   6.028  1.00  0.00     0.057 C 
BRANCH  12  13
ATOM     13  C   UNL     1       1.863   1.253   4.540  1.00  0.00    -0.042 A 
ATOM     14  C   UNL     1       1.395   1.154   1.750  1.00  0.00     0.160 A 
ATOM     15  C   UNL     1       0.405   1.609   2.622  1.00  0.00     0.051 A 
ATOM     16  C   UNL     1       2.643   0.777   2.256  1.00  0.00     0.160 A 
ATOM     17  C   UNL     1       0.644   1.664   3.997  1.00  0.00     0.008 A 
ATOM     18  C   UNL     1       2.850   0.811   3.645  1.00  0.00     0.054 A 
BRANCH  14  19
ATOM     19  O   UNL     1       1.122   1.203   0.411  1.00  0.00    -0.493 OA
ATOM     20  C   UNL     1       0.357   0.077  -0.018  1.00  0.00     0.278 C 
ENDBRANCH  14  19
BRANCH  16  21
ATOM     21  O   UNL     1       3.755   0.363   1.576  1.00  0.00    -0.493 OA
ATOM     22  C   UNL     1       3.665   0.179   0.175  1.00  0.00     0.278 C 
ENDBRANCH  16  21
ENDBRANCH  12  13
ENDBRANCH  11  12
ENDBRANCH   6  11
BRANCH   7  23
ATOM     23  C   UNL     1      -0.808   0.612   7.221  1.00  0.00     0.017 A 
ATOM     24  C   UNL     1      -1.308  -0.148   6.157  1.00  0.00     0.013 A 
ATOM     25  C   UNL     1      -0.208  -0.093   8.264  1.00  0.00     0.121 A 
ATOM     26  C   UNL     1      -1.109  -1.529   6.124  1.00  0.00     0.021 A 
ATOM     27  N   UNL     1      -0.011  -1.438   8.266  1.00  0.00    -0.264 NA
ATOM     28  C   UNL     1      -0.448  -2.120   7.186  1.00  0.00     0.111 A 
ENDBRANCH   7  23
ENDBRANCH   3   5
ENDBRANCH   2   3
ENDBRANCH   1   2
BRANCH   1  29
ATOM     29  C   UNL     1      -3.236   7.993   8.618  1.00  0.00     0.275 C 
BRANCH  29  30
ATOM     30  O   UNL     1      -2.350   9.174   8.685  1.00  0.00    -0.458 OA
BRANCH  30  31
ATOM     31  C   UNL     1      -1.312   9.123   9.594  1.00  0.00     0.338 C 
ATOM     32  O   UNL     1      -0.853   8.068  10.008  1.00  0.00    -0.246 OA
BRANCH  31  33
ATOM     33  C   UNL     1      -0.766  10.485  10.065  1.00  0.00     0.060 A 
ATOM     34  C   UNL     1       0.343  11.056   9.454  1.00  0.00     0.016 A 
ATOM     35  C   UNL     1      -1.149  11.114  11.272  1.00  0.00     0.016 A 
ATOM     36  C   UNL     1       0.970  12.249   9.987  1.00  0.00     0.010 A 
ATOM     37  C   UNL     1      -0.475  12.304  11.836  1.00  0.00     0.010 A 
ATOM     38  C   UNL     1       0.609  12.945  11.205  1.00  0.00    -0.014 A 
BRANCH  38  39
ATOM     39  C   UNL     1       1.731  13.961  11.864  1.00  0.00     0.031 A 
ATOM     40  C   UNL     1       2.974  13.144  11.764  1.00  0.00     0.074 A 
ATOM     41  C   UNL     1       1.918  15.165  12.570  1.00  0.00     0.049 A 
ATOM     42  N   UNL     1       3.015  11.988  12.361  1.00  0.00    -0.248 NA
ATOM     43  C   UNL     1       3.998  13.341  10.739  1.00  0.00     0.031 C 
ATOM     44  C   UNL     1       0.887  16.064  13.124  1.00  0.00     0.029 A 
ATOM     45  N   UNL     1       3.092  15.906  12.981  1.00  0.00    -0.354 N 
ATOM     46  C   UNL     1       4.203  11.402  12.005  1.00  0.00     0.074 A 
ATOM     47  C   UNL     1       4.651  12.178  10.852  1.00  0.00     0.031 C 
ATOM     48  C   UNL     1       1.415  17.234  13.601  1.00  0.00     0.029 A 
ATOM     49  C   UNL     1       2.875  17.256  13.489  1.00  0.00     0.049 A 
ATOM     50  H   UNL     1       3.995  15.517  12.920  1.00  0.00     0.167 HD
ATOM     51  C   UNL     1       4.960  10.931  13.039  1.00  0.00     0.031 A 
ATOM     52  C   UNL     1       3.764  18.275  13.869  1.00  0.00     0.031 A 
ATOM     53  C   UNL     1       5.956  11.894  13.437  1.00  0.00     0.049 A 
ATOM     54  C   UNL     1       4.973  17.580  14.331  1.00  0.00     0.074 A 
ATOM     55  C   UNL     1       6.856  12.651  12.713  1.00  0.00     0.029 A 
ATOM     56  N   UNL     1       5.782  12.529  14.653  1.00  0.00    -0.354 N 
ATOM     57  N   UNL     1       5.022  16.976  15.478  1.00  0.00    -0.248 NA
ATOM     58  C   UNL     1       6.220  17.598  13.575  1.00  0.00     0.031 C 
ATOM     59  C   UNL     1       6.784  13.936  13.287  1.00  0.00     0.029 A 
ATOM     60  C   UNL     1       6.206  13.841  14.546  1.00  0.00     0.049 A 
ATOM     61  H   UNL     1       5.414  12.113  15.466  1.00  0.00     0.167 HD
ATOM     62  C   UNL     1       6.057  16.103  15.312  1.00  0.00     0.074 A 
ATOM     63  C   UNL     1       6.898  16.699  14.289  1.00  0.00     0.031 C 
ATOM     64  C   UNL     1       5.803  14.792  15.556  1.00  0.00     0.031 A 
BRANCH  51  65
ATOM     65  C   UNL     1       4.211  10.047  14.001  1.00  0.00    -0.014 A 
ATOM     66  C   UNL     1       4.516   8.679  14.042  1.00  0.00     0.010 A 
ATOM     67  C   UNL     1       3.121  10.515  14.768  1.00  0.00     0.010 A 
ATOM     68  C   UNL     1       3.716   7.798  14.781  1.00  0.00     0.020 A 
ATOM     69  C   UNL     1       2.303   9.639  15.483  1.00  0.00     0.020 A 
ATOM     70  C   UNL     1       2.601   8.280  15.477  1.00  0.00     0.054 A 
BRANCH  70  71
ATOM     71  S   UNL     1       1.513   7.092  16.310  1.00  0.00     0.124 S 
ATOM     72  O   UNL     1       1.244   6.117  15.254  1.00  0.00    -0.237 OA
ATOM     73  O   UNL     1       2.360   6.608  17.396  1.00  0.00    -0.237 OA
ATOM     74  O   UNL     1       0.356   7.888  16.712  1.00  0.00    -0.744 OA
ENDBRANCH  70  71
ENDBRANCH  51  65
BRANCH  52  75
ATOM     75  C   UNL     1       3.931  19.815  14.182  1.00  0.00    -0.014 A 
ATOM     76  C   UNL     1       5.007  20.273  15.031  1.00  0.00     0.010 A 
ATOM     77  C   UNL     1       3.377  20.832  13.386  1.00  0.00     0.010 A 
ATOM     78  C   UNL     1       5.588  21.570  14.968  1.00  0.00     0.020 A 
ATOM     79  C   UNL     1       3.935  22.155  13.338  1.00  0.00     0.020 A 
ATOM     80  C   UNL     1       5.071  22.502  14.082  1.00  0.00     0.054 A 
BRANCH  80  81
ATOM     81  S   UNL     1       5.987  24.070  13.783  1.00  0.00     0.124 S 
ATOM     82  O   UNL     1       5.798  24.809  15.028  1.00  0.00    -0.237 OA
ATOM     83  O   UNL     1       7.351  23.605  13.534  1.00  0.00    -0.237 OA
ATOM     84  O   UNL     1       5.318  24.641  12.615  1.00  0.00    -0.744 OA
ENDBRANCH  80  81
ENDBRANCH  52  75
BRANCH  64  85
ATOM     85  C   UNL     1       4.978  14.462  16.787  1.00  0.00    -0.014 A 
ATOM     86  C   UNL     1       3.764  15.090  17.153  1.00  0.00     0.010 A 
ATOM     87  C   UNL     1       5.511  13.520  17.684  1.00  0.00     0.010 A 
ATOM     88  C   UNL     1       3.165  14.860  18.401  1.00  0.00     0.020 A 
ATOM     89  C   UNL     1       4.897  13.254  18.914  1.00  0.00     0.020 A 
ATOM     90  C   UNL     1       3.751  13.955  19.284  1.00  0.00     0.054 A 
BRANCH  90  91
ATOM     91  S   UNL     1       3.033  13.739  20.937  1.00  0.00     0.124 S 
ATOM     92  O   UNL     1       3.332  15.020  21.574  1.00  0.00    -0.237 OA
ATOM     93  O   UNL     1       1.622  13.498  20.653  1.00  0.00    -0.237 OA
ATOM     94  O   UNL     1       3.766  12.600  21.485  1.00  0.00    -0.744 OA
ENDBRANCH  90  91
ENDBRANCH  64  85
ENDBRANCH  38  39
ENDBRANCH  31  33
ENDBRANCH  30  31
ENDBRANCH  29  30
ENDBRANCH   1  29
TORSDOF 20
