REMARK SMILES O=C(OCCOC(=O)c1ccc(-c2c3nc(c(-c4ccc(S(=O)(=O)[O-])cc4)c4ccc([nH]4)c(-c4ccc(S(=O)(=O)[O-])cc4)c4nc(c(-c5ccc(S(=O)(=O)[O-])cc5)c5ccc2[nH]5)C=C4)C=C3)cc1)c1ccc(/[NH+]=C2/N=C[NH+]=C3N=NC=C32)cc1
REMARK SMILES IDX 5 1 4 2 3 3 2 4 1 5 69 6 70 7 84 8 71 9 83 10 72 11 73 12
REMARK SMILES IDX 74 13 75 15 82 16 76 17 78 18 81 19 77 20 79 21 80 22 6 24
REMARK SMILES IDX 7 25 8 26 9 27 10 28 68 29 11 30 67 31 12 32 13 33 14 34
REMARK SMILES IDX 61 35 15 36 66 37 60 38 62 39 16 40 65 41 59 42 58 43 17 45
REMARK SMILES IDX 47 46 28 47 46 48 29 49 32 50 45 51 63 52 30 53 31 54 44 56
REMARK SMILES IDX 64 57 33 58 18 59 19 60 27 61 20 62 26 63 21 64 22 65 23 66
REMARK SMILES IDX 24 67 25 68 48 69 49 70 57 71 50 72 56 73 51 74 52 75 53 76
REMARK SMILES IDX 54 77 55 78 34 79 35 80 43 81 36 82 42 83 37 84 38 85 39 86
REMARK SMILES IDX 40 87 41 88
REMARK H PARENT 73 14 77 23 62 44 32 55
REMARK Flexibility Score: inf
ROOT
ATOM      1  C   UNL     1       3.854   1.486   2.038  1.00  0.00     0.275 C 
ENDROOT
BRANCH   1   2
ATOM      2  C   UNL     1       4.246   1.489   0.551  1.00  0.00     0.275 C 
BRANCH   2   3
ATOM      3  O   UNL     1       3.166   1.008  -0.267  1.00  0.00    -0.458 OA
BRANCH   3   4
ATOM      4  C   UNL     1       2.993  -0.210  -0.823  1.00  0.00     0.338 C 
ATOM      5  O   UNL     1       1.996  -0.401  -1.519  1.00  0.00    -0.246 OA
BRANCH   4   6
ATOM      6  C   UNL     1       3.930  -1.366  -0.649  1.00  0.00     0.060 A 
ATOM      7  C   UNL     1       4.739  -1.609   0.458  1.00  0.00     0.020 A 
ATOM      8  C   UNL     1       3.875  -2.368  -1.629  1.00  0.00     0.020 A 
ATOM      9  C   UNL     1       5.298  -2.871   0.675  1.00  0.00     0.052 A 
ATOM     10  C   UNL     1       4.525  -3.597  -1.449  1.00  0.00     0.052 A 
ATOM     11  C   UNL     1       5.117  -3.909  -0.231  1.00  0.00     0.124 A 
BRANCH  11  12
ATOM     12  N   UNL     1       5.568  -5.160   0.184  1.00  0.00    -0.244 N 
ATOM     13  C   UNL     1       5.027  -6.298  -0.081  1.00  0.00     0.305 C 
ATOM     14  H   UNL     1       6.384  -5.176   0.735  1.00  0.00     0.311 HD
ATOM     15  N   UNL     1       5.631  -7.367   0.535  1.00  0.00    -0.069 NA
ATOM     16  C   UNL     1       3.918  -6.682  -0.940  1.00  0.00     0.159 C 
ATOM     17  C   UNL     1       5.381  -8.592   0.202  1.00  0.00     0.372 C 
ATOM     18  C   UNL     1       3.821  -8.075  -1.302  1.00  0.00     0.302 C 
ATOM     19  C   UNL     1       2.856  -6.220  -1.584  1.00  0.00     0.177 C 
ATOM     20  N   UNL     1       4.532  -9.009  -0.785  1.00  0.00    -0.245 N 
ATOM     21  N   UNL     1       2.848  -8.245  -2.253  1.00  0.00     0.010 NA
ATOM     22  N   UNL     1       2.252  -7.144  -2.387  1.00  0.00    -0.081 NA
ATOM     23  H   UNL     1       4.471  -9.948  -1.075  1.00  0.00     0.266 HD
ENDBRANCH  11  12
ENDBRANCH   4   6
ENDBRANCH   3   4
ENDBRANCH   2   3
ENDBRANCH   1   2
BRANCH   1  24
ATOM     24  O   UNL     1       3.463   0.172   2.496  1.00  0.00    -0.458 OA
BRANCH  24  25
ATOM     25  C   UNL     1       2.135  -0.112   2.443  1.00  0.00     0.338 C 
ATOM     26  O   UNL     1       1.249   0.697   2.217  1.00  0.00    -0.246 OA
BRANCH  25  27
ATOM     27  C   UNL     1       1.886  -1.579   2.586  1.00  0.00     0.060 A 
ATOM     28  C   UNL     1       0.694  -2.092   2.057  1.00  0.00     0.016 A 
ATOM     29  C   UNL     1       2.769  -2.452   3.230  1.00  0.00     0.016 A 
ATOM     30  C   UNL     1       0.349  -3.441   2.237  1.00  0.00     0.010 A 
ATOM     31  C   UNL     1       2.439  -3.813   3.376  1.00  0.00     0.010 A 
ATOM     32  C   UNL     1       1.200  -4.313   2.929  1.00  0.00    -0.014 A 
BRANCH  32  33
ATOM     33  C   UNL     1       0.739  -5.684   3.314  1.00  0.00     0.031 A 
ATOM     34  C   UNL     1       0.400  -5.977   4.756  1.00  0.00     0.074 A 
ATOM     35  C   UNL     1       0.552  -6.673   2.417  1.00  0.00     0.049 A 
ATOM     36  N   UNL     1      -0.091  -7.073   5.280  1.00  0.00    -0.248 NA
ATOM     37  C   UNL     1       0.613  -4.891   5.723  1.00  0.00     0.031 C 
ATOM     38  C   UNL     1       0.712  -6.546   0.974  1.00  0.00     0.029 A 
ATOM     39  N   UNL     1       0.181  -7.990   2.592  1.00  0.00    -0.354 N 
ATOM     40  C   UNL     1      -0.287  -6.795   6.626  1.00  0.00     0.074 A 
ATOM     41  C   UNL     1       0.222  -5.458   6.854  1.00  0.00     0.031 C 
ATOM     42  C   UNL     1       0.482  -7.742   0.401  1.00  0.00     0.029 A 
ATOM     43  C   UNL     1       0.177  -8.726   1.431  1.00  0.00     0.049 A 
ATOM     44  H   UNL     1      -0.059  -8.368   3.469  1.00  0.00     0.167 HD
ATOM     45  C   UNL     1      -0.874  -7.554   7.583  1.00  0.00     0.031 A 
ATOM     46  C   UNL     1      -0.049 -10.036   1.198  1.00  0.00     0.031 A 
ATOM     47  C   UNL     1      -1.362  -8.894   7.391  1.00  0.00     0.049 A 
ATOM     48  C   UNL     1      -0.520 -10.926   2.313  1.00  0.00     0.074 A 
ATOM     49  C   UNL     1      -2.006  -9.711   8.305  1.00  0.00     0.029 A 
ATOM     50  N   UNL     1      -1.240  -9.627   6.222  1.00  0.00    -0.354 N 
ATOM     51  N   UNL     1      -0.763 -10.616   3.562  1.00  0.00    -0.248 NA
ATOM     52  C   UNL     1      -0.809 -12.326   1.969  1.00  0.00     0.031 C 
ATOM     53  C   UNL     1      -2.211 -10.961   7.710  1.00  0.00     0.029 A 
ATOM     54  C   UNL     1      -1.757 -10.901   6.404  1.00  0.00     0.049 A 
ATOM     55  H   UNL     1      -0.845  -9.292   5.384  1.00  0.00     0.167 HD
ATOM     56  C   UNL     1      -1.308 -11.761   4.133  1.00  0.00     0.074 A 
ATOM     57  C   UNL     1      -1.330 -12.777   3.103  1.00  0.00     0.031 C 
ATOM     58  C   UNL     1      -1.783 -11.928   5.392  1.00  0.00     0.031 A 
BRANCH  45  59
ATOM     59  C   UNL     1      -1.004  -6.933   8.948  1.00  0.00    -0.014 A 
ATOM     60  C   UNL     1      -1.893  -5.866   9.176  1.00  0.00     0.010 A 
ATOM     61  C   UNL     1      -0.222  -7.416  10.011  1.00  0.00     0.010 A 
ATOM     62  C   UNL     1      -1.947  -5.248  10.427  1.00  0.00     0.020 A 
ATOM     63  C   UNL     1      -0.296  -6.820  11.272  1.00  0.00     0.020 A 
ATOM     64  C   UNL     1      -1.138  -5.722  11.463  1.00  0.00     0.054 A 
BRANCH  64  65
ATOM     65  S   UNL     1      -1.200  -4.881  13.068  1.00  0.00     0.124 S 
ATOM     66  O   UNL     1      -0.476  -3.644  12.785  1.00  0.00    -0.237 OA
ATOM     67  O   UNL     1      -2.635  -4.731  13.297  1.00  0.00    -0.237 OA
ATOM     68  O   UNL     1      -0.521  -5.808  13.971  1.00  0.00    -0.744 OA
ENDBRANCH  64  65
ENDBRANCH  45  59
BRANCH  46  69
ATOM     69  C   UNL     1       0.141 -10.597  -0.169  1.00  0.00    -0.014 A 
ATOM     70  C   UNL     1      -0.958 -10.903  -0.987  1.00  0.00     0.010 A 
ATOM     71  C   UNL     1       1.440 -10.845  -0.650  1.00  0.00     0.010 A 
ATOM     72  C   UNL     1      -0.762 -11.444  -2.263  1.00  0.00     0.020 A 
ATOM     73  C   UNL     1       1.640 -11.365  -1.933  1.00  0.00     0.020 A 
ATOM     74  C   UNL     1       0.537 -11.664  -2.732  1.00  0.00     0.054 A 
BRANCH  74  75
ATOM     75  S   UNL     1       0.763 -12.306  -4.415  1.00  0.00     0.124 S 
ATOM     76  O   UNL     1       0.316 -13.689  -4.276  1.00  0.00    -0.237 OA
ATOM     77  O   UNL     1      -0.108 -11.438  -5.203  1.00  0.00    -0.237 OA
ATOM     78  O   UNL     1       2.192 -12.134  -4.663  1.00  0.00    -0.744 OA
ENDBRANCH  74  75
ENDBRANCH  46  69
BRANCH  58  79
ATOM     79  C   UNL     1      -2.437 -13.245   5.726  1.00  0.00    -0.014 A 
ATOM     80  C   UNL     1      -1.696 -14.433   5.848  1.00  0.00     0.010 A 
ATOM     81  C   UNL     1      -3.825 -13.280   5.961  1.00  0.00     0.010 A 
ATOM     82  C   UNL     1      -2.336 -15.637   6.165  1.00  0.00     0.020 A 
ATOM     83  C   UNL     1      -4.463 -14.475   6.307  1.00  0.00     0.020 A 
ATOM     84  C   UNL     1      -3.716 -15.650   6.392  1.00  0.00     0.054 A 
BRANCH  84  85
ATOM     85  S   UNL     1      -4.516 -17.215   6.841  1.00  0.00     0.124 S 
ATOM     86  O   UNL     1      -4.524 -17.930   5.567  1.00  0.00    -0.237 OA
ATOM     87  O   UNL     1      -3.617 -17.755   7.858  1.00  0.00    -0.237 OA
ATOM     88  O   UNL     1      -5.829 -16.805   7.334  1.00  0.00    -0.744 OA
ENDBRANCH  84  85
ENDBRANCH  58  79
ENDBRANCH  32  33
ENDBRANCH  25  27
ENDBRANCH  24  25
ENDBRANCH   1  24
TORSDOF 15
