REMARK SMILES N#Cc1ccc(C[N@H+]2CCCC[C@H]2C(=O)OCCOC(=O)c2ccc(-c3c4nc(c(-c5ccc(S(=O)(=O)[O-])cc5)c5ccc([nH]5)c(-c5ccc(S(=O)(=O)[O-])cc5)c5nc(c(-c6ccc(S(=O)(=O)[O-])cc6)c6ccc3[nH]6)C=C5)C=C4)cc2)c(F)c1
REMARK SMILES IDX 17 1 16 2 14 3 15 4 13 5 8 6 9 7 10 9 12 10 11 11 7 12 6 13
REMARK SMILES IDX 3 14 4 15 84 16 5 17 82 18 83 19 2 20 1 21 18 22 19 23 20 24
REMARK SMILES IDX 21 25 22 26 23 27 81 28 24 29 80 30 25 31 26 32 27 33 74 34
REMARK SMILES IDX 28 35 79 36 73 37 75 38 29 39 78 40 72 41 71 42 30 44 60 45
REMARK SMILES IDX 41 46 59 47 42 48 45 49 58 50 76 51 43 52 44 53 57 55 77 56
REMARK SMILES IDX 46 57 31 58 32 59 40 60 33 61 39 62 34 63 35 64 36 65 37 66
REMARK SMILES IDX 38 67 61 68 62 69 70 70 63 71 69 72 64 73 65 74 66 75 67 76
REMARK SMILES IDX 68 77 47 78 48 79 56 80 49 81 55 82 50 83 51 84 52 85 53 86
REMARK SMILES IDX 54 87
REMARK H PARENT 8 8 75 43 45 54
REMARK Flexibility Score: inf
ROOT
ATOM      1  C   UNL     1       0.691  -2.866   2.059  1.00  0.00     0.274 C 
ENDROOT
BRANCH   1   2
ATOM      2  O   UNL     1       2.136  -2.717   1.997  1.00  0.00    -0.458 OA
BRANCH   2   3
ATOM      3  C   UNL     1       2.480  -1.507   1.501  1.00  0.00     0.365 C 
ATOM      4  O   UNL     1       1.619  -0.663   1.330  1.00  0.00    -0.245 OA
BRANCH   3   5
ATOM      5  C   UNL     1       3.940  -1.282   1.085  1.00  0.00     0.295 C 
ATOM      6  N   UNL     1       4.218   0.162   0.807  1.00  0.00    -0.319 N 
ATOM      7  C   UNL     1       4.152   0.985   2.022  1.00  0.00     0.263 C 
ATOM      8  H   UNL     1       5.196   0.155   0.517  1.00  0.00     0.349 HD
ATOM      9  C   UNL     1       4.968   0.475   3.220  1.00  0.00     0.062 C 
ATOM     10  C   UNL     1       4.907  -1.786   2.170  1.00  0.00     0.078 C 
ATOM     11  C   UNL     1       4.753  -1.011   3.474  1.00  0.00     0.013 C 
BRANCH   6  12
ATOM     12  C   UNL     1       3.669   0.777  -0.454  1.00  0.00     0.302 C 
BRANCH  12  13
ATOM     13  C   UNL     1       2.206   0.636  -0.895  1.00  0.00     0.042 A 
ATOM     14  C   UNL     1      -0.588   0.182  -0.995  1.00  0.00     0.055 A 
ATOM     15  C   UNL     1      -0.098   1.472  -0.800  1.00  0.00     0.020 A 
ATOM     16  C   UNL     1       0.301  -0.826  -1.366  1.00  0.00     0.059 A 
ATOM     17  C   UNL     1       1.292   1.701  -0.795  1.00  0.00     0.014 A 
ATOM     18  C   UNL     1       1.681  -0.585  -1.337  1.00  0.00     0.133 A 
ATOM     19  F   UNL     1       2.502  -1.617  -1.574  1.00  0.00    -0.206 F 
BRANCH  14  20
ATOM     20  C   UNL     1      -1.964  -0.138  -0.717  1.00  0.00     0.099 C 
ATOM     21  N   UNL     1      -3.049  -0.439  -0.449  1.00  0.00    -0.192 NA
ENDBRANCH  14  20
ENDBRANCH  12  13
ENDBRANCH   6  12
ENDBRANCH   3   5
ENDBRANCH   2   3
ENDBRANCH   1   2
BRANCH   1  22
ATOM     22  C   UNL     1      -0.047  -2.072   3.181  1.00  0.00     0.275 C 
BRANCH  22  23
ATOM     23  O   UNL     1      -0.167  -0.630   2.978  1.00  0.00    -0.458 OA
BRANCH  23  24
ATOM     24  C   UNL     1       0.334   0.181   3.955  1.00  0.00     0.338 C 
ATOM     25  O   UNL     1       0.785  -0.208   5.024  1.00  0.00    -0.246 OA
BRANCH  24  26
ATOM     26  C   UNL     1       0.392   1.638   3.593  1.00  0.00     0.060 A 
ATOM     27  C   UNL     1       1.031   2.016   2.429  1.00  0.00     0.016 A 
ATOM     28  C   UNL     1       0.133   2.652   4.512  1.00  0.00     0.016 A 
ATOM     29  C   UNL     1       1.605   3.279   2.259  1.00  0.00     0.010 A 
ATOM     30  C   UNL     1       0.539   3.988   4.248  1.00  0.00     0.010 A 
ATOM     31  C   UNL     1       1.338   4.316   3.135  1.00  0.00    -0.014 A 
BRANCH  31  32
ATOM     32  C   UNL     1       1.965   5.666   2.914  1.00  0.00     0.031 A 
ATOM     33  C   UNL     1       2.680   6.347   4.054  1.00  0.00     0.074 A 
ATOM     34  C   UNL     1       1.975   6.285   1.708  1.00  0.00     0.049 A 
ATOM     35  N   UNL     1       3.015   7.604   4.194  1.00  0.00    -0.248 NA
ATOM     36  C   UNL     1       3.057   5.496   5.192  1.00  0.00     0.031 C 
ATOM     37  C   UNL     1       1.498   5.720   0.443  1.00  0.00     0.029 A 
ATOM     38  N   UNL     1       2.416   7.539   1.340  1.00  0.00    -0.354 N 
ATOM     39  C   UNL     1       3.543   7.715   5.476  1.00  0.00     0.074 A 
ATOM     40  C   UNL     1       3.497   6.392   6.063  1.00  0.00     0.031 C 
ATOM     41  C   UNL     1       1.719   6.587  -0.555  1.00  0.00     0.029 A 
ATOM     42  C   UNL     1       2.192   7.838   0.012  1.00  0.00     0.049 A 
ATOM     43  H   UNL     1       2.849   8.163   1.967  1.00  0.00     0.167 HD
ATOM     44  C   UNL     1       3.998   8.824   6.111  1.00  0.00     0.031 A 
ATOM     45  C   UNL     1       2.264   9.001  -0.669  1.00  0.00     0.031 A 
ATOM     46  C   UNL     1       4.071  10.125   5.493  1.00  0.00     0.049 A 
ATOM     47  C   UNL     1       2.627  10.251   0.079  1.00  0.00     0.074 A 
ATOM     48  C   UNL     1       4.490  11.322   6.047  1.00  0.00     0.029 A 
ATOM     49  N   UNL     1       3.724  10.398   4.177  1.00  0.00    -0.354 N 
ATOM     50  N   UNL     1       2.990  10.380   1.332  1.00  0.00    -0.248 NA
ATOM     51  C   UNL     1       2.566  11.513  -0.669  1.00  0.00     0.031 C 
ATOM     52  C   UNL     1       4.323  12.329   5.091  1.00  0.00     0.029 A 
ATOM     53  C   UNL     1       3.885  11.748   3.911  1.00  0.00     0.049 A 
ATOM     54  H   UNL     1       3.409   9.729   3.526  1.00  0.00     0.167 HD
ATOM     55  C   UNL     1       3.232  11.736   1.516  1.00  0.00     0.074 A 
ATOM     56  C   UNL     1       2.984  12.381   0.242  1.00  0.00     0.031 C 
ATOM     57  C   UNL     1       3.630  12.383   2.640  1.00  0.00     0.031 A 
BRANCH  44  58
ATOM     58  C   UNL     1       4.338   8.692   7.577  1.00  0.00    -0.014 A 
ATOM     59  C   UNL     1       5.413   7.912   8.039  1.00  0.00     0.010 A 
ATOM     60  C   UNL     1       3.523   9.348   8.521  1.00  0.00     0.010 A 
ATOM     61  C   UNL     1       5.615   7.725   9.411  1.00  0.00     0.020 A 
ATOM     62  C   UNL     1       3.746   9.198   9.892  1.00  0.00     0.020 A 
ATOM     63  C   UNL     1       4.772   8.361  10.328  1.00  0.00     0.054 A 
BRANCH  63  64
ATOM     64  S   UNL     1       5.030   8.069  12.100  1.00  0.00     0.124 S 
ATOM     65  O   UNL     1       4.596   6.681  12.242  1.00  0.00    -0.237 OA
ATOM     66  O   UNL     1       6.464   8.297  12.255  1.00  0.00    -0.237 OA
ATOM     67  O   UNL     1       4.171   9.059  12.745  1.00  0.00    -0.744 OA
ENDBRANCH  63  64
ENDBRANCH  44  58
BRANCH  45  68
ATOM     68  C   UNL     1       1.915   9.047  -2.121  1.00  0.00    -0.014 A 
ATOM     69  C   UNL     1       2.899   9.343  -3.080  1.00  0.00     0.010 A 
ATOM     70  C   UNL     1       0.605   8.765  -2.560  1.00  0.00     0.010 A 
ATOM     71  C   UNL     1       2.587   9.338  -4.444  1.00  0.00     0.020 A 
ATOM     72  C   UNL     1       0.298   8.723  -3.924  1.00  0.00     0.020 A 
ATOM     73  C   UNL     1       1.293   9.011  -4.858  1.00  0.00     0.054 A 
BRANCH  73  74
ATOM     74  S   UNL     1       0.946   8.913  -6.637  1.00  0.00     0.124 S 
ATOM     75  O   UNL     1       1.051  10.310  -7.048  1.00  0.00    -0.237 OA
ATOM     76  O   UNL     1       2.008   8.031  -7.113  1.00  0.00    -0.237 OA
ATOM     77  O   UNL     1      -0.399   8.343  -6.693  1.00  0.00    -0.744 OA
ENDBRANCH  73  74
ENDBRANCH  45  68
BRANCH  57  78
ATOM     78  C   UNL     1       3.881  13.864   2.529  1.00  0.00    -0.014 A 
ATOM     79  C   UNL     1       2.829  14.780   2.350  1.00  0.00     0.010 A 
ATOM     80  C   UNL     1       5.197  14.347   2.651  1.00  0.00     0.010 A 
ATOM     81  C   UNL     1       3.095  16.149   2.263  1.00  0.00     0.020 A 
ATOM     82  C   UNL     1       5.462  15.717   2.601  1.00  0.00     0.020 A 
ATOM     83  C   UNL     1       4.409  16.609   2.394  1.00  0.00     0.054 A 
BRANCH  83  84
ATOM     84  S   UNL     1       4.718  18.394   2.328  1.00  0.00     0.124 S 
ATOM     85  O   UNL     1       4.458  18.697   0.923  1.00  0.00    -0.237 OA
ATOM     86  O   UNL     1       3.740  18.921   3.277  1.00  0.00    -0.237 OA
ATOM     87  O   UNL     1       6.113  18.521   2.744  1.00  0.00    -0.744 OA
ENDBRANCH  83  84
ENDBRANCH  57  78
ENDBRANCH  31  32
ENDBRANCH  24  26
ENDBRANCH  23  24
ENDBRANCH  22  23
ENDBRANCH   1  22
TORSDOF 17
