REMARK SMILES [NH3+][C@@H](Cc1cn(-c2nc(Cl)nc(N3CCOCC3)n2)c2ccccc12)C(=O)OCCOC(=O)c1ccc(-c2c3nc(c(-c4ccc(S(=O)(=O)[O-])cc4)c4ccc([nH]4)c(-c4ccc(S(=O)(=O)[O-])cc4)c4nc(c(-c5ccc(S(=O)(=O)[O-])cc5)c5ccc2[nH]5)C=C4)C=C3)cc1
REMARK SMILES IDX 29 1 28 2 26 3 27 4 2 5 1 6 3 10 4 11 5 12 25 13 6 14 20 15
REMARK SMILES IDX 24 16 21 17 23 18 22 19 7 20 8 21 19 22 9 23 12 24 10 25
REMARK SMILES IDX 11 26 13 27 14 28 18 29 15 30 17 31 16 32 30 33 31 34 32 35
REMARK SMILES IDX 33 36 34 37 35 38 93 39 36 40 92 41 37 42 38 43 39 44 86 45
REMARK SMILES IDX 40 46 91 47 85 48 87 49 41 50 90 51 84 52 83 53 42 55 72 56
REMARK SMILES IDX 53 57 71 58 54 59 57 60 70 61 88 62 55 63 56 64 69 66 89 67
REMARK SMILES IDX 58 68 43 69 44 70 52 71 45 72 51 73 46 74 47 75 48 76 49 77
REMARK SMILES IDX 50 78 73 79 74 80 82 81 75 82 81 83 76 84 77 85 78 86 79 87
REMARK SMILES IDX 80 88 59 89 60 90 68 91 61 92 67 93 62 94 63 95 64 96 65 97
REMARK SMILES IDX 66 98
REMARK H PARENT 1 7 1 8 1 9 87 54 57 65
REMARK Flexibility Score: inf
ROOT
ATOM      1  C   UNL     1      -3.121   0.092   0.836  1.00  0.00     0.274 C 
ENDROOT
BRANCH   1   2
ATOM      2  O   UNL     1      -1.685   0.203   0.740  1.00  0.00    -0.458 OA
BRANCH   2   3
ATOM      3  C   UNL     1      -0.935  -0.508   1.635  1.00  0.00     0.365 C 
ATOM      4  O   UNL     1      -1.410  -1.157   2.558  1.00  0.00    -0.245 OA
BRANCH   3   5
ATOM      5  C   UNL     1       0.584  -0.409   1.341  1.00  0.00     0.296 C 
BRANCH   5   6
ATOM      6  N   UNL     1       0.875   0.400   0.128  1.00  0.00    -0.346 N 
ATOM      7  H   UNL     1       1.883   0.435  -0.023  1.00  0.00     0.345 HD
ATOM      8  H   UNL     1       0.516   1.346   0.257  1.00  0.00     0.345 HD
ATOM      9  H   UNL     1       0.425  -0.027  -0.681  1.00  0.00     0.345 HD
ENDBRANCH   5   6
BRANCH   5  10
ATOM     10  C   UNL     1       1.415  -0.026   2.574  1.00  0.00     0.115 C 
BRANCH  10  11
ATOM     11  C   UNL     1       0.979   1.256   3.160  1.00  0.00    -0.015 A 
ATOM     12  C   UNL     1       0.085   1.435   4.191  1.00  0.00     0.099 A 
ATOM     13  C   UNL     1       1.342   2.534   2.687  1.00  0.00     0.004 A 
ATOM     14  N   UNL     1      -0.297   2.760   4.198  1.00  0.00    -0.285 N 
ATOM     15  C   UNL     1       0.458   3.452   3.256  1.00  0.00     0.056 A 
ATOM     16  C   UNL     1       2.306   2.959   1.755  1.00  0.00     0.010 A 
ATOM     17  C   UNL     1       0.495   4.804   2.885  1.00  0.00     0.027 A 
ATOM     18  C   UNL     1       2.357   4.299   1.393  1.00  0.00     0.001 A 
ATOM     19  C   UNL     1       1.456   5.204   1.944  1.00  0.00     0.002 A 
BRANCH  14  20
ATOM     20  C   UNL     1      -1.340   3.257   5.024  1.00  0.00     0.240 A 
ATOM     21  N   UNL     1      -2.204   4.123   4.513  1.00  0.00    -0.181 NA
ATOM     22  N   UNL     1      -1.414   2.744   6.253  1.00  0.00    -0.176 NA
ATOM     23  C   UNL     1      -3.238   4.322   5.318  1.00  0.00     0.228 A 
ATOM     24  C   UNL     1      -2.439   3.119   7.004  1.00  0.00     0.231 A 
ATOM     25  Cl  UNL     1      -4.474   5.326   4.691  1.00  0.00    -0.041 Cl
ATOM     26  N   UNL     1      -3.435   3.860   6.547  1.00  0.00    -0.182 NA
BRANCH  24  27
ATOM     27  N   UNL     1      -2.407   2.779   8.321  1.00  0.00    -0.336 N 
ATOM     28  C   UNL     1      -1.180   2.948   9.093  1.00  0.00     0.148 C 
ATOM     29  C   UNL     1      -3.544   2.170   8.995  1.00  0.00     0.148 C 
ATOM     30  C   UNL     1      -0.835   1.653   9.832  1.00  0.00     0.181 C 
ATOM     31  C   UNL     1      -3.069   0.904   9.737  1.00  0.00     0.181 C 
ATOM     32  O   UNL     1      -1.957   1.196  10.607  1.00  0.00    -0.378 OA
ENDBRANCH  24  27
ENDBRANCH  14  20
ENDBRANCH  10  11
ENDBRANCH   5  10
ENDBRANCH   3   5
ENDBRANCH   2   3
ENDBRANCH   1   2
BRANCH   1  33
ATOM     33  C   UNL     1      -3.680  -0.456  -0.483  1.00  0.00     0.275 C 
BRANCH  33  34
ATOM     34  O   UNL     1      -3.410  -1.864  -0.545  1.00  0.00    -0.458 OA
BRANCH  34  35
ATOM     35  C   UNL     1      -2.359  -2.235  -1.315  1.00  0.00     0.338 C 
ATOM     36  O   UNL     1      -1.992  -1.709  -2.354  1.00  0.00    -0.246 OA
BRANCH  35  37
ATOM     37  C   UNL     1      -1.551  -3.174  -0.501  1.00  0.00     0.060 A 
ATOM     38  C   UNL     1      -2.126  -3.907   0.548  1.00  0.00     0.016 A 
ATOM     39  C   UNL     1      -0.165  -3.093  -0.625  1.00  0.00     0.016 A 
ATOM     40  C   UNL     1      -1.321  -4.393   1.576  1.00  0.00     0.010 A 
ATOM     41  C   UNL     1       0.632  -3.598   0.399  1.00  0.00     0.010 A 
ATOM     42  C   UNL     1       0.053  -4.159   1.547  1.00  0.00    -0.014 A 
BRANCH  42  43
ATOM     43  C   UNL     1       0.909  -4.698   2.606  1.00  0.00     0.031 A 
ATOM     44  C   UNL     1       1.485  -6.002   2.240  1.00  0.00     0.074 A 
ATOM     45  C   UNL     1       1.235  -4.185   3.812  1.00  0.00     0.049 A 
ATOM     46  N   UNL     1       1.028  -7.141   2.636  1.00  0.00    -0.248 NA
ATOM     47  C   UNL     1       2.534  -6.074   1.218  1.00  0.00     0.031 C 
ATOM     48  C   UNL     1       0.892  -2.897   4.395  1.00  0.00     0.029 A 
ATOM     49  N   UNL     1       2.049  -4.728   4.771  1.00  0.00    -0.354 N 
ATOM     50  C   UNL     1       1.853  -8.083   2.058  1.00  0.00     0.074 A 
ATOM     51  C   UNL     1       2.604  -7.393   1.038  1.00  0.00     0.031 C 
ATOM     52  C   UNL     1       1.698  -2.634   5.455  1.00  0.00     0.029 A 
ATOM     53  C   UNL     1       2.451  -3.837   5.758  1.00  0.00     0.049 A 
ATOM     54  H   UNL     1       2.327  -5.673   4.760  1.00  0.00     0.167 HD
ATOM     55  C   UNL     1       2.038  -9.303   2.626  1.00  0.00     0.031 A 
ATOM     56  C   UNL     1       3.255  -4.092   6.821  1.00  0.00     0.031 A 
ATOM     57  C   UNL     1       1.084  -9.568   3.673  1.00  0.00     0.049 A 
ATOM     58  C   UNL     1       3.101  -5.528   7.134  1.00  0.00     0.074 A 
ATOM     59  C   UNL     1      -0.291  -9.664   3.737  1.00  0.00     0.029 A 
ATOM     60  N   UNL     1       1.523  -9.399   4.965  1.00  0.00    -0.354 N 
ATOM     61  N   UNL     1       2.009  -6.041   7.624  1.00  0.00    -0.248 NA
ATOM     62  C   UNL     1       4.058  -6.482   6.598  1.00  0.00     0.031 C 
ATOM     63  C   UNL     1      -0.651  -9.168   5.023  1.00  0.00     0.029 A 
ATOM     64  C   UNL     1       0.519  -8.817   5.699  1.00  0.00     0.049 A 
ATOM     65  H   UNL     1       2.410  -9.653   5.307  1.00  0.00     0.167 HD
ATOM     66  C   UNL     1       1.941  -7.305   7.064  1.00  0.00     0.074 A 
ATOM     67  C   UNL     1       3.288  -7.572   6.575  1.00  0.00     0.031 C 
ATOM     68  C   UNL     1       0.738  -7.892   6.799  1.00  0.00     0.031 A 
BRANCH  55  69
ATOM     69  C   UNL     1       3.309 -10.085   2.461  1.00  0.00    -0.014 A 
ATOM     70  C   UNL     1       4.521  -9.498   2.041  1.00  0.00     0.010 A 
ATOM     71  C   UNL     1       3.369 -11.406   2.938  1.00  0.00     0.010 A 
ATOM     72  C   UNL     1       5.722 -10.201   2.030  1.00  0.00     0.020 A 
ATOM     73  C   UNL     1       4.582 -12.105   2.987  1.00  0.00     0.020 A 
ATOM     74  C   UNL     1       5.747 -11.500   2.516  1.00  0.00     0.054 A 
BRANCH  74  75
ATOM     75  S   UNL     1       7.347 -12.335   2.596  1.00  0.00     0.124 S 
ATOM     76  O   UNL     1       7.617 -12.594   1.184  1.00  0.00    -0.237 OA
ATOM     77  O   UNL     1       8.194 -11.325   3.224  1.00  0.00    -0.237 OA
ATOM     78  O   UNL     1       7.075 -13.515   3.411  1.00  0.00    -0.744 OA
ENDBRANCH  74  75
ENDBRANCH  55  69
BRANCH  56  79
ATOM     79  C   UNL     1       4.397  -3.302   7.347  1.00  0.00    -0.014 A 
ATOM     80  C   UNL     1       5.101  -2.423   6.502  1.00  0.00     0.010 A 
ATOM     81  C   UNL     1       5.007  -3.674   8.565  1.00  0.00     0.010 A 
ATOM     82  C   UNL     1       6.409  -2.019   6.808  1.00  0.00     0.020 A 
ATOM     83  C   UNL     1       6.317  -3.275   8.875  1.00  0.00     0.020 A 
ATOM     84  C   UNL     1       7.025  -2.484   7.971  1.00  0.00     0.054 A 
BRANCH  84  85
ATOM     85  S   UNL     1       8.788  -2.122   8.225  1.00  0.00     0.124 S 
ATOM     86  O   UNL     1       9.413  -2.883   7.146  1.00  0.00    -0.237 OA
ATOM     87  O   UNL     1       8.837  -0.670   8.077  1.00  0.00    -0.237 OA
ATOM     88  O   UNL     1       9.055  -2.616   9.574  1.00  0.00    -0.744 OA
ENDBRANCH  84  85
ENDBRANCH  56  79
BRANCH  68  89
ATOM     89  C   UNL     1      -0.501  -7.366   7.496  1.00  0.00    -0.014 A 
ATOM     90  C   UNL     1      -1.316  -8.303   8.159  1.00  0.00     0.010 A 
ATOM     91  C   UNL     1      -0.965  -6.040   7.387  1.00  0.00     0.010 A 
ATOM     92  C   UNL     1      -2.569  -7.945   8.662  1.00  0.00     0.020 A 
ATOM     93  C   UNL     1      -2.212  -5.666   7.915  1.00  0.00     0.020 A 
ATOM     94  C   UNL     1      -3.018  -6.631   8.525  1.00  0.00     0.054 A 
BRANCH  94  95
ATOM     95  S   UNL     1      -4.679  -6.223   9.130  1.00  0.00     0.124 S 
ATOM     96  O   UNL     1      -5.537  -6.881   8.146  1.00  0.00    -0.237 OA
ATOM     97  O   UNL     1      -4.694  -6.818  10.465  1.00  0.00    -0.237 OA
ATOM     98  O   UNL     1      -4.718  -4.762   9.106  1.00  0.00    -0.744 OA
ENDBRANCH  94  95
ENDBRANCH  68  89
ENDBRANCH  42  43
ENDBRANCH  35  37
ENDBRANCH  34  35
ENDBRANCH  33  34
ENDBRANCH   1  33
TORSDOF 19
