REMARK SMILES C=Cc1cc(Cl)cc2c1O[C@H](C(F)(F)F)C(C(=O)OCCOC(=O)c1ccc(-c3c4nc(c(-c5ccc(S(=O)(=O)[O-])cc5)c5ccc([nH]5)c(-c5ccc(S(=O)(=O)[O-])cc5)c5nc(c(-c6ccc(S(=O)(=O)[O-])cc6)c6ccc3[nH]6)C=C5)C=C4)cc1)=C2
REMARK SMILES IDX 21 1 20 2 19 3 17 4 18 5 16 6 3 7 4 8 9 9 5 10 8 11 10 12
REMARK SMILES IDX 6 13 7 14 85 15 11 16 2 17 1 18 12 19 13 20 14 21 15 22
REMARK SMILES IDX 22 23 23 24 24 25 25 26 26 27 84 28 27 29 83 30 28 31 29 32
REMARK SMILES IDX 30 33 77 34 31 35 82 36 76 37 78 38 32 39 81 40 75 41 74 42
REMARK SMILES IDX 33 44 63 45 44 46 62 47 45 48 48 49 61 50 79 51 46 52 47 53
REMARK SMILES IDX 60 55 80 56 49 57 34 58 35 59 43 60 36 61 42 62 37 63 38 64
REMARK SMILES IDX 39 65 40 66 41 67 64 68 65 69 73 70 66 71 72 72 67 73 68 74
REMARK SMILES IDX 69 75 70 76 71 77 50 78 51 79 59 80 52 81 58 82 53 83 54 84
REMARK SMILES IDX 55 85 56 86 57 87
REMARK H PARENT 78 43 48 54
REMARK Flexibility Score: inf
ROOT
ATOM      1  C   UNL     1      -5.088   2.708  -7.582  1.00  0.00     0.275 C 
ENDROOT
BRANCH   1   2
ATOM      2  C   UNL     1      -4.112   3.685  -6.920  1.00  0.00     0.275 C 
BRANCH   2   3
ATOM      3  O   UNL     1      -3.400   3.075  -5.819  1.00  0.00    -0.459 OA
BRANCH   3   4
ATOM      4  C   UNL     1      -3.805   3.446  -4.582  1.00  0.00     0.338 C 
ATOM      5  O   UNL     1      -4.696   4.239  -4.319  1.00  0.00    -0.246 OA
BRANCH   4   6
ATOM      6  C   UNL     1      -3.037   2.732  -3.540  1.00  0.00     0.087 C 
ATOM      7  C   UNL     1      -0.893   0.977  -0.379  1.00  0.00     0.018 A 
ATOM      8  C   UNL     1      -1.614   0.498   0.730  1.00  0.00     0.032 A 
ATOM      9  C   UNL     1      -1.593   1.542  -1.461  1.00  0.00     0.135 A 
ATOM     10  C   UNL     1      -3.005   0.537   0.742  1.00  0.00     0.042 A 
ATOM     11  C   UNL     1      -2.987   1.596  -1.423  1.00  0.00     0.019 A 
ATOM     12  O   UNL     1      -0.871   1.997  -2.536  1.00  0.00    -0.475 OA
ATOM     13  Cl  UNL     1      -3.871  -0.067   2.099  1.00  0.00    -0.084 Cl
ATOM     14  C   UNL     1      -3.697   1.077  -0.333  1.00  0.00     0.032 A 
ATOM     15  C   UNL     1      -3.714   2.220  -2.507  1.00  0.00     0.027 C 
ATOM     16  C   UNL     1      -1.539   2.735  -3.600  1.00  0.00     0.316 C 
BRANCH   7  17
ATOM     17  C   UNL     1       0.577   0.947  -0.368  1.00  0.00     0.004 C 
ATOM     18  C   UNL     1       1.294  -0.093   0.078  1.00  0.00     0.009 C 
ENDBRANCH   7  17
BRANCH  16  19
ATOM     19  C   UNL     1      -0.996   4.173  -3.612  1.00  0.00     0.430 C 
ATOM     20  F   UNL     1       0.359   4.189  -3.637  1.00  0.00    -0.167 F 
ATOM     21  F   UNL     1      -1.408   4.855  -4.708  1.00  0.00    -0.167 F 
ATOM     22  F   UNL     1      -1.388   4.877  -2.526  1.00  0.00    -0.167 F 
ENDBRANCH  16  19
ENDBRANCH   4   6
ENDBRANCH   3   4
ENDBRANCH   2   3
ENDBRANCH   1   2
BRANCH   1  23
ATOM     23  O   UNL     1      -6.202   2.422  -6.718  1.00  0.00    -0.458 OA
BRANCH  23  24
ATOM     24  C   UNL     1      -6.106   1.262  -6.031  1.00  0.00     0.338 C 
ATOM     25  O   UNL     1      -5.203   0.444  -6.085  1.00  0.00    -0.246 OA
BRANCH  24  26
ATOM     26  C   UNL     1      -7.199   1.171  -5.056  1.00  0.00     0.060 A 
ATOM     27  C   UNL     1      -8.323   0.385  -5.266  1.00  0.00     0.016 A 
ATOM     28  C   UNL     1      -6.993   1.767  -3.819  1.00  0.00     0.016 A 
ATOM     29  C   UNL     1      -9.235   0.216  -4.215  1.00  0.00     0.010 A 
ATOM     30  C   UNL     1      -7.802   1.460  -2.734  1.00  0.00     0.010 A 
ATOM     31  C   UNL     1      -8.965   0.713  -2.920  1.00  0.00    -0.014 A 
BRANCH  31  32
ATOM     32  C   UNL     1      -9.885   0.460  -1.772  1.00  0.00     0.031 A 
ATOM     33  C   UNL     1     -10.430   1.601  -0.937  1.00  0.00     0.074 A 
ATOM     34  C   UNL     1     -10.215  -0.810  -1.454  1.00  0.00     0.049 A 
ATOM     35  N   UNL     1     -11.281   1.555   0.057  1.00  0.00    -0.248 NA
ATOM     36  C   UNL     1      -9.932   2.960  -1.218  1.00  0.00     0.031 C 
ATOM     37  C   UNL     1      -9.676  -2.007  -2.104  1.00  0.00     0.029 A 
ATOM     38  N   UNL     1     -11.102  -1.312  -0.531  1.00  0.00    -0.354 N 
ATOM     39  C   UNL     1     -11.405   2.863   0.516  1.00  0.00     0.074 A 
ATOM     40  C   UNL     1     -10.476   3.667  -0.239  1.00  0.00     0.031 C 
ATOM     41  C   UNL     1     -10.314  -3.090  -1.637  1.00  0.00     0.029 A 
ATOM     42  C   UNL     1     -11.268  -2.676  -0.612  1.00  0.00     0.049 A 
ATOM     43  H   UNL     1     -11.573  -0.749   0.125  1.00  0.00     0.167 HD
ATOM     44  C   UNL     1     -12.257   3.366   1.441  1.00  0.00     0.031 A 
ATOM     45  C   UNL     1     -12.110  -3.506   0.039  1.00  0.00     0.031 A 
ATOM     46  C   UNL     1     -13.223   2.569   2.149  1.00  0.00     0.049 A 
ATOM     47  C   UNL     1     -13.083  -2.925   1.026  1.00  0.00     0.074 A 
ATOM     48  C   UNL     1     -14.187   2.992   3.046  1.00  0.00     0.029 A 
ATOM     49  N   UNL     1     -13.361   1.195   2.027  1.00  0.00    -0.354 N 
ATOM     50  N   UNL     1     -13.247  -1.671   1.375  1.00  0.00    -0.248 NA
ATOM     51  C   UNL     1     -13.995  -3.862   1.698  1.00  0.00     0.031 C 
ATOM     52  C   UNL     1     -14.866   1.867   3.515  1.00  0.00     0.029 A 
ATOM     53  C   UNL     1     -14.380   0.751   2.851  1.00  0.00     0.049 A 
ATOM     54  H   UNL     1     -12.816   0.621   1.442  1.00  0.00     0.167 HD
ATOM     55  C   UNL     1     -14.289  -1.665   2.296  1.00  0.00     0.074 A 
ATOM     56  C   UNL     1     -14.734  -3.037   2.431  1.00  0.00     0.031 C 
ATOM     57  C   UNL     1     -14.819  -0.618   2.972  1.00  0.00     0.031 A 
BRANCH  44  58
ATOM     58  C   UNL     1     -12.242   4.854   1.704  1.00  0.00    -0.014 A 
ATOM     59  C   UNL     1     -11.922   5.345   2.983  1.00  0.00     0.010 A 
ATOM     60  C   UNL     1     -12.668   5.761   0.716  1.00  0.00     0.010 A 
ATOM     61  C   UNL     1     -12.062   6.705   3.280  1.00  0.00     0.020 A 
ATOM     62  C   UNL     1     -12.774   7.127   0.996  1.00  0.00     0.020 A 
ATOM     63  C   UNL     1     -12.497   7.585   2.285  1.00  0.00     0.054 A 
BRANCH  63  64
ATOM     64  S   UNL     1     -12.714   9.339   2.697  1.00  0.00     0.124 S 
ATOM     65  O   UNL     1     -13.930   9.318   3.504  1.00  0.00    -0.237 OA
ATOM     66  O   UNL     1     -11.482   9.652   3.418  1.00  0.00    -0.237 OA
ATOM     67  O   UNL     1     -12.841   9.984   1.392  1.00  0.00    -0.744 OA
ENDBRANCH  63  64
ENDBRANCH  44  58
BRANCH  45  68
ATOM     68  C   UNL     1     -12.111  -4.957  -0.308  1.00  0.00    -0.014 A 
ATOM     69  C   UNL     1     -10.991  -5.763  -0.026  1.00  0.00     0.010 A 
ATOM     70  C   UNL     1     -13.186  -5.515  -1.024  1.00  0.00     0.010 A 
ATOM     71  C   UNL     1     -10.916  -7.072  -0.511  1.00  0.00     0.020 A 
ATOM     72  C   UNL     1     -13.130  -6.836  -1.481  1.00  0.00     0.020 A 
ATOM     73  C   UNL     1     -11.980  -7.594  -1.252  1.00  0.00     0.054 A 
BRANCH  73  74
ATOM     74  S   UNL     1     -11.825  -9.267  -1.938  1.00  0.00     0.124 S 
ATOM     75  O   UNL     1     -10.888  -9.054  -3.037  1.00  0.00    -0.237 OA
ATOM     76  O   UNL     1     -11.305 -10.029  -0.806  1.00  0.00    -0.237 OA
ATOM     77  O   UNL     1     -13.190  -9.602  -2.336  1.00  0.00    -0.744 OA
ENDBRANCH  73  74
ENDBRANCH  45  68
BRANCH  57  78
ATOM     78  C   UNL     1     -15.945  -0.884   3.937  1.00  0.00    -0.014 A 
ATOM     79  C   UNL     1     -17.220  -0.341   3.687  1.00  0.00     0.010 A 
ATOM     80  C   UNL     1     -15.702  -1.527   5.163  1.00  0.00     0.010 A 
ATOM     81  C   UNL     1     -18.216  -0.391   4.665  1.00  0.00     0.020 A 
ATOM     82  C   UNL     1     -16.707  -1.610   6.130  1.00  0.00     0.020 A 
ATOM     83  C   UNL     1     -17.947  -1.014   5.886  1.00  0.00     0.054 A 
BRANCH  83  84
ATOM     84  S   UNL     1     -19.233  -1.019   7.165  1.00  0.00     0.124 S 
ATOM     85  O   UNL     1     -19.204   0.362   7.636  1.00  0.00    -0.237 OA
ATOM     86  O   UNL     1     -20.427  -1.405   6.416  1.00  0.00    -0.237 OA
ATOM     87  O   UNL     1     -18.761  -2.016   8.123  1.00  0.00    -0.744 OA
ENDBRANCH  83  84
ENDBRANCH  57  78
ENDBRANCH  31  32
ENDBRANCH  24  26
ENDBRANCH  23  24
ENDBRANCH   1  23
TORSDOF 16
