REMARK SMILES O=C(OCCOC(=O)[C@H]1CCC(=O)N(C2CCCCC2)[C@H]1c1ccccc1)c1ccc(-c2c3nc(c(-c4ccc(S(=O)(=O)[O-])cc4)c4ccc([nH]4)c(-c4ccc(S(=O)(=O)[O-])cc4)c4nc(c(-c5ccc(S(=O)(=O)[O-])cc5)c5ccc2[nH]5)C=C4)C=C3)cc1
REMARK SMILES IDX 4 1 3 2 2 3 1 4 28 5 29 6 87 7 30 8 86 9 31 10 32 11 33 12
REMARK SMILES IDX 80 13 34 14 85 15 79 16 81 17 35 18 84 19 78 20 77 21 36 23
REMARK SMILES IDX 66 24 47 25 65 26 48 27 51 28 64 29 82 30 49 31 50 32 63 34
REMARK SMILES IDX 83 35 52 36 37 37 38 38 46 39 39 40 45 41 40 42 41 43 42 44
REMARK SMILES IDX 43 45 44 46 67 47 68 48 76 49 69 50 75 51 70 52 71 53 72 54
REMARK SMILES IDX 73 55 74 56 53 57 54 58 62 59 55 60 61 61 56 62 57 63 58 64
REMARK SMILES IDX 59 65 60 66 5 67 6 68 7 69 8 70 9 71 10 72 21 73 11 74 14 75
REMARK SMILES IDX 12 76 13 77 22 78 23 79 27 80 24 81 26 82 25 83 15 84 16 85
REMARK SMILES IDX 20 86 17 87 19 88 18 89
REMARK H PARENT 81 22 51 33
REMARK Flexibility Score: inf
ROOT
ATOM      1  C   UNL     1      -0.931  -2.355   0.102  1.00  0.00     0.275 C 
ENDROOT
BRANCH   1   2
ATOM      2  O   UNL     1       0.167  -1.998  -0.757  1.00  0.00    -0.458 OA
BRANCH   2   3
ATOM      3  C   UNL     1       0.877  -0.846  -0.830  1.00  0.00     0.338 C 
ATOM      4  O   UNL     1       1.732  -0.715  -1.703  1.00  0.00    -0.246 OA
BRANCH   3   5
ATOM      5  C   UNL     1       0.758   0.228   0.197  1.00  0.00     0.060 A 
ATOM      6  C   UNL     1      -0.440   0.631   0.791  1.00  0.00     0.016 A 
ATOM      7  C   UNL     1       1.942   0.888   0.565  1.00  0.00     0.016 A 
ATOM      8  C   UNL     1      -0.451   1.577   1.820  1.00  0.00     0.010 A 
ATOM      9  C   UNL     1       1.934   1.853   1.576  1.00  0.00     0.010 A 
ATOM     10  C   UNL     1       0.734   2.189   2.226  1.00  0.00    -0.014 A 
BRANCH  10  11
ATOM     11  C   UNL     1       0.683   3.312   3.190  1.00  0.00     0.031 A 
ATOM     12  C   UNL     1       0.742   4.697   2.622  1.00  0.00     0.074 A 
ATOM     13  C   UNL     1       0.518   3.126   4.516  1.00  0.00     0.049 A 
ATOM     14  N   UNL     1       0.566   5.832   3.239  1.00  0.00    -0.248 NA
ATOM     15  C   UNL     1       0.935   4.820   1.165  1.00  0.00     0.031 C 
ATOM     16  C   UNL     1       0.284   1.850   5.185  1.00  0.00     0.029 A 
ATOM     17  N   UNL     1       0.566   4.019   5.557  1.00  0.00    -0.354 N 
ATOM     18  C   UNL     1       0.505   6.785   2.235  1.00  0.00     0.074 A 
ATOM     19  C   UNL     1       0.795   6.123   0.985  1.00  0.00     0.031 C 
ATOM     20  C   UNL     1       0.400   2.006   6.515  1.00  0.00     0.029 A 
ATOM     21  C   UNL     1       0.600   3.417   6.797  1.00  0.00     0.049 A 
ATOM     22  H   UNL     1       0.574   4.995   5.431  1.00  0.00     0.167 HD
ATOM     23  C   UNL     1       0.151   8.083   2.346  1.00  0.00     0.031 A 
ATOM     24  C   UNL     1       0.745   3.950   8.024  1.00  0.00     0.031 A 
ATOM     25  C   UNL     1      -0.061   8.736   3.605  1.00  0.00     0.049 A 
ATOM     26  C   UNL     1       0.609   5.441   8.140  1.00  0.00     0.074 A 
ATOM     27  C   UNL     1      -0.387  10.056   3.849  1.00  0.00     0.029 A 
ATOM     28  N   UNL     1       0.066   8.115   4.841  1.00  0.00    -0.354 N 
ATOM     29  N   UNL     1       0.452   6.322   7.179  1.00  0.00    -0.248 NA
ATOM     30  C   UNL     1       0.552   6.001   9.494  1.00  0.00     0.031 C 
ATOM     31  C   UNL     1      -0.391  10.248   5.235  1.00  0.00     0.029 A 
ATOM     32  C   UNL     1      -0.133   9.033   5.854  1.00  0.00     0.049 A 
ATOM     33  H   UNL     1       0.269   7.160   4.975  1.00  0.00     0.167 HD
ATOM     34  C   UNL     1       0.199   7.529   7.812  1.00  0.00     0.074 A 
ATOM     35  C   UNL     1       0.235   7.263   9.238  1.00  0.00     0.031 C 
ATOM     36  C   UNL     1      -0.072   8.741   7.265  1.00  0.00     0.031 A 
BRANCH  23  37
ATOM     37  C   UNL     1      -0.034   8.841   1.065  1.00  0.00    -0.014 A 
ATOM     38  C   UNL     1      -1.135   8.565   0.229  1.00  0.00     0.010 A 
ATOM     39  C   UNL     1       0.892   9.822   0.680  1.00  0.00     0.010 A 
ATOM     40  C   UNL     1      -1.290   9.239  -0.983  1.00  0.00     0.020 A 
ATOM     41  C   UNL     1       0.728  10.515  -0.523  1.00  0.00     0.020 A 
ATOM     42  C   UNL     1      -0.356  10.211  -1.351  1.00  0.00     0.054 A 
BRANCH  42  43
ATOM     43  S   UNL     1      -0.597  11.092  -2.917  1.00  0.00     0.124 S 
ATOM     44  O   UNL     1      -0.314  10.047  -3.899  1.00  0.00    -0.237 OA
ATOM     45  O   UNL     1      -1.994  11.512  -2.833  1.00  0.00    -0.237 OA
ATOM     46  O   UNL     1       0.381  12.175  -2.861  1.00  0.00    -0.744 OA
ENDBRANCH  42  43
ENDBRANCH  23  37
BRANCH  24  47
ATOM     47  C   UNL     1       0.944   3.085   9.223  1.00  0.00    -0.014 A 
ATOM     48  C   UNL     1      -0.070   2.906  10.180  1.00  0.00     0.010 A 
ATOM     49  C   UNL     1       2.186   2.453   9.428  1.00  0.00     0.010 A 
ATOM     50  C   UNL     1       0.167   2.154  11.337  1.00  0.00     0.020 A 
ATOM     51  C   UNL     1       2.422   1.685  10.575  1.00  0.00     0.020 A 
ATOM     52  C   UNL     1       1.415   1.554  11.532  1.00  0.00     0.054 A 
BRANCH  52  53
ATOM     53  S   UNL     1       1.693   0.589  13.046  1.00  0.00     0.124 S 
ATOM     54  O   UNL     1       1.679   1.624  14.075  1.00  0.00    -0.237 OA
ATOM     55  O   UNL     1       0.550  -0.322  13.050  1.00  0.00    -0.237 OA
ATOM     56  O   UNL     1       2.987  -0.049  12.817  1.00  0.00    -0.744 OA
ENDBRANCH  52  53
ENDBRANCH  24  47
BRANCH  36  57
ATOM     57  C   UNL     1      -0.374   9.860   8.220  1.00  0.00    -0.014 A 
ATOM     58  C   UNL     1       0.626  10.401   9.045  1.00  0.00     0.010 A 
ATOM     59  C   UNL     1      -1.675  10.395   8.267  1.00  0.00     0.010 A 
ATOM     60  C   UNL     1       0.319  11.428   9.938  1.00  0.00     0.020 A 
ATOM     61  C   UNL     1      -1.976  11.448   9.131  1.00  0.00     0.020 A 
ATOM     62  C   UNL     1      -0.980  11.943   9.975  1.00  0.00     0.054 A 
BRANCH  62  63
ATOM     63  S   UNL     1      -1.344  13.297  11.123  1.00  0.00     0.124 S 
ATOM     64  O   UNL     1      -1.373  12.604  12.408  1.00  0.00    -0.237 OA
ATOM     65  O   UNL     1      -0.215  14.201  10.920  1.00  0.00    -0.237 OA
ATOM     66  O   UNL     1      -2.633  13.806  10.660  1.00  0.00    -0.744 OA
ENDBRANCH  62  63
ENDBRANCH  36  57
ENDBRANCH  10  11
ENDBRANCH   3   5
ENDBRANCH   2   3
ENDBRANCH   1   2
BRANCH   1  67
ATOM     67  C   UNL     1      -0.570  -2.834   1.510  1.00  0.00     0.274 C 
BRANCH  67  68
ATOM     68  O   UNL     1       0.401  -2.037   2.200  1.00  0.00    -0.462 OA
BRANCH  68  69
ATOM     69  C   UNL     1       1.703  -2.400   2.019  1.00  0.00     0.311 C 
ATOM     70  O   UNL     1       2.071  -3.235   1.206  1.00  0.00    -0.252 OA
BRANCH  69  71
ATOM     71  C   UNL     1       2.667  -1.605   2.885  1.00  0.00     0.127 C 
ATOM     72  C   UNL     1       2.010  -0.759   3.959  1.00  0.00     0.028 C 
ATOM     73  C   UNL     1       3.748  -2.467   3.555  1.00  0.00     0.130 C 
ATOM     74  C   UNL     1       3.022   0.189   4.566  1.00  0.00     0.101 C 
ATOM     75  N   UNL     1       4.736  -1.587   4.238  1.00  0.00    -0.332 N 
ATOM     76  C   UNL     1       4.401  -0.361   4.806  1.00  0.00     0.223 C 
ATOM     77  O   UNL     1       5.199   0.337   5.432  1.00  0.00    -0.275 OA
BRANCH  73  78
ATOM     78  C   UNL     1       3.154  -3.546   4.470  1.00  0.00    -0.025 A 
ATOM     79  C   UNL     1       3.096  -3.411   5.865  1.00  0.00     0.006 A 
ATOM     80  C   UNL     1       2.564  -4.692   3.903  1.00  0.00     0.006 A 
ATOM     81  C   UNL     1       2.463  -4.372   6.657  1.00  0.00     0.000 A 
ATOM     82  C   UNL     1       1.888  -5.627   4.688  1.00  0.00     0.000 A 
ATOM     83  C   UNL     1       1.842  -5.470   6.067  1.00  0.00     0.000 A 
ENDBRANCH  73  78
BRANCH  75  84
ATOM     84  C   UNL     1       6.123  -2.070   4.382  1.00  0.00     0.085 C 
ATOM     85  C   UNL     1       7.122  -1.137   3.664  1.00  0.00     0.025 C 
ATOM     86  C   UNL     1       6.503  -2.322   5.854  1.00  0.00     0.025 C 
ATOM     87  C   UNL     1       8.571  -1.561   3.877  1.00  0.00     0.002 C 
ATOM     88  C   UNL     1       7.961  -2.730   6.015  1.00  0.00     0.002 C 
ATOM     89  C   UNL     1       8.894  -1.722   5.358  1.00  0.00     0.000 C 
ENDBRANCH  75  84
ENDBRANCH  69  71
ENDBRANCH  68  69
ENDBRANCH  67  68
ENDBRANCH   1  67
TORSDOF 16
