REMARK SMILES C[C@H]1C[N@H+]2CCCC[C@@H]2CN1c1ccc(C(=O)OCCOC(=O)c2ccc(-c3c4nc(c(-c5ccc(S(=O)(=O)[O-])cc5)c5ccc([nH]5)c(-c5ccc(S(=O)(=O)[O-])cc5)c5nc(c(-c6ccc(S(=O)(=O)[O-])cc6)c6ccc3[nH]6)C=C5)C=C4)cc2)cc1Cl
REMARK SMILES IDX 20 1 19 2 18 3 16 4 17 5 15 6 12 7 13 8 85 9 14 10 84 11
REMARK SMILES IDX 86 12 11 13 1 14 2 15 3 16 4 17 10 18 5 19 9 20 6 22 8 23
REMARK SMILES IDX 7 24 21 25 22 26 23 27 24 28 25 29 83 30 26 31 82 32 27 33
REMARK SMILES IDX 28 34 29 35 76 36 30 37 81 38 75 39 77 40 31 41 80 42 74 43
REMARK SMILES IDX 73 44 32 46 62 47 43 48 61 49 44 50 47 51 60 52 78 53 45 54
REMARK SMILES IDX 46 55 59 57 79 58 48 59 33 60 34 61 42 62 35 63 41 64 36 65
REMARK SMILES IDX 37 66 38 67 39 68 40 69 63 70 64 71 72 72 65 73 71 74 66 75
REMARK SMILES IDX 67 76 68 77 69 78 70 79 49 80 50 81 58 82 51 83 57 84 52 85
REMARK SMILES IDX 53 86 54 87 55 88 56 89
REMARK H PARENT 4 21 77 45 47 56
REMARK Flexibility Score: inf
ROOT
ATOM      1  C   UNL     1       0.180   4.502   6.523  1.00  0.00     0.275 C 
ENDROOT
BRANCH   1   2
ATOM      2  C   UNL     1      -0.494   3.219   7.011  1.00  0.00     0.275 C 
BRANCH   2   3
ATOM      3  O   UNL     1      -0.301   2.140   6.075  1.00  0.00    -0.458 OA
BRANCH   3   4
ATOM      4  C   UNL     1      -1.376   1.817   5.307  1.00  0.00     0.338 C 
ATOM      5  O   UNL     1      -2.475   2.324   5.349  1.00  0.00    -0.246 OA
BRANCH   4   6
ATOM      6  C   UNL     1      -0.989   0.803   4.291  1.00  0.00     0.061 A 
ATOM      7  C   UNL     1      -0.211  -0.972   2.231  1.00  0.00     0.056 A 
ATOM      8  C   UNL     1      -1.242  -0.049   2.030  1.00  0.00     0.028 A 
ATOM      9  C   UNL     1       0.378  -1.025   3.518  1.00  0.00     0.065 A 
ATOM     10  C   UNL     1      -1.648   0.808   3.055  1.00  0.00     0.018 A 
ATOM     11  C   UNL     1       0.009  -0.136   4.533  1.00  0.00     0.038 A 
ATOM     12  Cl  UNL     1       1.611  -2.185   3.902  1.00  0.00    -0.082 Cl
BRANCH   7  13
ATOM     13  N   UNL     1       0.183  -1.829   1.215  1.00  0.00    -0.356 N 
ATOM     14  C   UNL     1       1.196  -0.059  -0.265  1.00  0.00     0.037 C 
ATOM     15  C   UNL     1       0.467  -1.406  -0.176  1.00  0.00     0.134 C 
ATOM     16  C   UNL     1       1.379  -2.487  -0.857  1.00  0.00     0.287 C 
ATOM     17  N   UNL     1       0.975  -3.909  -0.684  1.00  0.00    -0.329 N 
ATOM     18  C   UNL     1      -0.395  -3.181   1.293  1.00  0.00     0.182 C 
ATOM     19  C   UNL     1       2.076  -4.793  -1.109  1.00  0.00     0.262 C 
ATOM     20  C   UNL     1       0.639  -4.180   0.738  1.00  0.00     0.203 C 
ATOM     21  H   UNL     1       0.152  -4.090  -1.259  1.00  0.00     0.348 HD
ATOM     22  C   UNL     1       1.706  -6.271  -0.960  1.00  0.00     0.062 C 
ATOM     23  C   UNL     1       0.123  -5.617   0.876  1.00  0.00     0.067 C 
ATOM     24  C   UNL     1       1.202  -6.603   0.441  1.00  0.00     0.012 C 
ENDBRANCH   7  13
ENDBRANCH   4   6
ENDBRANCH   3   4
ENDBRANCH   2   3
ENDBRANCH   1   2
BRANCH   1  25
ATOM     25  O   UNL     1      -0.469   4.992   5.336  1.00  0.00    -0.458 OA
BRANCH  25  26
ATOM     26  C   UNL     1       0.248   4.885   4.194  1.00  0.00     0.338 C 
ATOM     27  O   UNL     1       1.387   4.469   4.066  1.00  0.00    -0.246 OA
BRANCH  26  28
ATOM     28  C   UNL     1      -0.585   5.290   3.053  1.00  0.00     0.060 A 
ATOM     29  C   UNL     1      -1.528   4.385   2.576  1.00  0.00     0.016 A 
ATOM     30  C   UNL     1      -0.351   6.481   2.372  1.00  0.00     0.016 A 
ATOM     31  C   UNL     1      -2.186   4.620   1.373  1.00  0.00     0.010 A 
ATOM     32  C   UNL     1      -1.089   6.764   1.213  1.00  0.00     0.010 A 
ATOM     33  C   UNL     1      -1.995   5.825   0.683  1.00  0.00    -0.014 A 
BRANCH  33  34
ATOM     34  C   UNL     1      -2.734   6.094  -0.586  1.00  0.00     0.031 A 
ATOM     35  C   UNL     1      -1.981   6.399  -1.858  1.00  0.00     0.074 A 
ATOM     36  C   UNL     1      -4.083   6.066  -0.606  1.00  0.00     0.049 A 
ATOM     37  N   UNL     1      -2.440   6.829  -3.006  1.00  0.00    -0.248 NA
ATOM     38  C   UNL     1      -0.522   6.206  -1.832  1.00  0.00     0.031 C 
ATOM     39  C   UNL     1      -4.944   5.735   0.533  1.00  0.00     0.029 A 
ATOM     40  N   UNL     1      -4.972   6.318  -1.624  1.00  0.00    -0.354 N 
ATOM     41  C   UNL     1      -1.325   7.012  -3.819  1.00  0.00     0.074 A 
ATOM     42  C   UNL     1      -0.167   6.650  -3.031  1.00  0.00     0.031 C 
ATOM     43  C   UNL     1      -6.227   5.768   0.143  1.00  0.00     0.029 A 
ATOM     44  C   UNL     1      -6.291   6.222  -1.240  1.00  0.00     0.049 A 
ATOM     45  H   UNL     1      -4.693   6.545  -2.540  1.00  0.00     0.167 HD
ATOM     46  C   UNL     1      -1.273   7.447  -5.102  1.00  0.00     0.031 A 
ATOM     47  C   UNL     1      -7.428   6.516  -1.900  1.00  0.00     0.031 A 
ATOM     48  C   UNL     1      -2.432   7.776  -5.891  1.00  0.00     0.049 A 
ATOM     49  C   UNL     1      -7.343   7.058  -3.298  1.00  0.00     0.074 A 
ATOM     50  C   UNL     1      -2.483   8.207  -7.206  1.00  0.00     0.029 A 
ATOM     51  N   UNL     1      -3.743   7.705  -5.444  1.00  0.00    -0.354 N 
ATOM     52  N   UNL     1      -6.279   7.258  -4.038  1.00  0.00    -0.248 NA
ATOM     53  C   UNL     1      -8.608   7.433  -3.944  1.00  0.00     0.031 C 
ATOM     54  C   UNL     1      -3.821   8.449  -7.536  1.00  0.00     0.029 A 
ATOM     55  C   UNL     1      -4.608   8.110  -6.447  1.00  0.00     0.049 A 
ATOM     56  H   UNL     1      -4.019   7.410  -4.546  1.00  0.00     0.167 HD
ATOM     57  C   UNL     1      -6.748   7.772  -5.241  1.00  0.00     0.074 A 
ATOM     58  C   UNL     1      -8.192   7.830  -5.138  1.00  0.00     0.031 C 
ATOM     59  C   UNL     1      -6.044   8.165  -6.330  1.00  0.00     0.031 A 
BRANCH  46  60
ATOM     60  C   UNL     1       0.087   7.641  -5.725  1.00  0.00    -0.014 A 
ATOM     61  C   UNL     1       0.898   6.551  -6.085  1.00  0.00     0.010 A 
ATOM     62  C   UNL     1       0.538   8.946  -6.002  1.00  0.00     0.010 A 
ATOM     63  C   UNL     1       2.149   6.763  -6.672  1.00  0.00     0.020 A 
ATOM     64  C   UNL     1       1.776   9.162  -6.615  1.00  0.00     0.020 A 
ATOM     65  C   UNL     1       2.582   8.067  -6.930  1.00  0.00     0.054 A 
BRANCH  65  66
ATOM     66  S   UNL     1       4.202   8.312  -7.710  1.00  0.00     0.124 S 
ATOM     67  O   UNL     1       5.114   7.976  -6.620  1.00  0.00    -0.237 OA
ATOM     68  O   UNL     1       4.171   7.360  -8.818  1.00  0.00    -0.237 OA
ATOM     69  O   UNL     1       4.192   9.719  -8.101  1.00  0.00    -0.744 OA
ENDBRANCH  65  66
ENDBRANCH  46  60
BRANCH  47  70
ATOM     70  C   UNL     1      -8.743   6.368  -1.213  1.00  0.00    -0.014 A 
ATOM     71  C   UNL     1      -9.662   5.387  -1.623  1.00  0.00     0.010 A 
ATOM     72  C   UNL     1      -9.072   7.199  -0.125  1.00  0.00     0.010 A 
ATOM     73  C   UNL     1     -10.886   5.244  -0.962  1.00  0.00     0.020 A 
ATOM     74  C   UNL     1     -10.279   7.037   0.559  1.00  0.00     0.020 A 
ATOM     75  C   UNL     1     -11.184   6.066   0.129  1.00  0.00     0.054 A 
BRANCH  75  76
ATOM     76  S   UNL     1     -12.751   5.821   1.010  1.00  0.00     0.124 S 
ATOM     77  O   UNL     1     -13.717   6.387   0.074  1.00  0.00    -0.237 OA
ATOM     78  O   UNL     1     -12.800   4.370   1.171  1.00  0.00    -0.237 OA
ATOM     79  O   UNL     1     -12.566   6.571   2.251  1.00  0.00    -0.744 OA
ENDBRANCH  75  76
ENDBRANCH  47  70
BRANCH  59  80
ATOM     80  C   UNL     1      -6.825   8.669  -7.514  1.00  0.00    -0.014 A 
ATOM     81  C   UNL     1      -7.434   9.936  -7.496  1.00  0.00     0.010 A 
ATOM     82  C   UNL     1      -6.896   7.888  -8.682  1.00  0.00     0.010 A 
ATOM     83  C   UNL     1      -8.118  10.405  -8.620  1.00  0.00     0.020 A 
ATOM     84  C   UNL     1      -7.557   8.365  -9.816  1.00  0.00     0.020 A 
ATOM     85  C   UNL     1      -8.172   9.618  -9.775  1.00  0.00     0.054 A 
BRANCH  85  86
ATOM     86  S   UNL     1      -9.014  10.276 -11.240  1.00  0.00     0.124 S 
ATOM     87  O   UNL     1     -10.419  10.183 -10.851  1.00  0.00    -0.237 OA
ATOM     88  O   UNL     1      -8.477  11.631 -11.337  1.00  0.00    -0.237 OA
ATOM     89  O   UNL     1      -8.604   9.371 -12.312  1.00  0.00    -0.744 OA
ENDBRANCH  85  86
ENDBRANCH  59  80
ENDBRANCH  33  34
ENDBRANCH  26  28
ENDBRANCH  25  26
ENDBRANCH   1  25
TORSDOF 15
