REMARK SMILES O=C(OCCOC(=O)[C@@]12CCC[C@@H](C[NH2+]1)C2)c1ccc(-c2c3nc(c(-c4ccc(S(=O)(=O)[O-])cc4)c4ccc([nH]4)c(-c4ccc(S(=O)(=O)[O-])cc4)c4nc(c(-c5ccc(S(=O)(=O)[O-])cc5)c5ccc2[nH]5)C=C4)C=C3)cc1
REMARK SMILES IDX 3 1 2 2 1 3 17 4 18 5 76 6 19 7 75 8 20 9 21 10 22 11 69 12
REMARK SMILES IDX 23 13 74 14 68 15 70 16 24 17 73 18 67 19 66 20 25 22 55 23
REMARK SMILES IDX 36 24 54 25 37 26 40 27 53 28 71 29 38 30 39 31 52 33 72 34
REMARK SMILES IDX 41 35 26 36 27 37 35 38 28 39 34 40 29 41 30 42 31 43 32 44
REMARK SMILES IDX 33 45 56 46 57 47 65 48 58 49 64 50 59 51 60 52 61 53 62 54
REMARK SMILES IDX 63 55 42 56 43 57 51 58 44 59 50 60 45 61 46 62 47 63 48 64
REMARK SMILES IDX 49 65 4 66 5 67 6 68 7 69 8 70 9 71 10 72 15 73 16 74 11 75
REMARK SMILES IDX 14 76 13 79 12 80
REMARK H PARENT 70 21 40 32 15 77 15 78
REMARK Flexibility Score: inf
ROOT
ATOM      1  O   UNL     1       2.918   0.653  -1.017  1.00  0.00    -0.458 OA
ENDROOT
BRANCH   1   2
ATOM      2  C   UNL     1       2.977  -0.703  -1.003  1.00  0.00     0.338 C 
ATOM      3  O   UNL     1       2.130  -1.337  -1.631  1.00  0.00    -0.246 OA
BRANCH   2   4
ATOM      4  C   UNL     1       3.922  -1.463  -0.123  1.00  0.00     0.060 A 
ATOM      5  C   UNL     1       5.200  -1.052   0.267  1.00  0.00     0.016 A 
ATOM      6  C   UNL     1       3.428  -2.659   0.419  1.00  0.00     0.016 A 
ATOM      7  C   UNL     1       5.883  -1.696   1.305  1.00  0.00     0.010 A 
ATOM      8  C   UNL     1       4.104  -3.299   1.463  1.00  0.00     0.010 A 
ATOM      9  C   UNL     1       5.316  -2.791   1.956  1.00  0.00    -0.014 A 
BRANCH   9  10
ATOM     10  C   UNL     1       6.019  -3.437   3.095  1.00  0.00     0.031 A 
ATOM     11  C   UNL     1       6.511  -4.844   2.915  1.00  0.00     0.074 A 
ATOM     12  C   UNL     1       6.218  -2.789   4.266  1.00  0.00     0.049 A 
ATOM     13  N   UNL     1       7.218  -5.577   3.733  1.00  0.00    -0.248 NA
ATOM     14  C   UNL     1       6.167  -5.515   1.649  1.00  0.00     0.031 C 
ATOM     15  C   UNL     1       5.764  -1.430   4.587  1.00  0.00     0.029 A 
ATOM     16  N   UNL     1       6.839  -3.195   5.425  1.00  0.00    -0.354 N 
ATOM     17  C   UNL     1       7.452  -6.762   3.049  1.00  0.00     0.074 A 
ATOM     18  C   UNL     1       6.689  -6.715   1.826  1.00  0.00     0.031 C 
ATOM     19  C   UNL     1       6.078  -1.139   5.863  1.00  0.00     0.029 A 
ATOM     20  C   UNL     1       6.793  -2.268   6.446  1.00  0.00     0.049 A 
ATOM     21  H   UNL     1       7.277  -4.072   5.518  1.00  0.00     0.167 HD
ATOM     22  C   UNL     1       8.305  -7.762   3.358  1.00  0.00     0.031 A 
ATOM     23  C   UNL     1       7.293  -2.317   7.698  1.00  0.00     0.031 A 
ATOM     24  C   UNL     1       9.050  -7.822   4.579  1.00  0.00     0.049 A 
ATOM     25  C   UNL     1       8.142  -3.507   8.080  1.00  0.00     0.074 A 
ATOM     26  C   UNL     1       9.945  -8.786   4.999  1.00  0.00     0.029 A 
ATOM     27  N   UNL     1       8.973  -6.870   5.584  1.00  0.00    -0.354 N 
ATOM     28  N   UNL     1       8.451  -4.562   7.362  1.00  0.00    -0.248 NA
ATOM     29  C   UNL     1       8.757  -3.487   9.415  1.00  0.00     0.031 C 
ATOM     30  C   UNL     1      10.375  -8.440   6.285  1.00  0.00     0.029 A 
ATOM     31  C   UNL     1       9.791  -7.231   6.637  1.00  0.00     0.049 A 
ATOM     32  H   UNL     1       8.418  -6.057   5.553  1.00  0.00     0.167 HD
ATOM     33  C   UNL     1       9.342  -5.299   8.135  1.00  0.00     0.074 A 
ATOM     34  C   UNL     1       9.525  -4.566   9.372  1.00  0.00     0.031 C 
ATOM     35  C   UNL     1       9.964  -6.470   7.848  1.00  0.00     0.031 A 
BRANCH  22  36
ATOM     36  C   UNL     1       8.492  -8.820   2.308  1.00  0.00    -0.014 A 
ATOM     37  C   UNL     1       9.145  -8.500   1.100  1.00  0.00     0.010 A 
ATOM     38  C   UNL     1       7.973 -10.110   2.490  1.00  0.00     0.010 A 
ATOM     39  C   UNL     1       9.222  -9.434   0.069  1.00  0.00     0.020 A 
ATOM     40  C   UNL     1       8.076 -11.060   1.468  1.00  0.00     0.020 A 
ATOM     41  C   UNL     1       8.682 -10.708   0.258  1.00  0.00     0.054 A 
BRANCH  41  42
ATOM     42  S   UNL     1       8.797 -11.901  -1.101  1.00  0.00     0.124 S 
ATOM     43  O   UNL     1       7.838 -11.359  -2.060  1.00  0.00    -0.237 OA
ATOM     44  O   UNL     1      10.200 -11.802  -1.494  1.00  0.00    -0.237 OA
ATOM     45  O   UNL     1       8.412 -13.168  -0.484  1.00  0.00    -0.744 OA
ENDBRANCH  41  42
ENDBRANCH  22  36
BRANCH  23  46
ATOM     46  C   UNL     1       7.063  -1.212   8.678  1.00  0.00    -0.014 A 
ATOM     47  C   UNL     1       8.122  -0.389   9.108  1.00  0.00     0.010 A 
ATOM     48  C   UNL     1       5.792  -1.026   9.253  1.00  0.00     0.010 A 
ATOM     49  C   UNL     1       7.929   0.554  10.127  1.00  0.00     0.020 A 
ATOM     50  C   UNL     1       5.588  -0.067  10.254  1.00  0.00     0.020 A 
ATOM     51  C   UNL     1       6.663   0.702  10.700  1.00  0.00     0.054 A 
BRANCH  51  52
ATOM     52  S   UNL     1       6.443   1.917  12.034  1.00  0.00     0.124 S 
ATOM     53  O   UNL     1       7.175   1.298  13.134  1.00  0.00    -0.237 OA
ATOM     54  O   UNL     1       7.050   3.119  11.466  1.00  0.00    -0.237 OA
ATOM     55  O   UNL     1       4.993   1.980  12.203  1.00  0.00    -0.744 OA
ENDBRANCH  51  52
ENDBRANCH  23  46
BRANCH  35  56
ATOM     56  C   UNL     1      10.940  -7.004   8.860  1.00  0.00    -0.014 A 
ATOM     57  C   UNL     1      10.506  -7.530  10.088  1.00  0.00     0.010 A 
ATOM     58  C   UNL     1      12.310  -7.041   8.540  1.00  0.00     0.010 A 
ATOM     59  C   UNL     1      11.430  -8.056  10.993  1.00  0.00     0.020 A 
ATOM     60  C   UNL     1      13.232  -7.598   9.427  1.00  0.00     0.020 A 
ATOM     61  C   UNL     1      12.786  -8.089  10.655  1.00  0.00     0.054 A 
BRANCH  61  62
ATOM     62  S   UNL     1      13.958  -8.826  11.825  1.00  0.00     0.124 S 
ATOM     63  O   UNL     1      14.040  -7.799  12.859  1.00  0.00    -0.237 OA
ATOM     64  O   UNL     1      13.284 -10.062  12.217  1.00  0.00    -0.237 OA
ATOM     65  O   UNL     1      15.171  -9.010  11.030  1.00  0.00    -0.744 OA
ENDBRANCH  61  62
ENDBRANCH  35  56
ENDBRANCH   9  10
ENDBRANCH   2   4
ENDBRANCH   1   2
BRANCH   1  66
ATOM     66  C   UNL     1       3.921   1.603  -0.620  1.00  0.00     0.275 C 
BRANCH  66  67
ATOM     67  C   UNL     1       3.892   2.002   0.862  1.00  0.00     0.274 C 
BRANCH  67  68
ATOM     68  O   UNL     1       3.339   0.976   1.702  1.00  0.00    -0.457 OA
BRANCH  68  69
ATOM     69  C   UNL     1       2.311   1.353   2.532  1.00  0.00     0.368 C 
ATOM     70  O   UNL     1       1.948   2.507   2.692  1.00  0.00    -0.245 OA
BRANCH  69  71
ATOM     71  C   UNL     1       1.645   0.135   3.224  1.00  0.00     0.194 C 
ATOM     72  C   UNL     1       0.120   0.158   2.984  1.00  0.00     0.081 C 
ATOM     73  N   UNL     1       2.162  -1.155   2.685  1.00  0.00    -0.332 N 
ATOM     74  C   UNL     1       1.953   0.004   4.711  1.00  0.00     0.090 C 
ATOM     75  C   UNL     1      -0.681  -0.498   4.115  1.00  0.00     0.008 C 
ATOM     76  C   UNL     1       2.265  -2.117   3.791  1.00  0.00     0.265 C 
ATOM     77  H   UNL     1       3.081  -1.010   2.268  1.00  0.00     0.347 HD
ATOM     78  H   UNL     1       1.528  -1.513   1.970  1.00  0.00     0.347 HD
ATOM     79  C   UNL     1       1.541  -1.453   4.942  1.00  0.00     0.051 C 
ATOM     80  C   UNL     1       0.028  -1.686   4.758  1.00  0.00     0.010 C 
ENDBRANCH  69  71
ENDBRANCH  68  69
ENDBRANCH  67  68
ENDBRANCH  66  67
ENDBRANCH   1  66
TORSDOF 14
