REMARK SMILES CCn1nc(C(C)C)cc1C(=O)N[C@@H](CC(N)=O)C(=O)OCCOC(=O)c1ccc(-c2c3nc(c(-c4ccc(S(=O)(=O)[O-])cc4)c4ccc([nH]4)c(-c4ccc(S(=O)(=O)[O-])cc4)c4nc(c(-c5ccc(S(=O)(=O)[O-])cc5)c5ccc2[nH]5)C=C4)C=C3)cc1
REMARK SMILES IDX 22 1 21 2 19 3 20 4 14 5 13 6 11 7 12 8 10 10 3 11 4 12 5 13
REMARK SMILES IDX 9 14 2 15 1 16 6 17 7 18 8 19 15 20 16 21 17 22 18 23 23 26
REMARK SMILES IDX 24 27 25 28 26 29 27 30 28 31 86 32 29 33 85 34 30 35 31 36
REMARK SMILES IDX 32 37 79 38 33 39 84 40 78 41 80 42 34 43 83 44 77 45 76 46
REMARK SMILES IDX 35 48 65 49 46 50 64 51 47 52 50 53 63 54 81 55 48 56 49 57
REMARK SMILES IDX 62 59 82 60 51 61 36 62 37 63 45 64 38 65 44 66 39 67 40 68
REMARK SMILES IDX 41 69 42 70 43 71 66 72 67 73 75 74 68 75 74 76 69 77 70 78
REMARK SMILES IDX 71 79 72 80 73 81 52 82 53 83 61 84 54 85 60 86 55 87 56 88
REMARK SMILES IDX 57 89 58 90 59 91
REMARK H PARENT 13 9 17 24 17 25 80 47 50 58
REMARK Flexibility Score: inf
ROOT
ATOM      1  C   UNL     1       3.973  -7.840   4.703  1.00  0.00     0.274 C 
ENDROOT
BRANCH   1   2
ATOM      2  O   UNL     1       2.796  -7.049   4.449  1.00  0.00    -0.461 OA
BRANCH   2   3
ATOM      3  C   UNL     1       2.599  -6.012   5.302  1.00  0.00     0.329 C 
ATOM      4  O   UNL     1       3.177  -5.886   6.382  1.00  0.00    -0.250 OA
BRANCH   3   5
ATOM      5  C   UNL     1       1.446  -5.078   4.904  1.00  0.00     0.201 C 
BRANCH   5   6
ATOM      6  N   UNL     1       1.018  -4.982   3.507  1.00  0.00    -0.337 N 
ATOM      7  C   UNL     1       0.702  -3.909   2.699  1.00  0.00     0.270 C 
ATOM      8  O   UNL     1       0.276  -4.190   1.578  1.00  0.00    -0.268 OA
ATOM      9  H   UNL     1       0.942  -5.853   3.055  1.00  0.00     0.164 HD
BRANCH   7  10
ATOM     10  C   UNL     1       0.888  -2.529   3.124  1.00  0.00     0.126 A 
ATOM     11  N   UNL     1       0.952  -1.449   2.247  1.00  0.00    -0.260 N 
ATOM     12  N   UNL     1       1.298  -0.290   2.850  1.00  0.00    -0.177 NA
ATOM     13  C   UNL     1       1.385  -0.591   4.142  1.00  0.00     0.066 A 
ATOM     14  C   UNL     1       1.018  -1.933   4.369  1.00  0.00     0.059 A 
BRANCH  11  15
ATOM     15  C   UNL     1       0.667  -1.443   0.816  1.00  0.00     0.142 C 
ATOM     16  C   UNL     1       0.996  -0.143   0.083  1.00  0.00     0.029 C 
ENDBRANCH  11  15
BRANCH  13  17
ATOM     17  C   UNL     1       1.824   0.421   5.161  1.00  0.00     0.034 C 
ATOM     18  C   UNL     1       3.051   1.219   4.708  1.00  0.00     0.014 C 
ATOM     19  C   UNL     1       0.685   1.358   5.559  1.00  0.00     0.014 C 
ENDBRANCH  13  17
ENDBRANCH   7  10
ENDBRANCH   5   6
BRANCH   5  20
ATOM     20  C   UNL     1       0.251  -5.452   5.785  1.00  0.00     0.136 C 
BRANCH  20  21
ATOM     21  C   UNL     1      -0.050  -6.932   5.666  1.00  0.00     0.220 C 
ATOM     22  N   UNL     1       0.522  -7.728   6.614  1.00  0.00    -0.370 N 
ATOM     23  O   UNL     1      -0.710  -7.420   4.756  1.00  0.00    -0.275 OA
ATOM     24  H   UNL     1       1.051  -7.326   7.341  1.00  0.00     0.159 HD
ATOM     25  H   UNL     1       0.407  -8.705   6.572  1.00  0.00     0.159 HD
ENDBRANCH  20  21
ENDBRANCH   5  20
ENDBRANCH   3   5
ENDBRANCH   2   3
ENDBRANCH   1   2
BRANCH   1  26
ATOM     26  C   UNL     1       5.111  -7.420   3.783  1.00  0.00     0.275 C 
BRANCH  26  27
ATOM     27  O   UNL     1       5.476  -6.054   3.994  1.00  0.00    -0.458 OA
BRANCH  27  28
ATOM     28  C   UNL     1       4.765  -5.186   3.236  1.00  0.00     0.338 C 
ATOM     29  O   UNL     1       3.725  -5.414   2.645  1.00  0.00    -0.246 OA
BRANCH  28  30
ATOM     30  C   UNL     1       5.511  -3.947   3.031  1.00  0.00     0.060 A 
ATOM     31  C   UNL     1       4.833  -2.918   2.366  1.00  0.00     0.016 A 
ATOM     32  C   UNL     1       6.904  -3.968   3.155  1.00  0.00     0.016 A 
ATOM     33  C   UNL     1       5.568  -2.013   1.637  1.00  0.00     0.010 A 
ATOM     34  C   UNL     1       7.636  -3.070   2.418  1.00  0.00     0.010 A 
ATOM     35  C   UNL     1       6.955  -2.166   1.600  1.00  0.00    -0.014 A 
BRANCH  35  36
ATOM     36  C   UNL     1       7.695  -1.363   0.651  1.00  0.00     0.031 A 
ATOM     37  C   UNL     1       7.897   0.046   1.052  1.00  0.00     0.074 A 
ATOM     38  C   UNL     1       8.275  -1.922  -0.427  1.00  0.00     0.049 A 
ATOM     39  N   UNL     1       7.571   1.120   0.413  1.00  0.00    -0.248 NA
ATOM     40  C   UNL     1       8.447   0.280   2.396  1.00  0.00     0.031 C 
ATOM     41  C   UNL     1       8.410  -3.351  -0.735  1.00  0.00     0.029 A 
ATOM     42  N   UNL     1       9.011  -1.323  -1.398  1.00  0.00    -0.354 N 
ATOM     43  C   UNL     1       8.019   2.174   1.202  1.00  0.00     0.074 A 
ATOM     44  C   UNL     1       8.417   1.608   2.465  1.00  0.00     0.031 C 
ATOM     45  C   UNL     1       9.389  -3.508  -1.653  1.00  0.00     0.029 A 
ATOM     46  C   UNL     1       9.846  -2.195  -2.079  1.00  0.00     0.049 A 
ATOM     47  H   UNL     1       8.957  -0.361  -1.599  1.00  0.00     0.167 HD
ATOM     48  C   UNL     1       8.228   3.423   0.705  1.00  0.00     0.031 A 
ATOM     49  C   UNL     1      10.912  -1.850  -2.842  1.00  0.00     0.031 A 
ATOM     50  C   UNL     1       7.586   3.624  -0.563  1.00  0.00     0.049 A 
ATOM     51  C   UNL     1      10.771  -0.412  -3.186  1.00  0.00     0.074 A 
ATOM     52  C   UNL     1       6.274   3.618  -0.992  1.00  0.00     0.029 A 
ATOM     53  N   UNL     1       8.358   3.511  -1.694  1.00  0.00    -0.354 N 
ATOM     54  N   UNL     1       9.825   0.062  -3.948  1.00  0.00    -0.248 NA
ATOM     55  C   UNL     1      11.429   0.570  -2.336  1.00  0.00     0.031 C 
ATOM     56  C   UNL     1       6.312   3.045  -2.295  1.00  0.00     0.029 A 
ATOM     57  C   UNL     1       7.646   2.765  -2.601  1.00  0.00     0.049 A 
ATOM     58  H   UNL     1       9.255   3.893  -1.830  1.00  0.00     0.167 HD
ATOM     59  C   UNL     1       9.491   1.289  -3.391  1.00  0.00     0.074 A 
ATOM     60  C   UNL     1      10.583   1.596  -2.472  1.00  0.00     0.031 C 
ATOM     61  C   UNL     1       8.234   1.810  -3.519  1.00  0.00     0.031 A 
BRANCH  48  62
ATOM     62  C   UNL     1       9.305   4.334   1.228  1.00  0.00    -0.014 A 
ATOM     63  C   UNL     1       9.360   5.667   0.784  1.00  0.00     0.010 A 
ATOM     64  C   UNL     1      10.420   3.845   1.944  1.00  0.00     0.010 A 
ATOM     65  C   UNL     1      10.500   6.454   1.001  1.00  0.00     0.020 A 
ATOM     66  C   UNL     1      11.539   4.633   2.207  1.00  0.00     0.020 A 
ATOM     67  C   UNL     1      11.588   5.923   1.698  1.00  0.00     0.054 A 
BRANCH  67  68
ATOM     68  S   UNL     1      13.105   6.895   1.861  1.00  0.00     0.124 S 
ATOM     69  O   UNL     1      13.586   6.928   0.483  1.00  0.00    -0.237 OA
ATOM     70  O   UNL     1      12.609   8.161   2.392  1.00  0.00    -0.237 OA
ATOM     71  O   UNL     1      13.916   6.110   2.789  1.00  0.00    -0.744 OA
ENDBRANCH  67  68
ENDBRANCH  48  62
BRANCH  49  72
ATOM     72  C   UNL     1      12.191  -2.593  -2.958  1.00  0.00    -0.014 A 
ATOM     73  C   UNL     1      13.109  -2.305  -3.982  1.00  0.00     0.010 A 
ATOM     74  C   UNL     1      12.625  -3.424  -1.902  1.00  0.00     0.010 A 
ATOM     75  C   UNL     1      14.426  -2.794  -3.927  1.00  0.00     0.020 A 
ATOM     76  C   UNL     1      13.929  -3.923  -1.846  1.00  0.00     0.020 A 
ATOM     77  C   UNL     1      14.832  -3.587  -2.849  1.00  0.00     0.054 A 
BRANCH  77  78
ATOM     78  S   UNL     1      16.575  -4.076  -2.700  1.00  0.00     0.124 S 
ATOM     79  O   UNL     1      16.717  -5.050  -3.778  1.00  0.00    -0.237 OA
ATOM     80  O   UNL     1      17.277  -2.810  -2.893  1.00  0.00    -0.237 OA
ATOM     81  O   UNL     1      16.663  -4.629  -1.349  1.00  0.00    -0.744 OA
ENDBRANCH  77  78
ENDBRANCH  49  72
BRANCH  61  82
ATOM     82  C   UNL     1       7.285   1.156  -4.500  1.00  0.00    -0.014 A 
ATOM     83  C   UNL     1       6.854  -0.180  -4.378  1.00  0.00     0.010 A 
ATOM     84  C   UNL     1       6.680   1.966  -5.477  1.00  0.00     0.010 A 
ATOM     85  C   UNL     1       5.862  -0.697  -5.226  1.00  0.00     0.020 A 
ATOM     86  C   UNL     1       5.679   1.463  -6.313  1.00  0.00     0.020 A 
ATOM     87  C   UNL     1       5.280   0.131  -6.189  1.00  0.00     0.054 A 
BRANCH  87  88
ATOM     88  S   UNL     1       3.952  -0.525  -7.239  1.00  0.00     0.124 S 
ATOM     89  O   UNL     1       4.667  -1.455  -8.109  1.00  0.00    -0.237 OA
ATOM     90  O   UNL     1       3.044  -1.137  -6.273  1.00  0.00    -0.237 OA
ATOM     91  O   UNL     1       3.420   0.662  -7.909  1.00  0.00    -0.744 OA
ENDBRANCH  87  88
ENDBRANCH  61  82
ENDBRANCH  35  36
ENDBRANCH  28  30
ENDBRANCH  27  28
ENDBRANCH  26  27
ENDBRANCH   1  26
TORSDOF 20
