REMARK SMILES O=C(OCCOC(=O)[C@]1(CCc2cccnc2)CCC[NH2+]C1)c1ccc(-c2c3nc(c(-c4ccc(S(=O)(=O)[O-])cc4)c4ccc([nH]4)c(-c4ccc(S(=O)(=O)[O-])cc4)c4nc(c(-c5ccc(S(=O)(=O)[O-])cc5)c5ccc2[nH]5)C=C4)C=C3)cc1
REMARK SMILES IDX 4 1 3 2 2 3 1 4 23 5 24 6 82 7 25 8 81 9 26 10 27 11 28 12
REMARK SMILES IDX 75 13 29 14 80 15 74 16 76 17 30 18 79 19 73 20 72 21 31 23
REMARK SMILES IDX 61 24 42 25 60 26 43 27 46 28 59 29 77 30 44 31 45 32 58 34
REMARK SMILES IDX 78 35 47 36 32 37 33 38 41 39 34 40 40 41 35 42 36 43 37 44
REMARK SMILES IDX 38 45 39 46 62 47 63 48 71 49 64 50 70 51 65 52 66 53 67 54
REMARK SMILES IDX 68 55 69 56 48 57 49 58 57 59 50 60 56 61 51 62 52 63 53 64
REMARK SMILES IDX 54 65 55 66 5 67 6 68 7 69 8 70 9 71 18 72 22 73 19 74 21 75
REMARK SMILES IDX 20 76 10 79 11 80 12 81 13 82 17 83 14 84 16 85 15 86
REMARK H PARENT 76 22 46 33 21 77 21 78
REMARK Flexibility Score: inf
ROOT
ATOM      1  C   UNL     1       4.717  -1.355   0.654  1.00  0.00     0.275 C 
ENDROOT
BRANCH   1   2
ATOM      2  O   UNL     1       3.775  -0.860   1.614  1.00  0.00    -0.458 OA
BRANCH   2   3
ATOM      3  C   UNL     1       3.673   0.390   2.125  1.00  0.00     0.338 C 
ATOM      4  O   UNL     1       3.015   0.548   3.154  1.00  0.00    -0.246 OA
BRANCH   3   5
ATOM      5  C   UNL     1       4.165   1.617   1.421  1.00  0.00     0.060 A 
ATOM      6  C   UNL     1       5.316   1.718   0.639  1.00  0.00     0.016 A 
ATOM      7  C   UNL     1       3.394   2.784   1.601  1.00  0.00     0.016 A 
ATOM      8  C   UNL     1       5.642   2.917  -0.006  1.00  0.00     0.010 A 
ATOM      9  C   UNL     1       3.700   3.981   0.938  1.00  0.00     0.010 A 
ATOM     10  C   UNL     1       4.833   4.053   0.126  1.00  0.00    -0.014 A 
BRANCH  10  11
ATOM     11  C   UNL     1       5.377   5.357  -0.321  1.00  0.00     0.031 A 
ATOM     12  C   UNL     1       6.160   6.126   0.697  1.00  0.00     0.074 A 
ATOM     13  C   UNL     1       5.259   5.809  -1.584  1.00  0.00     0.049 A 
ATOM     14  N   UNL     1       6.798   7.255   0.566  1.00  0.00    -0.248 NA
ATOM     15  C   UNL     1       6.179   5.568   2.061  1.00  0.00     0.031 C 
ATOM     16  C   UNL     1       4.441   5.199  -2.622  1.00  0.00     0.029 A 
ATOM     17  N   UNL     1       5.858   6.863  -2.227  1.00  0.00    -0.354 N 
ATOM     18  C   UNL     1       7.236   7.574   1.843  1.00  0.00     0.074 A 
ATOM     19  C   UNL     1       6.790   6.526   2.731  1.00  0.00     0.031 C 
ATOM     20  C   UNL     1       4.702   5.783  -3.805  1.00  0.00     0.029 A 
ATOM     21  C   UNL     1       5.638   6.880  -3.590  1.00  0.00     0.049 A 
ATOM     22  H   UNL     1       6.395   7.543  -1.760  1.00  0.00     0.167 HD
ATOM     23  C   UNL     1       7.934   8.659   2.244  1.00  0.00     0.031 A 
ATOM     24  C   UNL     1       6.139   7.698  -4.540  1.00  0.00     0.031 A 
ATOM     25  C   UNL     1       8.356   9.694   1.349  1.00  0.00     0.049 A 
ATOM     26  C   UNL     1       7.010   8.844  -4.088  1.00  0.00     0.074 A 
ATOM     27  C   UNL     1       9.024  10.867   1.634  1.00  0.00     0.029 A 
ATOM     28  N   UNL     1       8.152   9.663  -0.024  1.00  0.00    -0.354 N 
ATOM     29  N   UNL     1       7.410   9.140  -2.872  1.00  0.00    -0.248 NA
ATOM     30  C   UNL     1       7.468   9.785  -5.119  1.00  0.00     0.031 C 
ATOM     31  C   UNL     1       9.213  11.555   0.430  1.00  0.00     0.029 A 
ATOM     32  C   UNL     1       8.699  10.788  -0.606  1.00  0.00     0.049 A 
ATOM     33  H   UNL     1       7.686   8.945  -0.510  1.00  0.00     0.167 HD
ATOM     34  C   UNL     1       8.149  10.311  -2.990  1.00  0.00     0.074 A 
ATOM     35  C   UNL     1       8.185  10.640  -4.401  1.00  0.00     0.031 C 
ATOM     36  C   UNL     1       8.723  11.065  -2.021  1.00  0.00     0.031 A 
BRANCH  23  37
ATOM     37  C   UNL     1       8.189   8.765   3.719  1.00  0.00    -0.014 A 
ATOM     38  C   UNL     1       9.080   7.887   4.364  1.00  0.00     0.010 A 
ATOM     39  C   UNL     1       7.425   9.660   4.487  1.00  0.00     0.010 A 
ATOM     40  C   UNL     1       9.138   7.843   5.758  1.00  0.00     0.020 A 
ATOM     41  C   UNL     1       7.505   9.641   5.882  1.00  0.00     0.020 A 
ATOM     42  C   UNL     1       8.336   8.709   6.507  1.00  0.00     0.054 A 
BRANCH  42  43
ATOM     43  S   UNL     1       8.380   8.591   8.316  1.00  0.00     0.124 S 
ATOM     44  O   UNL     1       7.558   7.407   8.558  1.00  0.00    -0.237 OA
ATOM     45  O   UNL     1       9.805   8.431   8.594  1.00  0.00    -0.237 OA
ATOM     46  O   UNL     1       7.799   9.856   8.758  1.00  0.00    -0.744 OA
ENDBRANCH  42  43
ENDBRANCH  23  37
BRANCH  24  47
ATOM     47  C   UNL     1       5.841   7.494  -5.991  1.00  0.00    -0.014 A 
ATOM     48  C   UNL     1       6.874   7.155  -6.888  1.00  0.00     0.010 A 
ATOM     49  C   UNL     1       4.542   7.667  -6.502  1.00  0.00     0.010 A 
ATOM     50  C   UNL     1       6.620   7.019  -8.259  1.00  0.00     0.020 A 
ATOM     51  C   UNL     1       4.277   7.502  -7.868  1.00  0.00     0.020 A 
ATOM     52  C   UNL     1       5.322   7.195  -8.742  1.00  0.00     0.054 A 
BRANCH  52  53
ATOM     53  S   UNL     1       5.002   6.979 -10.517  1.00  0.00     0.124 S 
ATOM     54  O   UNL     1       5.509   8.230 -11.071  1.00  0.00    -0.237 OA
ATOM     55  O   UNL     1       5.779   5.784 -10.838  1.00  0.00    -0.237 OA
ATOM     56  O   UNL     1       3.553   6.805 -10.581  1.00  0.00    -0.744 OA
ENDBRANCH  52  53
ENDBRANCH  24  47
BRANCH  36  57
ATOM     57  C   UNL     1       9.452  12.304  -2.452  1.00  0.00    -0.014 A 
ATOM     58  C   UNL     1       8.748  13.462  -2.821  1.00  0.00     0.010 A 
ATOM     59  C   UNL     1      10.856  12.337  -2.380  1.00  0.00     0.010 A 
ATOM     60  C   UNL     1       9.440  14.637  -3.120  1.00  0.00     0.020 A 
ATOM     61  C   UNL     1      11.549  13.516  -2.656  1.00  0.00     0.020 A 
ATOM     62  C   UNL     1      10.836  14.657  -3.030  1.00  0.00     0.054 A 
BRANCH  62  63
ATOM     63  S   UNL     1      11.707  16.217  -3.338  1.00  0.00     0.124 S 
ATOM     64  O   UNL     1      11.652  16.312  -4.794  1.00  0.00    -0.237 OA
ATOM     65  O   UNL     1      10.894  17.189  -2.612  1.00  0.00    -0.237 OA
ATOM     66  O   UNL     1      13.037  15.985  -2.777  1.00  0.00    -0.744 OA
ENDBRANCH  62  63
ENDBRANCH  36  57
ENDBRANCH  10  11
ENDBRANCH   3   5
ENDBRANCH   2   3
ENDBRANCH   1   2
BRANCH   1  67
ATOM     67  C   UNL     1       4.213  -1.307  -0.782  1.00  0.00     0.274 C 
BRANCH  67  68
ATOM     68  O   UNL     1       3.484  -0.107  -1.098  1.00  0.00    -0.461 OA
BRANCH  68  69
ATOM     69  C   UNL     1       2.351  -0.298  -1.834  1.00  0.00     0.317 C 
ATOM     70  O   UNL     1       1.910  -1.403  -2.131  1.00  0.00    -0.251 OA
BRANCH  69  71
ATOM     71  C   UNL     1       1.729   1.008  -2.342  1.00  0.00     0.117 C 
ATOM     72  C   UNL     1       1.702   2.140  -1.302  1.00  0.00     0.030 C 
ATOM     73  C   UNL     1       0.240   0.730  -2.705  1.00  0.00     0.279 C 
ATOM     74  C   UNL     1       0.781   1.842  -0.117  1.00  0.00     0.063 C 
ATOM     75  N   UNL     1      -0.614   0.392  -1.555  1.00  0.00    -0.345 N 
ATOM     76  C   UNL     1      -0.623   1.457  -0.557  1.00  0.00     0.260 C 
ATOM     77  H   UNL     1      -1.567   0.239  -1.885  1.00  0.00     0.346 HD
ATOM     78  H   UNL     1      -0.239  -0.450  -1.118  1.00  0.00     0.346 HD
BRANCH  71  79
ATOM     79  C   UNL     1       2.481   1.422  -3.649  1.00  0.00     0.029 C 
BRANCH  79  80
ATOM     80  C   UNL     1       3.926   1.944  -3.519  1.00  0.00     0.038 C 
BRANCH  80  81
ATOM     81  C   UNL     1       5.127   1.043  -3.576  1.00  0.00    -0.030 A 
ATOM     82  C   UNL     1       6.374   1.582  -3.219  1.00  0.00     0.007 A 
ATOM     83  C   UNL     1       5.117  -0.282  -3.981  1.00  0.00     0.114 A 
ATOM     84  C   UNL     1       7.513   0.786  -3.204  1.00  0.00     0.020 A 
ATOM     85  N   UNL     1       6.207  -1.089  -3.965  1.00  0.00    -0.264 NA
ATOM     86  C   UNL     1       7.377  -0.536  -3.576  1.00  0.00     0.111 A 
ENDBRANCH  80  81
ENDBRANCH  79  80
ENDBRANCH  71  79
ENDBRANCH  69  71
ENDBRANCH  68  69
ENDBRANCH  67  68
ENDBRANCH   1  67
TORSDOF 17
