REMARK SMILES CC[C@@](C)(C(=O)OCCOC(=O)c1ccc(-c2c3nc(c(-c4ccc(S(=O)(=O)[O-])cc4)c4ccc([nH]4)c(-c4ccc(S(=O)(=O)[O-])cc4)c4nc(c(-c5ccc(S(=O)(=O)[O-])cc5)c5ccc2[nH]5)C=C4)C=C3)cc1)n1nnnc1Cc1cccs1
REMARK SMILES IDX 8 1 7 2 5 3 6 4 3 5 4 6 2 7 1 8 73 9 74 10 77 11 75 12 76 13
REMARK SMILES IDX 78 14 79 15 80 16 83 17 81 18 82 19 9 20 10 21 11 22 12 23
REMARK SMILES IDX 13 24 14 25 72 26 15 27 71 28 16 29 17 30 18 31 65 32 19 33
REMARK SMILES IDX 70 34 64 35 66 36 20 37 69 38 63 39 62 40 21 42 51 43 32 44
REMARK SMILES IDX 50 45 33 46 36 47 49 48 67 49 34 50 35 51 48 53 68 54 37 55
REMARK SMILES IDX 22 56 23 57 31 58 24 59 30 60 25 61 26 62 27 63 28 64 29 65
REMARK SMILES IDX 52 66 53 67 61 68 54 69 60 70 55 71 56 72 57 73 58 74 59 75
REMARK SMILES IDX 38 76 39 77 47 78 40 79 46 80 41 81 42 82 43 83 44 84 45 85
REMARK H PARENT 66 41 36 52
REMARK Flexibility Score: inf
ROOT
ATOM      1  C   UNL     1      -1.142  -1.242   4.907  1.00  0.00     0.274 C 
ENDROOT
BRANCH   1   2
ATOM      2  O   UNL     1      -0.636  -0.983   3.577  1.00  0.00    -0.460 OA
BRANCH   2   3
ATOM      3  C   UNL     1       0.425  -0.128   3.507  1.00  0.00     0.334 C 
ATOM      4  O   UNL     1       0.991   0.319   4.498  1.00  0.00    -0.249 OA
BRANCH   3   5
ATOM      5  C   UNL     1       0.750   0.321   2.075  1.00  0.00     0.160 C 
ATOM      6  C   UNL     1       0.270   1.805   2.057  1.00  0.00     0.050 C 
BRANCH   5   7
ATOM      7  C   UNL     1      -0.059  -0.434   0.985  1.00  0.00     0.039 C 
ATOM      8  C   UNL     1       0.300  -0.066  -0.451  1.00  0.00     0.007 C 
ENDBRANCH   5   7
BRANCH   5   9
ATOM      9  N   UNL     1       2.201   0.222   1.880  1.00  0.00    -0.212 N 
ATOM     10  N   UNL     1       2.938   1.356   1.906  1.00  0.00    -0.044 NA
ATOM     11  C   UNL     1       3.052  -0.845   1.656  1.00  0.00     0.157 A 
ATOM     12  N   UNL     1       4.193   0.986   1.737  1.00  0.00    -0.024 NA
ATOM     13  N   UNL     1       4.281  -0.363   1.588  1.00  0.00    -0.113 NA
BRANCH  11  14
ATOM     14  C   UNL     1       2.723  -2.298   1.581  1.00  0.00     0.125 C 
BRANCH  14  15
ATOM     15  C   UNL     1       3.247  -2.973   0.344  1.00  0.00     0.012 A 
ATOM     16  C   UNL     1       4.568  -3.142  -0.034  1.00  0.00     0.016 A 
ATOM     17  S   UNL     1       2.182  -3.742  -0.754  1.00  0.00    -0.148 S 
ATOM     18  C   UNL     1       4.703  -3.937  -1.206  1.00  0.00     0.012 A 
ATOM     19  C   UNL     1       3.481  -4.335  -1.698  1.00  0.00     0.065 A 
ENDBRANCH  14  15
ENDBRANCH  11  14
ENDBRANCH   5   9
ENDBRANCH   3   5
ENDBRANCH   2   3
ENDBRANCH   1   2
BRANCH   1  20
ATOM     20  C   UNL     1      -0.599  -2.549   5.477  1.00  0.00     0.275 C 
BRANCH  20  21
ATOM     21  O   UNL     1       0.828  -2.461   5.624  1.00  0.00    -0.458 OA
BRANCH  21  22
ATOM     22  C   UNL     1       1.540  -3.463   5.062  1.00  0.00     0.338 C 
ATOM     23  O   UNL     1       1.089  -4.443   4.487  1.00  0.00    -0.246 OA
BRANCH  22  24
ATOM     24  C   UNL     1       2.991  -3.201   5.162  1.00  0.00     0.060 A 
ATOM     25  C   UNL     1       3.500  -1.924   4.924  1.00  0.00     0.016 A 
ATOM     26  C   UNL     1       3.866  -4.281   5.298  1.00  0.00     0.016 A 
ATOM     27  C   UNL     1       4.865  -1.752   4.696  1.00  0.00     0.010 A 
ATOM     28  C   UNL     1       5.246  -4.081   5.185  1.00  0.00     0.010 A 
ATOM     29  C   UNL     1       5.761  -2.822   4.837  1.00  0.00    -0.014 A 
BRANCH  29  30
ATOM     30  C   UNL     1       7.222  -2.629   4.606  1.00  0.00     0.031 A 
ATOM     31  C   UNL     1       7.963  -3.466   3.591  1.00  0.00     0.074 A 
ATOM     32  C   UNL     1       7.898  -1.690   5.300  1.00  0.00     0.049 A 
ATOM     33  N   UNL     1       9.254  -3.567   3.391  1.00  0.00    -0.248 NA
ATOM     34  C   UNL     1       7.154  -4.307   2.694  1.00  0.00     0.031 C 
ATOM     35  C   UNL     1       7.314  -0.771   6.280  1.00  0.00     0.029 A 
ATOM     36  N   UNL     1       9.228  -1.346   5.279  1.00  0.00    -0.354 N 
ATOM     37  C   UNL     1       9.413  -4.514   2.385  1.00  0.00     0.074 A 
ATOM     38  C   UNL     1       8.087  -4.957   2.011  1.00  0.00     0.031 C 
ATOM     39  C   UNL     1       8.265   0.064   6.723  1.00  0.00     0.029 A 
ATOM     40  C   UNL     1       9.543  -0.321   6.138  1.00  0.00     0.049 A 
ATOM     41  H   UNL     1       9.891  -1.791   4.703  1.00  0.00     0.167 HD
ATOM     42  C   UNL     1      10.559  -4.977   1.829  1.00  0.00     0.031 A 
ATOM     43  C   UNL     1      10.729   0.226   6.466  1.00  0.00     0.031 A 
ATOM     44  C   UNL     1      11.878  -4.513   2.171  1.00  0.00     0.049 A 
ATOM     45  C   UNL     1      11.986  -0.327   5.867  1.00  0.00     0.074 A 
ATOM     46  C   UNL     1      13.098  -4.935   1.670  1.00  0.00     0.029 A 
ATOM     47  N   UNL     1      12.150  -3.507   3.086  1.00  0.00    -0.354 N 
ATOM     48  N   UNL     1      12.122  -1.292   4.991  1.00  0.00    -0.248 NA
ATOM     49  C   UNL     1      13.251   0.261   6.326  1.00  0.00     0.031 C 
ATOM     50  C   UNL     1      14.111  -4.204   2.304  1.00  0.00     0.029 A 
ATOM     51  C   UNL     1      13.518  -3.303   3.172  1.00  0.00     0.049 A 
ATOM     52  H   UNL     1      11.472  -3.012   3.598  1.00  0.00     0.167 HD
ATOM     53  C   UNL     1      13.490  -1.439   4.804  1.00  0.00     0.074 A 
ATOM     54  C   UNL     1      14.138  -0.444   5.635  1.00  0.00     0.031 C 
ATOM     55  C   UNL     1      14.149  -2.328   4.022  1.00  0.00     0.031 A 
BRANCH  42  56
ATOM     56  C   UNL     1      10.441  -6.082   0.813  1.00  0.00    -0.014 A 
ATOM     57  C   UNL     1      10.049  -5.819  -0.511  1.00  0.00     0.010 A 
ATOM     58  C   UNL     1      10.777  -7.397   1.182  1.00  0.00     0.010 A 
ATOM     59  C   UNL     1       9.966  -6.860  -1.441  1.00  0.00     0.020 A 
ATOM     60  C   UNL     1      10.712  -8.438   0.251  1.00  0.00     0.020 A 
ATOM     61  C   UNL     1      10.291  -8.164  -1.052  1.00  0.00     0.054 A 
BRANCH  61  62
ATOM     62  S   UNL     1      10.197  -9.497  -2.280  1.00  0.00     0.124 S 
ATOM     63  O   UNL     1       8.759  -9.749  -2.340  1.00  0.00    -0.237 OA
ATOM     64  O   UNL     1      10.775  -8.882  -3.473  1.00  0.00    -0.237 OA
ATOM     65  O   UNL     1      10.994 -10.569  -1.689  1.00  0.00    -0.744 OA
ENDBRANCH  61  62
ENDBRANCH  42  56
BRANCH  43  66
ATOM     66  C   UNL     1      10.770   1.317   7.474  1.00  0.00    -0.014 A 
ATOM     67  C   UNL     1      10.998   2.646   7.080  1.00  0.00     0.010 A 
ATOM     68  C   UNL     1      10.511   1.034   8.828  1.00  0.00     0.010 A 
ATOM     69  C   UNL     1      10.953   3.677   8.023  1.00  0.00     0.020 A 
ATOM     70  C   UNL     1      10.442   2.064   9.767  1.00  0.00     0.020 A 
ATOM     71  C   UNL     1      10.669   3.380   9.360  1.00  0.00     0.054 A 
BRANCH  71  72
ATOM     72  S   UNL     1      10.505   4.732  10.559  1.00  0.00     0.124 S 
ATOM     73  O   UNL     1      11.889   4.934  10.978  1.00  0.00    -0.237 OA
ATOM     74  O   UNL     1       9.923   5.808   9.762  1.00  0.00    -0.237 OA
ATOM     75  O   UNL     1       9.616   4.173  11.575  1.00  0.00    -0.744 OA
ENDBRANCH  71  72
ENDBRANCH  43  66
BRANCH  55  76
ATOM     76  C   UNL     1      15.649  -2.265   4.041  1.00  0.00    -0.014 A 
ATOM     77  C   UNL     1      16.374  -2.814   5.113  1.00  0.00     0.010 A 
ATOM     78  C   UNL     1      16.342  -1.672   2.971  1.00  0.00     0.010 A 
ATOM     79  C   UNL     1      17.769  -2.742   5.131  1.00  0.00     0.020 A 
ATOM     80  C   UNL     1      17.738  -1.613   2.978  1.00  0.00     0.020 A 
ATOM     81  C   UNL     1      18.442  -2.134   4.066  1.00  0.00     0.054 A 
BRANCH  81  82
ATOM     82  S   UNL     1      20.255  -2.070   4.094  1.00  0.00     0.124 S 
ATOM     83  O   UNL     1      20.504  -0.937   4.981  1.00  0.00    -0.237 OA
ATOM     84  O   UNL     1      20.620  -3.379   4.630  1.00  0.00    -0.237 OA
ATOM     85  O   UNL     1      20.613  -1.857   2.693  1.00  0.00    -0.744 OA
ENDBRANCH  81  82
ENDBRANCH  55  76
ENDBRANCH  29  30
ENDBRANCH  22  24
ENDBRANCH  21  22
ENDBRANCH  20  21
ENDBRANCH   1  20
TORSDOF 18
