REMARK SMILES Nc1ccc(C(=O)NC[C@@H]2CC[C@@H](C(=O)OCCOC(=O)c3ccc(-c4c5nc(c(-c6ccc(S(=O)(=O)[O-])cc6)c6ccc([nH]6)c(-c6ccc(S(=O)(=O)[O-])cc6)c6nc(c(-c7ccc(S(=O)(=O)[O-])cc7)c7ccc4[nH]7)C=C6)C=C5)cc3)O2)cc1Cl
REMARK SMILES IDX 17 1 16 2 14 3 15 4 13 5 10 6 11 7 82 8 12 9 9 10 8 11 6 12
REMARK SMILES IDX 7 13 5 15 2 16 3 17 84 18 4 19 83 20 85 21 1 22 18 25 19 26
REMARK SMILES IDX 20 27 21 28 22 29 23 30 81 31 24 32 80 33 25 34 26 35 27 36
REMARK SMILES IDX 74 37 28 38 79 39 73 40 75 41 29 42 78 43 72 44 71 45 30 47
REMARK SMILES IDX 60 48 41 49 59 50 42 51 45 52 58 53 76 54 43 55 44 56 57 58
REMARK SMILES IDX 77 59 46 60 31 61 32 62 40 63 33 64 39 65 34 66 35 67 36 68
REMARK SMILES IDX 37 69 38 70 61 71 62 72 70 73 63 74 69 75 64 76 65 77 66 78
REMARK SMILES IDX 67 79 68 80 47 81 48 82 56 83 49 84 55 85 50 86 51 87 52 88
REMARK SMILES IDX 53 89 54 90
REMARK H PARENT 8 14 1 23 1 24 75 46 45 57
REMARK Flexibility Score: inf
ROOT
ATOM      1  C   UNL     1       6.958  -3.079  -4.243  1.00  0.00     0.274 C 
ENDROOT
BRANCH   1   2
ATOM      2  O   UNL     1       6.012  -2.191  -3.613  1.00  0.00    -0.460 OA
BRANCH   2   3
ATOM      3  C   UNL     1       6.523  -1.088  -2.997  1.00  0.00     0.335 C 
ATOM      4  O   UNL     1       7.715  -0.837  -2.874  1.00  0.00    -0.249 OA
BRANCH   3   5
ATOM      5  C   UNL     1       5.393  -0.184  -2.494  1.00  0.00     0.228 C 
ATOM      6  C   UNL     1       5.650   1.238  -0.663  1.00  0.00     0.138 C 
ATOM      7  C   UNL     1       5.164   2.087  -1.822  1.00  0.00     0.037 C 
ATOM      8  O   UNL     1       5.373  -0.120  -1.056  1.00  0.00    -0.361 OA
ATOM      9  C   UNL     1       5.559   1.244  -3.003  1.00  0.00     0.047 C 
BRANCH   6  10
ATOM     10  C   UNL     1       5.043   1.552   0.716  1.00  0.00     0.148 C 
BRANCH  10  11
ATOM     11  N   UNL     1       3.936   2.498   0.700  1.00  0.00    -0.349 N 
ATOM     12  C   UNL     1       2.581   2.421   0.537  1.00  0.00     0.251 C 
ATOM     13  O   UNL     1       1.980   3.498   0.570  1.00  0.00    -0.269 OA
ATOM     14  H   UNL     1       4.239   3.424   0.841  1.00  0.00     0.163 HD
BRANCH  12  15
ATOM     15  C   UNL     1       1.786   1.173   0.336  1.00  0.00     0.041 A 
ATOM     16  C   UNL     1       0.063  -1.066  -0.026  1.00  0.00     0.050 A 
ATOM     17  C   UNL     1       1.450  -1.216  -0.007  1.00  0.00     0.028 A 
ATOM     18  C   UNL     1      -0.458   0.221   0.166  1.00  0.00     0.064 A 
ATOM     19  C   UNL     1       2.300  -0.111   0.159  1.00  0.00     0.016 A 
ATOM     20  C   UNL     1       0.388   1.323   0.327  1.00  0.00     0.036 A 
ATOM     21  Cl  UNL     1      -2.168   0.483   0.199  1.00  0.00    -0.082 Cl
BRANCH  16  22
ATOM     22  N   UNL     1      -0.749  -2.195  -0.093  1.00  0.00    -0.398 N 
ATOM     23  H   UNL     1      -0.347  -3.083  -0.229  1.00  0.00     0.156 HD
ATOM     24  H   UNL     1      -1.726  -2.105  -0.004  1.00  0.00     0.156 HD
ENDBRANCH  16  22
ENDBRANCH  12  15
ENDBRANCH  10  11
ENDBRANCH   6  10
ENDBRANCH   3   5
ENDBRANCH   2   3
ENDBRANCH   1   2
BRANCH   1  25
ATOM     25  C   UNL     1       6.568  -3.254  -5.706  1.00  0.00     0.275 C 
BRANCH  25  26
ATOM     26  O   UNL     1       6.673  -1.975  -6.360  1.00  0.00    -0.458 OA
BRANCH  26  27
ATOM     27  C   UNL     1       5.542  -1.485  -6.904  1.00  0.00     0.338 C 
ATOM     28  O   UNL     1       4.456  -2.043  -7.005  1.00  0.00    -0.246 OA
BRANCH  27  29
ATOM     29  C   UNL     1       5.787  -0.104  -7.348  1.00  0.00     0.060 A 
ATOM     30  C   UNL     1       6.197   0.847  -6.414  1.00  0.00     0.016 A 
ATOM     31  C   UNL     1       5.534   0.274  -8.665  1.00  0.00     0.016 A 
ATOM     32  C   UNL     1       6.283   2.191  -6.772  1.00  0.00     0.010 A 
ATOM     33  C   UNL     1       5.725   1.607  -9.046  1.00  0.00     0.010 A 
ATOM     34  C   UNL     1       6.078   2.590  -8.102  1.00  0.00    -0.014 A 
BRANCH  34  35
ATOM     35  C   UNL     1       6.239   4.019  -8.505  1.00  0.00     0.031 A 
ATOM     36  C   UNL     1       5.107   4.759  -9.175  1.00  0.00     0.074 A 
ATOM     37  C   UNL     1       7.408   4.660  -8.292  1.00  0.00     0.049 A 
ATOM     38  N   UNL     1       5.122   5.929  -9.762  1.00  0.00    -0.248 NA
ATOM     39  C   UNL     1       3.793   4.095  -9.201  1.00  0.00     0.031 C 
ATOM     40  C   UNL     1       8.588   4.088  -7.637  1.00  0.00     0.029 A 
ATOM     41  N   UNL     1       7.799   5.939  -8.609  1.00  0.00    -0.354 N 
ATOM     42  C   UNL     1       3.846   6.112 -10.285  1.00  0.00     0.074 A 
ATOM     43  C   UNL     1       3.075   4.938  -9.934  1.00  0.00     0.031 C 
ATOM     44  C   UNL     1       9.553   5.019  -7.571  1.00  0.00     0.029 A 
ATOM     45  C   UNL     1       9.098   6.224  -8.254  1.00  0.00     0.049 A 
ATOM     46  H   UNL     1       7.206   6.591  -9.049  1.00  0.00     0.167 HD
ATOM     47  C   UNL     1       3.363   7.156 -10.999  1.00  0.00     0.031 A 
ATOM     48  C   UNL     1       9.864   7.306  -8.492  1.00  0.00     0.031 A 
ATOM     49  C   UNL     1       4.104   8.353 -11.298  1.00  0.00     0.049 A 
ATOM     50  C   UNL     1       9.308   8.445  -9.296  1.00  0.00     0.074 A 
ATOM     51  C   UNL     1       3.673   9.483 -11.975  1.00  0.00     0.029 A 
ATOM     52  N   UNL     1       5.419   8.585 -10.932  1.00  0.00    -0.354 N 
ATOM     53  N   UNL     1       8.107   8.583  -9.803  1.00  0.00    -0.248 NA
ATOM     54  C   UNL     1      10.219   9.563  -9.582  1.00  0.00     0.031 C 
ATOM     55  C   UNL     1       4.741  10.383 -12.050  1.00  0.00     0.029 A 
ATOM     56  C   UNL     1       5.824   9.828 -11.389  1.00  0.00     0.049 A 
ATOM     57  H   UNL     1       5.982   7.959 -10.422  1.00  0.00     0.167 HD
ATOM     58  C   UNL     1       8.122   9.799 -10.476  1.00  0.00     0.074 A 
ATOM     59  C   UNL     1       9.438  10.373 -10.284  1.00  0.00     0.031 C 
ATOM     60  C   UNL     1       7.137  10.382 -11.200  1.00  0.00     0.031 A 
BRANCH  47  61
ATOM     61  C   UNL     1       1.968   7.049 -11.551  1.00  0.00    -0.014 A 
ATOM     62  C   UNL     1       0.840   7.269 -10.744  1.00  0.00     0.010 A 
ATOM     63  C   UNL     1       1.794   6.812 -12.928  1.00  0.00     0.010 A 
ATOM     64  C   UNL     1      -0.442   7.240 -11.303  1.00  0.00     0.020 A 
ATOM     65  C   UNL     1       0.516   6.799 -13.492  1.00  0.00     0.020 A 
ATOM     66  C   UNL     1      -0.596   7.004 -12.673  1.00  0.00     0.054 A 
BRANCH  66  67
ATOM     67  S   UNL     1      -2.265   7.026 -13.386  1.00  0.00     0.124 S 
ATOM     68  O   UNL     1      -2.787   5.728 -12.968  1.00  0.00    -0.237 OA
ATOM     69  O   UNL     1      -2.876   8.186 -12.742  1.00  0.00    -0.237 OA
ATOM     70  O   UNL     1      -2.026   7.169 -14.820  1.00  0.00    -0.744 OA
ENDBRANCH  66  67
ENDBRANCH  47  61
BRANCH  48  71
ATOM     71  C   UNL     1      11.280   7.330  -8.032  1.00  0.00    -0.014 A 
ATOM     72  C   UNL     1      11.681   8.179  -6.987  1.00  0.00     0.010 A 
ATOM     73  C   UNL     1      12.235   6.502  -8.650  1.00  0.00     0.010 A 
ATOM     74  C   UNL     1      13.018   8.211  -6.578  1.00  0.00     0.020 A 
ATOM     75  C   UNL     1      13.565   6.512  -8.226  1.00  0.00     0.020 A 
ATOM     76  C   UNL     1      13.951   7.379  -7.202  1.00  0.00     0.054 A 
BRANCH  76  77
ATOM     77  S   UNL     1      15.674   7.390  -6.631  1.00  0.00     0.124 S 
ATOM     78  O   UNL     1      16.225   8.527  -7.360  1.00  0.00    -0.237 OA
ATOM     79  O   UNL     1      15.535   7.569  -5.188  1.00  0.00    -0.237 OA
ATOM     80  O   UNL     1      16.171   6.078  -7.041  1.00  0.00    -0.744 OA
ENDBRANCH  76  77
ENDBRANCH  48  71
BRANCH  60  81
ATOM     81  C   UNL     1       7.445  11.707 -11.836  1.00  0.00    -0.014 A 
ATOM     82  C   UNL     1       8.226  11.777 -13.002  1.00  0.00     0.010 A 
ATOM     83  C   UNL     1       6.916  12.889 -11.287  1.00  0.00     0.010 A 
ATOM     84  C   UNL     1       8.496  13.012 -13.597  1.00  0.00     0.020 A 
ATOM     85  C   UNL     1       7.169  14.124 -11.889  1.00  0.00     0.020 A 
ATOM     86  C   UNL     1       7.969  14.179 -13.033  1.00  0.00     0.054 A 
BRANCH  86  87
ATOM     87  S   UNL     1       8.298  15.769 -13.842  1.00  0.00     0.124 S 
ATOM     88  O   UNL     1       9.657  16.061 -13.395  1.00  0.00    -0.237 OA
ATOM     89  O   UNL     1       8.159  15.448 -15.260  1.00  0.00    -0.237 OA
ATOM     90  O   UNL     1       7.262  16.648 -13.305  1.00  0.00    -0.744 OA
ENDBRANCH  86  87
ENDBRANCH  60  81
ENDBRANCH  34  35
ENDBRANCH  27  29
ENDBRANCH  26  27
ENDBRANCH  25  26
ENDBRANCH   1  25
TORSDOF 18
