REMARK SMILES O=C(OCCOC(=O)c1ccc(-c2c3nc(c(-c4ccc(S(=O)(=O)[O-])cc4)c4ccc([nH]4)c(-c4ccc(S(=O)(=O)[O-])cc4)c4nc(c(-c5ccc(S(=O)(=O)[O-])cc5)c5ccc2[nH]5)C=C4)C=C3)cc1)C1=Cc2cc(Cl)c(Cl)c(Cl)c2O[C@@H]1C(F)(F)F
REMARK SMILES IDX 5 1 4 2 3 3 2 4 1 5 69 6 70 7 81 8 71 9 80 10 72 11 79 12
REMARK SMILES IDX 73 13 77 14 74 15 75 16 78 17 76 18 82 19 83 20 84 21 85 22
REMARK SMILES IDX 6 23 7 24 8 25 9 26 10 27 68 28 11 29 67 30 12 31 13 32
REMARK SMILES IDX 14 33 61 34 15 35 66 36 60 37 62 38 16 39 65 40 59 41 58 42
REMARK SMILES IDX 17 44 47 45 28 46 46 47 29 48 32 49 45 50 63 51 30 52 31 53
REMARK SMILES IDX 44 55 64 56 33 57 18 58 19 59 27 60 20 61 26 62 21 63 22 64
REMARK SMILES IDX 23 65 24 66 25 67 48 68 49 69 57 70 50 71 56 72 51 73 52 74
REMARK SMILES IDX 53 75 54 76 55 77 34 78 35 79 43 80 36 81 42 82 37 83 38 84
REMARK SMILES IDX 39 85 40 86 41 87
REMARK H PARENT 62 43 32 54
REMARK Flexibility Score: inf
ROOT
ATOM      1  C   UNL     1       2.940   0.926  -2.357  1.00  0.00     0.275 C 
ENDROOT
BRANCH   1   2
ATOM      2  C   UNL     1       2.774  -0.339  -1.485  1.00  0.00     0.275 C 
BRANCH   2   3
ATOM      3  O   UNL     1       2.046  -0.085  -0.256  1.00  0.00    -0.459 OA
BRANCH   3   4
ATOM      4  C   UNL     1       2.451  -0.759   0.854  1.00  0.00     0.338 C 
ATOM      5  O   UNL     1       1.901  -1.773   1.257  1.00  0.00    -0.246 OA
BRANCH   4   6
ATOM      6  C   UNL     1       3.683  -0.196   1.459  1.00  0.00     0.087 C 
ATOM      7  C   UNL     1       4.566  -1.106   1.903  1.00  0.00     0.027 C 
ATOM      8  C   UNL     1       4.160   1.168   1.081  1.00  0.00     0.316 C 
ATOM      9  C   UNL     1       5.870  -1.000   1.221  1.00  0.00     0.020 A 
ATOM     10  O   UNL     1       5.239   1.083   0.126  1.00  0.00    -0.474 OA
ATOM     11  C   UNL     1       6.755  -2.075   1.296  1.00  0.00     0.034 A 
ATOM     12  C   UNL     1       6.069  -0.009   0.239  1.00  0.00     0.148 A 
ATOM     13  C   UNL     1       7.765  -2.221   0.338  1.00  0.00     0.062 A 
ATOM     14  C   UNL     1       7.055  -0.177  -0.748  1.00  0.00     0.103 A 
ATOM     15  Cl  UNL     1       8.777  -3.619   0.475  1.00  0.00    -0.083 Cl
ATOM     16  C   UNL     1       7.894  -1.301  -0.715  1.00  0.00     0.082 A 
ATOM     17  Cl  UNL     1       7.125   0.961  -2.061  1.00  0.00    -0.079 Cl
ATOM     18  Cl  UNL     1       9.037  -1.587  -1.992  1.00  0.00    -0.081 Cl
BRANCH   8  19
ATOM     19  C   UNL     1       4.492   2.060   2.287  1.00  0.00     0.430 C 
ATOM     20  F   UNL     1       3.374   2.337   2.999  1.00  0.00    -0.167 F 
ATOM     21  F   UNL     1       5.383   1.491   3.128  1.00  0.00    -0.167 F 
ATOM     22  F   UNL     1       5.014   3.243   1.886  1.00  0.00    -0.167 F 
ENDBRANCH   8  19
ENDBRANCH   4   6
ENDBRANCH   3   4
ENDBRANCH   2   3
ENDBRANCH   1   2
BRANCH   1  23
ATOM     23  O   UNL     1       2.757   2.130  -1.600  1.00  0.00    -0.458 OA
BRANCH  23  24
ATOM     24  C   UNL     1       1.458   2.510  -1.491  1.00  0.00     0.338 C 
ATOM     25  O   UNL     1       0.533   2.107  -2.179  1.00  0.00    -0.246 OA
BRANCH  24  26
ATOM     26  C   UNL     1       1.276   3.300  -0.250  1.00  0.00     0.060 A 
ATOM     27  C   UNL     1       0.102   3.072   0.474  1.00  0.00     0.016 A 
ATOM     28  C   UNL     1       2.236   4.195   0.239  1.00  0.00     0.016 A 
ATOM     29  C   UNL     1      -0.142   3.778   1.651  1.00  0.00     0.010 A 
ATOM     30  C   UNL     1       2.002   4.879   1.441  1.00  0.00     0.010 A 
ATOM     31  C   UNL     1       0.789   4.710   2.130  1.00  0.00    -0.014 A 
BRANCH  31  32
ATOM     32  C   UNL     1       0.377   5.597   3.252  1.00  0.00     0.031 A 
ATOM     33  C   UNL     1      -0.044   7.011   2.945  1.00  0.00     0.074 A 
ATOM     34  C   UNL     1       0.241   5.118   4.504  1.00  0.00     0.049 A 
ATOM     35  N   UNL     1      -0.689   7.863   3.700  1.00  0.00    -0.248 NA
ATOM     36  C   UNL     1       0.297   7.530   1.610  1.00  0.00     0.031 C 
ATOM     37  C   UNL     1       0.629   3.780   4.950  1.00  0.00     0.029 A 
ATOM     38  N   UNL     1      -0.292   5.703   5.628  1.00  0.00    -0.354 N 
ATOM     39  C   UNL     1      -0.873   8.996   2.916  1.00  0.00     0.074 A 
ATOM     40  C   UNL     1      -0.198   8.757   1.660  1.00  0.00     0.031 C 
ATOM     41  C   UNL     1       0.299   3.637   6.246  1.00  0.00     0.029 A 
ATOM     42  C   UNL     1      -0.329   4.869   6.722  1.00  0.00     0.049 A 
ATOM     43  H   UNL     1      -0.618   6.631   5.649  1.00  0.00     0.167 HD
ATOM     44  C   UNL     1      -1.573  10.121   3.193  1.00  0.00     0.031 A 
ATOM     45  C   UNL     1      -0.833   5.066   7.957  1.00  0.00     0.031 A 
ATOM     46  C   UNL     1      -2.210  10.388   4.452  1.00  0.00     0.049 A 
ATOM     47  C   UNL     1      -1.558   6.353   8.266  1.00  0.00     0.074 A 
ATOM     48  C   UNL     1      -2.937  11.502   4.832  1.00  0.00     0.029 A 
ATOM     49  N   UNL     1      -2.185   9.534   5.544  1.00  0.00    -0.354 N 
ATOM     50  N   UNL     1      -1.802   7.375   7.479  1.00  0.00    -0.248 NA
ATOM     51  C   UNL     1      -2.105   6.497   9.623  1.00  0.00     0.031 C 
ATOM     52  C   UNL     1      -3.312  11.343   6.171  1.00  0.00     0.029 A 
ATOM     53  C   UNL     1      -2.866  10.104   6.605  1.00  0.00     0.049 A 
ATOM     54  H   UNL     1      -1.748   8.653   5.561  1.00  0.00     0.167 HD
ATOM     55  C   UNL     1      -2.556   8.267   8.238  1.00  0.00     0.074 A 
ATOM     56  C   UNL     1      -2.747   7.654   9.536  1.00  0.00     0.031 C 
ATOM     57  C   UNL     1      -3.047   9.484   7.893  1.00  0.00     0.031 A 
BRANCH  44  58
ATOM     58  C   UNL     1      -1.683  11.141   2.092  1.00  0.00    -0.014 A 
ATOM     59  C   UNL     1      -2.474  10.881   0.956  1.00  0.00     0.010 A 
ATOM     60  C   UNL     1      -1.000  12.365   2.186  1.00  0.00     0.010 A 
ATOM     61  C   UNL     1      -2.542  11.807  -0.086  1.00  0.00     0.020 A 
ATOM     62  C   UNL     1      -1.087  13.307   1.156  1.00  0.00     0.020 A 
ATOM     63  C   UNL     1      -1.843  13.012   0.018  1.00  0.00     0.054 A 
BRANCH  63  64
ATOM     64  S   UNL     1      -1.950  14.197  -1.351  1.00  0.00     0.124 S 
ATOM     65  O   UNL     1      -1.141  13.544  -2.378  1.00  0.00    -0.237 OA
ATOM     66  O   UNL     1      -3.385  14.246  -1.621  1.00  0.00    -0.237 OA
ATOM     67  O   UNL     1      -1.381  15.422  -0.796  1.00  0.00    -0.744 OA
ENDBRANCH  63  64
ENDBRANCH  44  58
BRANCH  45  68
ATOM     68  C   UNL     1      -0.689   4.016   9.007  1.00  0.00    -0.014 A 
ATOM     69  C   UNL     1      -1.806   3.316   9.497  1.00  0.00     0.010 A 
ATOM     70  C   UNL     1       0.577   3.747   9.558  1.00  0.00     0.010 A 
ATOM     71  C   UNL     1      -1.667   2.400  10.545  1.00  0.00     0.020 A 
ATOM     72  C   UNL     1       0.725   2.811  10.586  1.00  0.00     0.020 A 
ATOM     73  C   UNL     1      -0.402   2.157  11.086  1.00  0.00     0.054 A 
BRANCH  73  74
ATOM     74  S   UNL     1      -0.239   0.957  12.439  1.00  0.00     0.124 S 
ATOM     75  O   UNL     1      -0.805   1.690  13.566  1.00  0.00    -0.237 OA
ATOM     76  O   UNL     1      -1.029  -0.173  11.956  1.00  0.00    -0.237 OA
ATOM     77  O   UNL     1       1.201   0.715  12.509  1.00  0.00    -0.744 OA
ENDBRANCH  73  74
ENDBRANCH  45  68
BRANCH  57  78
ATOM     78  C   UNL     1      -3.862  10.223   8.924  1.00  0.00    -0.014 A 
ATOM     79  C   UNL     1      -3.266  10.765  10.077  1.00  0.00     0.010 A 
ATOM     80  C   UNL     1      -5.242  10.411   8.716  1.00  0.00     0.010 A 
ATOM     81  C   UNL     1      -4.042  11.439  11.024  1.00  0.00     0.020 A 
ATOM     82  C   UNL     1      -6.015  11.111   9.646  1.00  0.00     0.020 A 
ATOM     83  C   UNL     1      -5.413  11.604  10.805  1.00  0.00     0.054 A 
BRANCH  83  84
ATOM     84  S   UNL     1      -6.395  12.500  12.038  1.00  0.00     0.124 S 
ATOM     85  O   UNL     1      -6.511  11.514  13.109  1.00  0.00    -0.237 OA
ATOM     86  O   UNL     1      -5.557  13.659  12.338  1.00  0.00    -0.237 OA
ATOM     87  O   UNL     1      -7.639  12.806  11.335  1.00  0.00    -0.744 OA
ENDBRANCH  83  84
ENDBRANCH  57  78
ENDBRANCH  31  32
ENDBRANCH  24  26
ENDBRANCH  23  24
ENDBRANCH   1  23
TORSDOF 15
