REMARK SMILES CN1C(=O)/C(=C(\SC2=[NH+][C@@H]3N=c4ccccc4=C3N=N2)C(=O)OCCOC(=O)c2ccc(-c3c4nc(c(-c5ccc(S(=O)(=O)[O-])cc5)c5ccc([nH]5)c(-c5ccc(S(=O)(=O)[O-])cc5)c5nc(c(-c6ccc(S(=O)(=O)[O-])cc6)c6ccc3[nH]6)C=C5)C=C4)cc2)c2ccccc21
REMARK SMILES IDX 25 1 24 2 23 3 21 4 22 5 6 6 1 7 2 8 3 9 94 10 4 11 5 12
REMARK SMILES IDX 89 13 93 14 90 15 92 16 91 17 7 18 8 19 9 20 20 21 10 22
REMARK SMILES IDX 19 24 11 25 18 26 12 27 17 28 13 29 16 30 14 31 15 32 26 33
REMARK SMILES IDX 27 34 28 35 29 36 30 37 88 38 31 39 87 40 32 41 33 42 34 43
REMARK SMILES IDX 81 44 35 45 86 46 80 47 82 48 36 49 85 50 79 51 78 52 37 54
REMARK SMILES IDX 67 55 48 56 66 57 49 58 52 59 65 60 83 61 50 62 51 63 64 65
REMARK SMILES IDX 84 66 53 67 38 68 39 69 47 70 40 71 46 72 41 73 42 74 43 75
REMARK SMILES IDX 44 76 45 77 68 78 69 79 77 80 70 81 76 82 71 83 72 84 73 85
REMARK SMILES IDX 74 86 75 87 54 88 55 89 63 90 56 91 62 92 57 93 58 94 59 95
REMARK SMILES IDX 60 96 61 97
REMARK H PARENT 9 23 82 53 52 64
REMARK Flexibility Score: inf
ROOT
ATOM      1  C   UNL     1      -0.576   5.528  -1.625  1.00  0.00     0.275 C 
ENDROOT
BRANCH   1   2
ATOM      2  C   UNL     1       0.304   5.309  -0.395  1.00  0.00     0.275 C 
BRANCH   2   3
ATOM      3  O   UNL     1       0.956   4.022  -0.440  1.00  0.00    -0.458 OA
BRANCH   3   4
ATOM      4  C   UNL     1       1.113   3.412   0.766  1.00  0.00     0.346 C 
ATOM      5  O   UNL     1       0.671   3.833   1.828  1.00  0.00    -0.246 OA
BRANCH   4   6
ATOM      6  C   UNL     1       2.004   2.214   0.689  1.00  0.00     0.118 C 
ATOM      7  C   UNL     1       1.898  -2.602   0.944  1.00  0.00     0.153 C 
ATOM      8  N   UNL     1       1.491  -1.240   1.169  1.00  0.00    -0.311 N 
ATOM      9  C   UNL     1       2.356  -0.182   1.434  1.00  0.00     0.260 C 
ATOM     10  C   UNL     1       0.166  -0.796   1.246  1.00  0.00     0.052 A 
ATOM     11  O   UNL     1       3.510  -0.211   1.817  1.00  0.00    -0.269 OA
ATOM     12  C   UNL     1       1.538   1.055   1.204  1.00  0.00     0.071 C 
ATOM     13  C   UNL     1       0.145   0.604   1.409  1.00  0.00     0.012 A 
ATOM     14  C   UNL     1      -0.971  -1.580   1.331  1.00  0.00     0.027 A 
ATOM     15  C   UNL     1      -1.026   1.225   1.786  1.00  0.00     0.011 A 
ATOM     16  C   UNL     1      -2.141  -0.954   1.740  1.00  0.00     0.002 A 
ATOM     17  C   UNL     1      -2.152   0.427   1.996  1.00  0.00     0.001 A 
BRANCH   6  18
ATOM     18  S   UNL     1       3.592   2.649   0.085  1.00  0.00     0.013 SA
BRANCH  18  19
ATOM     19  C   UNL     1       4.444   1.213  -0.482  1.00  0.00     0.386 C 
ATOM     20  N   UNL     1       5.735   1.290  -0.463  1.00  0.00    -0.235 N 
ATOM     21  N   UNL     1       3.711   0.122  -0.899  1.00  0.00     0.088 NA
ATOM     22  C   UNL     1       6.407   0.008  -0.403  1.00  0.00     0.348 C 
ATOM     23  H   UNL     1       6.220   2.146  -0.487  1.00  0.00     0.308 HD
ATOM     24  N   UNL     1       4.175  -1.026  -0.703  1.00  0.00    -0.033 NA
ATOM     25  N   UNL     1       7.420  -0.272  -1.444  1.00  0.00    -0.232 NA
ATOM     26  C   UNL     1       5.503  -1.162  -0.455  1.00  0.00     0.165 C 
ATOM     27  C   UNL     1       7.266  -1.565  -1.576  1.00  0.00     0.072 A 
ATOM     28  C   UNL     1       6.193  -2.238  -0.807  1.00  0.00     0.032 A 
ATOM     29  C   UNL     1       7.964  -2.435  -2.556  1.00  0.00     0.029 A 
ATOM     30  C   UNL     1       5.854  -3.612  -0.985  1.00  0.00     0.012 A 
ATOM     31  C   UNL     1       7.605  -3.728  -2.666  1.00  0.00     0.002 A 
ATOM     32  C   UNL     1       6.574  -4.342  -1.846  1.00  0.00     0.001 A 
ENDBRANCH  18  19
ENDBRANCH   6  18
ENDBRANCH   4   6
ENDBRANCH   3   4
ENDBRANCH   2   3
ENDBRANCH   1   2
BRANCH   1  33
ATOM     33  O   UNL     1      -1.667   4.591  -1.618  1.00  0.00    -0.458 OA
BRANCH  33  34
ATOM     34  C   UNL     1      -1.434   3.445  -2.306  1.00  0.00     0.338 C 
ATOM     35  O   UNL     1      -0.473   3.204  -3.015  1.00  0.00    -0.246 OA
BRANCH  34  36
ATOM     36  C   UNL     1      -2.454   2.439  -1.939  1.00  0.00     0.060 A 
ATOM     37  C   UNL     1      -3.795   2.770  -1.709  1.00  0.00     0.016 A 
ATOM     38  C   UNL     1      -2.027   1.117  -1.811  1.00  0.00     0.016 A 
ATOM     39  C   UNL     1      -4.707   1.774  -1.330  1.00  0.00     0.010 A 
ATOM     40  C   UNL     1      -2.931   0.137  -1.406  1.00  0.00     0.010 A 
ATOM     41  C   UNL     1      -4.277   0.453  -1.145  1.00  0.00    -0.014 A 
BRANCH  41  42
ATOM     42  C   UNL     1      -5.201  -0.636  -0.730  1.00  0.00     0.031 A 
ATOM     43  C   UNL     1      -5.669  -0.781   0.693  1.00  0.00     0.074 A 
ATOM     44  C   UNL     1      -5.518  -1.585  -1.629  1.00  0.00     0.049 A 
ATOM     45  N   UNL     1      -6.200  -1.821   1.285  1.00  0.00    -0.248 NA
ATOM     46  C   UNL     1      -5.450   0.360   1.587  1.00  0.00     0.031 C 
ATOM     47  C   UNL     1      -5.147  -1.557  -3.044  1.00  0.00     0.029 A 
ATOM     48  N   UNL     1      -6.217  -2.755  -1.484  1.00  0.00    -0.354 N 
ATOM     49  C   UNL     1      -6.262  -1.504   2.640  1.00  0.00     0.074 A 
ATOM     50  C   UNL     1      -5.728  -0.168   2.774  1.00  0.00     0.031 C 
ATOM     51  C   UNL     1      -5.631  -2.656  -3.641  1.00  0.00     0.029 A 
ATOM     52  C   UNL     1      -6.337  -3.467  -2.651  1.00  0.00     0.049 A 
ATOM     53  H   UNL     1      -6.596  -3.056  -0.627  1.00  0.00     0.167 HD
ATOM     54  C   UNL     1      -6.715  -2.267   3.665  1.00  0.00     0.031 A 
ATOM     55  C   UNL     1      -6.972  -4.627  -2.908  1.00  0.00     0.031 A 
ATOM     56  C   UNL     1      -7.424  -3.511   3.474  1.00  0.00     0.049 A 
ATOM     57  C   UNL     1      -7.713  -5.322  -1.806  1.00  0.00     0.074 A 
ATOM     58  C   UNL     1      -8.072  -4.283   4.425  1.00  0.00     0.029 A 
ATOM     59  N   UNL     1      -7.646  -4.124   2.250  1.00  0.00    -0.354 N 
ATOM     60  N   UNL     1      -7.731  -5.035  -0.527  1.00  0.00    -0.248 NA
ATOM     61  C   UNL     1      -8.549  -6.470  -2.180  1.00  0.00     0.031 C 
ATOM     62  C   UNL     1      -8.670  -5.368   3.780  1.00  0.00     0.029 A 
ATOM     63  C   UNL     1      -8.445  -5.242   2.420  1.00  0.00     0.049 A 
ATOM     64  H   UNL     1      -7.287  -3.811   1.388  1.00  0.00     0.167 HD
ATOM     65  C   UNL     1      -8.602  -5.949   0.053  1.00  0.00     0.074 A 
ATOM     66  C   UNL     1      -9.099  -6.791  -1.015  1.00  0.00     0.031 C 
ATOM     67  C   UNL     1      -8.953  -6.071   1.356  1.00  0.00     0.031 A 
BRANCH  54  68
ATOM     68  C   UNL     1      -6.519  -1.802   5.093  1.00  0.00    -0.014 A 
ATOM     69  C   UNL     1      -5.800  -2.625   5.988  1.00  0.00     0.010 A 
ATOM     70  C   UNL     1      -7.151  -0.655   5.601  1.00  0.00     0.010 A 
ATOM     71  C   UNL     1      -5.752  -2.336   7.356  1.00  0.00     0.020 A 
ATOM     72  C   UNL     1      -7.068  -0.335   6.961  1.00  0.00     0.020 A 
ATOM     73  C   UNL     1      -6.397  -1.195   7.835  1.00  0.00     0.054 A 
BRANCH  73  74
ATOM     74  S   UNL     1      -6.359  -0.833   9.613  1.00  0.00     0.124 S 
ATOM     75  O   UNL     1      -7.451  -1.659  10.117  1.00  0.00    -0.237 OA
ATOM     76  O   UNL     1      -5.015  -1.255  10.004  1.00  0.00    -0.237 OA
ATOM     77  O   UNL     1      -6.587   0.610   9.666  1.00  0.00    -0.744 OA
ENDBRANCH  73  74
ENDBRANCH  54  68
BRANCH  55  78
ATOM     78  C   UNL     1      -7.052  -5.075  -4.321  1.00  0.00    -0.014 A 
ATOM     79  C   UNL     1      -5.935  -5.622  -4.975  1.00  0.00     0.010 A 
ATOM     80  C   UNL     1      -8.212  -4.781  -5.059  1.00  0.00     0.010 A 
ATOM     81  C   UNL     1      -5.956  -5.809  -6.359  1.00  0.00     0.020 A 
ATOM     82  C   UNL     1      -8.244  -4.986  -6.438  1.00  0.00     0.020 A 
ATOM     83  C   UNL     1      -7.103  -5.465  -7.084  1.00  0.00     0.054 A 
BRANCH  83  84
ATOM     84  S   UNL     1      -7.072  -5.605  -8.891  1.00  0.00     0.124 S 
ATOM     85  O   UNL     1      -6.258  -4.451  -9.265  1.00  0.00    -0.237 OA
ATOM     86  O   UNL     1      -6.450  -6.910  -9.100  1.00  0.00    -0.237 OA
ATOM     87  O   UNL     1      -8.482  -5.523  -9.264  1.00  0.00    -0.744 OA
ENDBRANCH  83  84
ENDBRANCH  55  78
BRANCH  67  88
ATOM     88  C   UNL     1      -9.944  -7.139   1.735  1.00  0.00    -0.014 A 
ATOM     89  C   UNL     1     -11.219  -6.766   2.201  1.00  0.00     0.010 A 
ATOM     90  C   UNL     1      -9.571  -8.493   1.766  1.00  0.00     0.010 A 
ATOM     91  C   UNL     1     -12.094  -7.725   2.719  1.00  0.00     0.020 A 
ATOM     92  C   UNL     1     -10.453  -9.459   2.262  1.00  0.00     0.020 A 
ATOM     93  C   UNL     1     -11.699  -9.065   2.757  1.00  0.00     0.054 A 
BRANCH  93  94
ATOM     94  S   UNL     1     -12.831 -10.290   3.470  1.00  0.00     0.124 S 
ATOM     95  O   UNL     1     -12.694 -10.039   4.901  1.00  0.00    -0.237 OA
ATOM     96  O   UNL     1     -14.117  -9.918   2.885  1.00  0.00    -0.237 OA
ATOM     97  O   UNL     1     -12.291 -11.566   3.005  1.00  0.00    -0.744 OA
ENDBRANCH  93  94
ENDBRANCH  67  88
ENDBRANCH  41  42
ENDBRANCH  34  36
ENDBRANCH  33  34
ENDBRANCH   1  33
TORSDOF 16
