REMARK SMILES C[C@H](CO)CSc1cc(Cl)ccc1C(=O)OCCOC(=O)c1ccc(-c2c3nc(c(-c4ccc(S(=O)(=O)[O-])cc4)c4ccc([nH]4)c(-c4ccc(S(=O)(=O)[O-])cc4)c4nc(c(-c5ccc(S(=O)(=O)[O-])cc5)c5ccc2[nH]5)C=C4)C=C3)cc1
REMARK SMILES IDX 17 1 16 2 14 3 15 4 13 5 7 6 8 7 9 8 12 9 10 10 11 11 6 12
REMARK SMILES IDX 5 13 2 14 1 15 3 16 4 17 18 19 19 20 20 21 21 22 22 23 23 24
REMARK SMILES IDX 81 25 24 26 80 27 25 28 26 29 27 30 74 31 28 32 79 33 73 34
REMARK SMILES IDX 75 35 29 36 78 37 72 38 71 39 30 41 60 42 41 43 59 44 42 45
REMARK SMILES IDX 45 46 58 47 76 48 43 49 44 50 57 52 77 53 46 54 31 55 32 56
REMARK SMILES IDX 40 57 33 58 39 59 34 60 35 61 36 62 37 63 38 64 61 65 62 66
REMARK SMILES IDX 70 67 63 68 69 69 64 70 65 71 66 72 67 73 68 74 47 75 48 76
REMARK SMILES IDX 56 77 49 78 55 79 50 80 51 81 52 82 53 83 54 84
REMARK H PARENT 4 18 75 40 45 51
REMARK Flexibility Score: inf
ROOT
ATOM      1  C   UNL     1      -0.820   2.695  -0.878  1.00  0.00     0.275 C 
ENDROOT
BRANCH   1   2
ATOM      2  O   UNL     1      -0.912   1.268  -0.635  1.00  0.00    -0.458 OA
BRANCH   2   3
ATOM      3  C   UNL     1      -1.674   0.534  -1.478  1.00  0.00     0.339 C 
ATOM      4  O   UNL     1      -2.307   0.958  -2.430  1.00  0.00    -0.246 OA
BRANCH   3   5
ATOM      5  C   UNL     1      -1.461  -0.914  -1.227  1.00  0.00     0.073 A 
ATOM      6  C   UNL     1      -1.542  -1.567   0.019  1.00  0.00     0.023 A 
ATOM      7  C   UNL     1      -1.328  -2.965   0.044  1.00  0.00     0.036 A 
ATOM      8  C   UNL     1      -1.016  -3.684  -1.111  1.00  0.00     0.042 A 
ATOM      9  C   UNL     1      -1.177  -1.666  -2.391  1.00  0.00     0.018 A 
ATOM     10  Cl  UNL     1      -0.777  -5.385  -1.020  1.00  0.00    -0.084 Cl
ATOM     11  C   UNL     1      -0.938  -3.039  -2.334  1.00  0.00     0.021 A 
BRANCH   6  12
ATOM     12  S   UNL     1      -2.135  -0.941   1.594  1.00  0.00    -0.125 SA
BRANCH  12  13
ATOM     13  C   UNL     1      -1.001   0.376   2.158  1.00  0.00     0.080 C 
BRANCH  13  14
ATOM     14  C   UNL     1       0.496   0.131   2.438  1.00  0.00     0.022 C 
ATOM     15  C   UNL     1       1.160   1.501   2.672  1.00  0.00     0.011 C 
BRANCH  14  16
ATOM     16  C   UNL     1       1.302  -0.685   1.422  1.00  0.00     0.160 C 
BRANCH  16  17
ATOM     17  O   UNL     1       1.328  -0.140   0.118  1.00  0.00    -0.396 OA
ATOM     18  H   UNL     1       0.427  -0.117  -0.240  1.00  0.00     0.210 HD
ENDBRANCH  16  17
ENDBRANCH  14  16
ENDBRANCH  13  14
ENDBRANCH  12  13
ENDBRANCH   6  12
ENDBRANCH   3   5
ENDBRANCH   2   3
ENDBRANCH   1   2
BRANCH   1  19
ATOM     19  C   UNL     1       0.655   3.059  -1.026  1.00  0.00     0.275 C 
BRANCH  19  20
ATOM     20  O   UNL     1       1.135   2.354  -2.172  1.00  0.00    -0.458 OA
BRANCH  20  21
ATOM     21  C   UNL     1       2.422   1.932  -2.137  1.00  0.00     0.338 C 
ATOM     22  O   UNL     1       3.266   2.202  -1.309  1.00  0.00    -0.246 OA
BRANCH  21  23
ATOM     23  C   UNL     1       2.633   1.167  -3.382  1.00  0.00     0.060 A 
ATOM     24  C   UNL     1       1.646   0.290  -3.848  1.00  0.00     0.016 A 
ATOM     25  C   UNL     1       3.782   1.399  -4.131  1.00  0.00     0.016 A 
ATOM     26  C   UNL     1       1.781  -0.329  -5.085  1.00  0.00     0.010 A 
ATOM     27  C   UNL     1       3.887   0.829  -5.399  1.00  0.00     0.010 A 
ATOM     28  C   UNL     1       2.880  -0.022  -5.894  1.00  0.00    -0.014 A 
BRANCH  28  29
ATOM     29  C   UNL     1       2.989  -0.543  -7.279  1.00  0.00     0.031 A 
ATOM     30  C   UNL     1       4.162  -1.404  -7.647  1.00  0.00     0.074 A 
ATOM     31  C   UNL     1       2.091  -0.162  -8.209  1.00  0.00     0.049 A 
ATOM     32  N   UNL     1       4.603  -1.738  -8.829  1.00  0.00    -0.248 NA
ATOM     33  C   UNL     1       4.959  -1.937  -6.530  1.00  0.00     0.031 C 
ATOM     34  C   UNL     1       0.892   0.643  -7.956  1.00  0.00     0.029 A 
ATOM     35  N   UNL     1       2.056  -0.383  -9.564  1.00  0.00    -0.354 N 
ATOM     36  C   UNL     1       5.761  -2.474  -8.603  1.00  0.00     0.074 A 
ATOM     37  C   UNL     1       5.957  -2.529  -7.171  1.00  0.00     0.031 C 
ATOM     38  C   UNL     1       0.238   0.841  -9.111  1.00  0.00     0.029 A 
ATOM     39  C   UNL     1       1.012   0.253 -10.197  1.00  0.00     0.049 A 
ATOM     40  H   UNL     1       2.715  -0.941 -10.037  1.00  0.00     0.167 HD
ATOM     41  C   UNL     1       6.586  -3.041  -9.515  1.00  0.00     0.031 A 
ATOM     42  C   UNL     1       0.737   0.392 -11.509  1.00  0.00     0.031 A 
ATOM     43  C   UNL     1       6.360  -2.974 -10.936  1.00  0.00     0.049 A 
ATOM     44  C   UNL     1       1.691  -0.207 -12.505  1.00  0.00     0.074 A 
ATOM     45  C   UNL     1       7.117  -3.518 -11.957  1.00  0.00     0.029 A 
ATOM     46  N   UNL     1       5.288  -2.324 -11.533  1.00  0.00    -0.354 N 
ATOM     47  N   UNL     1       2.796  -0.881 -12.281  1.00  0.00    -0.248 NA
ATOM     48  C   UNL     1       1.373  -0.019 -13.925  1.00  0.00     0.031 C 
ATOM     49  C   UNL     1       6.529  -3.156 -13.174  1.00  0.00     0.029 A 
ATOM     50  C   UNL     1       5.372  -2.438 -12.910  1.00  0.00     0.049 A 
ATOM     51  H   UNL     1       4.573  -1.852 -11.049  1.00  0.00     0.167 HD
ATOM     52  C   UNL     1       3.295  -1.215 -13.533  1.00  0.00     0.074 A 
ATOM     53  C   UNL     1       2.363  -0.683 -14.508  1.00  0.00     0.031 C 
ATOM     54  C   UNL     1       4.423  -1.897 -13.852  1.00  0.00     0.031 A 
BRANCH  41  55
ATOM     55  C   UNL     1       7.822  -3.736  -9.004  1.00  0.00    -0.014 A 
ATOM     56  C   UNL     1       7.743  -4.938  -8.277  1.00  0.00     0.010 A 
ATOM     57  C   UNL     1       9.090  -3.183  -9.266  1.00  0.00     0.010 A 
ATOM     58  C   UNL     1       8.901  -5.546  -7.782  1.00  0.00     0.020 A 
ATOM     59  C   UNL     1      10.253  -3.804  -8.799  1.00  0.00     0.020 A 
ATOM     60  C   UNL     1      10.149  -4.972  -8.042  1.00  0.00     0.054 A 
BRANCH  60  61
ATOM     61  S   UNL     1      11.635  -5.788  -7.394  1.00  0.00     0.124 S 
ATOM     62  O   UNL     1      11.535  -5.504  -5.964  1.00  0.00    -0.237 OA
ATOM     63  O   UNL     1      11.425  -7.183  -7.772  1.00  0.00    -0.237 OA
ATOM     64  O   UNL     1      12.731  -5.115  -8.087  1.00  0.00    -0.744 OA
ENDBRANCH  60  61
ENDBRANCH  41  55
BRANCH  42  65
ATOM     65  C   UNL     1      -0.466   1.156 -11.946  1.00  0.00    -0.014 A 
ATOM     66  C   UNL     1      -1.551   0.496 -12.549  1.00  0.00     0.010 A 
ATOM     67  C   UNL     1      -0.551   2.545 -11.732  1.00  0.00     0.010 A 
ATOM     68  C   UNL     1      -2.692   1.208 -12.934  1.00  0.00     0.020 A 
ATOM     69  C   UNL     1      -1.702   3.256 -12.087  1.00  0.00     0.020 A 
ATOM     70  C   UNL     1      -2.763   2.583 -12.696  1.00  0.00     0.054 A 
BRANCH  70  71
ATOM     71  S   UNL     1      -4.279   3.473 -13.146  1.00  0.00     0.124 S 
ATOM     72  O   UNL     1      -4.192   3.505 -14.602  1.00  0.00    -0.237 OA
ATOM     73  O   UNL     1      -5.324   2.615 -12.594  1.00  0.00    -0.237 OA
ATOM     74  O   UNL     1      -4.129   4.765 -12.481  1.00  0.00    -0.744 OA
ENDBRANCH  70  71
ENDBRANCH  42  65
BRANCH  54  75
ATOM     75  C   UNL     1       4.688  -2.139 -15.312  1.00  0.00    -0.014 A 
ATOM     76  C   UNL     1       5.126  -1.102 -16.154  1.00  0.00     0.010 A 
ATOM     77  C   UNL     1       4.559  -3.440 -15.830  1.00  0.00     0.010 A 
ATOM     78  C   UNL     1       5.411  -1.360 -17.496  1.00  0.00     0.020 A 
ATOM     79  C   UNL     1       4.870  -3.707 -17.164  1.00  0.00     0.020 A 
ATOM     80  C   UNL     1       5.284  -2.662 -17.992  1.00  0.00     0.054 A 
BRANCH  80  81
ATOM     81  S   UNL     1       5.720  -2.982 -19.722  1.00  0.00     0.124 S 
ATOM     82  O   UNL     1       4.599  -2.375 -20.435  1.00  0.00    -0.237 OA
ATOM     83  O   UNL     1       7.001  -2.294 -19.862  1.00  0.00    -0.237 OA
ATOM     84  O   UNL     1       5.791  -4.439 -19.798  1.00  0.00    -0.744 OA
ENDBRANCH  80  81
ENDBRANCH  54  75
ENDBRANCH  28  29
ENDBRANCH  21  23
ENDBRANCH  20  21
ENDBRANCH  19  20
ENDBRANCH   1  19
TORSDOF 19
