REMARK SMILES CC1(C)[C@@H](C(=O)NCCc2ccc(S(N)(=O)=O)cc2)[C@@H]1C(=O)OCCOC(=O)c1ccc(-c2c3nc(c(-c4ccc(S(=O)(=O)[O-])cc4)c4ccc([nH]4)c(-c4ccc(S(=O)(=O)[O-])cc4)c4nc(c(-c5ccc(S(=O)(=O)[O-])cc5)c5ccc2[nH]5)C=C4)C=C3)cc1
REMARK SMILES IDX 23 1 21 2 22 3 20 4 1 5 2 6 3 7 4 8 5 9 6 10 7 11 8 13 9 14
REMARK SMILES IDX 10 15 11 16 19 17 12 18 18 19 13 20 14 21 16 22 17 23 15 24
REMARK SMILES IDX 24 27 25 28 26 29 27 30 28 31 29 32 30 33 88 34 31 35 87 36
REMARK SMILES IDX 32 37 33 38 34 39 81 40 35 41 86 42 80 43 82 44 36 45 85 46
REMARK SMILES IDX 79 47 78 48 37 50 67 51 48 52 66 53 49 54 52 55 65 56 83 57
REMARK SMILES IDX 50 58 51 59 64 61 84 62 53 63 38 64 39 65 47 66 40 67 46 68
REMARK SMILES IDX 41 69 42 70 43 71 44 72 45 73 68 74 69 75 77 76 70 77 76 78
REMARK SMILES IDX 71 79 72 80 73 81 74 82 75 83 54 84 55 85 63 86 56 87 62 88
REMARK SMILES IDX 57 89 58 90 59 91 60 92 61 93
REMARK H PARENT 7 12 15 25 15 26 82 49 52 60
REMARK Flexibility Score: inf
ROOT
ATOM      1  O   UNL     1      -2.634   1.822   1.240  1.00  0.00    -0.462 OA
ENDROOT
BRANCH   1   2
ATOM      2  C   UNL     1      -1.290   1.611   1.177  1.00  0.00     0.310 C 
ATOM      3  O   UNL     1      -0.438   2.264   1.749  1.00  0.00    -0.252 OA
BRANCH   2   4
ATOM      4  C   UNL     1      -0.971   0.357   0.461  1.00  0.00     0.118 C 
ATOM      5  C   UNL     1       1.065  -1.040  -0.253  1.00  0.00     0.013 C 
ATOM      6  C   UNL     1       0.257   0.231  -0.415  1.00  0.00    -0.009 C 
ATOM      7  C   UNL     1       1.111   1.438  -0.709  1.00  0.00     0.013 C 
ATOM      8  C   UNL     1      -1.159   0.181  -1.021  1.00  0.00     0.100 C 
BRANCH   8   9
ATOM      9  C   UNL     1      -1.582  -1.103  -1.636  1.00  0.00     0.224 C 
ATOM     10  O   UNL     1      -1.022  -1.496  -2.655  1.00  0.00    -0.275 OA
ATOM     11  N   UNL     1      -2.554  -1.873  -1.065  1.00  0.00    -0.355 N 
ATOM     12  H   UNL     1      -2.572  -2.806  -1.381  1.00  0.00     0.163 HD
BRANCH  11  13
ATOM     13  C   UNL     1      -3.570  -1.557  -0.071  1.00  0.00     0.120 C 
BRANCH  13  14
ATOM     14  C   UNL     1      -4.945  -1.272  -0.692  1.00  0.00     0.056 C 
BRANCH  14  15
ATOM     15  C   UNL     1      -5.681  -2.481  -1.234  1.00  0.00    -0.046 A 
ATOM     16  C   UNL     1      -6.923  -2.849  -0.690  1.00  0.00     0.005 A 
ATOM     17  C   UNL     1      -5.176  -3.219  -2.315  1.00  0.00     0.005 A 
ATOM     18  C   UNL     1      -7.635  -3.934  -1.205  1.00  0.00     0.022 A 
ATOM     19  C   UNL     1      -5.867  -4.325  -2.815  1.00  0.00     0.022 A 
ATOM     20  C   UNL     1      -7.097  -4.673  -2.260  1.00  0.00     0.082 A 
BRANCH  20  21
ATOM     21  S   UNL     1      -8.004  -6.037  -2.921  1.00  0.00     0.238 S 
ATOM     22  O   UNL     1      -9.324  -5.577  -3.290  1.00  0.00    -0.207 OA
ATOM     23  O   UNL     1      -7.164  -6.785  -3.826  1.00  0.00    -0.207 OA
BRANCH  21  24
ATOM     24  N   UNL     1      -8.210  -7.028  -1.583  1.00  0.00    -0.225 NA
ATOM     25  H   UNL     1      -8.800  -6.555  -0.897  1.00  0.00     0.137 HD
ATOM     26  H   UNL     1      -7.301  -7.231  -1.167  1.00  0.00     0.137 HD
ENDBRANCH  21  24
ENDBRANCH  20  21
ENDBRANCH  14  15
ENDBRANCH  13  14
ENDBRANCH  11  13
ENDBRANCH   8   9
ENDBRANCH   2   4
ENDBRANCH   1   2
BRANCH   1  27
ATOM     27  C   UNL     1      -3.047   2.805   2.207  1.00  0.00     0.274 C 
BRANCH  27  28
ATOM     28  C   UNL     1      -3.446   2.152   3.537  1.00  0.00     0.275 C 
BRANCH  28  29
ATOM     29  O   UNL     1      -2.328   1.539   4.212  1.00  0.00    -0.458 OA
BRANCH  29  30
ATOM     30  C   UNL     1      -2.128   0.230   3.925  1.00  0.00     0.338 C 
ATOM     31  O   UNL     1      -2.805  -0.462   3.179  1.00  0.00    -0.246 OA
BRANCH  30  32
ATOM     32  C   UNL     1      -0.871  -0.253   4.531  1.00  0.00     0.060 A 
ATOM     33  C   UNL     1       0.049  -0.897   3.699  1.00  0.00     0.016 A 
ATOM     34  C   UNL     1      -0.626  -0.167   5.903  1.00  0.00     0.016 A 
ATOM     35  C   UNL     1       1.202  -1.466   4.220  1.00  0.00     0.010 A 
ATOM     36  C   UNL     1       0.537  -0.743   6.432  1.00  0.00     0.010 A 
ATOM     37  C   UNL     1       1.449  -1.409   5.593  1.00  0.00    -0.014 A 
BRANCH  37  38
ATOM     38  C   UNL     1       2.636  -2.118   6.122  1.00  0.00     0.031 A 
ATOM     39  C   UNL     1       2.467  -3.437   6.819  1.00  0.00     0.074 A 
ATOM     40  C   UNL     1       3.866  -1.621   5.891  1.00  0.00     0.049 A 
ATOM     41  N   UNL     1       3.380  -4.223   7.328  1.00  0.00    -0.248 NA
ATOM     42  C   UNL     1       1.091  -3.942   6.955  1.00  0.00     0.031 C 
ATOM     43  C   UNL     1       4.154  -0.383   5.165  1.00  0.00     0.029 A 
ATOM     44  N   UNL     1       5.103  -2.108   6.228  1.00  0.00    -0.354 N 
ATOM     45  C   UNL     1       2.692  -5.308   7.858  1.00  0.00     0.074 A 
ATOM     46  C   UNL     1       1.283  -5.070   7.626  1.00  0.00     0.031 C 
ATOM     47  C   UNL     1       5.485  -0.214   5.101  1.00  0.00     0.029 A 
ATOM     48  C   UNL     1       6.140  -1.306   5.816  1.00  0.00     0.049 A 
ATOM     49  H   UNL     1       5.236  -2.951   6.719  1.00  0.00     0.167 HD
ATOM     50  C   UNL     1       3.190  -6.403   8.479  1.00  0.00     0.031 A 
ATOM     51  C   UNL     1       7.468  -1.428   6.007  1.00  0.00     0.031 A 
ATOM     52  C   UNL     1       4.592  -6.632   8.710  1.00  0.00     0.049 A 
ATOM     53  C   UNL     1       7.991  -2.622   6.757  1.00  0.00     0.074 A 
ATOM     54  C   UNL     1       5.197  -7.708   9.336  1.00  0.00     0.029 A 
ATOM     55  N   UNL     1       5.609  -5.771   8.325  1.00  0.00    -0.354 N 
ATOM     56  N   UNL     1       7.326  -3.634   7.262  1.00  0.00    -0.248 NA
ATOM     57  C   UNL     1       9.444  -2.693   6.959  1.00  0.00     0.031 C 
ATOM     58  C   UNL     1       6.577  -7.474   9.371  1.00  0.00     0.029 A 
ATOM     59  C   UNL     1       6.835  -6.280   8.717  1.00  0.00     0.049 A 
ATOM     60  H   UNL     1       5.478  -4.922   7.843  1.00  0.00     0.167 HD
ATOM     61  C   UNL     1       8.282  -4.475   7.820  1.00  0.00     0.074 A 
ATOM     62  C   UNL     1       9.572  -3.859   7.579  1.00  0.00     0.031 C 
ATOM     63  C   UNL     1       8.109  -5.652   8.470  1.00  0.00     0.031 A 
BRANCH  50  64
ATOM     64  C   UNL     1       2.204  -7.417   8.994  1.00  0.00    -0.014 A 
ATOM     65  C   UNL     1       1.502  -8.266   8.119  1.00  0.00     0.010 A 
ATOM     66  C   UNL     1       1.995  -7.538  10.380  1.00  0.00     0.010 A 
ATOM     67  C   UNL     1       0.581  -9.190   8.619  1.00  0.00     0.020 A 
ATOM     68  C   UNL     1       1.093  -8.478  10.886  1.00  0.00     0.020 A 
ATOM     69  C   UNL     1       0.378  -9.286  10.000  1.00  0.00     0.054 A 
BRANCH  69  70
ATOM     70  S   UNL     1      -0.817 -10.501  10.624  1.00  0.00     0.124 S 
ATOM     71  O   UNL     1      -2.090  -9.873  10.279  1.00  0.00    -0.237 OA
ATOM     72  O   UNL     1      -0.483 -11.701   9.863  1.00  0.00    -0.237 OA
ATOM     73  O   UNL     1      -0.525 -10.571  12.054  1.00  0.00    -0.744 OA
ENDBRANCH  69  70
ENDBRANCH  50  64
BRANCH  51  74
ATOM     74  C   UNL     1       8.389  -0.377   5.498  1.00  0.00    -0.014 A 
ATOM     75  C   UNL     1       9.262  -0.639   4.428  1.00  0.00     0.010 A 
ATOM     76  C   UNL     1       8.387   0.904   6.081  1.00  0.00     0.010 A 
ATOM     77  C   UNL     1      10.127   0.356   3.961  1.00  0.00     0.020 A 
ATOM     78  C   UNL     1       9.230   1.908   5.600  1.00  0.00     0.020 A 
ATOM     79  C   UNL     1      10.104   1.624   4.550  1.00  0.00     0.054 A 
BRANCH  79  80
ATOM     80  S   UNL     1      11.197   2.917   3.896  1.00  0.00     0.124 S 
ATOM     81  O   UNL     1      12.495   2.514   4.428  1.00  0.00    -0.237 OA
ATOM     82  O   UNL     1      11.032   2.771   2.452  1.00  0.00    -0.237 OA
ATOM     83  O   UNL     1      10.644   4.147   4.457  1.00  0.00    -0.744 OA
ENDBRANCH  79  80
ENDBRANCH  51  74
BRANCH  63  84
ATOM     84  C   UNL     1       9.347  -6.371   8.936  1.00  0.00    -0.014 A 
ATOM     85  C   UNL     1      10.092  -5.906  10.034  1.00  0.00     0.010 A 
ATOM     86  C   UNL     1       9.743  -7.556   8.290  1.00  0.00     0.010 A 
ATOM     87  C   UNL     1      11.232  -6.596  10.456  1.00  0.00     0.020 A 
ATOM     88  C   UNL     1      10.867  -8.262   8.725  1.00  0.00     0.020 A 
ATOM     89  C   UNL     1      11.614  -7.768   9.797  1.00  0.00     0.054 A 
BRANCH  89  90
ATOM     90  S   UNL     1      13.076  -8.666  10.384  1.00  0.00     0.124 S 
ATOM     91  O   UNL     1      14.165  -7.837   9.876  1.00  0.00    -0.237 OA
ATOM     92  O   UNL     1      12.901  -8.655  11.834  1.00  0.00    -0.237 OA
ATOM     93  O   UNL     1      12.949  -9.981   9.759  1.00  0.00    -0.744 OA
ENDBRANCH  89  90
ENDBRANCH  63  84
ENDBRANCH  37  38
ENDBRANCH  30  32
ENDBRANCH  29  30
ENDBRANCH  28  29
ENDBRANCH  27  28
ENDBRANCH   1  27
TORSDOF 20
