REMARK SMILES Cc1ccnc(C(=O)c2[nH]c3cc(F)ccc3c2CC(=O)OCCOC(=O)c2ccc(-c3c4nc(c(-c5ccc(S(=O)(=O)[O-])cc5)c5ccc([nH]5)c(-c5ccc(S(=O)(=O)[O-])cc5)c5nc(c(-c6ccc(S(=O)(=O)[O-])cc6)c6ccc3[nH]6)C=C5)C=C4)cc2)c1
REMARK SMILES IDX 23 1 22 2 20 3 21 4 19 5 18 6 9 7 10 8 11 9 17 11 12 12
REMARK SMILES IDX 16 13 13 14 15 15 14 16 7 17 8 18 6 19 1 20 2 21 3 22 88 23
REMARK SMILES IDX 4 24 5 25 24 26 25 27 26 28 27 29 28 30 29 31 87 32 30 33
REMARK SMILES IDX 86 34 31 35 32 36 33 37 80 38 34 39 85 40 79 41 81 42 35 43
REMARK SMILES IDX 84 44 78 45 77 46 36 48 66 49 47 50 65 51 48 52 51 53 64 54
REMARK SMILES IDX 82 55 49 56 50 57 63 59 83 60 52 61 37 62 38 63 46 64 39 65
REMARK SMILES IDX 45 66 40 67 41 68 42 69 43 70 44 71 67 72 68 73 76 74 69 75
REMARK SMILES IDX 75 76 70 77 71 78 72 79 73 80 74 81 53 82 54 83 62 84 55 85
REMARK SMILES IDX 61 86 56 87 57 88 58 89 59 90 60 91
REMARK H PARENT 10 10 81 47 51 58
REMARK Flexibility Score: inf
ROOT
ATOM      1  C   UNL     1       5.202  -5.302   0.710  1.00  0.00     0.274 C 
ENDROOT
BRANCH   1   2
ATOM      2  O   UNL     1       3.765  -5.236   0.561  1.00  0.00    -0.462 OA
BRANCH   2   3
ATOM      3  C   UNL     1       3.053  -5.101   1.706  1.00  0.00     0.310 C 
ATOM      4  O   UNL     1       3.544  -5.195   2.830  1.00  0.00    -0.252 OA
BRANCH   3   5
ATOM      5  C   UNL     1       1.612  -4.676   1.529  1.00  0.00     0.161 C 
BRANCH   5   6
ATOM      6  C   UNL     1       0.879  -5.011   0.267  1.00  0.00     0.000 A 
ATOM      7  C   UNL     1       0.729  -4.234  -0.882  1.00  0.00     0.093 A 
ATOM      8  N   UNL     1      -0.095  -4.927  -1.736  1.00  0.00    -0.351 N 
ATOM      9  C   UNL     1      -0.587  -6.055  -1.139  1.00  0.00     0.049 A 
ATOM     10  H   UNL     1      -0.304  -4.648  -2.657  1.00  0.00     0.167 HD
ATOM     11  C   UNL     1       0.054  -6.177   0.091  1.00  0.00     0.004 A 
ATOM     12  C   UNL     1      -1.539  -6.969  -1.601  1.00  0.00     0.066 A 
ATOM     13  C   UNL     1      -0.243  -7.305   0.890  1.00  0.00     0.013 A 
ATOM     14  C   UNL     1      -1.823  -8.056  -0.780  1.00  0.00     0.125 A 
ATOM     15  C   UNL     1      -1.184  -8.239   0.439  1.00  0.00     0.040 A 
ATOM     16  F   UNL     1      -2.738  -8.949  -1.181  1.00  0.00    -0.207 F 
BRANCH   7  17
ATOM     17  C   UNL     1       1.289  -2.964  -1.327  1.00  0.00     0.227 C 
ATOM     18  O   UNL     1       2.061  -2.945  -2.286  1.00  0.00    -0.285 OA
BRANCH  17  19
ATOM     19  C   UNL     1       0.707  -1.662  -0.819  1.00  0.00     0.113 A 
ATOM     20  C   UNL     1      -2.576  -0.223   0.444  1.00  0.00     0.044 C 
ATOM     21  C   UNL     1      -1.165  -0.354  -0.049  1.00  0.00    -0.047 A 
ATOM     22  C   UNL     1      -0.448   0.794  -0.386  1.00  0.00     0.023 A 
ATOM     23  C   UNL     1      -0.567  -1.606  -0.250  1.00  0.00     0.036 A 
ATOM     24  C   UNL     1       0.822   0.651  -0.913  1.00  0.00     0.112 A 
ATOM     25  N   UNL     1       1.408  -0.541  -1.143  1.00  0.00    -0.253 NA
ENDBRANCH  17  19
ENDBRANCH   7  17
ENDBRANCH   5   6
ENDBRANCH   3   5
ENDBRANCH   2   3
ENDBRANCH   1   2
BRANCH   1  26
ATOM     26  C   UNL     1       5.884  -3.983   0.312  1.00  0.00     0.275 C 
BRANCH  26  27
ATOM     27  O   UNL     1       5.617  -2.903   1.236  1.00  0.00    -0.458 OA
BRANCH  27  28
ATOM     28  C   UNL     1       4.464  -2.258   0.978  1.00  0.00     0.338 C 
ATOM     29  O   UNL     1       3.652  -2.549   0.104  1.00  0.00    -0.246 OA
BRANCH  28  30
ATOM     30  C   UNL     1       4.138  -1.203   1.931  1.00  0.00     0.060 A 
ATOM     31  C   UNL     1       3.087  -1.455   2.812  1.00  0.00     0.016 A 
ATOM     32  C   UNL     1       4.639   0.090   1.770  1.00  0.00     0.016 A 
ATOM     33  C   UNL     1       2.471  -0.403   3.471  1.00  0.00     0.010 A 
ATOM     34  C   UNL     1       4.069   1.139   2.501  1.00  0.00     0.010 A 
ATOM     35  C   UNL     1       2.961   0.904   3.332  1.00  0.00    -0.014 A 
BRANCH  35  36
ATOM     36  C   UNL     1       2.314   1.978   4.123  1.00  0.00     0.031 A 
ATOM     37  C   UNL     1       1.468   3.035   3.472  1.00  0.00     0.074 A 
ATOM     38  C   UNL     1       2.419   1.923   5.465  1.00  0.00     0.049 A 
ATOM     39  N   UNL     1       0.746   3.970   4.037  1.00  0.00    -0.248 NA
ATOM     40  C   UNL     1       1.410   3.040   2.003  1.00  0.00     0.031 C 
ATOM     41  C   UNL     1       3.188   0.919   6.208  1.00  0.00     0.029 A 
ATOM     42  N   UNL     1       1.855   2.699   6.441  1.00  0.00    -0.354 N 
ATOM     43  C   UNL     1       0.133   4.661   2.999  1.00  0.00     0.074 A 
ATOM     44  C   UNL     1       0.590   4.057   1.765  1.00  0.00     0.031 C 
ATOM     45  C   UNL     1       3.013   1.117   7.522  1.00  0.00     0.029 A 
ATOM     46  C   UNL     1       2.169   2.290   7.713  1.00  0.00     0.049 A 
ATOM     47  H   UNL     1       1.280   3.475   6.249  1.00  0.00     0.167 HD
ATOM     48  C   UNL     1      -0.733   5.701   3.071  1.00  0.00     0.031 A 
ATOM     49  C   UNL     1       1.834   2.812   8.906  1.00  0.00     0.031 A 
ATOM     50  C   UNL     1      -1.145   6.332   4.298  1.00  0.00     0.049 A 
ATOM     51  C   UNL     1       0.960   4.028   8.948  1.00  0.00     0.074 A 
ATOM     52  C   UNL     1      -1.994   7.413   4.470  1.00  0.00     0.029 A 
ATOM     53  N   UNL     1      -0.725   5.951   5.563  1.00  0.00    -0.354 N 
ATOM     54  N   UNL     1       0.390   4.664   7.953  1.00  0.00    -0.248 NA
ATOM     55  C   UNL     1       0.694   4.601  10.273  1.00  0.00     0.031 C 
ATOM     56  C   UNL     1      -2.052   7.711   5.837  1.00  0.00     0.029 A 
ATOM     57  C   UNL     1      -1.274   6.791   6.518  1.00  0.00     0.049 A 
ATOM     58  H   UNL     1      -0.125   5.194   5.754  1.00  0.00     0.167 HD
ATOM     59  C   UNL     1      -0.306   5.716   8.533  1.00  0.00     0.074 A 
ATOM     60  C   UNL     1      -0.107   5.612   9.966  1.00  0.00     0.031 C 
ATOM     61  C   UNL     1      -1.040   6.686   7.934  1.00  0.00     0.031 A 
BRANCH  48  62
ATOM     62  C   UNL     1      -1.281   6.240   1.778  1.00  0.00    -0.014 A 
ATOM     63  C   UNL     1      -2.326   5.576   1.112  1.00  0.00     0.010 A 
ATOM     64  C   UNL     1      -0.796   7.453   1.259  1.00  0.00     0.010 A 
ATOM     65  C   UNL     1      -2.864   6.107  -0.064  1.00  0.00     0.020 A 
ATOM     66  C   UNL     1      -1.341   7.994   0.090  1.00  0.00     0.020 A 
ATOM     67  C   UNL     1      -2.365   7.312  -0.569  1.00  0.00     0.054 A 
BRANCH  67  68
ATOM     68  S   UNL     1      -3.103   7.994  -2.080  1.00  0.00     0.124 S 
ATOM     69  O   UNL     1      -2.562   7.104  -3.104  1.00  0.00    -0.237 OA
ATOM     70  O   UNL     1      -4.536   7.861  -1.826  1.00  0.00    -0.237 OA
ATOM     71  O   UNL     1      -2.605   9.367  -2.120  1.00  0.00    -0.744 OA
ENDBRANCH  67  68
ENDBRANCH  48  62
BRANCH  49  72
ATOM     72  C   UNL     1       2.377   2.209  10.150  1.00  0.00    -0.014 A 
ATOM     73  C   UNL     1       1.544   1.506  11.035  1.00  0.00     0.010 A 
ATOM     74  C   UNL     1       3.749   2.326  10.441  1.00  0.00     0.010 A 
ATOM     75  C   UNL     1       2.072   0.942  12.200  1.00  0.00     0.020 A 
ATOM     76  C   UNL     1       4.284   1.742  11.589  1.00  0.00     0.020 A 
ATOM     77  C   UNL     1       3.438   1.066  12.470  1.00  0.00     0.054 A 
BRANCH  77  78
ATOM     78  S   UNL     1       4.126   0.289  13.958  1.00  0.00     0.124 S 
ATOM     79  O   UNL     1       3.855   1.298  14.977  1.00  0.00    -0.237 OA
ATOM     80  O   UNL     1       3.351  -0.945  14.066  1.00  0.00    -0.237 OA
ATOM     81  O   UNL     1       5.534   0.100  13.617  1.00  0.00    -0.744 OA
ENDBRANCH  77  78
ENDBRANCH  49  72
BRANCH  61  82
ATOM     82  C   UNL     1      -1.672   7.702   8.843  1.00  0.00    -0.014 A 
ATOM     83  C   UNL     1      -0.895   8.707   9.446  1.00  0.00     0.010 A 
ATOM     84  C   UNL     1      -3.050   7.638   9.112  1.00  0.00     0.010 A 
ATOM     85  C   UNL     1      -1.478   9.602  10.346  1.00  0.00     0.020 A 
ATOM     86  C   UNL     1      -3.640   8.545   9.995  1.00  0.00     0.020 A 
ATOM     87  C   UNL     1      -2.845   9.506  10.624  1.00  0.00     0.054 A 
BRANCH  87  88
ATOM     88  S   UNL     1      -3.589  10.671  11.799  1.00  0.00     0.124 S 
ATOM     89  O   UNL     1      -3.271  10.049  13.081  1.00  0.00    -0.237 OA
ATOM     90  O   UNL     1      -2.886  11.919  11.513  1.00  0.00    -0.237 OA
ATOM     91  O   UNL     1      -5.004  10.664  11.435  1.00  0.00    -0.744 OA
ENDBRANCH  87  88
ENDBRANCH  61  82
ENDBRANCH  35  36
ENDBRANCH  28  30
ENDBRANCH  27  28
ENDBRANCH  26  27
ENDBRANCH   1  26
TORSDOF 17
