REMARK SMILES C[C@H]1[C@@H]([NH2+]C[C@H]2CC[C@@H](C(=O)OCCOC(=O)c3ccc(-c4c5nc(c(-c6ccc(S(=O)(=O)[O-])cc6)c6ccc([nH]6)c(-c6ccc(S(=O)(=O)[O-])cc6)c6nc(c(-c7ccc(S(=O)(=O)[O-])cc7)c7ccc4[nH]7)C=C6)C=C5)cc3)CC2)CCC[C@@H]1C
REMARK SMILES IDX 13 1 12 2 10 3 11 4 9 5 6 6 7 7 79 8 8 9 78 10 5 11 4 12
REMARK SMILES IDX 3 15 1 16 2 17 83 18 80 19 82 20 84 21 81 22 14 23 15 24
REMARK SMILES IDX 16 25 17 26 18 27 19 28 77 29 20 30 76 31 21 32 22 33 23 34
REMARK SMILES IDX 70 35 24 36 75 37 69 38 71 39 25 40 74 41 68 42 67 43 26 45
REMARK SMILES IDX 56 46 37 47 55 48 38 49 41 50 54 51 72 52 39 53 40 54 53 56
REMARK SMILES IDX 73 57 42 58 27 59 28 60 36 61 29 62 35 63 30 64 31 65 32 66
REMARK SMILES IDX 33 67 34 68 57 69 58 70 66 71 59 72 65 73 60 74 61 75 62 76
REMARK SMILES IDX 63 77 64 78 43 79 44 80 52 81 45 82 51 83 46 84 47 85 48 86
REMARK SMILES IDX 49 87 50 88
REMARK H PARENT 4 13 4 14 71 44 41 55
REMARK Flexibility Score: inf
ROOT
ATOM      1  C   UNL     1       6.038   6.682  -2.507  1.00  0.00     0.274 C 
ENDROOT
BRANCH   1   2
ATOM      2  O   UNL     1       5.014   5.988  -3.243  1.00  0.00    -0.462 OA
BRANCH   2   3
ATOM      3  C   UNL     1       3.942   6.729  -3.627  1.00  0.00     0.309 C 
ATOM      4  O   UNL     1       3.754   7.899  -3.314  1.00  0.00    -0.252 OA
BRANCH   3   5
ATOM      5  C   UNL     1       2.947   5.938  -4.462  1.00  0.00     0.099 C 
ATOM      6  C   UNL     1       1.389   3.458  -5.039  1.00  0.00     0.044 C 
ATOM      7  C   UNL     1       0.757   4.701  -4.382  1.00  0.00     0.010 C 
ATOM      8  C   UNL     1       2.521   3.927  -5.971  1.00  0.00     0.010 C 
ATOM      9  C   UNL     1       1.774   5.511  -3.582  1.00  0.00     0.016 C 
ATOM     10  C   UNL     1       3.571   4.769  -5.240  1.00  0.00     0.016 C 
BRANCH   6  11
ATOM     11  C   UNL     1       1.922   2.413  -4.027  1.00  0.00     0.264 C 
BRANCH  11  12
ATOM     12  N   UNL     1       0.879   1.938  -3.122  1.00  0.00    -0.343 N 
ATOM     13  H   UNL     1       0.314   2.738  -2.836  1.00  0.00     0.346 HD
ATOM     14  H   UNL     1       0.342   1.238  -3.634  1.00  0.00     0.346 HD
BRANCH  12  15
ATOM     15  C   UNL     1       1.389   1.277  -1.911  1.00  0.00     0.185 C 
ATOM     16  C   UNL     1      -0.455  -0.472  -2.088  1.00  0.00     0.014 C 
ATOM     17  C   UNL     1       0.218   0.562  -1.176  1.00  0.00     0.047 C 
ATOM     18  C   UNL     1      -0.795   1.581  -0.579  1.00  0.00    -0.006 C 
ATOM     19  C   UNL     1       2.070   2.249  -0.925  1.00  0.00     0.065 C 
ATOM     20  C   UNL     1      -0.083   2.590   0.339  1.00  0.00     0.004 C 
ATOM     21  C   UNL     1      -1.923   0.904   0.204  1.00  0.00     0.008 C 
ATOM     22  C   UNL     1       1.101   3.271  -0.336  1.00  0.00     0.006 C 
ENDBRANCH  12  15
ENDBRANCH  11  12
ENDBRANCH   6  11
ENDBRANCH   3   5
ENDBRANCH   2   3
ENDBRANCH   1   2
BRANCH   1  23
ATOM     23  C   UNL     1       7.234   7.007  -3.404  1.00  0.00     0.275 C 
BRANCH  23  24
ATOM     24  O   UNL     1       6.858   7.898  -4.470  1.00  0.00    -0.458 OA
BRANCH  24  25
ATOM     25  C   UNL     1       6.670   7.302  -5.671  1.00  0.00     0.338 C 
ATOM     26  O   UNL     1       6.832   6.126  -5.947  1.00  0.00    -0.246 OA
BRANCH  25  27
ATOM     27  C   UNL     1       6.107   8.270  -6.623  1.00  0.00     0.060 A 
ATOM     28  C   UNL     1       4.743   8.190  -6.906  1.00  0.00     0.016 A 
ATOM     29  C   UNL     1       6.926   9.146  -7.334  1.00  0.00     0.016 A 
ATOM     30  C   UNL     1       4.188   8.960  -7.921  1.00  0.00     0.010 A 
ATOM     31  C   UNL     1       6.366   9.930  -8.349  1.00  0.00     0.010 A 
ATOM     32  C   UNL     1       4.999   9.820  -8.666  1.00  0.00    -0.014 A 
BRANCH  32  33
ATOM     33  C   UNL     1       4.431  10.507  -9.851  1.00  0.00     0.031 A 
ATOM     34  C   UNL     1       4.798  10.024 -11.227  1.00  0.00     0.074 A 
ATOM     35  C   UNL     1       3.547  11.510  -9.699  1.00  0.00     0.049 A 
ATOM     36  N   UNL     1       4.486  10.532 -12.391  1.00  0.00    -0.248 NA
ATOM     37  C   UNL     1       5.624   8.807 -11.301  1.00  0.00     0.031 C 
ATOM     38  C   UNL     1       3.049  12.016  -8.419  1.00  0.00     0.029 A 
ATOM     39  N   UNL     1       2.902  12.277 -10.636  1.00  0.00    -0.354 N 
ATOM     40  C   UNL     1       5.106   9.720 -13.335  1.00  0.00     0.074 A 
ATOM     41  C   UNL     1       5.813   8.688 -12.607  1.00  0.00     0.031 C 
ATOM     42  C   UNL     1       2.167  13.002  -8.652  1.00  0.00     0.029 A 
ATOM     43  C   UNL     1       2.074  13.229 -10.091  1.00  0.00     0.049 A 
ATOM     44  H   UNL     1       3.021  12.157 -11.605  1.00  0.00     0.167 HD
ATOM     45  C   UNL     1       5.090   9.828 -14.685  1.00  0.00     0.031 A 
ATOM     46  C   UNL     1       1.343  14.192 -10.685  1.00  0.00     0.031 A 
ATOM     47  C   UNL     1       4.377  10.848 -15.405  1.00  0.00     0.049 A 
ATOM     48  C   UNL     1       1.371  14.315 -12.184  1.00  0.00     0.074 A 
ATOM     49  C   UNL     1       4.329  11.069 -16.770  1.00  0.00     0.029 A 
ATOM     50  N   UNL     1       3.569  11.808 -14.816  1.00  0.00    -0.354 N 
ATOM     51  N   UNL     1       2.019  13.583 -13.059  1.00  0.00    -0.248 NA
ATOM     52  C   UNL     1       0.570  15.396 -12.775  1.00  0.00     0.031 C 
ATOM     53  C   UNL     1       3.509  12.179 -17.005  1.00  0.00     0.029 A 
ATOM     54  C   UNL     1       3.015  12.622 -15.789  1.00  0.00     0.049 A 
ATOM     55  H   UNL     1       3.412  11.898 -13.848  1.00  0.00     0.167 HD
ATOM     56  C   UNL     1       1.687  14.102 -14.306  1.00  0.00     0.074 A 
ATOM     57  C   UNL     1       0.772  15.201 -14.071  1.00  0.00     0.031 C 
ATOM     58  C   UNL     1       2.101  13.705 -15.534  1.00  0.00     0.031 A 
BRANCH  45  59
ATOM     59  C   UNL     1       5.914   8.838 -15.461  1.00  0.00    -0.014 A 
ATOM     60  C   UNL     1       5.491   7.508 -15.628  1.00  0.00     0.010 A 
ATOM     61  C   UNL     1       7.130   9.249 -16.035  1.00  0.00     0.010 A 
ATOM     62  C   UNL     1       6.291   6.595 -16.321  1.00  0.00     0.020 A 
ATOM     63  C   UNL     1       7.923   8.345 -16.747  1.00  0.00     0.020 A 
ATOM     64  C   UNL     1       7.507   7.017 -16.867  1.00  0.00     0.054 A 
BRANCH  64  65
ATOM     65  S   UNL     1       8.531   5.817 -17.764  1.00  0.00     0.124 S 
ATOM     66  O   UNL     1       9.154   5.078 -16.668  1.00  0.00    -0.237 OA
ATOM     67  O   UNL     1       7.549   5.071 -18.546  1.00  0.00    -0.237 OA
ATOM     68  O   UNL     1       9.438   6.654 -18.545  1.00  0.00    -0.744 OA
ENDBRANCH  64  65
ENDBRANCH  45  59
BRANCH  46  69
ATOM     69  C   UNL     1       0.542  15.133  -9.859  1.00  0.00    -0.014 A 
ATOM     70  C   UNL     1      -0.861  15.055  -9.842  1.00  0.00     0.010 A 
ATOM     71  C   UNL     1       1.184  16.111  -9.078  1.00  0.00     0.010 A 
ATOM     72  C   UNL     1      -1.610  15.948  -9.070  1.00  0.00     0.020 A 
ATOM     73  C   UNL     1       0.440  16.990  -8.286  1.00  0.00     0.020 A 
ATOM     74  C   UNL     1      -0.954  16.911  -8.297  1.00  0.00     0.054 A 
BRANCH  74  75
ATOM     75  S   UNL     1      -1.937  18.028  -7.257  1.00  0.00     0.124 S 
ATOM     76  O   UNL     1      -2.393  19.019  -8.226  1.00  0.00    -0.237 OA
ATOM     77  O   UNL     1      -2.969  17.143  -6.723  1.00  0.00    -0.237 OA
ATOM     78  O   UNL     1      -0.971  18.510  -6.272  1.00  0.00    -0.744 OA
ENDBRANCH  74  75
ENDBRANCH  46  69
BRANCH  58  79
ATOM     79  C   UNL     1       1.530  14.434 -16.718  1.00  0.00    -0.014 A 
ATOM     80  C   UNL     1       1.978  15.720 -17.067  1.00  0.00     0.010 A 
ATOM     81  C   UNL     1       0.552  13.806 -17.510  1.00  0.00     0.010 A 
ATOM     82  C   UNL     1       1.431  16.380 -18.170  1.00  0.00     0.020 A 
ATOM     83  C   UNL     1       0.018  14.455 -18.625  1.00  0.00     0.020 A 
ATOM     84  C   UNL     1       0.449  15.746 -18.938  1.00  0.00     0.054 A 
BRANCH  84  85
ATOM     85  S   UNL     1      -0.232  16.607 -20.383  1.00  0.00     0.124 S 
ATOM     86  O   UNL     1      -1.198  17.513 -19.768  1.00  0.00    -0.237 OA
ATOM     87  O   UNL     1       0.946  17.245 -20.966  1.00  0.00    -0.237 OA
ATOM     88  O   UNL     1      -0.808  15.530 -21.184  1.00  0.00    -0.744 OA
ENDBRANCH  84  85
ENDBRANCH  58  79
ENDBRANCH  32  33
ENDBRANCH  25  27
ENDBRANCH  24  25
ENDBRANCH  23  24
ENDBRANCH   1  23
TORSDOF 17
