REMARK SMILES CC[N@H+](CC(C)(C)C(=O)OCCOC(=O)c1ccc(-c2c3nc(c(-c4ccc(S(=O)(=O)[O-])cc4)c4ccc([nH]4)c(-c4ccc(S(=O)(=O)[O-])cc4)c4nc(c(-c5ccc(S(=O)(=O)[O-])cc5)c5ccc2[nH]5)C=C4)C=C3)cc1)[C@H]1CC[NH2+]C1
REMARK SMILES IDX 11 1 10 2 8 3 9 4 5 5 6 6 7 7 4 8 3 9 2 11 1 12 76 13 77 14
REMARK SMILES IDX 80 15 78 16 79 17 12 20 13 21 14 22 15 23 16 24 17 25 75 26
REMARK SMILES IDX 18 27 74 28 19 29 20 30 21 31 68 32 22 33 73 34 67 35 69 36
REMARK SMILES IDX 23 37 72 38 66 39 65 40 24 42 54 43 35 44 53 45 36 46 39 47
REMARK SMILES IDX 52 48 70 49 37 50 38 51 51 53 71 54 40 55 25 56 26 57 34 58
REMARK SMILES IDX 27 59 33 60 28 61 29 62 30 63 31 64 32 65 55 66 56 67 64 68
REMARK SMILES IDX 57 69 63 70 58 71 59 72 60 73 61 74 62 75 41 76 42 77 50 78
REMARK SMILES IDX 43 79 49 80 44 81 45 82 46 83 47 84 48 85
REMARK H PARENT 3 10 79 18 79 19 69 41 39 52
REMARK Flexibility Score: inf
ROOT
ATOM      1  C   UNL     1       4.276  -2.255   7.530  1.00  0.00     0.274 C 
ENDROOT
BRANCH   1   2
ATOM      2  O   UNL     1       3.356  -1.137   7.520  1.00  0.00    -0.461 OA
BRANCH   2   3
ATOM      3  C   UNL     1       3.135  -0.636   6.278  1.00  0.00     0.317 C 
ATOM      4  O   UNL     1       3.535  -1.218   5.278  1.00  0.00    -0.251 OA
BRANCH   3   5
ATOM      5  C   UNL     1       2.351   0.674   6.233  1.00  0.00     0.111 C 
ATOM      6  C   UNL     1       3.004   1.783   7.064  1.00  0.00     0.029 C 
ATOM      7  C   UNL     1       0.960   0.363   6.834  1.00  0.00     0.029 C 
BRANCH   5   8
ATOM      8  C   UNL     1       2.144   1.145   4.743  1.00  0.00     0.280 C 
BRANCH   8   9
ATOM      9  N   UNL     1       3.238   1.690   3.873  1.00  0.00    -0.327 N 
ATOM     10  H   UNL     1       3.554   2.587   4.242  1.00  0.00     0.348 HD
BRANCH   9  11
ATOM     11  C   UNL     1       4.458   0.861   3.897  1.00  0.00     0.259 C 
ATOM     12  C   UNL     1       5.697   1.310   3.134  1.00  0.00     0.071 C 
ENDBRANCH   9  11
BRANCH   9  13
ATOM     13  C   UNL     1       2.682   1.911   2.503  1.00  0.00     0.245 C 
ATOM     14  C   UNL     1       3.095   3.265   1.923  1.00  0.00     0.132 C 
ATOM     15  C   UNL     1       2.955   0.922   1.347  1.00  0.00     0.326 C 
ATOM     16  C   UNL     1       3.041   3.046   0.422  1.00  0.00     0.267 C 
ATOM     17  N   UNL     1       3.559   1.695   0.256  1.00  0.00    -0.341 N 
ATOM     18  H   UNL     1       4.576   1.688   0.332  1.00  0.00     0.346 HD
ATOM     19  H   UNL     1       3.332   1.307  -0.660  1.00  0.00     0.346 HD
ENDBRANCH   9  13
ENDBRANCH   8   9
ENDBRANCH   5   8
ENDBRANCH   3   5
ENDBRANCH   2   3
ENDBRANCH   1   2
BRANCH   1  20
ATOM     20  C   UNL     1       3.684  -3.624   7.122  1.00  0.00     0.275 C 
BRANCH  20  21
ATOM     21  O   UNL     1       3.418  -3.777   5.705  1.00  0.00    -0.458 OA
BRANCH  21  22
ATOM     22  C   UNL     1       2.121  -3.606   5.326  1.00  0.00     0.338 C 
ATOM     23  O   UNL     1       1.176  -3.457   6.086  1.00  0.00    -0.246 OA
BRANCH  22  24
ATOM     24  C   UNL     1       1.990  -3.406   3.854  1.00  0.00     0.060 A 
ATOM     25  C   UNL     1       1.242  -2.300   3.437  1.00  0.00     0.016 A 
ATOM     26  C   UNL     1       2.542  -4.250   2.887  1.00  0.00     0.016 A 
ATOM     27  C   UNL     1       1.107  -1.989   2.080  1.00  0.00     0.010 A 
ATOM     28  C   UNL     1       2.361  -3.963   1.515  1.00  0.00     0.010 A 
ATOM     29  C   UNL     1       1.664  -2.816   1.096  1.00  0.00    -0.014 A 
BRANCH  29  30
ATOM     30  C   UNL     1       1.467  -2.470  -0.347  1.00  0.00     0.031 A 
ATOM     31  C   UNL     1       0.114  -2.648  -0.983  1.00  0.00     0.074 A 
ATOM     32  C   UNL     1       2.458  -1.915  -1.078  1.00  0.00     0.049 A 
ATOM     33  N   UNL     1      -0.264  -2.391  -2.211  1.00  0.00    -0.248 NA
ATOM     34  C   UNL     1      -0.946  -3.211  -0.134  1.00  0.00     0.031 C 
ATOM     35  C   UNL     1       3.800  -1.631  -0.580  1.00  0.00     0.029 A 
ATOM     36  N   UNL     1       2.473  -1.420  -2.365  1.00  0.00    -0.354 N 
ATOM     37  C   UNL     1      -1.579  -2.828  -2.303  1.00  0.00     0.074 A 
ATOM     38  C   UNL     1      -1.955  -3.306  -0.989  1.00  0.00     0.031 C 
ATOM     39  C   UNL     1       4.462  -0.903  -1.496  1.00  0.00     0.029 A 
ATOM     40  C   UNL     1       3.631  -0.739  -2.686  1.00  0.00     0.049 A 
ATOM     41  H   UNL     1       1.727  -1.540  -2.996  1.00  0.00     0.167 HD
ATOM     42  C   UNL     1      -2.378  -2.888  -3.397  1.00  0.00     0.031 A 
ATOM     43  C   UNL     1       3.984  -0.065  -3.804  1.00  0.00     0.031 A 
ATOM     44  C   UNL     1      -1.992  -2.450  -4.714  1.00  0.00     0.049 A 
ATOM     45  C   UNL     1       3.069  -0.129  -5.005  1.00  0.00     0.074 A 
ATOM     46  C   UNL     1      -2.710  -2.543  -5.895  1.00  0.00     0.029 A 
ATOM     47  N   UNL     1      -0.786  -1.844  -5.029  1.00  0.00    -0.354 N 
ATOM     48  N   UNL     1       1.851  -0.608  -5.095  1.00  0.00    -0.248 NA
ATOM     49  C   UNL     1       3.609   0.371  -6.281  1.00  0.00     0.031 C 
ATOM     50  C   UNL     1      -1.911  -2.054  -6.934  1.00  0.00     0.029 A 
ATOM     51  C   UNL     1      -0.725  -1.589  -6.391  1.00  0.00     0.049 A 
ATOM     52  H   UNL     1      -0.076  -1.627  -4.382  1.00  0.00     0.167 HD
ATOM     53  C   UNL     1       1.502  -0.510  -6.439  1.00  0.00     0.074 A 
ATOM     54  C   UNL     1       2.603   0.142  -7.114  1.00  0.00     0.031 C 
ATOM     55  C   UNL     1       0.386  -0.962  -7.063  1.00  0.00     0.031 A 
BRANCH  42  56
ATOM     56  C   UNL     1      -3.705  -3.581  -3.236  1.00  0.00    -0.014 A 
ATOM     57  C   UNL     1      -4.774  -2.997  -2.537  1.00  0.00     0.010 A 
ATOM     58  C   UNL     1      -3.876  -4.857  -3.807  1.00  0.00     0.010 A 
ATOM     59  C   UNL     1      -5.973  -3.697  -2.372  1.00  0.00     0.020 A 
ATOM     60  C   UNL     1      -5.082  -5.547  -3.671  1.00  0.00     0.020 A 
ATOM     61  C   UNL     1      -6.117  -4.970  -2.935  1.00  0.00     0.054 A 
BRANCH  61  62
ATOM     62  S   UNL     1      -7.681  -5.857  -2.702  1.00  0.00     0.124 S 
ATOM     63  O   UNL     1      -7.619  -6.210  -1.286  1.00  0.00    -0.237 OA
ATOM     64  O   UNL     1      -8.676  -4.848  -3.054  1.00  0.00    -0.237 OA
ATOM     65  O   UNL     1      -7.585  -6.983  -3.628  1.00  0.00    -0.744 OA
ENDBRANCH  61  62
ENDBRANCH  42  56
BRANCH  43  66
ATOM     66  C   UNL     1       5.290   0.666  -3.900  1.00  0.00    -0.014 A 
ATOM     67  C   UNL     1       5.324   2.048  -4.177  1.00  0.00     0.010 A 
ATOM     68  C   UNL     1       6.513  -0.014  -3.756  1.00  0.00     0.010 A 
ATOM     69  C   UNL     1       6.545   2.724  -4.314  1.00  0.00     0.020 A 
ATOM     70  C   UNL     1       7.733   0.664  -3.845  1.00  0.00     0.020 A 
ATOM     71  C   UNL     1       7.743   2.028  -4.139  1.00  0.00     0.054 A 
BRANCH  71  72
ATOM     72  S   UNL     1       9.317   2.925  -4.252  1.00  0.00     0.124 S 
ATOM     73  O   UNL     1       9.467   3.099  -5.694  1.00  0.00    -0.237 OA
ATOM     74  O   UNL     1       9.047   4.144  -3.493  1.00  0.00    -0.237 OA
ATOM     75  O   UNL     1      10.274   2.014  -3.629  1.00  0.00    -0.744 OA
ENDBRANCH  71  72
ENDBRANCH  43  66
BRANCH  55  76
ATOM     76  C   UNL     1       0.310  -0.814  -8.563  1.00  0.00    -0.014 A 
ATOM     77  C   UNL     1       1.114  -1.606  -9.404  1.00  0.00     0.010 A 
ATOM     78  C   UNL     1      -0.627   0.061  -9.142  1.00  0.00     0.010 A 
ATOM     79  C   UNL     1       0.994  -1.515 -10.794  1.00  0.00     0.020 A 
ATOM     80  C   UNL     1      -0.769   0.136 -10.532  1.00  0.00     0.020 A 
ATOM     81  C   UNL     1       0.048  -0.648 -11.350  1.00  0.00     0.054 A 
BRANCH  81  82
ATOM     82  S   UNL     1      -0.133  -0.598 -13.155  1.00  0.00     0.124 S 
ATOM     83  O   UNL     1       1.103   0.060 -13.568  1.00  0.00    -0.237 OA
ATOM     84  O   UNL     1      -0.238  -2.013 -13.504  1.00  0.00    -0.237 OA
ATOM     85  O   UNL     1      -1.351   0.181 -13.361  1.00  0.00    -0.744 OA
ENDBRANCH  81  82
ENDBRANCH  55  76
ENDBRANCH  29  30
ENDBRANCH  22  24
ENDBRANCH  21  22
ENDBRANCH  20  21
ENDBRANCH   1  20
TORSDOF 18
