REMARK SMILES C[C@@H](C(=O)OCCOC(=O)c1ccc(-c2c3nc(c(-c4ccc(S(=O)(=O)[O-])cc4)c4ccc([nH]4)c(-c4ccc(S(=O)(=O)[O-])cc4)c4nc(c(-c5ccc(S(=O)(=O)[O-])cc5)c5ccc2[nH]5)C=C4)C=C3)cc1)[N@H+]1CC[N@H+]2CCCC[C@@H]2C1
REMARK SMILES IDX 7 1 6 2 5 3 3 4 4 5 2 6 1 7 71 8 72 9 80 10 73 12 79 13
REMARK SMILES IDX 74 14 78 15 75 16 77 18 76 19 8 20 9 21 10 22 11 23 12 24
REMARK SMILES IDX 70 25 13 26 69 27 14 28 15 29 16 30 63 31 17 32 68 33 62 34
REMARK SMILES IDX 64 35 18 36 67 37 61 38 60 39 19 41 49 42 30 43 48 44 31 45
REMARK SMILES IDX 34 46 47 47 65 48 32 49 33 50 46 52 66 53 35 54 20 55 21 56
REMARK SMILES IDX 29 57 22 58 28 59 23 60 24 61 25 62 26 63 27 64 50 65 51 66
REMARK SMILES IDX 59 67 52 68 58 69 53 70 54 71 55 72 56 73 57 74 36 75 37 76
REMARK SMILES IDX 45 77 38 78 44 79 39 80 40 81 41 82 42 83 43 84
REMARK H PARENT 71 11 74 17 64 40 34 51
REMARK Flexibility Score: inf
ROOT
ATOM      1  C   UNL     1       2.246  -3.796  -2.465  1.00  0.00     0.275 C 
ENDROOT
BRANCH   1   2
ATOM      2  C   UNL     1       2.814  -2.451  -2.906  1.00  0.00     0.274 C 
BRANCH   2   3
ATOM      3  O   UNL     1       2.442  -1.440  -1.950  1.00  0.00    -0.458 OA
BRANCH   3   4
ATOM      4  C   UNL     1       1.525  -0.513  -2.352  1.00  0.00     0.364 C 
ATOM      5  O   UNL     1       1.123  -0.408  -3.506  1.00  0.00    -0.245 OA
BRANCH   4   6
ATOM      6  C   UNL     1       1.066   0.407  -1.180  1.00  0.00     0.292 C 
ATOM      7  C   UNL     1       1.736   0.002   0.140  1.00  0.00     0.088 C 
BRANCH   6   8
ATOM      8  N   UNL     1      -0.420   0.431  -1.177  1.00  0.00    -0.314 N 
ATOM      9  C   UNL     1      -1.126   0.432   0.113  1.00  0.00     0.325 C 
ATOM     10  C   UNL     1      -0.972   1.520  -2.016  1.00  0.00     0.328 C 
ATOM     11  H   UNL     1      -0.609  -0.491  -1.571  1.00  0.00     0.349 HD
ATOM     12  C   UNL     1      -1.172   1.794   0.838  1.00  0.00     0.324 C 
ATOM     13  C   UNL     1      -0.930   2.907  -1.316  1.00  0.00     0.239 C 
ATOM     14  N   UNL     1      -1.643   2.895  -0.021  1.00  0.00    -0.323 N 
ATOM     15  C   UNL     1      -1.535   3.984  -2.228  1.00  0.00     0.071 C 
ATOM     16  C   UNL     1      -1.527   4.181   0.673  1.00  0.00     0.262 C 
ATOM     17  H   UNL     1      -2.631   2.740  -0.222  1.00  0.00     0.348 HD
ATOM     18  C   UNL     1      -1.450   5.356  -1.565  1.00  0.00     0.012 C 
ATOM     19  C   UNL     1      -2.082   5.324  -0.177  1.00  0.00     0.062 C 
ENDBRANCH   6   8
ENDBRANCH   4   6
ENDBRANCH   3   4
ENDBRANCH   2   3
ENDBRANCH   1   2
BRANCH   1  20
ATOM     20  O   UNL     1       0.809  -3.742  -2.510  1.00  0.00    -0.458 OA
BRANCH  20  21
ATOM     21  C   UNL     1       0.177  -3.878  -1.321  1.00  0.00     0.338 C 
ATOM     22  O   UNL     1       0.679  -4.108  -0.235  1.00  0.00    -0.246 OA
BRANCH  21  23
ATOM     23  C   UNL     1      -1.272  -3.723  -1.523  1.00  0.00     0.060 A 
ATOM     24  C   UNL     1      -1.783  -2.501  -1.953  1.00  0.00     0.016 A 
ATOM     25  C   UNL     1      -2.135  -4.761  -1.175  1.00  0.00     0.016 A 
ATOM     26  C   UNL     1      -3.160  -2.279  -1.943  1.00  0.00     0.010 A 
ATOM     27  C   UNL     1      -3.518  -4.568  -1.264  1.00  0.00     0.010 A 
ATOM     28  C   UNL     1      -4.049  -3.312  -1.610  1.00  0.00    -0.014 A 
BRANCH  28  29
ATOM     29  C   UNL     1      -5.522  -3.079  -1.587  1.00  0.00     0.031 A 
ATOM     30  C   UNL     1      -6.310  -3.317  -0.321  1.00  0.00     0.074 A 
ATOM     31  C   UNL     1      -6.169  -2.656  -2.692  1.00  0.00     0.049 A 
ATOM     32  N   UNL     1      -7.607  -3.356  -0.149  1.00  0.00    -0.248 NA
ATOM     33  C   UNL     1      -5.536  -3.559   0.907  1.00  0.00     0.031 C 
ATOM     34  C   UNL     1      -5.542  -2.342  -3.978  1.00  0.00     0.029 A 
ATOM     35  N   UNL     1      -7.504  -2.413  -2.909  1.00  0.00    -0.354 N 
ATOM     36  C   UNL     1      -7.805  -3.686   1.188  1.00  0.00     0.074 A 
ATOM     37  C   UNL     1      -6.493  -3.835   1.782  1.00  0.00     0.031 C 
ATOM     38  C   UNL     1      -6.482  -1.911  -4.833  1.00  0.00     0.029 A 
ATOM     39  C   UNL     1      -7.788  -1.997  -4.189  1.00  0.00     0.049 A 
ATOM     40  H   UNL     1      -8.192  -2.526  -2.214  1.00  0.00     0.167 HD
ATOM     41  C   UNL     1      -8.970  -3.855   1.859  1.00  0.00     0.031 A 
ATOM     42  C   UNL     1      -8.965  -1.749  -4.796  1.00  0.00     0.031 A 
ATOM     43  C   UNL     1     -10.275  -3.662   1.284  1.00  0.00     0.049 A 
ATOM     44  C   UNL     1     -10.245  -1.950  -4.037  1.00  0.00     0.074 A 
ATOM     45  C   UNL     1     -11.514  -3.811   1.885  1.00  0.00     0.029 A 
ATOM     46  N   UNL     1     -10.511  -3.256  -0.021  1.00  0.00    -0.354 N 
ATOM     47  N   UNL     1     -10.412  -2.335  -2.795  1.00  0.00    -0.248 NA
ATOM     48  C   UNL     1     -11.495  -1.702  -4.769  1.00  0.00     0.031 C 
ATOM     49  C   UNL     1     -12.500  -3.521   0.935  1.00  0.00     0.029 A 
ATOM     50  C   UNL     1     -11.874  -3.154  -0.245  1.00  0.00     0.049 A 
ATOM     51  H   UNL     1      -9.813  -3.068  -0.689  1.00  0.00     0.167 HD
ATOM     52  C   UNL     1     -11.787  -2.376  -2.596  1.00  0.00     0.074 A 
ATOM     53  C   UNL     1     -12.405  -1.953  -3.837  1.00  0.00     0.031 C 
ATOM     54  C   UNL     1     -12.475  -2.740  -1.486  1.00  0.00     0.031 A 
BRANCH  41  55
ATOM     55  C   UNL     1      -8.885  -4.313   3.291  1.00  0.00    -0.014 A 
ATOM     56  C   UNL     1      -8.494  -3.439   4.320  1.00  0.00     0.010 A 
ATOM     57  C   UNL     1      -9.229  -5.640   3.612  1.00  0.00     0.010 A 
ATOM     58  C   UNL     1      -8.408  -3.896   5.639  1.00  0.00     0.020 A 
ATOM     59  C   UNL     1      -9.166  -6.094   4.932  1.00  0.00     0.020 A 
ATOM     60  C   UNL     1      -8.736  -5.223   5.936  1.00  0.00     0.054 A 
BRANCH  60  61
ATOM     61  S   UNL     1      -8.623  -5.793   7.654  1.00  0.00     0.124 S 
ATOM     62  O   UNL     1      -7.185  -5.992   7.811  1.00  0.00    -0.237 OA
ATOM     63  O   UNL     1      -9.187  -4.674   8.406  1.00  0.00    -0.237 OA
ATOM     64  O   UNL     1      -9.426  -7.014   7.667  1.00  0.00    -0.744 OA
ENDBRANCH  60  61
ENDBRANCH  41  55
BRANCH  42  65
ATOM     65  C   UNL     1      -8.979  -1.326  -6.222  1.00  0.00    -0.014 A 
ATOM     66  C   UNL     1      -9.290  -0.002  -6.572  1.00  0.00     0.010 A 
ATOM     67  C   UNL     1      -8.639  -2.242  -7.235  1.00  0.00     0.010 A 
ATOM     68  C   UNL     1      -9.259   0.402  -7.910  1.00  0.00     0.020 A 
ATOM     69  C   UNL     1      -8.582  -1.836  -8.571  1.00  0.00     0.020 A 
ATOM     70  C   UNL     1      -8.900  -0.517  -8.901  1.00  0.00     0.054 A 
BRANCH  70  71
ATOM     71  S   UNL     1      -8.779   0.042 -10.623  1.00  0.00     0.124 S 
ATOM     72  O   UNL     1     -10.175   0.022 -11.047  1.00  0.00    -0.237 OA
ATOM     73  O   UNL     1      -8.176   1.366 -10.490  1.00  0.00    -0.237 OA
ATOM     74  O   UNL     1      -7.920  -0.963 -11.246  1.00  0.00    -0.744 OA
ENDBRANCH  70  71
ENDBRANCH  42  65
BRANCH  54  75
ATOM     75  C   UNL     1     -13.975  -2.682  -1.560  1.00  0.00    -0.014 A 
ATOM     76  C   UNL     1     -14.703  -3.674  -2.239  1.00  0.00     0.010 A 
ATOM     77  C   UNL     1     -14.666  -1.644  -0.909  1.00  0.00     0.010 A 
ATOM     78  C   UNL     1     -16.098  -3.614  -2.290  1.00  0.00     0.020 A 
ATOM     79  C   UNL     1     -16.062  -1.591  -0.943  1.00  0.00     0.020 A 
ATOM     80  C   UNL     1     -16.769  -2.570  -1.646  1.00  0.00     0.054 A 
BRANCH  80  81
ATOM     81  S   UNL     1     -18.582  -2.529  -1.694  1.00  0.00     0.124 S 
ATOM     82  O   UNL     1     -18.838  -2.006  -3.033  1.00  0.00    -0.237 OA
ATOM     83  O   UNL     1     -18.944  -3.929  -1.486  1.00  0.00    -0.237 OA
ATOM     84  O   UNL     1     -18.936  -1.632  -0.595  1.00  0.00    -0.744 OA
ENDBRANCH  80  81
ENDBRANCH  54  75
ENDBRANCH  28  29
ENDBRANCH  21  23
ENDBRANCH  20  21
ENDBRANCH   1  20
TORSDOF 15
