REMARK SMILES O=C(CCC(=O)N1N=C(c2ccc(F)cc2)C[C@@H]1c1ccc2nccnc2c1)OCCOC(=O)c1ccc(-c2c3nc(c(-c4ccc(S(=O)(=O)[O-])cc4)c4ccc([nH]4)c(-c4ccc(S(=O)(=O)[O-])cc4)c4nc(c(-c5ccc(S(=O)(=O)[O-])cc5)c5ccc2[nH]5)C=C4)C=C3)cc1
REMARK SMILES IDX 30 1 29 2 2 3 1 4 3 5 4 6 5 7 6 8 7 9 8 10 18 11 9 12 17 13
REMARK SMILES IDX 19 14 20 15 28 16 21 17 27 18 22 19 26 20 23 21 25 22 24 23
REMARK SMILES IDX 10 24 11 25 16 26 12 27 15 28 13 29 14 30 31 31 32 32 33 33
REMARK SMILES IDX 34 34 35 35 36 36 94 37 37 38 93 39 38 40 39 41 40 42 87 43
REMARK SMILES IDX 41 44 92 45 86 46 88 47 42 48 91 49 85 50 84 51 43 53 73 54
REMARK SMILES IDX 54 55 72 56 55 57 58 58 71 59 89 60 56 61 57 62 70 64 90 65
REMARK SMILES IDX 59 66 44 67 45 68 53 69 46 70 52 71 47 72 48 73 49 74 50 75
REMARK SMILES IDX 51 76 74 77 75 78 83 79 76 80 82 81 77 82 78 83 79 84 80 85
REMARK SMILES IDX 81 86 60 87 61 88 69 89 62 90 68 91 63 92 64 93 65 94 66 95
REMARK SMILES IDX 67 96
REMARK H PARENT 88 52 58 63
REMARK Flexibility Score: inf
ROOT
ATOM      1  C   UNL     1       5.440  -0.489  -0.609  1.00  0.00     0.274 C 
ENDROOT
BRANCH   1   2
ATOM      2  O   UNL     1       4.069  -0.411  -0.140  1.00  0.00    -0.462 OA
BRANCH   2   3
ATOM      3  C   UNL     1       2.940  -0.190  -0.831  1.00  0.00     0.306 C 
ATOM      4  O   UNL     1       1.826  -0.194  -0.314  1.00  0.00    -0.252 OA
BRANCH   3   5
ATOM      5  C   UNL     1       3.120   0.281  -2.204  1.00  0.00     0.132 C 
BRANCH   5   6
ATOM      6  C   UNL     1       3.441   1.750  -2.103  1.00  0.00     0.114 C 
BRANCH   6   7
ATOM      7  C   UNL     1       4.372   2.314  -1.013  1.00  0.00     0.243 C 
ATOM      8  O   UNL     1       5.359   2.902  -1.510  1.00  0.00    -0.273 OA
BRANCH   7   9
ATOM      9  N   UNL     1       4.213   2.322   0.386  1.00  0.00    -0.225 N 
ATOM     10  N   UNL     1       5.066   3.263   0.925  1.00  0.00    -0.174 NA
ATOM     11  C   UNL     1       3.187   1.922   1.479  1.00  0.00     0.147 C 
ATOM     12  C   UNL     1       4.555   3.716   2.013  1.00  0.00     0.071 C 
ATOM     13  C   UNL     1       3.328   3.050   2.521  1.00  0.00     0.091 C 
BRANCH  11  14
ATOM     14  C   UNL     1       3.300   0.614   2.324  1.00  0.00    -0.021 A 
ATOM     15  C   UNL     1       2.124   0.123   2.925  1.00  0.00     0.008 A 
ATOM     16  C   UNL     1       4.467  -0.134   2.575  1.00  0.00     0.036 A 
ATOM     17  C   UNL     1       2.090  -1.117   3.584  1.00  0.00     0.031 A 
ATOM     18  C   UNL     1       4.430  -1.436   3.136  1.00  0.00     0.089 A 
ATOM     19  C   UNL     1       3.197  -1.942   3.618  1.00  0.00     0.089 A 
ATOM     20  N   UNL     1       5.515  -2.251   3.088  1.00  0.00    -0.253 NA
ATOM     21  N   UNL     1       3.040  -3.227   4.015  1.00  0.00    -0.253 NA
ATOM     22  C   UNL     1       5.291  -3.571   3.323  1.00  0.00     0.132 A 
ATOM     23  C   UNL     1       4.079  -4.050   3.774  1.00  0.00     0.132 A 
ENDBRANCH  11  14
BRANCH  12  24
ATOM     24  C   UNL     1       5.122   4.914   2.619  1.00  0.00    -0.002 A 
ATOM     25  C   UNL     1       5.688   4.872   3.888  1.00  0.00     0.013 A 
ATOM     26  C   UNL     1       5.215   6.056   1.808  1.00  0.00     0.013 A 
ATOM     27  C   UNL     1       6.368   5.999   4.348  1.00  0.00     0.040 A 
ATOM     28  C   UNL     1       5.880   7.180   2.281  1.00  0.00     0.040 A 
ATOM     29  C   UNL     1       6.457   7.138   3.545  1.00  0.00     0.123 A 
ATOM     30  F   UNL     1       7.131   8.205   3.992  1.00  0.00    -0.207 F 
ENDBRANCH  12  24
ENDBRANCH   7   9
ENDBRANCH   6   7
ENDBRANCH   5   6
ENDBRANCH   3   5
ENDBRANCH   2   3
ENDBRANCH   1   2
BRANCH   1  31
ATOM     31  C   UNL     1       5.976  -1.858  -0.244  1.00  0.00     0.275 C 
BRANCH  31  32
ATOM     32  O   UNL     1       5.126  -2.870  -0.780  1.00  0.00    -0.458 OA
BRANCH  32  33
ATOM     33  C   UNL     1       3.930  -3.114  -0.174  1.00  0.00     0.338 C 
ATOM     34  O   UNL     1       3.469  -2.735   0.864  1.00  0.00    -0.246 OA
BRANCH  33  35
ATOM     35  C   UNL     1       3.145  -3.786  -1.189  1.00  0.00     0.060 A 
ATOM     36  C   UNL     1       1.914  -3.252  -1.599  1.00  0.00     0.016 A 
ATOM     37  C   UNL     1       3.763  -4.859  -1.813  1.00  0.00     0.016 A 
ATOM     38  C   UNL     1       1.322  -3.756  -2.739  1.00  0.00     0.010 A 
ATOM     39  C   UNL     1       3.183  -5.352  -2.944  1.00  0.00     0.010 A 
ATOM     40  C   UNL     1       1.972  -4.798  -3.399  1.00  0.00    -0.014 A 
BRANCH  40  41
ATOM     41  C   UNL     1       1.372  -5.505  -4.521  1.00  0.00     0.031 A 
ATOM     42  C   UNL     1       0.840  -6.858  -4.208  1.00  0.00     0.074 A 
ATOM     43  C   UNL     1       1.622  -5.042  -5.751  1.00  0.00     0.049 A 
ATOM     44  N   UNL     1       0.670  -7.872  -5.002  1.00  0.00    -0.248 NA
ATOM     45  C   UNL     1       0.552  -7.127  -2.785  1.00  0.00     0.031 C 
ATOM     46  C   UNL     1       2.186  -3.726  -6.065  1.00  0.00     0.029 A 
ATOM     47  N   UNL     1       1.520  -5.671  -6.957  1.00  0.00    -0.354 N 
ATOM     48  C   UNL     1       0.296  -8.917  -4.171  1.00  0.00     0.074 A 
ATOM     49  C   UNL     1       0.302  -8.425  -2.812  1.00  0.00     0.031 C 
ATOM     50  C   UNL     1       2.424  -3.663  -7.385  1.00  0.00     0.029 A 
ATOM     51  C   UNL     1       2.084  -4.951  -7.980  1.00  0.00     0.049 A 
ATOM     52  H   UNL     1       1.088  -6.547  -7.080  1.00  0.00     0.167 HD
ATOM     53  C   UNL     1      -0.008 -10.181  -4.534  1.00  0.00     0.031 A 
ATOM     54  C   UNL     1       2.345  -5.332  -9.242  1.00  0.00     0.031 A 
ATOM     55  C   UNL     1       0.058 -10.615  -5.901  1.00  0.00     0.049 A 
ATOM     56  C   UNL     1       1.984  -6.737  -9.634  1.00  0.00     0.074 A 
ATOM     57  C   UNL     1      -0.280 -11.839  -6.436  1.00  0.00     0.029 A 
ATOM     58  N   UNL     1       0.516  -9.822  -6.950  1.00  0.00    -0.354 N 
ATOM     59  N   UNL     1       1.543  -7.713  -8.871  1.00  0.00    -0.248 NA
ATOM     60  C   UNL     1       2.135  -7.091 -11.047  1.00  0.00     0.031 C 
ATOM     61  C   UNL     1       0.030 -11.807  -7.800  1.00  0.00     0.029 A 
ATOM     62  C   UNL     1       0.489 -10.537  -8.130  1.00  0.00     0.049 A 
ATOM     63  H   UNL     1       0.815  -8.888  -6.862  1.00  0.00     0.167 HD
ATOM     64  C   UNL     1       1.327  -8.791  -9.718  1.00  0.00     0.074 A 
ATOM     65  C   UNL     1       1.690  -8.341 -11.051  1.00  0.00     0.031 C 
ATOM     66  C   UNL     1       0.861 -10.033  -9.432  1.00  0.00     0.031 A 
BRANCH  53  67
ATOM     67  C   UNL     1      -0.373 -11.141  -3.437  1.00  0.00    -0.014 A 
ATOM     68  C   UNL     1      -1.514 -10.939  -2.635  1.00  0.00     0.010 A 
ATOM     69  C   UNL     1       0.460 -12.241  -3.169  1.00  0.00     0.010 A 
ATOM     70  C   UNL     1      -1.774 -11.775  -1.547  1.00  0.00     0.020 A 
ATOM     71  C   UNL     1       0.182 -13.103  -2.105  1.00  0.00     0.020 A 
ATOM     72  C   UNL     1      -0.919 -12.849  -1.285  1.00  0.00     0.054 A 
BRANCH  72  73
ATOM     73  S   UNL     1      -1.274 -13.912   0.140  1.00  0.00     0.124 S 
ATOM     74  O   UNL     1      -0.923 -13.041   1.260  1.00  0.00    -0.237 OA
ATOM     75  O   UNL     1      -2.700 -14.190  -0.016  1.00  0.00    -0.237 OA
ATOM     76  O   UNL     1      -0.393 -15.060  -0.056  1.00  0.00    -0.744 OA
ENDBRANCH  72  73
ENDBRANCH  53  67
BRANCH  54  77
ATOM     77  C   UNL     1       2.947  -4.357 -10.186  1.00  0.00    -0.014 A 
ATOM     78  C   UNL     1       2.149  -3.746 -11.168  1.00  0.00     0.010 A 
ATOM     79  C   UNL     1       4.286  -3.946 -10.039  1.00  0.00     0.010 A 
ATOM     80  C   UNL     1       2.675  -2.740 -11.983  1.00  0.00     0.020 A 
ATOM     81  C   UNL     1       4.808  -2.922 -10.835  1.00  0.00     0.020 A 
ATOM     82  C   UNL     1       3.998  -2.326 -11.804  1.00  0.00     0.054 A 
BRANCH  82  83
ATOM     83  S   UNL     1       4.621  -0.951 -12.810  1.00  0.00     0.124 S 
ATOM     84  O   UNL     1       4.700  -1.555 -14.136  1.00  0.00    -0.237 OA
ATOM     85  O   UNL     1       3.581   0.060 -12.635  1.00  0.00    -0.237 OA
ATOM     86  O   UNL     1       5.904  -0.626 -12.191  1.00  0.00    -0.744 OA
ENDBRANCH  82  83
ENDBRANCH  54  77
BRANCH  66  87
ATOM     87  C   UNL     1       0.665 -10.973 -10.588  1.00  0.00    -0.014 A 
ATOM     88  C   UNL     1       1.755 -11.581 -11.232  1.00  0.00     0.010 A 
ATOM     89  C   UNL     1      -0.646 -11.332 -10.954  1.00  0.00     0.010 A 
ATOM     90  C   UNL     1       1.535 -12.526 -12.235  1.00  0.00     0.020 A 
ATOM     91  C   UNL     1      -0.868 -12.300 -11.931  1.00  0.00     0.020 A 
ATOM     92  C   UNL     1       0.225 -12.886 -12.571  1.00  0.00     0.054 A 
BRANCH  92  93
ATOM     93  S   UNL     1      -0.030 -14.178 -13.815  1.00  0.00     0.124 S 
ATOM     94  O   UNL     1       0.359 -13.495 -15.046  1.00  0.00    -0.237 OA
ATOM     95  O   UNL     1       0.876 -15.234 -13.367  1.00  0.00    -0.237 OA
ATOM     96  O   UNL     1      -1.452 -14.495 -13.701  1.00  0.00    -0.744 OA
ENDBRANCH  92  93
ENDBRANCH  66  87
ENDBRANCH  40  41
ENDBRANCH  33  35
ENDBRANCH  32  33
ENDBRANCH  31  32
ENDBRANCH   1  31
TORSDOF 19
