REMARK SMILES Cc1cccc(C)c1NC(=O)/C(C#N)=C/c1ccc(C(=O)OCCOC(=O)c2ccc(-c3c4nc(c(-c5ccc(S(=O)(=O)[O-])cc5)c5ccc([nH]5)c(-c5ccc(S(=O)(=O)[O-])cc5)c5nc(c(-c6ccc(S(=O)(=O)[O-])cc6)c6ccc3[nH]6)C=C5)C=C4)cc2)cc1
REMARK SMILES IDX 23 1 22 2 20 3 21 4 19 5 16 6 17 7 89 8 18 9 88 10 15 11
REMARK SMILES IDX 12 12 10 13 9 14 11 16 8 17 1 18 2 19 3 20 4 21 6 22 5 23
REMARK SMILES IDX 7 24 13 25 14 26 24 27 25 28 26 29 27 30 28 31 29 32 87 33
REMARK SMILES IDX 30 34 86 35 31 36 32 37 33 38 80 39 34 40 85 41 79 42 81 43
REMARK SMILES IDX 35 44 84 45 78 46 77 47 36 49 66 50 47 51 65 52 48 53 51 54
REMARK SMILES IDX 64 55 82 56 49 57 50 58 63 60 83 61 52 62 37 63 38 64 46 65
REMARK SMILES IDX 39 66 45 67 40 68 41 69 42 70 43 71 44 72 67 73 68 74 76 75
REMARK SMILES IDX 69 76 75 77 70 78 71 79 72 80 73 81 74 82 53 83 54 84 62 85
REMARK SMILES IDX 55 86 61 87 56 88 57 89 58 90 59 91 60 92
REMARK H PARENT 9 15 81 48 51 59
REMARK Flexibility Score: inf
ROOT
ATOM      1  C   UNL     1     -10.176  -1.194   0.730  1.00  0.00     0.275 C 
ENDROOT
BRANCH   1   2
ATOM      2  O   UNL     1      -8.937  -0.491   0.948  1.00  0.00    -0.458 OA
BRANCH   2   3
ATOM      3  C   UNL     1      -8.336   0.011  -0.157  1.00  0.00     0.338 C 
ATOM      4  O   UNL     1      -8.703  -0.149  -1.311  1.00  0.00    -0.246 OA
BRANCH   3   5
ATOM      5  C   UNL     1      -7.178   0.873   0.204  1.00  0.00     0.060 A 
ATOM      6  C   UNL     1      -4.876   2.421   0.711  1.00  0.00    -0.024 A 
ATOM      7  C   UNL     1      -5.623   2.613  -0.459  1.00  0.00     0.009 A 
ATOM      8  C   UNL     1      -5.358   1.525   1.671  1.00  0.00     0.009 A 
ATOM      9  C   UNL     1      -6.735   1.818  -0.728  1.00  0.00     0.016 A 
ATOM     10  C   UNL     1      -6.501   0.750   1.419  1.00  0.00     0.016 A 
BRANCH   6  11
ATOM     11  C   UNL     1      -3.550   3.072   0.727  1.00  0.00     0.033 C 
ATOM     12  C   UNL     1      -2.385   2.502   1.109  1.00  0.00     0.118 C 
BRANCH  12  13
ATOM     13  C   UNL     1      -1.166   3.123   0.517  1.00  0.00     0.266 C 
ATOM     14  N   UNL     1      -0.158   2.368  -0.032  1.00  0.00    -0.321 N 
ATOM     15  H   UNL     1       0.618   2.897  -0.327  1.00  0.00     0.170 HD
ATOM     16  O   UNL     1      -1.024   4.349   0.544  1.00  0.00    -0.268 OA
BRANCH  14  17
ATOM     17  C   UNL     1      -0.019   0.978  -0.254  1.00  0.00     0.047 A 
ATOM     18  C   UNL     1       2.479   1.246   0.241  1.00  0.00     0.046 C 
ATOM     19  C   UNL     1       1.249   0.408   0.009  1.00  0.00    -0.027 A 
ATOM     20  C   UNL     1       1.383  -0.989   0.075  1.00  0.00     0.005 A 
ATOM     21  C   UNL     1       0.298  -1.816  -0.182  1.00  0.00     0.001 A 
ATOM     22  C   UNL     1      -1.050   0.137  -0.722  1.00  0.00    -0.027 A 
ATOM     23  C   UNL     1      -0.896  -1.258  -0.619  1.00  0.00     0.005 A 
ATOM     24  C   UNL     1      -2.201   0.625  -1.563  1.00  0.00     0.046 C 
ENDBRANCH  14  17
ENDBRANCH  12  13
BRANCH  12  25
ATOM     25  C   UNL     1      -2.267   1.337   1.909  1.00  0.00     0.105 C 
ATOM     26  N   UNL     1      -2.198   0.402   2.599  1.00  0.00    -0.192 NA
ENDBRANCH  12  25
ENDBRANCH   6  11
ENDBRANCH   3   5
ENDBRANCH   2   3
ENDBRANCH   1   2
BRANCH   1  27
ATOM     27  C   UNL     1     -11.376  -0.320   1.102  1.00  0.00     0.275 C 
BRANCH  27  28
ATOM     28  O   UNL     1     -11.567   0.743   0.148  1.00  0.00    -0.458 OA
BRANCH  28  29
ATOM     29  C   UNL     1     -11.011   1.922   0.505  1.00  0.00     0.338 C 
ATOM     30  O   UNL     1     -10.409   2.173   1.537  1.00  0.00    -0.246 OA
BRANCH  29  31
ATOM     31  C   UNL     1     -11.111   2.897  -0.588  1.00  0.00     0.060 A 
ATOM     32  C   UNL     1     -10.026   3.000  -1.448  1.00  0.00     0.016 A 
ATOM     33  C   UNL     1     -12.131   3.842  -0.634  1.00  0.00     0.016 A 
ATOM     34  C   UNL     1      -9.874   4.114  -2.263  1.00  0.00     0.010 A 
ATOM     35  C   UNL     1     -12.036   4.904  -1.546  1.00  0.00     0.010 A 
ATOM     36  C   UNL     1     -10.883   5.081  -2.336  1.00  0.00    -0.014 A 
BRANCH  36  37
ATOM     37  C   UNL     1     -10.703   6.283  -3.203  1.00  0.00     0.031 A 
ATOM     38  C   UNL     1     -10.802   7.669  -2.614  1.00  0.00     0.074 A 
ATOM     39  C   UNL     1     -10.425   6.137  -4.516  1.00  0.00     0.049 A 
ATOM     40  N   UNL     1     -10.825   8.827  -3.225  1.00  0.00    -0.248 NA
ATOM     41  C   UNL     1     -10.906   7.768  -1.148  1.00  0.00     0.031 C 
ATOM     42  C   UNL     1     -10.244   4.859  -5.212  1.00  0.00     0.029 A 
ATOM     43  N   UNL     1     -10.236   7.073  -5.505  1.00  0.00    -0.354 N 
ATOM     44  C   UNL     1     -11.004   9.783  -2.228  1.00  0.00     0.074 A 
ATOM     45  C   UNL     1     -11.101   9.068  -0.975  1.00  0.00     0.031 C 
ATOM     46  C   UNL     1      -9.931   5.091  -6.494  1.00  0.00     0.029 A 
ATOM     47  C   UNL     1      -9.994   6.525  -6.743  1.00  0.00     0.049 A 
ATOM     48  H   UNL     1     -10.271   8.043  -5.342  1.00  0.00     0.167 HD
ATOM     49  C   UNL     1     -11.080  11.131  -2.348  1.00  0.00     0.031 A 
ATOM     50  C   UNL     1      -9.886   7.097  -7.958  1.00  0.00     0.031 A 
ATOM     51  C   UNL     1     -10.953  11.835  -3.599  1.00  0.00     0.049 A 
ATOM     52  C   UNL     1     -10.037   8.587  -8.074  1.00  0.00     0.074 A 
ATOM     53  C   UNL     1     -10.999  13.200  -3.826  1.00  0.00     0.029 A 
ATOM     54  N   UNL     1     -10.747  11.234  -4.832  1.00  0.00    -0.354 N 
ATOM     55  N   UNL     1     -10.240   9.470  -7.125  1.00  0.00    -0.248 NA
ATOM     56  C   UNL     1      -9.948   9.158  -9.424  1.00  0.00     0.031 C 
ATOM     57  C   UNL     1     -10.889  13.420  -5.202  1.00  0.00     0.029 A 
ATOM     58  C   UNL     1     -10.690  12.198  -5.825  1.00  0.00     0.049 A 
ATOM     59  H   UNL     1     -10.655  10.265  -4.980  1.00  0.00     0.167 HD
ATOM     60  C   UNL     1     -10.271  10.706  -7.761  1.00  0.00     0.074 A 
ATOM     61  C   UNL     1     -10.048  10.455  -9.171  1.00  0.00     0.031 C 
ATOM     62  C   UNL     1     -10.464  11.936  -7.225  1.00  0.00     0.031 A 
BRANCH  49  63
ATOM     63  C   UNL     1     -11.360  11.937  -1.102  1.00  0.00    -0.014 A 
ATOM     64  C   UNL     1     -10.412  12.062  -0.070  1.00  0.00     0.010 A 
ATOM     65  C   UNL     1     -12.583  12.626  -0.987  1.00  0.00     0.010 A 
ATOM     66  C   UNL     1     -10.698  12.824   1.067  1.00  0.00     0.020 A 
ATOM     67  C   UNL     1     -12.859  13.417   0.132  1.00  0.00     0.020 A 
ATOM     68  C   UNL     1     -11.920  13.498   1.161  1.00  0.00     0.054 A 
BRANCH  68  69
ATOM     69  S   UNL     1     -12.251  14.502   2.635  1.00  0.00     0.124 S 
ATOM     70  O   UNL     1     -12.412  13.481   3.666  1.00  0.00    -0.237 OA
ATOM     71  O   UNL     1     -11.045  15.318   2.742  1.00  0.00    -0.237 OA
ATOM     72  O   UNL     1     -13.467  15.235   2.291  1.00  0.00    -0.744 OA
ENDBRANCH  68  69
ENDBRANCH  49  63
BRANCH  50  73
ATOM     73  C   UNL     1      -9.672   6.250  -9.166  1.00  0.00    -0.014 A 
ATOM     74  C   UNL     1      -8.479   6.335  -9.904  1.00  0.00     0.010 A 
ATOM     75  C   UNL     1     -10.665   5.342  -9.582  1.00  0.00     0.010 A 
ATOM     76  C   UNL     1      -8.292   5.546 -11.043  1.00  0.00     0.020 A 
ATOM     77  C   UNL     1     -10.466   4.522 -10.695  1.00  0.00     0.020 A 
ATOM     78  C   UNL     1      -9.285   4.641 -11.428  1.00  0.00     0.054 A 
BRANCH  78  79
ATOM     79  S   UNL     1      -9.000   3.595 -12.883  1.00  0.00     0.124 S 
ATOM     80  O   UNL     1      -9.088   4.562 -13.973  1.00  0.00    -0.237 OA
ATOM     81  O   UNL     1      -7.669   3.053 -12.623  1.00  0.00    -0.237 OA
ATOM     82  O   UNL     1     -10.085   2.619 -12.822  1.00  0.00    -0.744 OA
ENDBRANCH  78  79
ENDBRANCH  50  73
BRANCH  62  83
ATOM     83  C   UNL     1     -10.379  13.116  -8.158  1.00  0.00    -0.014 A 
ATOM     84  C   UNL     1     -11.359  13.358  -9.137  1.00  0.00     0.010 A 
ATOM     85  C   UNL     1      -9.307  14.019  -8.025  1.00  0.00     0.010 A 
ATOM     86  C   UNL     1     -11.245  14.457  -9.993  1.00  0.00     0.020 A 
ATOM     87  C   UNL     1      -9.210  15.139  -8.853  1.00  0.00     0.020 A 
ATOM     88  C   UNL     1     -10.171  15.340  -9.845  1.00  0.00     0.054 A 
BRANCH  88  89
ATOM     89  S   UNL     1     -10.064  16.776 -10.947  1.00  0.00     0.124 S 
ATOM     90  O   UNL     1      -9.711  16.155 -12.221  1.00  0.00    -0.237 OA
ATOM     91  O   UNL     1     -11.411  17.336 -10.873  1.00  0.00    -0.237 OA
ATOM     92  O   UNL     1      -9.018  17.599 -10.345  1.00  0.00    -0.744 OA
ENDBRANCH  88  89
ENDBRANCH  62  83
ENDBRANCH  36  37
ENDBRANCH  29  31
ENDBRANCH  28  29
ENDBRANCH  27  28
ENDBRANCH   1  27
TORSDOF 18
