REMARK SMILES O=C(CNc1nc(-c2ccccc2)c(-c2ccccc2)s1)OCCOC(=O)c1ccc(-c2c3nc(c(-c4ccc(S(=O)(=O)[O-])cc4)c4ccc([nH]4)c(-c4ccc(S(=O)(=O)[O-])cc4)c4nc(c(-c5ccc(S(=O)(=O)[O-])cc5)c5ccc2[nH]5)C=C4)C=C3)cc1
REMARK SMILES IDX 23 1 22 2 2 3 1 4 3 5 4 6 5 8 6 9 21 10 7 11 14 12 8 13 9 14
REMARK SMILES IDX 13 15 10 16 12 17 11 18 15 19 16 20 20 21 17 22 19 23 18 24
REMARK SMILES IDX 24 25 25 26 26 27 27 28 28 29 29 30 87 31 30 32 86 33 31 34
REMARK SMILES IDX 32 35 33 36 80 37 34 38 85 39 79 40 81 41 35 42 84 43 78 44
REMARK SMILES IDX 77 45 36 47 66 48 47 49 65 50 48 51 51 52 64 53 82 54 49 55
REMARK SMILES IDX 50 56 63 58 83 59 52 60 37 61 38 62 46 63 39 64 45 65 40 66
REMARK SMILES IDX 41 67 42 68 43 69 44 70 67 71 68 72 76 73 69 74 75 75 70 76
REMARK SMILES IDX 71 77 72 78 73 79 74 80 53 81 54 82 62 83 55 84 61 85 56 86
REMARK SMILES IDX 57 87 58 88 59 89 60 90
REMARK H PARENT 4 7 81 46 51 57
REMARK Flexibility Score: inf
ROOT
ATOM      1  C   UNL     1       4.329   0.082   0.902  1.00  0.00     0.274 C 
ENDROOT
BRANCH   1   2
ATOM      2  O   UNL     1       3.006   0.565   0.583  1.00  0.00    -0.461 OA
BRANCH   2   3
ATOM      3  C   UNL     1       2.514   0.787  -0.662  1.00  0.00     0.325 C 
ATOM      4  O   UNL     1       1.410   1.317  -0.791  1.00  0.00    -0.250 OA
BRANCH   3   5
ATOM      5  C   UNL     1       3.341   0.403  -1.884  1.00  0.00     0.238 C 
BRANCH   5   6
ATOM      6  N   UNL     1       4.425   1.338  -2.124  1.00  0.00    -0.351 N 
ATOM      7  H   UNL     1       4.232   2.302  -2.184  1.00  0.00     0.163 HD
BRANCH   6   8
ATOM      8  C   UNL     1       5.689   0.902  -2.266  1.00  0.00     0.184 A 
ATOM      9  N   UNL     1       6.046  -0.352  -2.426  1.00  0.00    -0.220 NA
ATOM     10  S   UNL     1       6.985   2.015  -2.109  1.00  0.00    -0.096 S 
ATOM     11  C   UNL     1       7.427  -0.467  -2.399  1.00  0.00     0.091 A 
ATOM     12  C   UNL     1       8.106   0.718  -2.163  1.00  0.00     0.064 A 
BRANCH  11  13
ATOM     13  C   UNL     1       8.087  -1.744  -2.633  1.00  0.00     0.002 A 
ATOM     14  C   UNL     1       8.997  -2.276  -1.709  1.00  0.00     0.010 A 
ATOM     15  C   UNL     1       7.869  -2.417  -3.841  1.00  0.00     0.010 A 
ATOM     16  C   UNL     1       9.715  -3.436  -2.012  1.00  0.00     0.001 A 
ATOM     17  C   UNL     1       8.591  -3.575  -4.144  1.00  0.00     0.001 A 
ATOM     18  C   UNL     1       9.521  -4.077  -3.235  1.00  0.00     0.000 A 
ENDBRANCH  11  13
BRANCH  12  19
ATOM     19  C   UNL     1       9.528   1.006  -2.020  1.00  0.00    -0.006 A 
ATOM     20  C   UNL     1      10.039   1.444  -0.790  1.00  0.00     0.009 A 
ATOM     21  C   UNL     1      10.399   0.830  -3.101  1.00  0.00     0.009 A 
ATOM     22  C   UNL     1      11.399   1.718  -0.649  1.00  0.00     0.001 A 
ATOM     23  C   UNL     1      11.758   1.106  -2.959  1.00  0.00     0.001 A 
ATOM     24  C   UNL     1      12.257   1.552  -1.735  1.00  0.00     0.000 A 
ENDBRANCH  12  19
ENDBRANCH   6   8
ENDBRANCH   5   6
ENDBRANCH   3   5
ENDBRANCH   2   3
ENDBRANCH   1   2
BRANCH   1  25
ATOM     25  C   UNL     1       4.327  -1.391   1.302  1.00  0.00     0.275 C 
BRANCH  25  26
ATOM     26  O   UNL     1       3.984  -2.211   0.176  1.00  0.00    -0.458 OA
BRANCH  26  27
ATOM     27  C   UNL     1       2.677  -2.551   0.073  1.00  0.00     0.338 C 
ATOM     28  O   UNL     1       1.802  -2.344   0.895  1.00  0.00    -0.246 OA
BRANCH  27  29
ATOM     29  C   UNL     1       2.423  -3.033  -1.302  1.00  0.00     0.060 A 
ATOM     30  C   UNL     1       1.223  -2.656  -1.921  1.00  0.00     0.016 A 
ATOM     31  C   UNL     1       3.368  -3.792  -1.999  1.00  0.00     0.016 A 
ATOM     32  C   UNL     1       0.957  -3.057  -3.231  1.00  0.00     0.010 A 
ATOM     33  C   UNL     1       3.097  -4.199  -3.305  1.00  0.00     0.010 A 
ATOM     34  C   UNL     1       1.883  -3.851  -3.920  1.00  0.00    -0.014 A 
BRANCH  34  35
ATOM     35  C   UNL     1       1.546  -4.441  -5.235  1.00  0.00     0.031 A 
ATOM     36  C   UNL     1       1.020  -5.846  -5.280  1.00  0.00     0.074 A 
ATOM     37  C   UNL     1       1.765  -3.761  -6.374  1.00  0.00     0.049 A 
ATOM     38  N   UNL     1       0.750  -6.595  -6.316  1.00  0.00    -0.248 NA
ATOM     39  C   UNL     1       0.781  -6.495  -3.981  1.00  0.00     0.031 C 
ATOM     40  C   UNL     1       2.265  -2.390  -6.459  1.00  0.00     0.029 A 
ATOM     41  N   UNL     1       1.619  -4.151  -7.681  1.00  0.00    -0.354 N 
ATOM     42  C   UNL     1       0.321  -7.810  -5.796  1.00  0.00     0.074 A 
ATOM     43  C   UNL     1       0.387  -7.703  -4.354  1.00  0.00     0.031 C 
ATOM     44  C   UNL     1       2.414  -2.063  -7.755  1.00  0.00     0.029 A 
ATOM     45  C   UNL     1       2.047  -3.210  -8.585  1.00  0.00     0.049 A 
ATOM     46  H   UNL     1       1.243  -5.022  -7.946  1.00  0.00     0.167 HD
ATOM     47  C   UNL     1      -0.087  -8.918  -6.459  1.00  0.00     0.031 A 
ATOM     48  C   UNL     1       2.161  -3.276  -9.927  1.00  0.00     0.031 A 
ATOM     49  C   UNL     1      -0.122  -9.034  -7.891  1.00  0.00     0.049 A 
ATOM     50  C   UNL     1       1.749  -4.533 -10.647  1.00  0.00     0.074 A 
ATOM     51  C   UNL     1      -0.548 -10.104  -8.657  1.00  0.00     0.029 A 
ATOM     52  N   UNL     1       0.307  -8.053  -8.773  1.00  0.00    -0.354 N 
ATOM     53  N   UNL     1       1.285  -5.654 -10.147  1.00  0.00    -0.248 NA
ATOM     54  C   UNL     1       1.869  -4.533 -12.113  1.00  0.00     0.031 C 
ATOM     55  C   UNL     1      -0.329  -9.789 -10.003  1.00  0.00     0.029 A 
ATOM     56  C   UNL     1       0.184  -8.503 -10.076  1.00  0.00     0.049 A 
ATOM     57  H   UNL     1       0.647  -7.167  -8.511  1.00  0.00     0.167 HD
ATOM     58  C   UNL     1       1.035  -6.482 -11.236  1.00  0.00     0.074 A 
ATOM     59  C   UNL     1       1.396  -5.734 -12.423  1.00  0.00     0.031 C 
ATOM     60  C   UNL     1       0.545  -7.747 -11.249  1.00  0.00     0.031 A 
BRANCH  47  61
ATOM     61  C   UNL     1      -0.476 -10.105  -5.624  1.00  0.00    -0.014 A 
ATOM     62  C   UNL     1      -1.666 -10.110  -4.874  1.00  0.00     0.010 A 
ATOM     63  C   UNL     1       0.372 -11.226  -5.574  1.00  0.00     0.010 A 
ATOM     64  C   UNL     1      -1.970 -11.189  -4.041  1.00  0.00     0.020 A 
ATOM     65  C   UNL     1       0.059 -12.318  -4.762  1.00  0.00     0.020 A 
ATOM     66  C   UNL     1      -1.098 -12.281  -3.980  1.00  0.00     0.054 A 
BRANCH  66  67
ATOM     67  S   UNL     1      -1.498 -13.658  -2.871  1.00  0.00     0.124 S 
ATOM     68  O   UNL     1      -1.140 -13.106  -1.567  1.00  0.00    -0.237 OA
ATOM     69  O   UNL     1      -2.928 -13.853  -3.098  1.00  0.00    -0.237 OA
ATOM     70  O   UNL     1      -0.642 -14.743  -3.344  1.00  0.00    -0.744 OA
ENDBRANCH  66  67
ENDBRANCH  47  61
BRANCH  48  71
ATOM     71  C   UNL     1       2.716  -2.113 -10.669  1.00  0.00    -0.014 A 
ATOM     72  C   UNL     1       1.878  -1.281 -11.431  1.00  0.00     0.010 A 
ATOM     73  C   UNL     1       4.087  -1.808 -10.579  1.00  0.00     0.010 A 
ATOM     74  C   UNL     1       2.401  -0.163 -12.087  1.00  0.00     0.020 A 
ATOM     75  C   UNL     1       4.609  -0.679 -11.215  1.00  0.00     0.020 A 
ATOM     76  C   UNL     1       3.762   0.135 -11.970  1.00  0.00     0.054 A 
BRANCH  76  77
ATOM     77  S   UNL     1       4.403   1.640 -12.757  1.00  0.00     0.124 S 
ATOM     78  O   UNL     1       4.451   1.250 -14.163  1.00  0.00    -0.237 OA
ATOM     79  O   UNL     1       3.392   2.635 -12.410  1.00  0.00    -0.237 OA
ATOM     80  O   UNL     1       5.702   1.834 -12.116  1.00  0.00    -0.744 OA
ENDBRANCH  76  77
ENDBRANCH  48  71
BRANCH  60  81
ATOM     81  C   UNL     1       0.333  -8.408 -12.585  1.00  0.00    -0.014 A 
ATOM     82  C   UNL     1       1.413  -8.922 -13.323  1.00  0.00     0.010 A 
ATOM     83  C   UNL     1      -0.978  -8.611 -13.055  1.00  0.00     0.010 A 
ATOM     84  C   UNL     1       1.185  -9.625 -14.510  1.00  0.00     0.020 A 
ATOM     85  C   UNL     1      -1.210  -9.331 -14.229  1.00  0.00     0.020 A 
ATOM     86  C   UNL     1      -0.126  -9.830 -14.953  1.00  0.00     0.054 A 
BRANCH  86  87
ATOM     87  S   UNL     1      -0.401 -10.820 -16.449  1.00  0.00     0.124 S 
ATOM     88  O   UNL     1      -0.023  -9.885 -17.506  1.00  0.00    -0.237 OA
ATOM     89  O   UNL     1       0.504 -11.951 -16.258  1.00  0.00    -0.237 OA
ATOM     90  O   UNL     1      -1.823 -11.151 -16.388  1.00  0.00    -0.744 OA
ENDBRANCH  86  87
ENDBRANCH  60  81
ENDBRANCH  34  35
ENDBRANCH  27  29
ENDBRANCH  26  27
ENDBRANCH  25  26
ENDBRANCH   1  25
TORSDOF 18
