REMARK SMILES O=C(CCc1cn(-c2ccc(Br)cc2)nc1-c1ccccc1)OCCOC(=O)c1ccc(-c2c3nc(c(-c4ccc(S(=O)(=O)[O-])cc4)c4ccc([nH]4)c(-c4ccc(S(=O)(=O)[O-])cc4)c4nc(c(-c5ccc(S(=O)(=O)[O-])cc5)c5ccc2[nH]5)C=C4)C=C3)cc1
REMARK SMILES IDX 24 1 23 2 2 3 1 4 3 5 4 6 5 7 6 8 16 9 7 10 15 11 17 12
REMARK SMILES IDX 18 13 22 14 19 15 21 16 20 17 8 18 9 19 14 20 10 21 13 22
REMARK SMILES IDX 11 23 12 24 25 25 26 26 27 27 28 28 29 29 30 30 88 31 31 32
REMARK SMILES IDX 87 33 32 34 33 35 34 36 81 37 35 38 86 39 80 40 82 41 36 42
REMARK SMILES IDX 85 43 79 44 78 45 37 47 67 48 48 49 66 50 49 51 52 52 65 53
REMARK SMILES IDX 83 54 50 55 51 56 64 58 84 59 53 60 38 61 39 62 47 63 40 64
REMARK SMILES IDX 46 65 41 66 42 67 43 68 44 69 45 70 68 71 69 72 77 73 70 74
REMARK SMILES IDX 76 75 71 76 72 77 73 78 74 79 75 80 54 81 55 82 63 83 56 84
REMARK SMILES IDX 62 85 57 86 58 87 59 88 60 89 61 90
REMARK H PARENT 82 46 52 57
REMARK Flexibility Score: inf
ROOT
ATOM      1  C   UNL     1       5.208  -1.352   1.690  1.00  0.00     0.274 C 
ENDROOT
BRANCH   1   2
ATOM      2  O   UNL     1       4.038  -0.216   2.145  1.00  0.00    -0.462 OA
BRANCH   2   3
ATOM      3  C   UNL     1       2.986   0.663   2.268  1.00  0.00     0.306 C 
ATOM      4  O   UNL     1       2.832   1.189   3.382  1.00  0.00    -0.252 OA
BRANCH   3   5
ATOM      5  C   UNL     1       1.832   1.079   1.183  1.00  0.00     0.127 C 
BRANCH   5   6
ATOM      6  C   UNL     1       2.172   1.815  -0.111  1.00  0.00     0.051 C 
BRANCH   6   7
ATOM      7  C   UNL     1       3.573   1.551  -0.301  1.00  0.00    -0.001 A 
ATOM      8  C   UNL     1       4.528   2.489   0.083  1.00  0.00     0.119 A 
ATOM      9  C   UNL     1       4.153   0.237  -0.364  1.00  0.00     0.096 A 
ATOM     10  N   UNL     1       5.569   1.740   0.539  1.00  0.00    -0.240 N 
ATOM     11  N   UNL     1       5.438   0.489   0.043  1.00  0.00    -0.168 NA
BRANCH   9  12
ATOM     12  C   UNL     1       3.431  -1.310  -0.406  1.00  0.00     0.002 A 
ATOM     13  C   UNL     1       2.344  -1.742   0.382  1.00  0.00     0.010 A 
ATOM     14  C   UNL     1       3.959  -2.487  -0.981  1.00  0.00     0.010 A 
ATOM     15  C   UNL     1       1.792  -3.061   0.459  1.00  0.00     0.001 A 
ATOM     16  C   UNL     1       3.475  -3.822  -0.932  1.00  0.00     0.001 A 
ATOM     17  C   UNL     1       2.353  -4.112  -0.221  1.00  0.00     0.000 A 
ENDBRANCH   9  12
BRANCH  10  18
ATOM     18  C   UNL     1       6.503   2.087   1.604  1.00  0.00     0.065 A 
ATOM     19  C   UNL     1       6.169   3.064   2.567  1.00  0.00     0.029 A 
ATOM     20  C   UNL     1       7.725   1.417   1.771  1.00  0.00     0.029 A 
ATOM     21  C   UNL     1       7.015   3.336   3.663  1.00  0.00     0.018 A 
ATOM     22  C   UNL     1       8.577   1.693   2.863  1.00  0.00     0.018 A 
ATOM     23  C   UNL     1       8.216   2.649   3.806  1.00  0.00     0.018 A 
ATOM     24  Br  UNL     1       9.354   3.019   5.275  1.00  0.00    -0.051 Br
ENDBRANCH  10  18
ENDBRANCH   6   7
ENDBRANCH   5   6
ENDBRANCH   3   5
ENDBRANCH   2   3
ENDBRANCH   1   2
BRANCH   1  25
ATOM     25  C   UNL     1       6.438  -1.550   0.406  1.00  0.00     0.275 C 
BRANCH  25  26
ATOM     26  O   UNL     1       6.410  -1.510  -1.185  1.00  0.00    -0.458 OA
BRANCH  26  27
ATOM     27  C   UNL     1       6.135  -0.682  -2.286  1.00  0.00     0.338 C 
ATOM     28  O   UNL     1       6.178   0.502  -2.426  1.00  0.00    -0.246 OA
BRANCH  27  29
ATOM     29  C   UNL     1       5.589  -1.555  -3.411  1.00  0.00     0.060 A 
ATOM     30  C   UNL     1       4.207  -1.633  -3.740  1.00  0.00     0.016 A 
ATOM     31  C   UNL     1       6.471  -2.443  -4.004  1.00  0.00     0.016 A 
ATOM     32  C   UNL     1       3.716  -2.693  -4.528  1.00  0.00     0.010 A 
ATOM     33  C   UNL     1       5.990  -3.441  -4.848  1.00  0.00     0.010 A 
ATOM     34  C   UNL     1       4.614  -3.611  -5.082  1.00  0.00    -0.014 A 
BRANCH  34  35
ATOM     35  C   UNL     1       4.181  -4.558  -6.142  1.00  0.00     0.031 A 
ATOM     36  C   UNL     1       3.682  -3.901  -7.399  1.00  0.00     0.074 A 
ATOM     37  C   UNL     1       4.571  -5.855  -6.159  1.00  0.00     0.049 A 
ATOM     38  N   UNL     1       2.685  -4.214  -8.167  1.00  0.00    -0.248 NA
ATOM     39  C   UNL     1       4.376  -2.665  -7.810  1.00  0.00     0.031 C 
ATOM     40  C   UNL     1       5.345  -6.540  -5.117  1.00  0.00     0.029 A 
ATOM     41  N   UNL     1       4.558  -6.773  -7.181  1.00  0.00    -0.354 N 
ATOM     42  C   UNL     1       2.740  -3.323  -9.245  1.00  0.00     0.074 A 
ATOM     43  C   UNL     1       3.677  -2.297  -8.878  1.00  0.00     0.031 C 
ATOM     44  C   UNL     1       5.963  -7.612  -5.656  1.00  0.00     0.029 A 
ATOM     45  C   UNL     1       5.547  -7.752  -7.042  1.00  0.00     0.049 A 
ATOM     46  H   UNL     1       3.921  -6.745  -7.931  1.00  0.00     0.167 HD
ATOM     47  C   UNL     1       2.207  -3.588 -10.471  1.00  0.00     0.031 A 
ATOM     48  C   UNL     1       6.076  -8.553  -8.005  1.00  0.00     0.031 A 
ATOM     49  C   UNL     1       1.252  -4.658 -10.436  1.00  0.00     0.049 A 
ATOM     50  C   UNL     1       5.171  -8.526  -9.175  1.00  0.00     0.074 A 
ATOM     51  C   UNL     1       0.057  -4.886  -9.786  1.00  0.00     0.029 A 
ATOM     52  N   UNL     1       1.650  -5.870 -10.944  1.00  0.00    -0.354 N 
ATOM     53  N   UNL     1       3.984  -9.057  -9.192  1.00  0.00    -0.248 NA
ATOM     54  C   UNL     1       5.452  -7.590 -10.253  1.00  0.00     0.031 C 
ATOM     55  C   UNL     1       0.024  -6.290  -9.550  1.00  0.00     0.029 A 
ATOM     56  C   UNL     1       1.180  -6.842 -10.104  1.00  0.00     0.049 A 
ATOM     57  H   UNL     1       2.176  -6.013 -11.764  1.00  0.00     0.167 HD
ATOM     58  C   UNL     1       3.236  -8.222 -10.006  1.00  0.00     0.074 A 
ATOM     59  C   UNL     1       4.217  -7.422 -10.731  1.00  0.00     0.031 C 
ATOM     60  C   UNL     1       1.897  -8.061  -9.801  1.00  0.00     0.031 A 
BRANCH  47  61
ATOM     61  C   UNL     1       2.850  -3.137 -11.771  1.00  0.00    -0.014 A 
ATOM     62  C   UNL     1       2.216  -3.438 -12.996  1.00  0.00     0.010 A 
ATOM     63  C   UNL     1       4.185  -2.685 -11.848  1.00  0.00     0.010 A 
ATOM     64  C   UNL     1       2.911  -3.376 -14.214  1.00  0.00     0.020 A 
ATOM     65  C   UNL     1       4.869  -2.567 -13.059  1.00  0.00     0.020 A 
ATOM     66  C   UNL     1       4.241  -2.958 -14.232  1.00  0.00     0.054 A 
BRANCH  66  67
ATOM     67  S   UNL     1       5.177  -3.005 -15.780  1.00  0.00     0.124 S 
ATOM     68  O   UNL     1       5.302  -4.441 -16.007  1.00  0.00    -0.237 OA
ATOM     69  O   UNL     1       4.295  -2.290 -16.699  1.00  0.00    -0.237 OA
ATOM     70  O   UNL     1       6.419  -2.310 -15.449  1.00  0.00    -0.744 OA
ENDBRANCH  66  67
ENDBRANCH  47  61
BRANCH  48  71
ATOM     71  C   UNL     1       7.444  -9.135  -8.093  1.00  0.00    -0.014 A 
ATOM     72  C   UNL     1       7.741 -10.154  -9.021  1.00  0.00     0.010 A 
ATOM     73  C   UNL     1       8.531  -8.513  -7.446  1.00  0.00     0.010 A 
ATOM     74  C   UNL     1       9.071 -10.492  -9.331  1.00  0.00     0.020 A 
ATOM     75  C   UNL     1       9.858  -8.855  -7.736  1.00  0.00     0.020 A 
ATOM     76  C   UNL     1      10.123  -9.825  -8.698  1.00  0.00     0.054 A 
BRANCH  76  77
ATOM     77  S   UNL     1      11.833 -10.134  -9.232  1.00  0.00     0.124 S 
ATOM     78  O   UNL     1      12.083 -11.476  -8.716  1.00  0.00    -0.237 OA
ATOM     79  O   UNL     1      11.739 -10.021 -10.685  1.00  0.00    -0.237 OA
ATOM     80  O   UNL     1      12.593  -9.068  -8.580  1.00  0.00    -0.744 OA
ENDBRANCH  76  77
ENDBRANCH  48  71
BRANCH  60  81
ATOM     81  C   UNL     1       1.167  -9.074  -8.954  1.00  0.00    -0.014 A 
ATOM     82  C   UNL     1       1.495  -9.353  -7.614  1.00  0.00     0.010 A 
ATOM     83  C   UNL     1       0.005  -9.652  -9.497  1.00  0.00     0.010 A 
ATOM     84  C   UNL     1       0.694 -10.209  -6.846  1.00  0.00     0.020 A 
ATOM     85  C   UNL     1      -0.809 -10.487  -8.730  1.00  0.00     0.020 A 
ATOM     86  C   UNL     1      -0.456 -10.768  -7.410  1.00  0.00     0.054 A 
BRANCH  86  87
ATOM     87  S   UNL     1      -1.525 -11.818  -6.388  1.00  0.00     0.124 S 
ATOM     88  O   UNL     1      -0.723 -13.027  -6.229  1.00  0.00    -0.237 OA
ATOM     89  O   UNL     1      -1.705 -11.019  -5.178  1.00  0.00    -0.237 OA
ATOM     90  O   UNL     1      -2.732 -11.978  -7.198  1.00  0.00    -0.744 OA
ENDBRANCH  86  87
ENDBRANCH  60  81
ENDBRANCH  34  35
ENDBRANCH  27  29
ENDBRANCH  26  27
ENDBRANCH  25  26
ENDBRANCH   1  25
TORSDOF 18
