REMARK SMILES CC(C)Cc1s/c(=N/C(=O)CCC(=O)Nc2nccs2)[nH]c1C(=O)OCCOC(=O)c1ccc(-c2c3nc(c(-c4ccc(S(=O)(=O)[O-])cc4)c4ccc([nH]4)c(-c4ccc(S(=O)(=O)[O-])cc4)c4nc(c(-c5ccc(S(=O)(=O)[O-])cc5)c5ccc2[nH]5)C=C4)C=C3)cc1
REMARK SMILES IDX 26 1 25 2 23 3 24 4 22 5 5 6 6 7 7 8 21 9 8 10 4 12 2 13
REMARK SMILES IDX 1 14 3 15 9 16 10 17 11 18 12 19 13 20 14 21 15 22 16 24
REMARK SMILES IDX 17 25 20 26 18 27 19 28 27 29 28 30 29 31 30 32 31 33 32 34
REMARK SMILES IDX 90 35 33 36 89 37 34 38 35 39 36 40 83 41 37 42 88 43 82 44
REMARK SMILES IDX 84 45 38 46 87 47 81 48 80 49 39 51 69 52 50 53 68 54 51 55
REMARK SMILES IDX 54 56 67 57 85 58 52 59 53 60 66 62 86 63 55 64 40 65 41 66
REMARK SMILES IDX 49 67 42 68 48 69 43 70 44 71 45 72 46 73 47 74 70 75 71 76
REMARK SMILES IDX 79 77 72 78 78 79 73 80 74 81 75 82 76 83 77 84 56 85 57 86
REMARK SMILES IDX 65 87 58 88 64 89 59 90 60 91 61 92 62 93 63 94
REMARK H PARENT 21 11 15 23 84 50 54 61
REMARK Flexibility Score: inf
ROOT
ATOM      1  C   UNL     1      -1.828  -4.724  -1.674  1.00  0.00     0.275 C 
ENDROOT
BRANCH   1   2
ATOM      2  O   UNL     1      -1.623  -3.307  -1.501  1.00  0.00    -0.457 OA
BRANCH   2   3
ATOM      3  C   UNL     1      -1.062  -2.647  -2.543  1.00  0.00     0.356 C 
ATOM      4  O   UNL     1      -0.692  -3.146  -3.596  1.00  0.00    -0.244 OA
BRANCH   3   5
ATOM      5  C   UNL     1      -1.060  -1.176  -2.325  1.00  0.00     0.140 A 
ATOM      6  C   UNL     1      -0.868  -0.519  -1.161  1.00  0.00     0.039 A 
ATOM      7  S   UNL     1      -0.912   1.236  -1.426  1.00  0.00    -0.101 S 
ATOM      8  C   UNL     1      -1.141   1.009  -3.181  1.00  0.00     0.190 A 
ATOM      9  N   UNL     1      -1.186  -0.333  -3.416  1.00  0.00    -0.325 N 
ATOM     10  N   UNL     1      -1.235   2.043  -3.933  1.00  0.00    -0.185 NA
ATOM     11  H   UNL     1      -1.302  -0.689  -4.326  1.00  0.00     0.169 HD
BRANCH   6  12
ATOM     12  C   UNL     1      -0.569  -1.062   0.203  1.00  0.00     0.052 C 
BRANCH  12  13
ATOM     13  C   UNL     1       0.919  -1.433   0.376  1.00  0.00    -0.012 C 
ATOM     14  C   UNL     1       1.823  -0.196   0.413  1.00  0.00     0.008 C 
ATOM     15  C   UNL     1       1.112  -2.252   1.652  1.00  0.00     0.008 C 
ENDBRANCH  12  13
ENDBRANCH   6  12
BRANCH  10  16
ATOM     16  C   UNL     1      -1.498   1.835  -5.264  1.00  0.00     0.248 C 
ATOM     17  O   UNL     1      -1.464   0.738  -5.819  1.00  0.00    -0.273 OA
BRANCH  16  18
ATOM     18  C   UNL     1      -1.774   3.108  -6.039  1.00  0.00     0.112 C 
BRANCH  18  19
ATOM     19  C   UNL     1      -3.077   3.795  -5.654  1.00  0.00     0.110 C 
BRANCH  19  20
ATOM     20  C   UNL     1      -3.011   4.422  -4.275  1.00  0.00     0.226 C 
ATOM     21  O   UNL     1      -2.385   5.477  -4.111  1.00  0.00    -0.275 OA
ATOM     22  N   UNL     1      -3.602   3.863  -3.186  1.00  0.00    -0.302 N 
ATOM     23  H   UNL     1      -3.548   4.380  -2.350  1.00  0.00     0.172 HD
BRANCH  22  24
ATOM     24  C   UNL     1      -4.259   2.671  -3.115  1.00  0.00     0.189 A 
ATOM     25  N   UNL     1      -4.524   1.810  -4.061  1.00  0.00    -0.229 NA
ATOM     26  S   UNL     1      -4.744   2.233  -1.535  1.00  0.00    -0.105 S 
ATOM     27  C   UNL     1      -5.172   0.722  -3.518  1.00  0.00     0.125 A 
ATOM     28  C   UNL     1      -5.343   0.749  -2.151  1.00  0.00     0.088 A 
ENDBRANCH  22  24
ENDBRANCH  19  20
ENDBRANCH  18  19
ENDBRANCH  16  18
ENDBRANCH  10  16
ENDBRANCH   3   5
ENDBRANCH   2   3
ENDBRANCH   1   2
BRANCH   1  29
ATOM     29  C   UNL     1      -3.302  -5.018  -1.946  1.00  0.00     0.275 C 
BRANCH  29  30
ATOM     30  O   UNL     1      -3.668  -4.449  -3.214  1.00  0.00    -0.458 OA
BRANCH  30  31
ATOM     31  C   UNL     1      -4.713  -3.593  -3.215  1.00  0.00     0.338 C 
ATOM     32  O   UNL     1      -5.437  -3.292  -2.277  1.00  0.00    -0.246 OA
BRANCH  31  33
ATOM     33  C   UNL     1      -4.848  -3.012  -4.559  1.00  0.00     0.060 A 
ATOM     34  C   UNL     1      -3.788  -2.277  -5.088  1.00  0.00     0.016 A 
ATOM     35  C   UNL     1      -6.052  -3.106  -5.254  1.00  0.00     0.016 A 
ATOM     36  C   UNL     1      -3.944  -1.590  -6.287  1.00  0.00     0.010 A 
ATOM     37  C   UNL     1      -6.176  -2.484  -6.503  1.00  0.00     0.010 A 
ATOM     38  C   UNL     1      -5.129  -1.703  -7.027  1.00  0.00    -0.014 A 
BRANCH  38  39
ATOM     39  C   UNL     1      -5.269  -1.003  -8.334  1.00  0.00     0.031 A 
ATOM     40  C   UNL     1      -6.371   0.001  -8.547  1.00  0.00     0.074 A 
ATOM     41  C   UNL     1      -4.402  -1.255  -9.336  1.00  0.00     0.049 A 
ATOM     42  N   UNL     1      -6.777   0.556  -9.661  1.00  0.00    -0.248 NA
ATOM     43  C   UNL     1      -7.122   0.427  -7.356  1.00  0.00     0.031 C 
ATOM     44  C   UNL     1      -3.245  -2.151  -9.257  1.00  0.00     0.029 A 
ATOM     45  N   UNL     1      -4.353  -0.770 -10.621  1.00  0.00    -0.354 N 
ATOM     46  C   UNL     1      -7.865   1.348  -9.316  1.00  0.00     0.074 A 
ATOM     47  C   UNL     1      -8.053   1.208  -7.888  1.00  0.00     0.031 C 
ATOM     48  C   UNL     1      -2.577  -2.113 -10.419  1.00  0.00     0.029 A 
ATOM     49  C   UNL     1      -3.308  -1.273 -11.360  1.00  0.00     0.049 A 
ATOM     50  H   UNL     1      -5.005  -0.124 -10.978  1.00  0.00     0.167 HD
ATOM     51  C   UNL     1      -8.643   2.114 -10.120  1.00  0.00     0.031 A 
ATOM     52  C   UNL     1      -2.993  -1.122 -12.661  1.00  0.00     0.031 A 
ATOM     53  C   UNL     1      -8.426   2.284 -11.532  1.00  0.00     0.049 A 
ATOM     54  C   UNL     1      -3.896  -0.312 -13.543  1.00  0.00     0.074 A 
ATOM     55  C   UNL     1      -9.160   3.040 -12.431  1.00  0.00     0.029 A 
ATOM     56  N   UNL     1      -7.391   1.705 -12.250  1.00  0.00    -0.354 N 
ATOM     57  N   UNL     1      -4.975   0.360 -13.219  1.00  0.00    -0.248 NA
ATOM     58  C   UNL     1      -3.561  -0.268 -14.973  1.00  0.00     0.031 C 
ATOM     59  C   UNL     1      -8.589   2.888 -13.700  1.00  0.00     0.029 A 
ATOM     60  C   UNL     1      -7.476   2.072 -13.582  1.00  0.00     0.049 A 
ATOM     61  H   UNL     1      -6.697   1.120 -11.868  1.00  0.00     0.167 HD
ATOM     62  C   UNL     1      -5.453   0.899 -14.406  1.00  0.00     0.074 A 
ATOM     63  C   UNL     1      -4.532   0.499 -15.451  1.00  0.00     0.031 C 
ATOM     64  C   UNL     1      -6.562   1.650 -14.613  1.00  0.00     0.031 A 
BRANCH  51  65
ATOM     65  C   UNL     1      -9.838   2.785  -9.498  1.00  0.00    -0.014 A 
ATOM     66  C   UNL     1      -9.703   3.921  -8.681  1.00  0.00     0.010 A 
ATOM     67  C   UNL     1     -11.125   2.285  -9.771  1.00  0.00     0.010 A 
ATOM     68  C   UNL     1     -10.833   4.523  -8.118  1.00  0.00     0.020 A 
ATOM     69  C   UNL     1     -12.258   2.897  -9.229  1.00  0.00     0.020 A 
ATOM     70  C   UNL     1     -12.103   4.002  -8.390  1.00  0.00     0.054 A 
BRANCH  70  71
ATOM     71  S   UNL     1     -13.556   4.806  -7.660  1.00  0.00     0.124 S 
ATOM     72  O   UNL     1     -13.504   4.326  -6.281  1.00  0.00    -0.237 OA
ATOM     73  O   UNL     1     -13.267   6.226  -7.841  1.00  0.00    -0.237 OA
ATOM     74  O   UNL     1     -14.671   4.296  -8.455  1.00  0.00    -0.744 OA
ENDBRANCH  70  71
ENDBRANCH  51  65
BRANCH  52  75
ATOM     75  C   UNL     1      -1.801  -1.819 -13.213  1.00  0.00    -0.014 A 
ATOM     76  C   UNL     1      -0.650  -1.096 -13.566  1.00  0.00     0.010 A 
ATOM     77  C   UNL     1      -1.796  -3.221 -13.340  1.00  0.00     0.010 A 
ATOM     78  C   UNL     1       0.489  -1.763 -14.030  1.00  0.00     0.020 A 
ATOM     79  C   UNL     1      -0.653  -3.893 -13.778  1.00  0.00     0.020 A 
ATOM     80  C   UNL     1       0.482  -3.158 -14.126  1.00  0.00     0.054 A 
BRANCH  80  81
ATOM     81  S   UNL     1       1.996  -4.017 -14.639  1.00  0.00     0.124 S 
ATOM     82  O   UNL     1       1.948  -3.875 -16.090  1.00  0.00    -0.237 OA
ATOM     83  O   UNL     1       3.043  -3.255 -13.963  1.00  0.00    -0.237 OA
ATOM     84  O   UNL     1       1.802  -5.375 -14.133  1.00  0.00    -0.744 OA
ENDBRANCH  80  81
ENDBRANCH  52  75
BRANCH  64  85
ATOM     85  C   UNL     1      -6.843   2.086 -16.022  1.00  0.00    -0.014 A 
ATOM     86  C   UNL     1      -7.391   1.188 -16.955  1.00  0.00     0.010 A 
ATOM     87  C   UNL     1      -6.606   3.418 -16.404  1.00  0.00     0.010 A 
ATOM     88  C   UNL     1      -7.681   1.612 -18.254  1.00  0.00     0.020 A 
ATOM     89  C   UNL     1      -6.912   3.850 -17.697  1.00  0.00     0.020 A 
ATOM     90  C   UNL     1      -7.438   2.940 -18.617  1.00  0.00     0.054 A 
BRANCH  90  91
ATOM     91  S   UNL     1      -7.869   3.481 -20.294  1.00  0.00     0.124 S 
ATOM     92  O   UNL     1      -6.776   2.921 -21.084  1.00  0.00    -0.237 OA
ATOM     93  O   UNL     1      -9.177   2.865 -20.507  1.00  0.00    -0.237 OA
ATOM     94  O   UNL     1      -7.884   4.938 -20.194  1.00  0.00    -0.744 OA
ENDBRANCH  90  91
ENDBRANCH  64  85
ENDBRANCH  38  39
ENDBRANCH  31  33
ENDBRANCH  30  31
ENDBRANCH  29  30
ENDBRANCH   1  29
TORSDOF 21
