REMARK SMILES Cc1ccc(C(=O)OCCOC(=O)c2ccc(-c3c4nc(c(-c5ccc(S(=O)(=O)[O-])cc5)c5ccc([nH]5)c(-c5ccc(S(=O)(=O)[O-])cc5)c5nc(c(-c6ccc(S(=O)(=O)[O-])cc6)c6ccc3[nH]6)C=C5)C=C4)cc2)cc1NC(=O)c1ccc(Br)o1
REMARK SMILES IDX 10 1 9 2 8 3 6 4 7 5 5 6 1 7 2 8 3 9 75 10 4 11 74 12 76 13
REMARK SMILES IDX 77 14 78 16 79 17 80 18 84 19 81 20 82 21 83 22 11 23 12 24
REMARK SMILES IDX 13 25 14 26 15 27 73 28 16 29 72 30 17 31 18 32 19 33 66 34
REMARK SMILES IDX 20 35 71 36 65 37 67 38 21 39 70 40 64 41 63 42 22 44 52 45
REMARK SMILES IDX 33 46 51 47 34 48 37 49 50 50 68 51 35 52 36 53 49 55 69 56
REMARK SMILES IDX 38 57 23 58 24 59 32 60 25 61 31 62 26 63 27 64 28 65 29 66
REMARK SMILES IDX 30 67 53 68 54 69 62 70 55 71 61 72 56 73 57 74 58 75 59 76
REMARK SMILES IDX 60 77 39 78 40 79 48 80 41 81 47 82 42 83 43 84 44 85 45 86
REMARK SMILES IDX 46 87
REMARK H PARENT 76 15 67 43 37 54
REMARK Flexibility Score: inf
ROOT
ATOM      1  C   UNL     1      -5.578   1.129  -3.111  1.00  0.00     0.275 C 
ENDROOT
BRANCH   1   2
ATOM      2  C   UNL     1      -4.566   1.901  -2.246  1.00  0.00     0.275 C 
BRANCH   2   3
ATOM      3  O   UNL     1      -3.225   1.406  -2.406  1.00  0.00    -0.458 OA
BRANCH   3   4
ATOM      4  C   UNL     1      -2.554   1.264  -1.241  1.00  0.00     0.338 C 
ATOM      5  O   UNL     1      -2.954   1.590  -0.133  1.00  0.00    -0.246 OA
BRANCH   4   6
ATOM      6  C   UNL     1      -1.135   0.941  -1.415  1.00  0.00     0.062 A 
ATOM      7  C   UNL     1       2.915   0.616  -0.019  1.00  0.00     0.046 C 
ATOM      8  C   UNL     1       1.522   0.803  -0.555  1.00  0.00    -0.027 A 
ATOM      9  C   UNL     1       0.750  -0.368  -0.726  1.00  0.00     0.006 A 
ATOM     10  C   UNL     1       0.929   2.052  -0.828  1.00  0.00     0.045 A 
ATOM     11  C   UNL     1      -0.594  -0.298  -1.100  1.00  0.00     0.016 A 
ATOM     12  C   UNL     1      -0.339   2.077  -1.395  1.00  0.00     0.042 A 
BRANCH  10  13
ATOM     13  N   UNL     1       1.565   3.267  -0.497  1.00  0.00    -0.319 N 
ATOM     14  C   UNL     1       1.031   4.539  -0.311  1.00  0.00     0.291 C 
ATOM     15  H   UNL     1       2.541   3.205  -0.380  1.00  0.00     0.170 HD
ATOM     16  O   UNL     1       1.824   5.483  -0.278  1.00  0.00    -0.265 OA
BRANCH  14  17
ATOM     17  C   UNL     1      -0.395   4.718  -0.100  1.00  0.00     0.193 A 
ATOM     18  C   UNL     1      -1.272   4.204   0.841  1.00  0.00     0.057 A 
ATOM     19  O   UNL     1      -1.098   5.478  -1.003  1.00  0.00    -0.444 OA
ATOM     20  C   UNL     1      -2.570   4.651   0.477  1.00  0.00     0.059 A 
ATOM     21  C   UNL     1      -2.413   5.401  -0.661  1.00  0.00     0.170 A 
ATOM     22  Br  UNL     1      -3.813   6.157  -1.635  1.00  0.00    -0.008 Br
ENDBRANCH  14  17
ENDBRANCH  10  13
ENDBRANCH   4   6
ENDBRANCH   3   4
ENDBRANCH   2   3
ENDBRANCH   1   2
BRANCH   1  23
ATOM     23  O   UNL     1      -5.837  -0.262  -2.813  1.00  0.00    -0.458 OA
BRANCH  23  24
ATOM     24  C   UNL     1      -4.812  -0.988  -2.306  1.00  0.00     0.338 C 
ATOM     25  O   UNL     1      -3.824  -1.323  -2.958  1.00  0.00    -0.246 OA
BRANCH  24  26
ATOM     26  C   UNL     1      -4.920  -0.988  -0.827  1.00  0.00     0.060 A 
ATOM     27  C   UNL     1      -3.834  -1.417  -0.051  1.00  0.00     0.016 A 
ATOM     28  C   UNL     1      -5.954  -0.241  -0.251  1.00  0.00     0.016 A 
ATOM     29  C   UNL     1      -3.715  -1.006   1.271  1.00  0.00     0.010 A 
ATOM     30  C   UNL     1      -5.777   0.282   0.999  1.00  0.00     0.010 A 
ATOM     31  C   UNL     1      -4.684  -0.137   1.766  1.00  0.00    -0.014 A 
BRANCH  31  32
ATOM     32  C   UNL     1      -4.888   0.118   3.175  1.00  0.00     0.031 A 
ATOM     33  C   UNL     1      -4.205   1.239   3.849  1.00  0.00     0.074 A 
ATOM     34  C   UNL     1      -5.911  -0.646   3.629  1.00  0.00     0.049 A 
ATOM     35  N   UNL     1      -4.033   1.349   5.118  1.00  0.00    -0.248 NA
ATOM     36  C   UNL     1      -3.610   2.362   3.122  1.00  0.00     0.031 C 
ATOM     37  C   UNL     1      -6.689  -0.584   4.847  1.00  0.00     0.029 A 
ATOM     38  N   UNL     1      -6.390  -1.831   3.028  1.00  0.00    -0.354 N 
ATOM     39  C   UNL     1      -3.724   2.678   5.368  1.00  0.00     0.074 A 
ATOM     40  C   UNL     1      -3.294   3.216   4.105  1.00  0.00     0.031 C 
ATOM     41  C   UNL     1      -7.181  -1.821   5.081  1.00  0.00     0.029 A 
ATOM     42  C   UNL     1      -6.592  -2.712   4.080  1.00  0.00     0.049 A 
ATOM     43  H   UNL     1      -6.547  -1.996   2.070  1.00  0.00     0.167 HD
ATOM     44  C   UNL     1      -4.117   3.229   6.553  1.00  0.00     0.031 A 
ATOM     45  C   UNL     1      -5.670  -3.696   4.334  1.00  0.00     0.031 A 
ATOM     46  C   UNL     1      -4.769   2.201   7.363  1.00  0.00     0.049 A 
ATOM     47  C   UNL     1      -5.039  -3.436   5.689  1.00  0.00     0.074 A 
ATOM     48  C   UNL     1      -6.108   1.881   7.513  1.00  0.00     0.029 A 
ATOM     49  N   UNL     1      -4.042   1.088   7.766  1.00  0.00    -0.354 N 
ATOM     50  N   UNL     1      -4.719  -2.249   6.139  1.00  0.00    -0.248 NA
ATOM     51  C   UNL     1      -4.876  -4.489   6.685  1.00  0.00     0.031 C 
ATOM     52  C   UNL     1      -6.179   0.511   7.882  1.00  0.00     0.029 A 
ATOM     53  C   UNL     1      -4.889   0.008   7.941  1.00  0.00     0.049 A 
ATOM     54  H   UNL     1      -3.068   1.070   7.906  1.00  0.00     0.167 HD
ATOM     55  C   UNL     1      -4.482  -2.343   7.489  1.00  0.00     0.074 A 
ATOM     56  C   UNL     1      -4.533  -3.771   7.768  1.00  0.00     0.031 C 
ATOM     57  C   UNL     1      -4.352  -1.280   8.339  1.00  0.00     0.031 A 
BRANCH  44  58
ATOM     58  C   UNL     1      -4.278   4.713   6.826  1.00  0.00    -0.014 A 
ATOM     59  C   UNL     1      -5.239   5.120   7.781  1.00  0.00     0.010 A 
ATOM     60  C   UNL     1      -3.575   5.750   6.181  1.00  0.00     0.010 A 
ATOM     61  C   UNL     1      -5.542   6.465   8.027  1.00  0.00     0.020 A 
ATOM     62  C   UNL     1      -3.875   7.110   6.412  1.00  0.00     0.020 A 
ATOM     63  C   UNL     1      -4.867   7.458   7.327  1.00  0.00     0.054 A 
BRANCH  63  64
ATOM     64  S   UNL     1      -5.300   9.189   7.655  1.00  0.00     0.124 S 
ATOM     65  O   UNL     1      -6.709   9.239   7.268  1.00  0.00    -0.237 OA
ATOM     66  O   UNL     1      -5.038   9.314   9.086  1.00  0.00    -0.237 OA
ATOM     67  O   UNL     1      -4.396   9.944   6.790  1.00  0.00    -0.744 OA
ENDBRANCH  63  64
ENDBRANCH  44  58
BRANCH  45  68
ATOM     68  C   UNL     1      -4.973  -4.307   3.143  1.00  0.00    -0.014 A 
ATOM     69  C   UNL     1      -5.774  -4.798   2.082  1.00  0.00     0.010 A 
ATOM     70  C   UNL     1      -3.587  -4.224   2.917  1.00  0.00     0.010 A 
ATOM     71  C   UNL     1      -5.241  -5.070   0.814  1.00  0.00     0.020 A 
ATOM     72  C   UNL     1      -3.040  -4.520   1.647  1.00  0.00     0.020 A 
ATOM     73  C   UNL     1      -3.875  -4.911   0.595  1.00  0.00     0.054 A 
BRANCH  73  74
ATOM     74  S   UNL     1      -3.256  -5.001  -1.121  1.00  0.00     0.124 S 
ATOM     75  O   UNL     1      -3.084  -6.436  -1.315  1.00  0.00    -0.237 OA
ATOM     76  O   UNL     1      -4.350  -4.390  -1.872  1.00  0.00    -0.237 OA
ATOM     77  O   UNL     1      -2.023  -4.217  -1.070  1.00  0.00    -0.744 OA
ENDBRANCH  73  74
ENDBRANCH  45  68
BRANCH  57  78
ATOM     78  C   UNL     1      -3.785  -1.372   9.729  1.00  0.00    -0.014 A 
ATOM     79  C   UNL     1      -2.888  -2.374  10.118  1.00  0.00     0.010 A 
ATOM     80  C   UNL     1      -4.014  -0.309  10.637  1.00  0.00     0.010 A 
ATOM     81  C   UNL     1      -2.309  -2.363  11.388  1.00  0.00     0.020 A 
ATOM     82  C   UNL     1      -3.392  -0.255  11.880  1.00  0.00     0.020 A 
ATOM     83  C   UNL     1      -2.568  -1.305  12.261  1.00  0.00     0.054 A 
BRANCH  83  84
ATOM     84  S   UNL     1      -1.779  -1.287  13.884  1.00  0.00     0.124 S 
ATOM     85  O   UNL     1      -2.678  -2.140  14.657  1.00  0.00    -0.237 OA
ATOM     86  O   UNL     1      -0.459  -1.851  13.609  1.00  0.00    -0.237 OA
ATOM     87  O   UNL     1      -1.781   0.126  14.252  1.00  0.00    -0.744 OA
ENDBRANCH  83  84
ENDBRANCH  57  78
ENDBRANCH  31  32
ENDBRANCH  24  26
ENDBRANCH  23  24
ENDBRANCH   1  23
TORSDOF 16
