REMARK SMILES CSc1ccc(/C=C2\C(C)=C(CC(=O)OCCOC(=O)c3ccc(-c4c5nc(c(-c6ccc(S(=O)(=O)[O-])cc6)c6ccc([nH]6)c(-c6ccc(S(=O)(=O)[O-])cc6)c6nc(c(-c7ccc(S(=O)(=O)[O-])cc7)c7ccc4[nH]7)C=C6)C=C5)cc3)c3cc(F)ccc32)cc1
REMARK SMILES IDX 16 1 15 2 13 3 14 4 12 5 11 6 7 7 8 8 9 9 87 10 10 11 81 12
REMARK SMILES IDX 86 13 82 14 85 15 83 16 84 17 6 18 3 19 4 20 89 21 5 22
REMARK SMILES IDX 88 23 2 24 1 25 17 26 18 27 19 28 20 29 21 30 22 31 80 32
REMARK SMILES IDX 23 33 79 34 24 35 25 36 26 37 73 38 27 39 78 40 72 41 74 42
REMARK SMILES IDX 28 43 77 44 71 45 70 46 29 48 59 49 40 50 58 51 41 52 44 53
REMARK SMILES IDX 57 54 75 55 42 56 43 57 56 59 76 60 45 61 30 62 31 63 39 64
REMARK SMILES IDX 32 65 38 66 33 67 34 68 35 69 36 70 37 71 60 72 61 73 69 74
REMARK SMILES IDX 62 75 68 76 63 77 64 78 65 79 66 80 67 81 46 82 47 83 55 84
REMARK SMILES IDX 48 85 54 86 49 87 50 88 51 89 52 90 53 91
REMARK H PARENT 74 47 44 58
REMARK Flexibility Score: inf
ROOT
ATOM      1  C   UNL     1       3.950 -11.629  -3.467  1.00  0.00     0.274 C 
ENDROOT
BRANCH   1   2
ATOM      2  O   UNL     1       3.538 -10.280  -3.149  1.00  0.00    -0.462 OA
BRANCH   2   3
ATOM      3  C   UNL     1       3.358  -9.472  -4.228  1.00  0.00     0.310 C 
ATOM      4  O   UNL     1       3.947  -9.608  -5.298  1.00  0.00    -0.252 OA
BRANCH   3   5
ATOM      5  C   UNL     1       2.281  -8.414  -4.020  1.00  0.00     0.159 C 
BRANCH   5   6
ATOM      6  C   UNL     1       1.566  -8.318  -2.655  1.00  0.00    -0.025 C 
ATOM      7  C   UNL     1       0.235  -5.239  -3.434  1.00  0.00     0.017 C 
ATOM      8  C   UNL     1       0.325  -6.472  -2.908  1.00  0.00    -0.014 C 
ATOM      9  C   UNL     1       1.448  -7.066  -2.134  1.00  0.00    -0.039 C 
ATOM     10  C   UNL     1      -0.653  -7.567  -3.023  1.00  0.00    -0.010 A 
ATOM     11  C   UNL     1       1.258  -6.883  -0.631  1.00  0.00     0.045 C 
ATOM     12  C   UNL     1       0.116  -8.707  -2.706  1.00  0.00    -0.011 A 
ATOM     13  C   UNL     1      -2.034  -7.550  -2.888  1.00  0.00     0.012 A 
ATOM     14  C   UNL     1      -0.488  -9.818  -2.140  1.00  0.00     0.048 A 
ATOM     15  C   UNL     1      -2.646  -8.698  -2.369  1.00  0.00     0.040 A 
ATOM     16  C   UNL     1      -1.872  -9.802  -1.985  1.00  0.00     0.123 A 
ATOM     17  F   UNL     1      -2.469 -10.834  -1.371  1.00  0.00    -0.207 F 
BRANCH   7  18
ATOM     18  C   UNL     1       1.036  -4.051  -3.045  1.00  0.00    -0.025 A 
ATOM     19  C   UNL     1       1.375  -1.954  -1.251  1.00  0.00     0.007 A 
ATOM     20  C   UNL     1       2.163  -3.095  -1.141  1.00  0.00     0.015 A 
ATOM     21  C   UNL     1       0.635  -1.752  -2.418  1.00  0.00     0.015 A 
ATOM     22  C   UNL     1       2.051  -4.108  -2.087  1.00  0.00     0.009 A 
ATOM     23  C   UNL     1       0.474  -2.803  -3.327  1.00  0.00     0.009 A 
BRANCH  19  24
ATOM     24  S   UNL     1       1.128  -0.987   0.227  1.00  0.00    -0.130 SA
ATOM     25  C   UNL     1       1.463   0.674  -0.371  1.00  0.00     0.091 C 
ENDBRANCH  19  24
ENDBRANCH   7  18
ENDBRANCH   5   6
ENDBRANCH   3   5
ENDBRANCH   2   3
ENDBRANCH   1   2
BRANCH   1  26
ATOM     26  C   UNL     1       3.075 -12.608  -2.656  1.00  0.00     0.275 C 
BRANCH  26  27
ATOM     27  O   UNL     1       1.855 -13.113  -3.274  1.00  0.00    -0.458 OA
BRANCH  27  28
ATOM     28  C   UNL     1       1.084 -12.237  -3.937  1.00  0.00     0.338 C 
ATOM     29  O   UNL     1       1.400 -11.083  -4.218  1.00  0.00    -0.246 OA
BRANCH  28  30
ATOM     30  C   UNL     1      -0.258 -12.675  -4.328  1.00  0.00     0.060 A 
ATOM     31  C   UNL     1      -0.951 -11.797  -5.182  1.00  0.00     0.016 A 
ATOM     32  C   UNL     1      -0.874 -13.833  -3.858  1.00  0.00     0.016 A 
ATOM     33  C   UNL     1      -2.242 -12.074  -5.584  1.00  0.00     0.010 A 
ATOM     34  C   UNL     1      -2.167 -14.134  -4.298  1.00  0.00     0.010 A 
ATOM     35  C   UNL     1      -2.841 -13.267  -5.178  1.00  0.00    -0.014 A 
BRANCH  35  36
ATOM     36  C   UNL     1      -4.126 -13.648  -5.796  1.00  0.00     0.031 A 
ATOM     37  C   UNL     1      -5.402 -13.578  -5.024  1.00  0.00     0.074 A 
ATOM     38  C   UNL     1      -4.109 -14.033  -7.086  1.00  0.00     0.049 A 
ATOM     39  N   UNL     1      -6.601 -13.937  -5.399  1.00  0.00    -0.248 NA
ATOM     40  C   UNL     1      -5.327 -13.035  -3.659  1.00  0.00     0.031 C 
ATOM     41  C   UNL     1      -2.914 -14.073  -7.938  1.00  0.00     0.029 A 
ATOM     42  N   UNL     1      -5.117 -14.456  -7.908  1.00  0.00    -0.354 N 
ATOM     43  C   UNL     1      -7.426 -13.687  -4.312  1.00  0.00     0.074 A 
ATOM     44  C   UNL     1      -6.587 -13.149  -3.260  1.00  0.00     0.031 C 
ATOM     45  C   UNL     1      -3.263 -14.490  -9.164  1.00  0.00     0.029 A 
ATOM     46  C   UNL     1      -4.686 -14.805  -9.165  1.00  0.00     0.049 A 
ATOM     47  H   UNL     1      -6.059 -14.506  -7.627  1.00  0.00     0.167 HD
ATOM     48  C   UNL     1      -8.760 -13.898  -4.208  1.00  0.00     0.031 A 
ATOM     49  C   UNL     1      -5.354 -15.355 -10.194  1.00  0.00     0.031 A 
ATOM     50  C   UNL     1      -9.569 -14.451  -5.265  1.00  0.00     0.049 A 
ATOM     51  C   UNL     1      -6.815 -15.648 -10.026  1.00  0.00     0.074 A 
ATOM     52  C   UNL     1     -10.929 -14.710  -5.263  1.00  0.00     0.029 A 
ATOM     53  N   UNL     1      -9.092 -14.837  -6.510  1.00  0.00    -0.354 N 
ATOM     54  N   UNL     1      -7.583 -15.419  -8.986  1.00  0.00    -0.248 NA
ATOM     55  C   UNL     1      -7.500 -16.275 -11.162  1.00  0.00     0.031 C 
ATOM     56  C   UNL     1     -11.263 -15.298  -6.488  1.00  0.00     0.029 A 
ATOM     57  C   UNL     1     -10.124 -15.354  -7.276  1.00  0.00     0.049 A 
ATOM     58  H   UNL     1      -8.156 -14.755  -6.806  1.00  0.00     0.167 HD
ATOM     59  C   UNL     1      -8.849 -15.857  -9.350  1.00  0.00     0.074 A 
ATOM     60  C   UNL     1      -8.744 -16.352 -10.709  1.00  0.00     0.031 C 
ATOM     61  C   UNL     1      -9.994 -15.849  -8.624  1.00  0.00     0.031 A 
BRANCH  48  62
ATOM     62  C   UNL     1      -9.412 -13.581  -2.890  1.00  0.00    -0.014 A 
ATOM     63  C   UNL     1      -9.616 -12.253  -2.474  1.00  0.00     0.010 A 
ATOM     64  C   UNL     1      -9.852 -14.631  -2.064  1.00  0.00     0.010 A 
ATOM     65  C   UNL     1     -10.210 -11.983  -1.238  1.00  0.00     0.020 A 
ATOM     66  C   UNL     1     -10.468 -14.366  -0.838  1.00  0.00     0.020 A 
ATOM     67  C   UNL     1     -10.626 -13.042  -0.424  1.00  0.00     0.054 A 
BRANCH  67  68
ATOM     68  S   UNL     1     -11.398 -12.665   1.174  1.00  0.00     0.124 S 
ATOM     69  O   UNL     1     -10.247 -12.249   1.972  1.00  0.00    -0.237 OA
ATOM     70  O   UNL     1     -12.342 -11.603   0.834  1.00  0.00    -0.237 OA
ATOM     71  O   UNL     1     -12.007 -13.931   1.573  1.00  0.00    -0.744 OA
ENDBRANCH  67  68
ENDBRANCH  48  62
BRANCH  49  72
ATOM     72  C   UNL     1      -4.628 -15.688 -11.447  1.00  0.00    -0.014 A 
ATOM     73  C   UNL     1      -4.842 -14.943 -12.618  1.00  0.00     0.010 A 
ATOM     74  C   UNL     1      -3.676 -16.726 -11.457  1.00  0.00     0.010 A 
ATOM     75  C   UNL     1      -4.122 -15.234 -13.780  1.00  0.00     0.020 A 
ATOM     76  C   UNL     1      -2.936 -17.001 -12.609  1.00  0.00     0.020 A 
ATOM     77  C   UNL     1      -3.171 -16.259 -13.767  1.00  0.00     0.054 A 
BRANCH  77  78
ATOM     78  S   UNL     1      -2.201 -16.575 -15.268  1.00  0.00     0.124 S 
ATOM     79  O   UNL     1      -3.170 -17.263 -16.114  1.00  0.00    -0.237 OA
ATOM     80  O   UNL     1      -1.831 -15.228 -15.695  1.00  0.00    -0.237 OA
ATOM     81  O   UNL     1      -1.091 -17.395 -14.790  1.00  0.00    -0.744 OA
ENDBRANCH  77  78
ENDBRANCH  49  72
BRANCH  61  82
ATOM     82  C   UNL     1     -11.232 -16.366  -9.303  1.00  0.00    -0.014 A 
ATOM     83  C   UNL     1     -11.425 -17.742  -9.514  1.00  0.00     0.010 A 
ATOM     84  C   UNL     1     -12.235 -15.461  -9.695  1.00  0.00     0.010 A 
ATOM     85  C   UNL     1     -12.590 -18.203 -10.132  1.00  0.00     0.020 A 
ATOM     86  C   UNL     1     -13.412 -15.920 -10.291  1.00  0.00     0.020 A 
ATOM     87  C   UNL     1     -13.576 -17.288 -10.517  1.00  0.00     0.054 A 
BRANCH  87  88
ATOM     88  S   UNL     1     -15.101 -17.913 -11.274  1.00  0.00     0.124 S 
ATOM     89  O   UNL     1     -14.655 -18.246 -12.624  1.00  0.00    -0.237 OA
ATOM     90  O   UNL     1     -15.438 -19.053 -10.425  1.00  0.00    -0.237 OA
ATOM     91  O   UNL     1     -16.021 -16.782 -11.182  1.00  0.00    -0.744 OA
ENDBRANCH  87  88
ENDBRANCH  61  82
ENDBRANCH  35  36
ENDBRANCH  28  30
ENDBRANCH  27  28
ENDBRANCH  26  27
ENDBRANCH   1  26
TORSDOF 17
