REMARK SMILES Cc1ccccc1-c1c(Cl)ccc2c1C=C(C(=O)OCCOC(=O)c1ccc(-c3c4nc(c(-c5ccc(S(=O)(=O)[O-])cc5)c5ccc([nH]5)c(-c5ccc(S(=O)(=O)[O-])cc5)c5nc(c(-c6ccc(S(=O)(=O)[O-])cc6)c6ccc3[nH]6)C=C5)C=C4)cc1)[C@@H](C(F)(F)F)O2
REMARK SMILES IDX 21 1 20 2 19 3 17 4 18 5 16 6 8 7 9 8 14 9 10 10 11 11 13 12
REMARK SMILES IDX 15 13 12 14 90 15 85 16 7 17 1 18 2 19 3 20 4 21 6 22 5 23
REMARK SMILES IDX 86 24 87 25 88 26 89 27 22 28 23 29 24 30 25 31 26 32 84 33
REMARK SMILES IDX 27 34 83 35 28 36 29 37 30 38 77 39 31 40 82 41 76 42 78 43
REMARK SMILES IDX 32 44 81 45 75 46 74 47 33 49 63 50 44 51 62 52 45 53 48 54
REMARK SMILES IDX 61 55 79 56 46 57 47 58 60 60 80 61 49 62 34 63 35 64 43 65
REMARK SMILES IDX 36 66 42 67 37 68 38 69 39 70 40 71 41 72 64 73 65 74 73 75
REMARK SMILES IDX 66 76 72 77 67 78 68 79 69 80 70 81 71 82 50 83 51 84 59 85
REMARK SMILES IDX 52 86 58 87 53 88 54 89 55 90 56 91 57 92
REMARK H PARENT 78 48 48 59
REMARK Flexibility Score: inf
ROOT
ATOM      1  C   UNL     1       7.636  -0.215  -3.862  1.00  0.00     0.275 C 
ENDROOT
BRANCH   1   2
ATOM      2  C   UNL     1       6.240  -0.383  -3.228  1.00  0.00     0.275 C 
BRANCH   2   3
ATOM      3  O   UNL     1       5.233   0.525  -3.722  1.00  0.00    -0.459 OA
BRANCH   3   4
ATOM      4  C   UNL     1       3.997   0.229  -3.242  1.00  0.00     0.338 C 
ATOM      5  O   UNL     1       3.727  -0.850  -2.723  1.00  0.00    -0.246 OA
BRANCH   4   6
ATOM      6  C   UNL     1       3.071   1.392  -3.187  1.00  0.00     0.087 C 
ATOM      7  C   UNL     1       0.715   2.046  -0.400  1.00  0.00     0.012 A 
ATOM      8  C   UNL     1       0.655   3.070   0.582  1.00  0.00     0.049 A 
ATOM      9  C   UNL     1       1.565   2.274  -1.524  1.00  0.00     0.027 A 
ATOM     10  Cl  UNL     1      -0.192   2.864   2.084  1.00  0.00    -0.084 Cl
ATOM     11  C   UNL     1       1.313   4.293   0.412  1.00  0.00     0.025 A 
ATOM     12  C   UNL     1       2.223   3.511  -1.673  1.00  0.00     0.128 A 
ATOM     13  C   UNL     1       1.998   1.183  -2.407  1.00  0.00     0.028 C 
ATOM     14  C   UNL     1       2.067   4.524  -0.731  1.00  0.00     0.049 A 
ATOM     15  O   UNL     1       3.118   3.796  -2.670  1.00  0.00    -0.475 OA
ATOM     16  C   UNL     1       3.392   2.779  -3.667  1.00  0.00     0.316 C 
BRANCH   7  17
ATOM     17  C   UNL     1      -0.150   0.833  -0.262  1.00  0.00    -0.013 A 
ATOM     18  C   UNL     1       1.748  -0.881   0.105  1.00  0.00     0.045 C 
ATOM     19  C   UNL     1       0.303  -0.487  -0.032  1.00  0.00    -0.043 A 
ATOM     20  C   UNL     1      -0.630  -1.541   0.068  1.00  0.00     0.004 A 
ATOM     21  C   UNL     1      -2.000  -1.306   0.012  1.00  0.00     0.000 A 
ATOM     22  C   UNL     1      -1.550   1.033  -0.328  1.00  0.00     0.009 A 
ATOM     23  C   UNL     1      -2.462  -0.013  -0.172  1.00  0.00     0.001 A 
ENDBRANCH   7  17
BRANCH  16  24
ATOM     24  C   UNL     1       2.607   3.093  -4.952  1.00  0.00     0.430 C 
ATOM     25  F   UNL     1       2.894   4.309  -5.466  1.00  0.00    -0.167 F 
ATOM     26  F   UNL     1       2.865   2.180  -5.925  1.00  0.00    -0.167 F 
ATOM     27  F   UNL     1       1.263   3.064  -4.749  1.00  0.00    -0.167 F 
ENDBRANCH  16  24
ENDBRANCH   4   6
ENDBRANCH   3   4
ENDBRANCH   2   3
ENDBRANCH   1   2
BRANCH   1  28
ATOM     28  O   UNL     1       8.307   1.063  -3.847  1.00  0.00    -0.458 OA
BRANCH  28  29
ATOM     29  C   UNL     1       7.557   2.160  -3.561  1.00  0.00     0.338 C 
ATOM     30  O   UNL     1       6.913   2.754  -4.402  1.00  0.00    -0.246 OA
BRANCH  29  31
ATOM     31  C   UNL     1       7.420   2.258  -2.079  1.00  0.00     0.060 A 
ATOM     32  C   UNL     1       6.231   2.775  -1.563  1.00  0.00     0.016 A 
ATOM     33  C   UNL     1       8.303   1.558  -1.245  1.00  0.00     0.016 A 
ATOM     34  C   UNL     1       5.828   2.431  -0.277  1.00  0.00     0.010 A 
ATOM     35  C   UNL     1       7.910   1.219   0.039  1.00  0.00     0.010 A 
ATOM     36  C   UNL     1       6.653   1.613   0.507  1.00  0.00    -0.014 A 
BRANCH  36  37
ATOM     37  C   UNL     1       6.353   1.387   1.919  1.00  0.00     0.031 A 
ATOM     38  C   UNL     1       5.252   0.499   2.348  1.00  0.00     0.074 A 
ATOM     39  C   UNL     1       6.940   2.251   2.775  1.00  0.00     0.049 A 
ATOM     40  N   UNL     1       4.297   0.851   3.145  1.00  0.00    -0.248 NA
ATOM     41  C   UNL     1       5.139  -0.878   1.871  1.00  0.00     0.031 C 
ATOM     42  C   UNL     1       6.707   2.409   4.201  1.00  0.00     0.029 A 
ATOM     43  N   UNL     1       7.637   3.407   2.403  1.00  0.00    -0.354 N 
ATOM     44  C   UNL     1       3.598  -0.294   3.469  1.00  0.00     0.074 A 
ATOM     45  C   UNL     1       4.105  -1.327   2.595  1.00  0.00     0.031 C 
ATOM     46  C   UNL     1       6.913   3.707   4.500  1.00  0.00     0.029 A 
ATOM     47  C   UNL     1       7.170   4.410   3.242  1.00  0.00     0.049 A 
ATOM     48  H   UNL     1       8.316   3.491   1.695  1.00  0.00     0.167 HD
ATOM     49  C   UNL     1       2.793  -0.350   4.568  1.00  0.00     0.031 A 
ATOM     50  C   UNL     1       6.513   5.514   2.787  1.00  0.00     0.031 A 
ATOM     51  C   UNL     1       2.927   0.851   5.372  1.00  0.00     0.049 A 
ATOM     52  C   UNL     1       5.228   5.705   3.543  1.00  0.00     0.074 A 
ATOM     53  C   UNL     1       3.827   1.130   6.388  1.00  0.00     0.029 A 
ATOM     54  N   UNL     1       2.380   2.061   4.964  1.00  0.00    -0.354 N 
ATOM     55  N   UNL     1       4.431   4.733   3.892  1.00  0.00    -0.248 NA
ATOM     56  C   UNL     1       4.784   7.017   3.993  1.00  0.00     0.031 C 
ATOM     57  C   UNL     1       3.906   2.530   6.520  1.00  0.00     0.029 A 
ATOM     58  C   UNL     1       3.008   3.096   5.631  1.00  0.00     0.049 A 
ATOM     59  H   UNL     1       1.657   2.165   4.303  1.00  0.00     0.167 HD
ATOM     60  C   UNL     1       3.469   5.253   4.726  1.00  0.00     0.074 A 
ATOM     61  C   UNL     1       3.700   6.688   4.712  1.00  0.00     0.031 C 
ATOM     62  C   UNL     1       2.616   4.482   5.461  1.00  0.00     0.031 A 
BRANCH  49  63
ATOM     63  C   UNL     1       2.285  -1.669   5.097  1.00  0.00    -0.014 A 
ATOM     64  C   UNL     1       2.495  -2.005   6.450  1.00  0.00     0.010 A 
ATOM     65  C   UNL     1       1.661  -2.639   4.287  1.00  0.00     0.010 A 
ATOM     66  C   UNL     1       2.223  -3.285   6.946  1.00  0.00     0.020 A 
ATOM     67  C   UNL     1       1.392  -3.933   4.772  1.00  0.00     0.020 A 
ATOM     68  C   UNL     1       1.707  -4.256   6.093  1.00  0.00     0.054 A 
BRANCH  68  69
ATOM     69  S   UNL     1       1.529  -5.950   6.724  1.00  0.00     0.124 S 
ATOM     70  O   UNL     1       2.886  -6.261   7.169  1.00  0.00    -0.237 OA
ATOM     71  O   UNL     1       0.541  -5.793   7.787  1.00  0.00    -0.237 OA
ATOM     72  O   UNL     1       1.077  -6.708   5.559  1.00  0.00    -0.744 OA
ENDBRANCH  68  69
ENDBRANCH  49  63
BRANCH  50  73
ATOM     73  C   UNL     1       6.692   5.949   1.364  1.00  0.00    -0.014 A 
ATOM     74  C   UNL     1       7.992   6.041   0.814  1.00  0.00     0.010 A 
ATOM     75  C   UNL     1       5.600   6.125   0.496  1.00  0.00     0.010 A 
ATOM     76  C   UNL     1       8.194   6.201  -0.561  1.00  0.00     0.020 A 
ATOM     77  C   UNL     1       5.797   6.313  -0.882  1.00  0.00     0.020 A 
ATOM     78  C   UNL     1       7.092   6.326  -1.405  1.00  0.00     0.054 A 
BRANCH  78  79
ATOM     79  S   UNL     1       7.360   6.326  -3.203  1.00  0.00     0.124 S 
ATOM     80  O   UNL     1       7.656   7.731  -3.464  1.00  0.00    -0.237 OA
ATOM     81  O   UNL     1       8.488   5.407  -3.347  1.00  0.00    -0.237 OA
ATOM     82  O   UNL     1       6.082   5.840  -3.718  1.00  0.00    -0.744 OA
ENDBRANCH  78  79
ENDBRANCH  50  73
BRANCH  62  83
ATOM     83  C   UNL     1       1.478   4.992   6.311  1.00  0.00    -0.014 A 
ATOM     84  C   UNL     1       0.814   6.207   6.088  1.00  0.00     0.010 A 
ATOM     85  C   UNL     1       0.965   4.160   7.337  1.00  0.00     0.010 A 
ATOM     86  C   UNL     1      -0.255   6.609   6.901  1.00  0.00     0.020 A 
ATOM     87  C   UNL     1      -0.124   4.531   8.126  1.00  0.00     0.020 A 
ATOM     88  C   UNL     1      -0.712   5.771   7.919  1.00  0.00     0.054 A 
BRANCH  88  89
ATOM     89  S   UNL     1      -2.134   6.267   8.921  1.00  0.00     0.124 S 
ATOM     90  O   UNL     1      -1.497   7.039   9.985  1.00  0.00    -0.237 OA
ATOM     91  O   UNL     1      -2.942   7.042   7.982  1.00  0.00    -0.237 OA
ATOM     92  O   UNL     1      -2.722   4.995   9.335  1.00  0.00    -0.744 OA
ENDBRANCH  88  89
ENDBRANCH  62  83
ENDBRANCH  36  37
ENDBRANCH  29  31
ENDBRANCH  28  29
ENDBRANCH   1  28
TORSDOF 16
