REMARK SMILES CCc1ccc2c(c1)C=C(C(=O)OCCOC(=O)c1ccc(-c3c4nc(c(-c5ccc(S(=O)(=O)[O-])cc5)c5ccc([nH]5)c(-c5ccc(S(=O)(=O)[O-])cc5)c5nc(c(-c6ccc(S(=O)(=O)[O-])cc6)c6ccc3[nH]6)C=C5)C=C4)cc1)[C@H](C(F)(F)F)O2
REMARK SMILES IDX 15 1 14 2 13 3 11 4 12 5 10 6 3 7 4 8 8 9 5 10 7 11 6 12
REMARK SMILES IDX 9 13 84 14 79 15 2 16 1 17 80 18 81 19 82 20 83 21 16 22
REMARK SMILES IDX 17 23 18 24 19 25 20 26 78 27 21 28 77 29 22 30 23 31 24 32
REMARK SMILES IDX 71 33 25 34 76 35 70 36 72 37 26 38 75 39 69 40 68 41 27 43
REMARK SMILES IDX 57 44 38 45 56 46 39 47 42 48 55 49 73 50 40 51 41 52 54 54
REMARK SMILES IDX 74 55 43 56 28 57 29 58 37 59 30 60 36 61 31 62 32 63 33 64
REMARK SMILES IDX 34 65 35 66 58 67 59 68 67 69 60 70 66 71 61 72 62 73 63 74
REMARK SMILES IDX 64 75 65 76 44 77 45 78 53 79 46 80 52 81 47 82 48 83 49 84
REMARK SMILES IDX 50 85 51 86
REMARK H PARENT 72 42 42 53
REMARK Flexibility Score: inf
ROOT
ATOM      1  C   UNL     1       0.242 -11.007   0.705  1.00  0.00     0.275 C 
ENDROOT
BRANCH   1   2
ATOM      2  C   UNL     1      -0.859 -10.014   1.084  1.00  0.00     0.275 C 
BRANCH   2   3
ATOM      3  O   UNL     1      -0.357  -8.664   1.191  1.00  0.00    -0.459 OA
BRANCH   3   4
ATOM      4  C   UNL     1      -0.297  -8.156   2.451  1.00  0.00     0.338 C 
ATOM      5  O   UNL     1      -0.626  -8.748   3.458  1.00  0.00    -0.246 OA
BRANCH   4   6
ATOM      6  C   UNL     1       0.249  -6.776   2.468  1.00  0.00     0.087 C 
ATOM      7  C   UNL     1       0.895  -2.363   0.540  1.00  0.00    -0.047 A 
ATOM      8  C   UNL     1       1.552  -1.979   1.716  1.00  0.00     0.007 A 
ATOM      9  C   UNL     1       0.415  -3.686   0.438  1.00  0.00     0.015 A 
ATOM     10  C   UNL     1       1.653  -2.861   2.790  1.00  0.00     0.047 A 
ATOM     11  C   UNL     1       0.531  -4.583   1.508  1.00  0.00     0.018 A 
ATOM     12  C   UNL     1       1.127  -4.144   2.689  1.00  0.00     0.128 A 
ATOM     13  C   UNL     1      -0.010  -5.939   1.446  1.00  0.00     0.027 C 
ATOM     14  O   UNL     1       1.151  -4.895   3.826  1.00  0.00    -0.475 OA
ATOM     15  C   UNL     1       1.094  -6.337   3.655  1.00  0.00     0.316 C 
BRANCH   7  16
ATOM     16  C   UNL     1       0.648  -1.410  -0.609  1.00  0.00     0.032 C 
ATOM     17  C   UNL     1       1.012   0.053  -0.371  1.00  0.00     0.009 C 
ENDBRANCH   7  16
BRANCH  15  18
ATOM     18  C   UNL     1       0.789  -6.940   5.041  1.00  0.00     0.430 C 
ATOM     19  F   UNL     1       1.157  -8.239   5.120  1.00  0.00    -0.167 F 
ATOM     20  F   UNL     1       1.507  -6.299   6.001  1.00  0.00    -0.167 F 
ATOM     21  F   UNL     1      -0.513  -6.827   5.379  1.00  0.00    -0.167 F 
ENDBRANCH  15  18
ENDBRANCH   4   6
ENDBRANCH   3   4
ENDBRANCH   2   3
ENDBRANCH   1   2
BRANCH   1  22
ATOM     22  O   UNL     1       1.272 -11.063   1.708  1.00  0.00    -0.458 OA
BRANCH  22  23
ATOM     23  C   UNL     1       2.342 -10.268   1.467  1.00  0.00     0.338 C 
ATOM     24  O   UNL     1       2.534  -9.585   0.473  1.00  0.00    -0.246 OA
BRANCH  23  25
ATOM     25  C   UNL     1       3.181 -10.171   2.678  1.00  0.00     0.060 A 
ATOM     26  C   UNL     1       3.598  -8.890   3.051  1.00  0.00     0.016 A 
ATOM     27  C   UNL     1       3.566 -11.281   3.433  1.00  0.00     0.016 A 
ATOM     28  C   UNL     1       4.333  -8.698   4.219  1.00  0.00     0.010 A 
ATOM     29  C   UNL     1       4.355 -11.094   4.577  1.00  0.00     0.010 A 
ATOM     30  C   UNL     1       4.730  -9.801   4.983  1.00  0.00    -0.014 A 
BRANCH  30  31
ATOM     31  C   UNL     1       5.633  -9.591   6.139  1.00  0.00     0.031 A 
ATOM     32  C   UNL     1       7.116  -9.533   5.904  1.00  0.00     0.074 A 
ATOM     33  C   UNL     1       5.139  -9.406   7.377  1.00  0.00     0.049 A 
ATOM     34  N   UNL     1       8.084  -9.356   6.766  1.00  0.00    -0.248 NA
ATOM     35  C   UNL     1       7.565  -9.678   4.510  1.00  0.00     0.031 C 
ATOM     36  C   UNL     1       3.719  -9.355   7.723  1.00  0.00     0.029 A 
ATOM     37  N   UNL     1       5.785  -9.220   8.575  1.00  0.00    -0.354 N 
ATOM     38  C   UNL     1       9.256  -9.360   6.021  1.00  0.00     0.074 A 
ATOM     39  C   UNL     1       8.880  -9.574   4.640  1.00  0.00     0.031 C 
ATOM     40  C   UNL     1       3.602  -9.168   9.050  1.00  0.00     0.029 A 
ATOM     41  C   UNL     1       4.934  -9.118   9.650  1.00  0.00     0.049 A 
ATOM     42  H   UNL     1       6.764  -9.166   8.656  1.00  0.00     0.167 HD
ATOM     43  C   UNL     1      10.531  -9.205   6.448  1.00  0.00     0.031 A 
ATOM     44  C   UNL     1       5.201  -9.019  10.969  1.00  0.00     0.031 A 
ATOM     45  C   UNL     1      10.910  -9.044   7.827  1.00  0.00     0.049 A 
ATOM     46  C   UNL     1       6.637  -8.976  11.432  1.00  0.00     0.074 A 
ATOM     47  C   UNL     1      12.180  -8.905   8.359  1.00  0.00     0.029 A 
ATOM     48  N   UNL     1      10.025  -9.019   8.894  1.00  0.00    -0.354 N 
ATOM     49  N   UNL     1       7.737  -8.970  10.716  1.00  0.00    -0.248 NA
ATOM     50  C   UNL     1       6.867  -8.922  12.883  1.00  0.00     0.031 C 
ATOM     51  C   UNL     1      12.068  -8.860   9.752  1.00  0.00     0.029 A 
ATOM     52  C   UNL     1      10.723  -8.900  10.085  1.00  0.00     0.049 A 
ATOM     53  H   UNL     1       9.045  -9.077   8.817  1.00  0.00     0.167 HD
ATOM     54  C   UNL     1       8.785  -8.880  11.628  1.00  0.00     0.074 A 
ATOM     55  C   UNL     1       8.188  -8.823  12.946  1.00  0.00     0.031 C 
ATOM     56  C   UNL     1      10.120  -8.843  11.393  1.00  0.00     0.031 A 
BRANCH  43  57
ATOM     57  C   UNL     1      11.617  -9.263   5.408  1.00  0.00    -0.014 A 
ATOM     58  C   UNL     1      11.810  -8.211   4.495  1.00  0.00     0.010 A 
ATOM     59  C   UNL     1      12.469 -10.381   5.357  1.00  0.00     0.010 A 
ATOM     60  C   UNL     1      12.812  -8.294   3.525  1.00  0.00     0.020 A 
ATOM     61  C   UNL     1      13.488 -10.456   4.405  1.00  0.00     0.020 A 
ATOM     62  C   UNL     1      13.642  -9.419   3.483  1.00  0.00     0.054 A 
BRANCH  62  63
ATOM     63  S   UNL     1      14.938  -9.498   2.217  1.00  0.00     0.124 S 
ATOM     64  O   UNL     1      14.159  -9.729   1.003  1.00  0.00    -0.237 OA
ATOM     65  O   UNL     1      15.566  -8.184   2.319  1.00  0.00    -0.237 OA
ATOM     66  O   UNL     1      15.772 -10.619   2.643  1.00  0.00    -0.744 OA
ENDBRANCH  62  63
ENDBRANCH  43  57
BRANCH  44  67
ATOM     67  C   UNL     1       4.088  -8.995  11.960  1.00  0.00    -0.014 A 
ATOM     68  C   UNL     1       3.829  -7.847  12.729  1.00  0.00     0.010 A 
ATOM     69  C   UNL     1       3.295 -10.141  12.159  1.00  0.00     0.010 A 
ATOM     70  C   UNL     1       2.815  -7.853  13.693  1.00  0.00     0.020 A 
ATOM     71  C   UNL     1       2.262 -10.141  13.101  1.00  0.00     0.020 A 
ATOM     72  C   UNL     1       2.038  -9.001  13.873  1.00  0.00     0.054 A 
BRANCH  72  73
ATOM     73  S   UNL     1       0.708  -8.976  15.107  1.00  0.00     0.124 S 
ATOM     74  O   UNL     1       1.455  -9.015  16.360  1.00  0.00    -0.237 OA
ATOM     75  O   UNL     1       0.028  -7.717  14.814  1.00  0.00    -0.237 OA
ATOM     76  O   UNL     1      -0.065 -10.179  14.803  1.00  0.00    -0.744 OA
ENDBRANCH  72  73
ENDBRANCH  44  67
BRANCH  56  77
ATOM     77  C   UNL     1      11.038  -8.694  12.581  1.00  0.00    -0.014 A 
ATOM     78  C   UNL     1      11.245  -9.749  13.487  1.00  0.00     0.010 A 
ATOM     79  C   UNL     1      11.759  -7.496  12.752  1.00  0.00     0.010 A 
ATOM     80  C   UNL     1      12.133  -9.599  14.557  1.00  0.00     0.020 A 
ATOM     81  C   UNL     1      12.669  -7.353  13.802  1.00  0.00     0.020 A 
ATOM     82  C   UNL     1      12.841  -8.402  14.707  1.00  0.00     0.054 A 
BRANCH  82  83
ATOM     83  S   UNL     1      14.025  -8.251  16.073  1.00  0.00     0.124 S 
ATOM     84  O   UNL     1      13.142  -8.117  17.229  1.00  0.00    -0.237 OA
ATOM     85  O   UNL     1      14.769  -9.506  15.993  1.00  0.00    -0.237 OA
ATOM     86  O   UNL     1      14.795  -7.056  15.735  1.00  0.00    -0.744 OA
ENDBRANCH  82  83
ENDBRANCH  56  77
ENDBRANCH  30  31
ENDBRANCH  23  25
ENDBRANCH  22  23
ENDBRANCH   1  22
TORSDOF 16
