REMARK SMILES COc1cc(OC)cc(-c2cc3nc(C)c(CCC(=O)OCCOC(=O)c4ccc(-c5c6nc(c(-c7ccc(S(=O)(=O)[O-])cc7)c7ccc([nH]7)c(-c7ccc(S(=O)(=O)[O-])cc7)c7nc(c(-c8ccc(S(=O)(=O)[O-])cc8)c8ccc5[nH]8)C=C7)C=C6)cc4)c(C)n3n2)c1
REMARK SMILES IDX 22 1 21 2 19 3 20 4 18 5 17 6 16 7 10 8 11 9 90 10 12 11
REMARK SMILES IDX 89 12 13 13 87 14 14 15 88 16 15 17 9 18 3 19 4 20 91 21
REMARK SMILES IDX 5 22 8 23 2 24 1 25 6 26 7 27 23 28 24 29 25 30 26 31 27 32
REMARK SMILES IDX 28 33 86 34 29 35 85 36 30 37 31 38 32 39 79 40 33 41 84 42
REMARK SMILES IDX 78 43 80 44 34 45 83 46 77 47 76 48 35 50 65 51 46 52 64 53
REMARK SMILES IDX 47 54 50 55 63 56 81 57 48 58 49 59 62 61 82 62 51 63 36 64
REMARK SMILES IDX 37 65 45 66 38 67 44 68 39 69 40 70 41 71 42 72 43 73 66 74
REMARK SMILES IDX 67 75 75 76 68 77 74 78 69 79 70 80 71 81 72 82 73 83 52 84
REMARK SMILES IDX 53 85 61 86 54 87 60 88 55 89 56 90 57 91 58 92 59 93
REMARK H PARENT 80 49 50 60
REMARK Flexibility Score: inf
ROOT
ATOM      1  C   UNL     1       7.789  -2.508   0.385  1.00  0.00     0.274 C 
ENDROOT
BRANCH   1   2
ATOM      2  O   UNL     1       8.097  -2.910  -0.973  1.00  0.00    -0.462 OA
BRANCH   2   3
ATOM      3  C   UNL     1       9.400  -2.828  -1.351  1.00  0.00     0.306 C 
ATOM      4  O   UNL     1      10.277  -2.301  -0.671  1.00  0.00    -0.252 OA
BRANCH   3   5
ATOM      5  C   UNL     1       9.688  -3.378  -2.742  1.00  0.00     0.127 C 
BRANCH   5   6
ATOM      6  C   UNL     1       9.041  -4.699  -3.207  1.00  0.00     0.051 C 
BRANCH   6   7
ATOM      7  C   UNL     1       7.625  -4.517  -3.672  1.00  0.00    -0.005 A 
ATOM      8  C   UNL     1       3.313  -3.548  -3.236  1.00  0.00     0.095 A 
ATOM      9  C   UNL     1       3.887  -2.992  -4.395  1.00  0.00     0.080 A 
ATOM     10  N   UNL     1       4.142  -4.399  -2.633  1.00  0.00    -0.166 NA
ATOM     11  C   UNL     1       5.166  -3.499  -4.444  1.00  0.00     0.156 A 
ATOM     12  N   UNL     1       5.295  -4.333  -3.333  1.00  0.00    -0.219 N 
ATOM     13  N   UNL     1       6.185  -3.320  -5.331  1.00  0.00    -0.234 NA
ATOM     14  C   UNL     1       6.526  -4.891  -2.978  1.00  0.00     0.046 A 
ATOM     15  C   UNL     1       7.340  -3.819  -4.988  1.00  0.00     0.045 A 
ATOM     16  C   UNL     1       6.537  -5.772  -1.761  1.00  0.00     0.067 C 
ATOM     17  C   UNL     1       8.418  -3.801  -6.055  1.00  0.00     0.067 C 
BRANCH   8  18
ATOM     18  C   UNL     1       2.001  -3.340  -2.660  1.00  0.00     0.009 A 
ATOM     19  C   UNL     1       0.584  -2.240  -1.044  1.00  0.00     0.123 A 
ATOM     20  C   UNL     1      -0.412  -3.186  -1.307  1.00  0.00     0.092 A 
ATOM     21  C   UNL     1       1.802  -2.326  -1.715  1.00  0.00     0.057 A 
ATOM     22  C   UNL     1      -0.214  -4.203  -2.245  1.00  0.00     0.123 A 
ATOM     23  C   UNL     1       0.992  -4.267  -2.935  1.00  0.00     0.057 A 
BRANCH  19  24
ATOM     24  O   UNL     1       0.275  -1.325  -0.074  1.00  0.00    -0.497 OA
ATOM     25  C   UNL     1       1.009  -0.107  -0.111  1.00  0.00     0.278 C 
ENDBRANCH  19  24
BRANCH  22  26
ATOM     26  O   UNL     1      -1.258  -5.075  -2.397  1.00  0.00    -0.497 OA
ATOM     27  C   UNL     1      -0.946  -6.308  -3.040  1.00  0.00     0.278 C 
ENDBRANCH  22  26
ENDBRANCH   8  18
ENDBRANCH   6   7
ENDBRANCH   5   6
ENDBRANCH   3   5
ENDBRANCH   2   3
ENDBRANCH   1   2
BRANCH   1  28
ATOM     28  C   UNL     1       7.835  -3.650   1.411  1.00  0.00     0.275 C 
BRANCH  28  29
ATOM     29  O   UNL     1       9.161  -4.104   1.726  1.00  0.00    -0.458 OA
BRANCH  29  30
ATOM     30  C   UNL     1       9.627  -4.981   0.814  1.00  0.00     0.338 C 
ATOM     31  O   UNL     1       9.176  -5.182  -0.298  1.00  0.00    -0.246 OA
BRANCH  30  32
ATOM     32  C   UNL     1      10.541  -5.978   1.339  1.00  0.00     0.060 A 
ATOM     33  C   UNL     1      11.284  -6.669   0.364  1.00  0.00     0.016 A 
ATOM     34  C   UNL     1      10.136  -6.563   2.537  1.00  0.00     0.016 A 
ATOM     35  C   UNL     1      11.474  -8.025   0.514  1.00  0.00     0.010 A 
ATOM     36  C   UNL     1      10.284  -7.923   2.655  1.00  0.00     0.010 A 
ATOM     37  C   UNL     1      10.914  -8.644   1.629  1.00  0.00    -0.014 A 
BRANCH  37  38
ATOM     38  C   UNL     1      11.093 -10.075   1.798  1.00  0.00     0.031 A 
ATOM     39  C   UNL     1      12.370 -10.439   2.464  1.00  0.00     0.074 A 
ATOM     40  C   UNL     1      10.065 -10.927   1.641  1.00  0.00     0.049 A 
ATOM     41  N   UNL     1      13.299 -11.253   2.079  1.00  0.00    -0.248 NA
ATOM     42  C   UNL     1      12.709  -9.669   3.677  1.00  0.00     0.031 C 
ATOM     43  C   UNL     1       8.665 -10.575   1.377  1.00  0.00     0.029 A 
ATOM     44  N   UNL     1      10.014 -12.262   1.897  1.00  0.00    -0.354 N 
ATOM     45  C   UNL     1      14.261 -11.202   3.086  1.00  0.00     0.074 A 
ATOM     46  C   UNL     1      13.957 -10.058   3.899  1.00  0.00     0.031 C 
ATOM     47  C   UNL     1       7.883 -11.607   1.757  1.00  0.00     0.029 A 
ATOM     48  C   UNL     1       8.733 -12.704   2.196  1.00  0.00     0.049 A 
ATOM     49  H   UNL     1      10.802 -12.852   1.872  1.00  0.00     0.167 HD
ATOM     50  C   UNL     1      15.098 -12.232   3.379  1.00  0.00     0.031 A 
ATOM     51  C   UNL     1       8.413 -13.820   2.896  1.00  0.00     0.031 A 
ATOM     52  C   UNL     1      15.139 -13.223   2.344  1.00  0.00     0.049 A 
ATOM     53  C   UNL     1       9.622 -14.680   2.968  1.00  0.00     0.074 A 
ATOM     54  C   UNL     1      15.531 -13.236   1.023  1.00  0.00     0.029 A 
ATOM     55  N   UNL     1      14.391 -14.359   2.542  1.00  0.00    -0.354 N 
ATOM     56  N   UNL     1      10.179 -15.258   1.941  1.00  0.00    -0.248 NA
ATOM     57  C   UNL     1      10.459 -14.608   4.159  1.00  0.00     0.031 C 
ATOM     58  C   UNL     1      14.670 -14.172   0.384  1.00  0.00     0.029 A 
ATOM     59  C   UNL     1      13.797 -14.682   1.349  1.00  0.00     0.049 A 
ATOM     60  H   UNL     1      14.298 -14.853   3.389  1.00  0.00     0.167 HD
ATOM     61  C   UNL     1      11.539 -15.274   2.220  1.00  0.00     0.074 A 
ATOM     62  C   UNL     1      11.633 -14.981   3.645  1.00  0.00     0.031 C 
ATOM     63  C   UNL     1      12.467 -15.247   1.219  1.00  0.00     0.031 A 
BRANCH  50  64
ATOM     64  C   UNL     1      15.588 -12.499   4.781  1.00  0.00    -0.014 A 
ATOM     65  C   UNL     1      16.606 -13.445   4.990  1.00  0.00     0.010 A 
ATOM     66  C   UNL     1      14.913 -12.022   5.928  1.00  0.00     0.010 A 
ATOM     67  C   UNL     1      16.904 -13.913   6.279  1.00  0.00     0.020 A 
ATOM     68  C   UNL     1      15.241 -12.432   7.217  1.00  0.00     0.020 A 
ATOM     69  C   UNL     1      16.209 -13.409   7.381  1.00  0.00     0.054 A 
BRANCH  69  70
ATOM     70  S   UNL     1      16.510 -14.094   9.027  1.00  0.00     0.124 S 
ATOM     71  O   UNL     1      15.875 -15.403   8.922  1.00  0.00    -0.237 OA
ATOM     72  O   UNL     1      17.968 -14.098   9.105  1.00  0.00    -0.237 OA
ATOM     73  O   UNL     1      15.847 -13.144   9.918  1.00  0.00    -0.744 OA
ENDBRANCH  69  70
ENDBRANCH  50  64
BRANCH  51  74
ATOM     74  C   UNL     1       7.238 -14.004   3.785  1.00  0.00    -0.014 A 
ATOM     75  C   UNL     1       6.836 -15.285   4.200  1.00  0.00     0.010 A 
ATOM     76  C   UNL     1       6.634 -12.894   4.414  1.00  0.00     0.010 A 
ATOM     77  C   UNL     1       5.886 -15.447   5.223  1.00  0.00     0.020 A 
ATOM     78  C   UNL     1       5.675 -13.046   5.419  1.00  0.00     0.020 A 
ATOM     79  C   UNL     1       5.319 -14.325   5.833  1.00  0.00     0.054 A 
BRANCH  79  80
ATOM     80  S   UNL     1       4.196 -14.540   7.244  1.00  0.00     0.124 S 
ATOM     81  O   UNL     1       3.008 -15.104   6.611  1.00  0.00    -0.237 OA
ATOM     82  O   UNL     1       4.945 -15.449   8.107  1.00  0.00    -0.237 OA
ATOM     83  O   UNL     1       4.037 -13.184   7.767  1.00  0.00    -0.744 OA
ENDBRANCH  79  80
ENDBRANCH  51  74
BRANCH  63  84
ATOM     84  C   UNL     1      12.003 -15.528  -0.191  1.00  0.00    -0.014 A 
ATOM     85  C   UNL     1      11.093 -14.695  -0.871  1.00  0.00     0.010 A 
ATOM     86  C   UNL     1      12.644 -16.552  -0.911  1.00  0.00     0.010 A 
ATOM     87  C   UNL     1      10.826 -14.884  -2.232  1.00  0.00     0.020 A 
ATOM     88  C   UNL     1      12.395 -16.734  -2.275  1.00  0.00     0.020 A 
ATOM     89  C   UNL     1      11.486 -15.900  -2.929  1.00  0.00     0.054 A 
BRANCH  89  90
ATOM     90  S   UNL     1      11.218 -16.064  -4.716  1.00  0.00     0.124 S 
ATOM     91  O   UNL     1       9.886 -16.658  -4.783  1.00  0.00    -0.237 OA
ATOM     92  O   UNL     1      11.317 -14.685  -5.190  1.00  0.00    -0.237 OA
ATOM     93  O   UNL     1      12.309 -16.936  -5.152  1.00  0.00    -0.744 OA
ENDBRANCH  89  90
ENDBRANCH  63  84
ENDBRANCH  37  38
ENDBRANCH  30  32
ENDBRANCH  29  30
ENDBRANCH  28  29
ENDBRANCH   1  28
TORSDOF 19
