REMARK SMILES CN1C(=O)C[C@H](C(=O)Nc2ccc(C(=O)OCCOC(=O)c3ccc(-c4c5nc(c(-c6ccc(S(=O)(=O)[O-])cc6)c6ccc([nH]6)c(-c6ccc(S(=O)(=O)[O-])cc6)c6nc(c(-c7ccc(S(=O)(=O)[O-])cc7)c7ccc4[nH]7)C=C6)C=C5)cc3)cc2)S/C1=[NH+]\c1cccc(C(F)(F)F)c1
REMARK SMILES IDX 17 1 16 2 14 3 15 4 13 5 10 6 11 7 83 8 12 9 82 10 9 11 7 12
REMARK SMILES IDX 8 13 6 15 1 16 2 17 3 18 85 19 4 20 5 21 84 22 86 23 87 25
REMARK SMILES IDX 88 26 96 27 89 28 91 29 90 30 92 31 93 32 94 33 95 34 18 35
REMARK SMILES IDX 19 36 20 37 21 38 22 39 23 40 81 41 24 42 80 43 25 44 26 45
REMARK SMILES IDX 27 46 74 47 28 48 79 49 73 50 75 51 29 52 78 53 72 54 71 55
REMARK SMILES IDX 30 57 60 58 41 59 59 60 42 61 45 62 58 63 76 64 43 65 44 66
REMARK SMILES IDX 57 68 77 69 46 70 31 71 32 72 40 73 33 74 39 75 34 76 35 77
REMARK SMILES IDX 36 78 37 79 38 80 61 81 62 82 70 83 63 84 69 85 64 86 65 87
REMARK SMILES IDX 66 88 67 89 68 90 47 91 48 92 56 93 49 94 55 95 50 96 51 97
REMARK SMILES IDX 52 98 53 99 54 100
REMARK H PARENT 9 14 86 24 75 56 45 67
REMARK Flexibility Score: inf
ROOT
ATOM      1  C   UNL     1      -0.001  10.472   1.829  1.00  0.00     0.275 C 
ENDROOT
BRANCH   1   2
ATOM      2  O   UNL     1      -0.093   9.498   0.771  1.00  0.00    -0.458 OA
BRANCH   2   3
ATOM      3  C   UNL     1      -0.775   8.367   1.081  1.00  0.00     0.338 C 
ATOM      4  O   UNL     1      -1.240   8.077   2.166  1.00  0.00    -0.246 OA
BRANCH   3   5
ATOM      5  C   UNL     1      -0.965   7.521  -0.123  1.00  0.00     0.060 A 
ATOM      6  C   UNL     1      -1.326   5.717  -2.218  1.00  0.00     0.041 A 
ATOM      7  C   UNL     1      -2.343   5.894  -1.289  1.00  0.00     0.027 A 
ATOM      8  C   UNL     1      -0.182   6.522  -2.174  1.00  0.00     0.027 A 
ATOM      9  C   UNL     1      -2.126   6.742  -0.210  1.00  0.00     0.018 A 
ATOM     10  C   UNL     1      -0.004   7.436  -1.130  1.00  0.00     0.018 A 
BRANCH   6  11
ATOM     11  N   UNL     1      -1.458   4.622  -3.075  1.00  0.00    -0.325 N 
ATOM     12  C   UNL     1      -0.620   3.536  -3.164  1.00  0.00     0.238 C 
ATOM     13  O   UNL     1      -0.998   2.587  -3.854  1.00  0.00    -0.273 OA
ATOM     14  H   UNL     1      -2.235   4.628  -3.680  1.00  0.00     0.169 HD
BRANCH  12  15
ATOM     15  C   UNL     1       0.688   3.511  -2.363  1.00  0.00     0.160 C 
ATOM     16  C   UNL     1       0.444  -0.415  -0.379  1.00  0.00     0.301 C 
ATOM     17  N   UNL     1       0.596   0.867  -1.052  1.00  0.00    -0.194 N 
ATOM     18  C   UNL     1       0.142   1.989  -0.372  1.00  0.00     0.311 C 
ATOM     19  C   UNL     1       1.032   0.836  -2.375  1.00  0.00     0.319 C 
ATOM     20  O   UNL     1      -0.534   1.915   0.658  1.00  0.00    -0.247 OA
ATOM     21  C   UNL     1       0.524   3.359  -0.870  1.00  0.00     0.153 C 
ATOM     22  S   UNL     1       1.841   2.278  -2.946  1.00  0.00    -0.024 SA
ATOM     23  N   UNL     1       0.890  -0.252  -3.071  1.00  0.00    -0.235 N 
ATOM     24  H   UNL     1       0.596  -1.082  -2.632  1.00  0.00     0.313 HD
BRANCH  23  25
ATOM     25  C   UNL     1       1.155  -0.243  -4.447  1.00  0.00     0.126 A 
ATOM     26  C   UNL     1       0.085  -0.201  -5.346  1.00  0.00     0.052 A 
ATOM     27  C   UNL     1       2.460  -0.225  -4.937  1.00  0.00     0.064 A 
ATOM     28  C   UNL     1       0.314  -0.087  -6.716  1.00  0.00     0.005 A 
ATOM     29  C   UNL     1       2.706  -0.046  -6.305  1.00  0.00     0.060 A 
ATOM     30  C   UNL     1       1.620   0.005  -7.194  1.00  0.00     0.013 A 
BRANCH  29  31
ATOM     31  C   UNL     1       4.113   0.133  -6.804  1.00  0.00     0.416 C 
ATOM     32  F   UNL     1       4.564  -0.946  -7.502  1.00  0.00    -0.166 F 
ATOM     33  F   UNL     1       4.242   1.200  -7.643  1.00  0.00    -0.166 F 
ATOM     34  F   UNL     1       5.024   0.339  -5.810  1.00  0.00    -0.166 F 
ENDBRANCH  29  31
ENDBRANCH  23  25
ENDBRANCH  12  15
ENDBRANCH   6  11
ENDBRANCH   3   5
ENDBRANCH   2   3
ENDBRANCH   1   2
BRANCH   1  35
ATOM     35  C   UNL     1      -1.011  11.602   1.624  1.00  0.00     0.275 C 
BRANCH  35  36
ATOM     36  O   UNL     1      -2.360  11.134   1.821  1.00  0.00    -0.458 OA
BRANCH  36  37
ATOM     37  C   UNL     1      -3.066  10.938   0.685  1.00  0.00     0.338 C 
ATOM     38  O   UNL     1      -2.689  11.134  -0.460  1.00  0.00    -0.246 OA
BRANCH  37  39
ATOM     39  C   UNL     1      -4.378  10.340   0.976  1.00  0.00     0.060 A 
ATOM     40  C   UNL     1      -4.425   8.972   1.198  1.00  0.00     0.016 A 
ATOM     41  C   UNL     1      -5.558  11.050   0.779  1.00  0.00     0.016 A 
ATOM     42  C   UNL     1      -5.618   8.274   1.036  1.00  0.00     0.010 A 
ATOM     43  C   UNL     1      -6.782  10.362   0.775  1.00  0.00     0.010 A 
ATOM     44  C   UNL     1      -6.826   8.955   0.831  1.00  0.00    -0.014 A 
BRANCH  44  45
ATOM     45  C   UNL     1      -8.102   8.196   0.623  1.00  0.00     0.031 A 
ATOM     46  C   UNL     1      -8.972   8.473  -0.586  1.00  0.00     0.074 A 
ATOM     47  C   UNL     1      -8.482   7.231   1.490  1.00  0.00     0.049 A 
ATOM     48  N   UNL     1     -10.181   8.043  -0.853  1.00  0.00    -0.248 NA
ATOM     49  C   UNL     1      -8.420   9.363  -1.621  1.00  0.00     0.031 C 
ATOM     50  C   UNL     1      -7.735   6.807   2.677  1.00  0.00     0.029 A 
ATOM     51  N   UNL     1      -9.590   6.416   1.499  1.00  0.00    -0.354 N 
ATOM     52  C   UNL     1     -10.558   8.664  -2.041  1.00  0.00     0.074 A 
ATOM     53  C   UNL     1      -9.453   9.508  -2.440  1.00  0.00     0.031 C 
ATOM     54  C   UNL     1      -8.367   5.778   3.258  1.00  0.00     0.029 A 
ATOM     55  C   UNL     1      -9.624   5.541   2.561  1.00  0.00     0.049 A 
ATOM     56  H   UNL     1     -10.293   6.455   0.811  1.00  0.00     0.167 HD
ATOM     57  C   UNL     1     -11.716   8.544  -2.738  1.00  0.00     0.031 A 
ATOM     58  C   UNL     1     -10.573   4.676   2.971  1.00  0.00     0.031 A 
ATOM     59  C   UNL     1     -12.794   7.662  -2.370  1.00  0.00     0.049 A 
ATOM     60  C   UNL     1     -11.862   4.588   2.206  1.00  0.00     0.074 A 
ATOM     61  C   UNL     1     -13.998   7.456  -3.024  1.00  0.00     0.029 A 
ATOM     62  N   UNL     1     -12.795   6.827  -1.264  1.00  0.00    -0.354 N 
ATOM     63  N   UNL     1     -12.218   5.225   1.117  1.00  0.00    -0.248 NA
ATOM     64  C   UNL     1     -12.884   3.674   2.734  1.00  0.00     0.031 C 
ATOM     65  C   UNL     1     -14.747   6.536  -2.284  1.00  0.00     0.029 A 
ATOM     66  C   UNL     1     -13.985   6.119  -1.206  1.00  0.00     0.049 A 
ATOM     67  H   UNL     1     -12.058   6.748  -0.615  1.00  0.00     0.167 HD
ATOM     68  C   UNL     1     -13.500   4.777   0.820  1.00  0.00     0.074 A 
ATOM     69  C   UNL     1     -13.845   3.796   1.829  1.00  0.00     0.031 C 
ATOM     70  C   UNL     1     -14.319   5.147  -0.195  1.00  0.00     0.031 A 
BRANCH  57  71
ATOM     71  C   UNL     1     -11.901   9.422  -3.953  1.00  0.00    -0.014 A 
ATOM     72  C   UNL     1     -11.172   9.214  -5.137  1.00  0.00     0.010 A 
ATOM     73  C   UNL     1     -12.863  10.451  -3.918  1.00  0.00     0.010 A 
ATOM     74  C   UNL     1     -11.368  10.046  -6.246  1.00  0.00     0.020 A 
ATOM     75  C   UNL     1     -13.084  11.264  -5.034  1.00  0.00     0.020 A 
ATOM     76  C   UNL     1     -12.321  11.068  -6.185  1.00  0.00     0.054 A 
BRANCH  76  77
ATOM     77  S   UNL     1     -12.565  12.121  -7.643  1.00  0.00     0.124 S 
ATOM     78  O   UNL     1     -11.349  12.930  -7.637  1.00  0.00    -0.237 OA
ATOM     79  O   UNL     1     -12.665  11.148  -8.728  1.00  0.00    -0.237 OA
ATOM     80  O   UNL     1     -13.797  12.847  -7.346  1.00  0.00    -0.744 OA
ENDBRANCH  76  77
ENDBRANCH  57  71
BRANCH  58  81
ATOM     81  C   UNL     1     -10.360   3.869   4.207  1.00  0.00    -0.014 A 
ATOM     82  C   UNL     1     -10.221   2.472   4.139  1.00  0.00     0.010 A 
ATOM     83  C   UNL     1     -10.282   4.501   5.463  1.00  0.00     0.010 A 
ATOM     84  C   UNL     1     -10.019   1.723   5.303  1.00  0.00     0.020 A 
ATOM     85  C   UNL     1     -10.044   3.761   6.623  1.00  0.00     0.020 A 
ATOM     86  C   UNL     1      -9.927   2.373   6.537  1.00  0.00     0.054 A 
BRANCH  86  87
ATOM     87  S   UNL     1      -9.611   1.388   8.028  1.00  0.00     0.124 S 
ATOM     88  O   UNL     1     -10.899   0.737   8.240  1.00  0.00    -0.237 OA
ATOM     89  O   UNL     1      -8.521   0.513   7.603  1.00  0.00    -0.237 OA
ATOM     90  O   UNL     1      -9.242   2.389   9.027  1.00  0.00    -0.744 OA
ENDBRANCH  86  87
ENDBRANCH  58  81
BRANCH  70  91
ATOM     91  C   UNL     1     -15.654   4.458  -0.288  1.00  0.00    -0.014 A 
ATOM     92  C   UNL     1     -16.679   4.721   0.638  1.00  0.00     0.010 A 
ATOM     93  C   UNL     1     -15.895   3.555  -1.340  1.00  0.00     0.010 A 
ATOM     94  C   UNL     1     -17.907   4.061   0.538  1.00  0.00     0.020 A 
ATOM     95  C   UNL     1     -17.132   2.917  -1.462  1.00  0.00     0.020 A 
ATOM     96  C   UNL     1     -18.125   3.162  -0.511  1.00  0.00     0.054 A 
BRANCH  96  97
ATOM     97  S   UNL     1     -19.736   2.339  -0.636  1.00  0.00     0.124 S 
ATOM     98  O   UNL     1     -19.671   1.374   0.458  1.00  0.00    -0.237 OA
ATOM     99  O   UNL     1     -20.675   3.443  -0.446  1.00  0.00    -0.237 OA
ATOM    100  O   UNL     1     -19.727   1.761  -1.978  1.00  0.00    -0.744 OA
ENDBRANCH  96  97
ENDBRANCH  70  91
ENDBRANCH  44  45
ENDBRANCH  37  39
ENDBRANCH  36  37
ENDBRANCH  35  36
ENDBRANCH   1  35
TORSDOF 18
