REMARK SMILES O=C(OCCOC(=O)c1ccc(-c2c3nc(c(-c4ccc(S(=O)(=O)[O-])cc4)c4ccc([nH]4)c(-c4ccc(S(=O)(=O)[O-])cc4)c4nc(c(-c5ccc(S(=O)(=O)[O-])cc5)c5ccc2[nH]5)C=C4)C=C3)cc1)C1=Cc2cc(Cl)cc(-c3ccc(O)cc3)c2O[C@@H]1C(F)(F)F
REMARK SMILES IDX 5 1 4 2 3 3 2 4 1 5 69 6 70 7 86 8 71 9 85 10 72 11 84 12
REMARK SMILES IDX 73 13 76 14 74 15 75 16 87 17 88 18 89 19 90 20 77 21 78 22
REMARK SMILES IDX 83 23 79 24 82 25 80 26 81 27 6 29 7 30 8 31 9 32 10 33
REMARK SMILES IDX 68 34 11 35 67 36 12 37 13 38 14 39 61 40 15 41 66 42 60 43
REMARK SMILES IDX 62 44 16 45 65 46 59 47 58 48 17 50 47 51 28 52 46 53 29 54
REMARK SMILES IDX 32 55 45 56 63 57 30 58 31 59 44 61 64 62 33 63 18 64 19 65
REMARK SMILES IDX 27 66 20 67 26 68 21 69 22 70 23 71 24 72 25 73 48 74 49 75
REMARK SMILES IDX 57 76 50 77 56 78 51 79 52 80 53 81 54 82 55 83 34 84 35 85
REMARK SMILES IDX 43 86 36 87 42 88 37 89 38 90 39 91 40 92 41 93
REMARK H PARENT 81 28 62 49 32 60
REMARK Flexibility Score: inf
ROOT
ATOM      1  C   UNL     1       4.699   0.160   0.814  1.00  0.00     0.275 C 
ENDROOT
BRANCH   1   2
ATOM      2  C   UNL     1       3.819  -0.762  -0.960  1.00  0.00     0.275 C 
BRANCH   2   3
ATOM      3  O   UNL     1       2.816  -1.908  -0.992  1.00  0.00    -0.459 OA
BRANCH   3   4
ATOM      4  C   UNL     1       2.990  -2.765   0.019  1.00  0.00     0.338 C 
ATOM      5  O   UNL     1       2.266  -3.662   0.371  1.00  0.00    -0.246 OA
BRANCH   4   6
ATOM      6  C   UNL     1       3.955  -1.960   0.751  1.00  0.00     0.087 C 
ATOM      7  C   UNL     1       5.308  -1.990   0.261  1.00  0.00     0.027 C 
ATOM      8  C   UNL     1       2.812  -0.422   0.780  1.00  0.00     0.316 C 
ATOM      9  C   UNL     1       6.053  -0.677  -0.673  1.00  0.00     0.019 A 
ATOM     10  O   UNL     1       3.540   1.000  -0.345  1.00  0.00    -0.475 OA
ATOM     11  C   UNL     1       7.273  -0.959  -1.220  1.00  0.00     0.032 A 
ATOM     12  C   UNL     1       5.193   0.767  -1.123  1.00  0.00     0.135 A 
ATOM     13  C   UNL     1       7.710  -0.039  -2.168  1.00  0.00     0.042 A 
ATOM     14  C   UNL     1       5.670   1.571  -2.132  1.00  0.00     0.026 A 
ATOM     15  Cl  UNL     1       9.223  -0.373  -2.943  1.00  0.00    -0.084 Cl
ATOM     16  C   UNL     1       6.958   1.123  -2.600  1.00  0.00     0.033 A 
BRANCH   8  17
ATOM     17  C   UNL     1       2.615  -0.683   2.409  1.00  0.00     0.430 C 
ATOM     18  F   UNL     1       1.336  -0.521   2.767  1.00  0.00    -0.167 F 
ATOM     19  F   UNL     1       2.830  -2.003   2.725  1.00  0.00    -0.167 F 
ATOM     20  F   UNL     1       3.448  -0.077   3.271  1.00  0.00    -0.167 F 
ENDBRANCH   8  17
BRANCH  14  21
ATOM     21  C   UNL     1       5.018   2.629  -2.886  1.00  0.00    -0.014 A 
ATOM     22  C   UNL     1       4.674   2.390  -4.235  1.00  0.00     0.012 A 
ATOM     23  C   UNL     1       4.908   3.930  -2.390  1.00  0.00     0.012 A 
ATOM     24  C   UNL     1       4.237   3.421  -5.064  1.00  0.00     0.047 A 
ATOM     25  C   UNL     1       4.468   4.967  -3.221  1.00  0.00     0.047 A 
ATOM     26  C   UNL     1       4.139   4.704  -4.549  1.00  0.00     0.115 A 
BRANCH  26  27
ATOM     27  O   UNL     1       3.723   5.693  -5.390  1.00  0.00    -0.508 OA
ATOM     28  H   UNL     1       3.507   5.491  -6.279  1.00  0.00     0.293 HD
ENDBRANCH  26  27
ENDBRANCH  14  21
ENDBRANCH   4   6
ENDBRANCH   3   4
ENDBRANCH   2   3
ENDBRANCH   1   2
BRANCH   1  29
ATOM     29  O   UNL     1       3.899   1.421   1.749  1.00  0.00    -0.458 OA
BRANCH  29  30
ATOM     30  C   UNL     1       2.871   2.348   1.694  1.00  0.00     0.338 C 
ATOM     31  O   UNL     1       2.340   2.853   0.720  1.00  0.00    -0.246 OA
BRANCH  30  32
ATOM     32  C   UNL     1       2.172   2.312   3.026  1.00  0.00     0.060 A 
ATOM     33  C   UNL     1       0.831   1.873   3.078  1.00  0.00     0.016 A 
ATOM     34  C   UNL     1       2.932   2.326   4.195  1.00  0.00     0.016 A 
ATOM     35  C   UNL     1       0.338   1.245   4.244  1.00  0.00     0.010 A 
ATOM     36  C   UNL     1       2.446   1.682   5.340  1.00  0.00     0.010 A 
ATOM     37  C   UNL     1       1.175   1.073   5.357  1.00  0.00    -0.014 A 
BRANCH  37  38
ATOM     38  C   UNL     1       0.653   0.547   6.650  1.00  0.00     0.031 A 
ATOM     39  C   UNL     1       0.154   1.606   7.589  1.00  0.00     0.074 A 
ATOM     40  C   UNL     1       0.676  -0.750   7.036  1.00  0.00     0.049 A 
ATOM     41  N   UNL     1      -0.273   1.506   8.816  1.00  0.00    -0.248 NA
ATOM     42  C   UNL     1       0.189   2.986   7.066  1.00  0.00     0.031 C 
ATOM     43  C   UNL     1       1.145  -1.885   6.240  1.00  0.00     0.029 A 
ATOM     44  N   UNL     1       0.296  -1.333   8.230  1.00  0.00    -0.354 N 
ATOM     45  C   UNL     1      -0.549   2.809   9.206  1.00  0.00     0.074 A 
ATOM     46  C   UNL     1      -0.155   3.684   8.130  1.00  0.00     0.031 C 
ATOM     47  C   UNL     1       1.019  -3.020   6.962  1.00  0.00     0.029 A 
ATOM     48  C   UNL     1       0.478  -2.702   8.283  1.00  0.00     0.049 A 
ATOM     49  H   UNL     1      -0.075  -0.816   8.981  1.00  0.00     0.167 HD
ATOM     50  C   UNL     1      -1.119   3.250  10.347  1.00  0.00     0.031 A 
ATOM     51  C   UNL     1       0.232  -3.583   9.282  1.00  0.00     0.031 A 
ATOM     52  C   UNL     1      -1.491   2.389  11.426  1.00  0.00     0.049 A 
ATOM     53  C   UNL     1      -0.350  -3.060  10.583  1.00  0.00     0.074 A 
ATOM     54  C   UNL     1      -2.084   2.724  12.627  1.00  0.00     0.029 A 
ATOM     55  N   UNL     1      -1.294   1.016  11.434  1.00  0.00    -0.354 N 
ATOM     56  N   UNL     1      -0.676  -1.830  10.910  1.00  0.00    -0.248 NA
ATOM     57  C   UNL     1      -0.614  -4.046  11.645  1.00  0.00     0.031 C 
ATOM     58  C   UNL     1      -2.189   1.558  13.390  1.00  0.00     0.029 A 
ATOM     59  C   UNL     1      -1.735   0.489  12.631  1.00  0.00     0.049 A 
ATOM     60  H   UNL     1      -0.899   0.497  10.696  1.00  0.00     0.167 HD
ATOM     61  C   UNL     1      -1.222  -1.903  12.191  1.00  0.00     0.074 A 
ATOM     62  C   UNL     1      -1.192  -3.298  12.576  1.00  0.00     0.031 C 
ATOM     63  C   UNL     1      -1.708  -0.910  12.978  1.00  0.00     0.031 A 
BRANCH  50  64
ATOM     64  C   UNL     1      -1.340   4.731  10.453  1.00  0.00    -0.014 A 
ATOM     65  C   UNL     1      -2.257   5.386   9.607  1.00  0.00     0.010 A 
ATOM     66  C   UNL     1      -0.583   5.485  11.364  1.00  0.00     0.010 A 
ATOM     67  C   UNL     1      -2.371   6.775   9.632  1.00  0.00     0.020 A 
ATOM     68  C   UNL     1      -0.724   6.872  11.419  1.00  0.00     0.020 A 
ATOM     69  C   UNL     1      -1.603   7.509  10.540  1.00  0.00     0.054 A 
BRANCH  69  70
ATOM     70  S   UNL     1      -1.792   9.311  10.567  1.00  0.00     0.124 S 
ATOM     71  O   UNL     1      -1.160   9.700   9.308  1.00  0.00    -0.237 OA
ATOM     72  O   UNL     1      -3.242   9.477  10.620  1.00  0.00    -0.237 OA
ATOM     73  O   UNL     1      -1.075   9.716  11.774  1.00  0.00    -0.744 OA
ENDBRANCH  69  70
ENDBRANCH  50  64
BRANCH  51  74
ATOM     74  C   UNL     1       0.503  -5.052   9.128  1.00  0.00    -0.014 A 
ATOM     75  C   UNL     1      -0.551  -5.989   9.142  1.00  0.00     0.010 A 
ATOM     76  C   UNL     1       1.821  -5.539   9.034  1.00  0.00     0.010 A 
ATOM     77  C   UNL     1      -0.296  -7.368   9.091  1.00  0.00     0.020 A 
ATOM     78  C   UNL     1       2.080  -6.916   8.953  1.00  0.00     0.020 A 
ATOM     79  C   UNL     1       1.020  -7.824   8.993  1.00  0.00     0.054 A 
BRANCH  79  80
ATOM     80  S   UNL     1       1.325  -9.614   8.888  1.00  0.00     0.124 S 
ATOM     81  O   UNL     1       0.959 -10.068  10.226  1.00  0.00    -0.237 OA
ATOM     82  O   UNL     1       0.425 -10.024   7.814  1.00  0.00    -0.237 OA
ATOM     83  O   UNL     1       2.748  -9.701   8.567  1.00  0.00    -0.744 OA
ENDBRANCH  79  80
ENDBRANCH  51  74
BRANCH  63  84
ATOM     84  C   UNL     1      -2.307  -1.288  14.308  1.00  0.00    -0.014 A 
ATOM     85  C   UNL     1      -1.511  -1.733  15.376  1.00  0.00     0.010 A 
ATOM     86  C   UNL     1      -3.687  -1.092  14.515  1.00  0.00     0.010 A 
ATOM     87  C   UNL     1      -2.089  -2.004  16.620  1.00  0.00     0.020 A 
ATOM     88  C   UNL     1      -4.261  -1.325  15.765  1.00  0.00     0.020 A 
ATOM     89  C   UNL     1      -3.459  -1.793  16.807  1.00  0.00     0.054 A 
BRANCH  89  90
ATOM     90  S   UNL     1      -4.173  -2.100  18.445  1.00  0.00     0.124 S 
ATOM     91  O   UNL     1      -4.122  -3.557  18.530  1.00  0.00    -0.237 OA
ATOM     92  O   UNL     1      -3.257  -1.385  19.331  1.00  0.00    -0.237 OA
ATOM     93  O   UNL     1      -5.514  -1.528  18.353  1.00  0.00    -0.744 OA
ENDBRANCH  89  90
ENDBRANCH  63  84
ENDBRANCH  37  38
ENDBRANCH  30  32
ENDBRANCH  29  30
ENDBRANCH   1  29
TORSDOF 17
