REMARK SMILES O=C(OCCOC(=O)[C@@H]1C[NH2+]C[C@H]1c1ccncc1)c1ccc(-c2c3nc(c(-c4ccc(S(=O)(=O)[O-])cc4)c4ccc([nH]4)c(-c4ccc(S(=O)(=O)[O-])cc4)c4nc(c(-c5ccc(S(=O)(=O)[O-])cc5)c5ccc2[nH]5)C=C4)C=C3)cc1
REMARK SMILES IDX 4 1 3 2 2 3 1 4 20 5 21 6 79 7 22 8 78 9 23 10 24 11 25 12
REMARK SMILES IDX 72 13 26 14 77 15 71 16 73 17 27 18 76 19 70 20 69 21 28 23
REMARK SMILES IDX 58 24 39 25 57 26 40 27 43 28 56 29 74 30 41 31 42 32 55 34
REMARK SMILES IDX 75 35 44 36 29 37 30 38 38 39 31 40 37 41 32 42 33 43 34 44
REMARK SMILES IDX 35 45 36 46 59 47 60 48 68 49 61 50 67 51 62 52 63 53 64 54
REMARK SMILES IDX 65 55 66 56 45 57 46 58 54 59 47 60 53 61 48 62 49 63 50 64
REMARK SMILES IDX 51 65 52 66 5 67 6 68 7 69 8 70 9 71 10 72 13 73 11 74 12 75
REMARK SMILES IDX 14 78 15 79 19 80 16 81 18 82 17 83
REMARK H PARENT 73 22 43 33 11 76 11 77
REMARK Flexibility Score: inf
ROOT
ATOM      1  C   UNL     1       4.734  -1.631  -0.222  1.00  0.00     0.275 C 
ENDROOT
BRANCH   1   2
ATOM      2  O   UNL     1       4.472  -0.996   1.043  1.00  0.00    -0.458 OA
BRANCH   2   3
ATOM      3  C   UNL     1       3.836   0.188   1.171  1.00  0.00     0.338 C 
ATOM      4  O   UNL     1       2.826   0.277   1.867  1.00  0.00    -0.246 OA
BRANCH   3   5
ATOM      5  C   UNL     1       4.435   1.402   0.534  1.00  0.00     0.060 A 
ATOM      6  C   UNL     1       5.552   1.395  -0.309  1.00  0.00     0.016 A 
ATOM      7  C   UNL     1       3.775   2.618   0.749  1.00  0.00     0.016 A 
ATOM      8  C   UNL     1       5.922   2.534  -1.031  1.00  0.00     0.010 A 
ATOM      9  C   UNL     1       4.128   3.754   0.015  1.00  0.00     0.010 A 
ATOM     10  C   UNL     1       5.198   3.718  -0.894  1.00  0.00    -0.014 A 
BRANCH  10  11
ATOM     11  C   UNL     1       5.662   4.973  -1.534  1.00  0.00     0.031 A 
ATOM     12  C   UNL     1       6.155   6.061  -0.625  1.00  0.00     0.074 A 
ATOM     13  C   UNL     1       5.625   5.160  -2.869  1.00  0.00     0.049 A 
ATOM     14  N   UNL     1       6.505   7.285  -0.908  1.00  0.00    -0.248 NA
ATOM     15  C   UNL     1       6.220   5.730   0.811  1.00  0.00     0.031 C 
ATOM     16  C   UNL     1       5.173   4.182  -3.857  1.00  0.00     0.029 A 
ATOM     17  N   UNL     1       5.953   6.259  -3.626  1.00  0.00    -0.354 N 
ATOM     18  C   UNL     1       6.812   7.867   0.315  1.00  0.00     0.074 A 
ATOM     19  C   UNL     1       6.490   6.907   1.343  1.00  0.00     0.031 C 
ATOM     20  C   UNL     1       5.216   4.734  -5.083  1.00  0.00     0.029 A 
ATOM     21  C   UNL     1       5.704   6.104  -4.971  1.00  0.00     0.049 A 
ATOM     22  H   UNL     1       6.332   7.083  -3.241  1.00  0.00     0.167 HD
ATOM     23  C   UNL     1       7.384   9.066   0.564  1.00  0.00     0.031 A 
ATOM     24  C   UNL     1       5.853   6.972  -5.993  1.00  0.00     0.031 A 
ATOM     25  C   UNL     1       7.748   9.991  -0.466  1.00  0.00     0.049 A 
ATOM     26  C   UNL     1       6.452   8.325  -5.701  1.00  0.00     0.074 A 
ATOM     27  C   UNL     1       8.387  11.209  -0.347  1.00  0.00     0.029 A 
ATOM     28  N   UNL     1       7.514   9.782  -1.818  1.00  0.00    -0.354 N 
ATOM     29  N   UNL     1       6.804   8.835  -4.544  1.00  0.00    -0.248 NA
ATOM     30  C   UNL     1       6.717   9.200  -6.851  1.00  0.00     0.031 C 
ATOM     31  C   UNL     1       8.517  11.751  -1.631  1.00  0.00     0.029 A 
ATOM     32  C   UNL     1       7.997  10.849  -2.549  1.00  0.00     0.049 A 
ATOM     33  H   UNL     1       7.069   8.991  -2.199  1.00  0.00     0.167 HD
ATOM     34  C   UNL     1       7.391  10.062  -4.832  1.00  0.00     0.074 A 
ATOM     35  C   UNL     1       7.328  10.226  -6.271  1.00  0.00     0.031 C 
ATOM     36  C   UNL     1       7.950  10.962  -3.986  1.00  0.00     0.031 A 
BRANCH  23  37
ATOM     37  C   UNL     1       7.655   9.386   2.008  1.00  0.00    -0.014 A 
ATOM     38  C   UNL     1       8.604   8.643   2.740  1.00  0.00     0.010 A 
ATOM     39  C   UNL     1       6.890  10.361   2.667  1.00  0.00     0.010 A 
ATOM     40  C   UNL     1       8.710   8.800   4.122  1.00  0.00     0.020 A 
ATOM     41  C   UNL     1       7.023  10.549   4.046  1.00  0.00     0.020 A 
ATOM     42  C   UNL     1       7.906   9.741   4.769  1.00  0.00     0.054 A 
BRANCH  42  43
ATOM     43  S   UNL     1       8.021   9.886   6.572  1.00  0.00     0.124 S 
ATOM     44  O   UNL     1       7.275   8.710   7.015  1.00  0.00    -0.237 OA
ATOM     45  O   UNL     1       9.462   9.839   6.808  1.00  0.00    -0.237 OA
ATOM     46  O   UNL     1       7.388  11.171   6.856  1.00  0.00    -0.744 OA
ENDBRANCH  42  43
ENDBRANCH  23  37
BRANCH  24  47
ATOM     47  C   UNL     1       5.484   6.578  -7.383  1.00  0.00    -0.014 A 
ATOM     48  C   UNL     1       6.479   6.299  -8.338  1.00  0.00     0.010 A 
ATOM     49  C   UNL     1       4.133   6.474  -7.763  1.00  0.00     0.010 A 
ATOM     50  C   UNL     1       6.132   5.943  -9.648  1.00  0.00     0.020 A 
ATOM     51  C   UNL     1       3.781   6.101  -9.067  1.00  0.00     0.020 A 
ATOM     52  C   UNL     1       4.784   5.845 -10.004  1.00  0.00     0.054 A 
BRANCH  52  53
ATOM     53  S   UNL     1       4.363   5.336 -11.696  1.00  0.00     0.124 S 
ATOM     54  O   UNL     1       4.780   6.497 -12.477  1.00  0.00    -0.237 OA
ATOM     55  O   UNL     1       5.172   4.132 -11.871  1.00  0.00    -0.237 OA
ATOM     56  O   UNL     1       2.922   5.106 -11.637  1.00  0.00    -0.744 OA
ENDBRANCH  52  53
ENDBRANCH  24  47
BRANCH  36  57
ATOM     57  C   UNL     1       8.616  12.167  -4.587  1.00  0.00    -0.014 A 
ATOM     58  C   UNL     1       7.867  13.246  -5.083  1.00  0.00     0.010 A 
ATOM     59  C   UNL     1      10.020  12.262  -4.537  1.00  0.00     0.010 A 
ATOM     60  C   UNL     1       8.514  14.404  -5.522  1.00  0.00     0.020 A 
ATOM     61  C   UNL     1      10.667  13.427  -4.951  1.00  0.00     0.020 A 
ATOM     62  C   UNL     1       9.909  14.490  -5.445  1.00  0.00     0.054 A 
BRANCH  62  63
ATOM     63  S   UNL     1      10.716  16.040  -5.927  1.00  0.00     0.124 S 
ATOM     64  O   UNL     1      10.631  15.987  -7.383  1.00  0.00    -0.237 OA
ATOM     65  O   UNL     1       9.879  17.050  -5.284  1.00  0.00    -0.237 OA
ATOM     66  O   UNL     1      12.063  15.915  -5.375  1.00  0.00    -0.744 OA
ENDBRANCH  62  63
ENDBRANCH  36  57
ENDBRANCH  10  11
ENDBRANCH   3   5
ENDBRANCH   2   3
ENDBRANCH   1   2
BRANCH   1  67
ATOM     67  C   UNL     1       3.649  -1.573  -1.303  1.00  0.00     0.274 C 
BRANCH  67  68
ATOM     68  O   UNL     1       3.167  -0.254  -1.627  1.00  0.00    -0.462 OA
BRANCH  68  69
ATOM     69  C   UNL     1       1.840  -0.189  -1.946  1.00  0.00     0.315 C 
ATOM     70  O   UNL     1       1.055  -1.122  -1.799  1.00  0.00    -0.252 OA
BRANCH  69  71
ATOM     71  C   UNL     1       1.409   1.108  -2.601  1.00  0.00     0.167 C 
ATOM     72  C   UNL     1       2.264   1.359  -3.837  1.00  0.00     0.276 C 
ATOM     73  C   UNL     1       1.590   2.409  -1.827  1.00  0.00     0.094 C 
ATOM     74  N   UNL     1       2.072   2.765  -4.180  1.00  0.00    -0.345 N 
ATOM     75  C   UNL     1       1.631   3.452  -2.961  1.00  0.00     0.269 C 
ATOM     76  H   UNL     1       1.362   2.854  -4.907  1.00  0.00     0.346 HD
ATOM     77  H   UNL     1       2.937   3.174  -4.534  1.00  0.00     0.346 HD
BRANCH  73  78
ATOM     78  C   UNL     1       0.660   2.768  -0.678  1.00  0.00    -0.035 A 
ATOM     79  C   UNL     1       0.205   1.810   0.233  1.00  0.00     0.024 A 
ATOM     80  C   UNL     1       0.349   4.109  -0.387  1.00  0.00     0.024 A 
ATOM     81  C   UNL     1      -0.532   2.216   1.342  1.00  0.00     0.111 A 
ATOM     82  C   UNL     1      -0.405   4.418   0.739  1.00  0.00     0.111 A 
ATOM     83  N   UNL     1      -0.861   3.497   1.608  1.00  0.00    -0.265 NA
ENDBRANCH  73  78
ENDBRANCH  69  71
ENDBRANCH  68  69
ENDBRANCH  67  68
ENDBRANCH   1  67
TORSDOF 15
