REMARK SMILES CCC[NH2+][C@]1(C(=O)OCCOC(=O)c2ccc(-c3c4nc(c(-c5ccc(S(=O)(=O)[O-])cc5)c5ccc([nH]5)c(-c5ccc(S(=O)(=O)[O-])cc5)c5nc(c(-c6ccc(S(=O)(=O)[O-])cc6)c6ccc3[nH]6)C=C5)C=C4)cc2)CC[C@H](n2nc(C)c(CC)c2C)C1
REMARK SMILES IDX 9 1 8 2 6 3 7 4 5 5 74 6 86 7 75 8 76 9 4 10 3 13 2 14 1 15
REMARK SMILES IDX 77 16 78 17 84 18 79 19 81 20 85 21 80 22 82 23 83 24 10 25
REMARK SMILES IDX 11 26 12 27 13 28 14 29 15 30 73 31 16 32 72 33 17 34 18 35
REMARK SMILES IDX 19 36 66 37 20 38 71 39 65 40 67 41 21 42 70 43 64 44 63 45
REMARK SMILES IDX 22 47 52 48 33 49 51 50 34 51 37 52 50 53 68 54 35 55 36 56
REMARK SMILES IDX 49 58 69 59 38 60 23 61 24 62 32 63 25 64 31 65 26 66 27 67
REMARK SMILES IDX 28 68 29 69 30 70 53 71 54 72 62 73 55 74 61 75 56 76 57 77
REMARK SMILES IDX 58 78 59 79 60 80 39 81 40 82 48 83 41 84 47 85 42 86 43 87
REMARK SMILES IDX 44 88 45 89 46 90
REMARK H PARENT 4 11 4 12 67 46 37 57
REMARK Flexibility Score: inf
ROOT
ATOM      1  C   UNL     1      -0.941  -1.826   0.202  1.00  0.00     0.274 C 
ENDROOT
BRANCH   1   2
ATOM      2  O   UNL     1      -0.639  -2.582   1.392  1.00  0.00    -0.457 OA
BRANCH   2   3
ATOM      3  C   UNL     1       0.686  -2.656   1.709  1.00  0.00     0.368 C 
ATOM      4  O   UNL     1       1.588  -2.237   0.992  1.00  0.00    -0.245 OA
BRANCH   3   5
ATOM      5  C   UNL     1       0.921  -3.277   3.100  1.00  0.00     0.196 C 
ATOM      6  C   UNL     1       0.674  -4.788   3.123  1.00  0.00     0.083 C 
ATOM      7  C   UNL     1       2.444  -3.284   3.403  1.00  0.00     0.108 C 
ATOM      8  C   UNL     1       1.431  -5.268   4.365  1.00  0.00     0.034 C 
ATOM      9  C   UNL     1       2.640  -4.307   4.529  1.00  0.00     0.115 C 
BRANCH   5  10
ATOM     10  N   UNL     1       0.258  -2.510   4.176  1.00  0.00    -0.332 N 
ATOM     11  H   UNL     1       0.789  -2.676   5.030  1.00  0.00     0.347 HD
ATOM     12  H   UNL     1       0.247  -1.554   3.821  1.00  0.00     0.347 HD
BRANCH  10  13
ATOM     13  C   UNL     1      -1.139  -2.781   4.483  1.00  0.00     0.261 C 
BRANCH  13  14
ATOM     14  C   UNL     1      -1.491  -2.213   5.866  1.00  0.00     0.058 C 
ATOM     15  C   UNL     1      -1.475  -0.694   5.945  1.00  0.00     0.010 C 
ENDBRANCH  13  14
ENDBRANCH  10  13
ENDBRANCH   5  10
BRANCH   9  16
ATOM     16  N   UNL     1       2.837  -3.894   5.915  1.00  0.00    -0.266 N 
ATOM     17  N   UNL     1       3.082  -4.918   6.775  1.00  0.00    -0.178 NA
ATOM     18  C   UNL     1       2.932  -2.672   6.547  1.00  0.00     0.039 A 
ATOM     19  C   UNL     1       3.318  -4.341   7.955  1.00  0.00     0.063 A 
ATOM     20  C   UNL     1       3.230  -2.936   7.876  1.00  0.00    -0.004 A 
ATOM     21  C   UNL     1       2.793  -1.319   5.965  1.00  0.00     0.066 C 
ATOM     22  C   UNL     1       3.637  -5.182   9.133  1.00  0.00     0.069 C 
BRANCH  20  23
ATOM     23  C   UNL     1       3.428  -1.929   8.965  1.00  0.00     0.036 C 
ATOM     24  C   UNL     1       2.150  -1.673   9.749  1.00  0.00     0.009 C 
ENDBRANCH  20  23
ENDBRANCH   9  16
ENDBRANCH   3   5
ENDBRANCH   2   3
ENDBRANCH   1   2
BRANCH   1  25
ATOM     25  C   UNL     1      -1.372  -0.408   0.572  1.00  0.00     0.275 C 
BRANCH  25  26
ATOM     26  O   UNL     1      -0.327   0.233   1.324  1.00  0.00    -0.458 OA
BRANCH  26  27
ATOM     27  C   UNL     1      -0.722   0.928   2.417  1.00  0.00     0.338 C 
ATOM     28  O   UNL     1      -1.869   1.107   2.789  1.00  0.00    -0.246 OA
BRANCH  27  29
ATOM     29  C   UNL     1       0.460   1.469   3.131  1.00  0.00     0.060 A 
ATOM     30  C   UNL     1       1.681   0.794   3.136  1.00  0.00     0.016 A 
ATOM     31  C   UNL     1       0.327   2.656   3.857  1.00  0.00     0.016 A 
ATOM     32  C   UNL     1       2.746   1.285   3.894  1.00  0.00     0.010 A 
ATOM     33  C   UNL     1       1.425   3.186   4.547  1.00  0.00     0.010 A 
ATOM     34  C   UNL     1       2.651   2.503   4.585  1.00  0.00    -0.014 A 
BRANCH  34  35
ATOM     35  C   UNL     1       3.830   3.085   5.296  1.00  0.00     0.031 A 
ATOM     36  C   UNL     1       3.744   3.493   6.747  1.00  0.00     0.074 A 
ATOM     37  C   UNL     1       4.987   3.292   4.630  1.00  0.00     0.049 A 
ATOM     38  N   UNL     1       4.573   4.226   7.448  1.00  0.00    -0.248 NA
ATOM     39  C   UNL     1       2.572   3.028   7.506  1.00  0.00     0.031 C 
ATOM     40  C   UNL     1       5.245   2.920   3.236  1.00  0.00     0.029 A 
ATOM     41  N   UNL     1       6.166   3.872   5.035  1.00  0.00    -0.354 N 
ATOM     42  C   UNL     1       3.997   4.364   8.707  1.00  0.00     0.074 A 
ATOM     43  C   UNL     1       2.751   3.626   8.678  1.00  0.00     0.031 C 
ATOM     44  C   UNL     1       6.507   3.236   2.918  1.00  0.00     0.029 A 
ATOM     45  C   UNL     1       7.114   3.940   4.040  1.00  0.00     0.049 A 
ATOM     46  H   UNL     1       6.317   4.205   5.948  1.00  0.00     0.167 HD
ATOM     47  C   UNL     1       4.457   5.052   9.781  1.00  0.00     0.031 A 
ATOM     48  C   UNL     1       8.312   4.555   3.992  1.00  0.00     0.031 A 
ATOM     49  C   UNL     1       5.717   5.752   9.821  1.00  0.00     0.049 A 
ATOM     50  C   UNL     1       8.775   5.359   5.169  1.00  0.00     0.074 A 
ATOM     51  C   UNL     1       6.278   6.452  10.877  1.00  0.00     0.029 A 
ATOM     52  N   UNL     1       6.614   5.836   8.768  1.00  0.00    -0.354 N 
ATOM     53  N   UNL     1       8.187   5.529   6.328  1.00  0.00    -0.248 NA
ATOM     54  C   UNL     1      10.044   6.085   5.018  1.00  0.00     0.031 C 
ATOM     55  C   UNL     1       7.492   6.998  10.447  1.00  0.00     0.029 A 
ATOM     56  C   UNL     1       7.709   6.600   9.138  1.00  0.00     0.049 A 
ATOM     57  H   UNL     1       6.491   5.415   7.887  1.00  0.00     0.167 HD
ATOM     58  C   UNL     1       9.009   6.393   7.041  1.00  0.00     0.074 A 
ATOM     59  C   UNL     1      10.149   6.685   6.196  1.00  0.00     0.031 C 
ATOM     60  C   UNL     1       8.826   6.904   8.282  1.00  0.00     0.031 A 
BRANCH  47  61
ATOM     61  C   UNL     1       3.576   5.131  11.000  1.00  0.00    -0.014 A 
ATOM     62  C   UNL     1       3.431   4.044  11.878  1.00  0.00     0.010 A 
ATOM     63  C   UNL     1       2.939   6.349  11.308  1.00  0.00     0.010 A 
ATOM     64  C   UNL     1       2.642   4.164  13.027  1.00  0.00     0.020 A 
ATOM     65  C   UNL     1       2.167   6.480  12.466  1.00  0.00     0.020 A 
ATOM     66  C   UNL     1       2.011   5.380  13.311  1.00  0.00     0.054 A 
BRANCH  66  67
ATOM     67  S   UNL     1       1.016   5.520  14.823  1.00  0.00     0.124 S 
ATOM     68  O   UNL     1      -0.193   4.788  14.455  1.00  0.00    -0.237 OA
ATOM     69  O   UNL     1       1.860   4.873  15.825  1.00  0.00    -0.237 OA
ATOM     70  O   UNL     1       0.845   6.960  14.994  1.00  0.00    -0.744 OA
ENDBRANCH  66  67
ENDBRANCH  47  61
BRANCH  48  71
ATOM     71  C   UNL     1       9.108   4.502   2.737  1.00  0.00    -0.014 A 
ATOM     72  C   UNL     1      10.278   3.728   2.662  1.00  0.00     0.010 A 
ATOM     73  C   UNL     1       8.662   5.184   1.589  1.00  0.00     0.010 A 
ATOM     74  C   UNL     1      10.980   3.627   1.457  1.00  0.00     0.020 A 
ATOM     75  C   UNL     1       9.344   5.062   0.377  1.00  0.00     0.020 A 
ATOM     76  C   UNL     1      10.503   4.287   0.320  1.00  0.00     0.054 A 
BRANCH  76  77
ATOM     77  S   UNL     1      11.367   4.063  -1.260  1.00  0.00     0.124 S 
ATOM     78  O   UNL     1      12.485   4.990  -1.128  1.00  0.00    -0.237 OA
ATOM     79  O   UNL     1      11.714   2.644  -1.237  1.00  0.00    -0.237 OA
ATOM     80  O   UNL     1      10.358   4.431  -2.252  1.00  0.00    -0.744 OA
ENDBRANCH  76  77
ENDBRANCH  48  71
BRANCH  60  81
ATOM     81  C   UNL     1       9.881   7.841   8.799  1.00  0.00    -0.014 A 
ATOM     82  C   UNL     1       9.942   9.171   8.347  1.00  0.00     0.010 A 
ATOM     83  C   UNL     1      10.792   7.402   9.776  1.00  0.00     0.010 A 
ATOM     84  C   UNL     1      10.912  10.043   8.849  1.00  0.00     0.020 A 
ATOM     85  C   UNL     1      11.751   8.277  10.295  1.00  0.00     0.020 A 
ATOM     86  C   UNL     1      11.811   9.589   9.819  1.00  0.00     0.054 A 
BRANCH  86  87
ATOM     87  S   UNL     1      13.032  10.752  10.490  1.00  0.00     0.124 S 
ATOM     88  O   UNL     1      14.004  10.832   9.403  1.00  0.00    -0.237 OA
ATOM     89  O   UNL     1      12.239  11.958  10.714  1.00  0.00    -0.237 OA
ATOM     90  O   UNL     1      13.507  10.092  11.704  1.00  0.00    -0.744 OA
ENDBRANCH  86  87
ENDBRANCH  60  81
ENDBRANCH  34  35
ENDBRANCH  27  29
ENDBRANCH  26  27
ENDBRANCH  25  26
ENDBRANCH   1  25
TORSDOF 19
