REMARK SMILES CC[C@]1(C(=O)OCCOC(=O)c2ccc(-c3c4nc(c(-c5ccc(S(=O)(=O)[O-])cc5)c5ccc([nH]5)c(-c5ccc(S(=O)(=O)[O-])cc5)c5nc(c(-c6ccc(S(=O)(=O)[O-])cc6)c6ccc3[nH]6)C=C5)C=C4)cc2)CCN(C(=O)[C@]2(C)CCCO2)C1
REMARK SMILES IDX 8 1 7 2 6 3 4 4 5 5 3 6 72 7 83 8 73 9 74 10 2 11 1 12 75 13
REMARK SMILES IDX 76 14 77 15 79 16 82 17 78 18 80 19 81 20 9 21 10 22 11 23
REMARK SMILES IDX 12 24 13 25 71 26 14 27 70 28 15 29 16 30 17 31 64 32 18 33
REMARK SMILES IDX 69 34 63 35 65 36 19 37 68 38 62 39 61 40 20 42 50 43 31 44
REMARK SMILES IDX 49 45 32 46 35 47 48 48 66 49 33 50 34 51 47 53 67 54 36 55
REMARK SMILES IDX 21 56 22 57 30 58 23 59 29 60 24 61 25 62 26 63 27 64 28 65
REMARK SMILES IDX 51 66 52 67 60 68 53 69 59 70 54 71 55 72 56 73 57 74 58 75
REMARK SMILES IDX 37 76 38 77 46 78 39 79 45 80 40 81 41 82 42 83 43 84 44 85
REMARK H PARENT 65 41 35 52
REMARK Flexibility Score: inf
ROOT
ATOM      1  C   UNL     1       7.814 -11.422  -5.224  1.00  0.00     0.275 C 
ENDROOT
BRANCH   1   2
ATOM      2  C   UNL     1       6.523 -11.114  -4.475  1.00  0.00     0.274 C 
BRANCH   2   3
ATOM      3  O   UNL     1       6.785 -10.157  -3.427  1.00  0.00    -0.462 OA
BRANCH   3   4
ATOM      4  C   UNL     1       6.660 -10.592  -2.145  1.00  0.00     0.314 C 
ATOM      5  O   UNL     1       6.358 -11.737  -1.832  1.00  0.00    -0.252 OA
BRANCH   4   6
ATOM      6  C   UNL     1       6.853  -9.477  -1.122  1.00  0.00     0.087 C 
ATOM      7  C   UNL     1       7.265  -8.116  -1.714  1.00  0.00     0.042 C 
ATOM      8  C   UNL     1       5.427  -9.171  -0.603  1.00  0.00     0.138 C 
ATOM      9  C   UNL     1       6.669  -7.137  -0.726  1.00  0.00     0.121 C 
ATOM     10  N   UNL     1       5.373  -7.721  -0.457  1.00  0.00    -0.339 N 
BRANCH   6  11
ATOM     11  C   UNL     1       7.767  -9.929   0.056  1.00  0.00     0.017 C 
ATOM     12  C   UNL     1       9.225  -9.481  -0.023  1.00  0.00     0.005 C 
ENDBRANCH   6  11
BRANCH  10  13
ATOM     13  C   UNL     1       4.186  -7.085  -0.164  1.00  0.00     0.254 C 
ATOM     14  O   UNL     1       3.153  -7.745   0.000  1.00  0.00    -0.272 OA
BRANCH  13  15
ATOM     15  C   UNL     1       4.148  -5.528  -0.152  1.00  0.00     0.144 C 
ATOM     16  C   UNL     1       4.203  -4.963  -1.579  1.00  0.00     0.048 C 
ATOM     17  O   UNL     1       5.245  -4.945   0.567  1.00  0.00    -0.365 OA
ATOM     18  C   UNL     1       2.856  -5.071   0.542  1.00  0.00     0.053 C 
ATOM     19  C   UNL     1       5.316  -3.937  -1.569  1.00  0.00     0.032 C 
ATOM     20  C   UNL     1       5.655  -3.755  -0.108  1.00  0.00     0.162 C 
ENDBRANCH  13  15
ENDBRANCH  10  13
ENDBRANCH   4   6
ENDBRANCH   3   4
ENDBRANCH   2   3
ENDBRANCH   1   2
BRANCH   1  21
ATOM     21  O   UNL     1       8.735 -12.028  -4.303  1.00  0.00    -0.458 OA
BRANCH  21  22
ATOM     22  C   UNL     1       9.906 -11.386  -4.109  1.00  0.00     0.338 C 
ATOM     23  O   UNL     1      10.345 -10.434  -4.744  1.00  0.00    -0.246 OA
BRANCH  22  24
ATOM     24  C   UNL     1      10.594 -11.980  -2.949  1.00  0.00     0.060 A 
ATOM     25  C   UNL     1       9.873 -12.265  -1.790  1.00  0.00     0.016 A 
ATOM     26  C   UNL     1      11.975 -12.164  -2.968  1.00  0.00     0.016 A 
ATOM     27  C   UNL     1      10.537 -12.648  -0.628  1.00  0.00     0.010 A 
ATOM     28  C   UNL     1      12.620 -12.673  -1.834  1.00  0.00     0.010 A 
ATOM     29  C   UNL     1      11.913 -12.906  -0.640  1.00  0.00    -0.014 A 
BRANCH  29  30
ATOM     30  C   UNL     1      12.601 -13.434   0.575  1.00  0.00     0.031 A 
ATOM     31  C   UNL     1      13.838 -12.759   1.109  1.00  0.00     0.074 A 
ATOM     32  C   UNL     1      12.133 -14.536   1.200  1.00  0.00     0.049 A 
ATOM     33  N   UNL     1      14.722 -13.215   1.960  1.00  0.00    -0.248 NA
ATOM     34  C   UNL     1      14.129 -11.404   0.612  1.00  0.00     0.031 C 
ATOM     35  C   UNL     1      10.916 -15.272   0.845  1.00  0.00     0.029 A 
ATOM     36  N   UNL     1      12.630 -15.233   2.276  1.00  0.00    -0.354 N 
ATOM     37  C   UNL     1      15.712 -12.241   2.039  1.00  0.00     0.074 A 
ATOM     38  C   UNL     1      15.309 -11.159   1.167  1.00  0.00     0.031 C 
ATOM     39  C   UNL     1      10.733 -16.276   1.713  1.00  0.00     0.029 A 
ATOM     40  C   UNL     1      11.883 -16.340   2.605  1.00  0.00     0.049 A 
ATOM     41  H   UNL     1      13.443 -14.967   2.763  1.00  0.00     0.167 HD
ATOM     42  C   UNL     1      16.858 -12.259   2.763  1.00  0.00     0.031 A 
ATOM     43  C   UNL     1      12.117 -17.346   3.469  1.00  0.00     0.031 A 
ATOM     44  C   UNL     1      17.224 -13.315   3.671  1.00  0.00     0.049 A 
ATOM     45  C   UNL     1      13.414 -17.375   4.220  1.00  0.00     0.074 A 
ATOM     46  C   UNL     1      18.357 -13.417   4.460  1.00  0.00     0.029 A 
ATOM     47  N   UNL     1      16.458 -14.442   3.925  1.00  0.00    -0.354 N 
ATOM     48  N   UNL     1      14.386 -16.496   4.211  1.00  0.00    -0.248 NA
ATOM     49  C   UNL     1      13.664 -18.552   5.062  1.00  0.00     0.031 C 
ATOM     50  C   UNL     1      18.294 -14.626   5.163  1.00  0.00     0.029 A 
ATOM     51  C   UNL     1      17.102 -15.255   4.842  1.00  0.00     0.049 A 
ATOM     52  H   UNL     1      15.585 -14.636   3.513  1.00  0.00     0.167 HD
ATOM     53  C   UNL     1      15.372 -17.020   5.035  1.00  0.00     0.074 A 
ATOM     54  C   UNL     1      14.867 -18.278   5.549  1.00  0.00     0.031 C 
ATOM     55  C   UNL     1      16.593 -16.512   5.327  1.00  0.00     0.031 A 
BRANCH  42  56
ATOM     56  C   UNL     1      17.832 -11.129   2.562  1.00  0.00    -0.014 A 
ATOM     57  C   UNL     1      17.614  -9.857   3.116  1.00  0.00     0.010 A 
ATOM     58  C   UNL     1      19.019 -11.370   1.843  1.00  0.00     0.010 A 
ATOM     59  C   UNL     1      18.551  -8.835   2.927  1.00  0.00     0.020 A 
ATOM     60  C   UNL     1      19.967 -10.358   1.670  1.00  0.00     0.020 A 
ATOM     61  C   UNL     1      19.719  -9.091   2.200  1.00  0.00     0.054 A 
BRANCH  61  62
ATOM     62  S   UNL     1      20.930  -7.756   1.988  1.00  0.00     0.124 S 
ATOM     63  O   UNL     1      20.295  -6.936   0.959  1.00  0.00    -0.237 OA
ATOM     64  O   UNL     1      20.989  -7.157   3.319  1.00  0.00    -0.237 OA
ATOM     65  O   UNL     1      22.143  -8.453   1.568  1.00  0.00    -0.744 OA
ENDBRANCH  61  62
ENDBRANCH  42  56
BRANCH  43  66
ATOM     66  C   UNL     1      11.136 -18.459   3.579  1.00  0.00    -0.014 A 
ATOM     67  C   UNL     1      10.331 -18.592   4.722  1.00  0.00     0.010 A 
ATOM     68  C   UNL     1      10.964 -19.358   2.509  1.00  0.00     0.010 A 
ATOM     69  C   UNL     1       9.361 -19.597   4.787  1.00  0.00     0.020 A 
ATOM     70  C   UNL     1       9.977 -20.345   2.559  1.00  0.00     0.020 A 
ATOM     71  C   UNL     1       9.185 -20.462   3.702  1.00  0.00     0.054 A 
BRANCH  71  72
ATOM     72  S   UNL     1       7.856 -21.696   3.759  1.00  0.00     0.124 S 
ATOM     73  O   UNL     1       8.465 -22.759   4.551  1.00  0.00    -0.237 OA
ATOM     74  O   UNL     1       6.768 -20.967   4.407  1.00  0.00    -0.237 OA
ATOM     75  O   UNL     1       7.628 -22.013   2.351  1.00  0.00    -0.744 OA
ENDBRANCH  71  72
ENDBRANCH  43  66
BRANCH  55  76
ATOM     76  C   UNL     1      17.467 -17.319   6.244  1.00  0.00    -0.014 A 
ATOM     77  C   UNL     1      18.155 -18.447   5.766  1.00  0.00     0.010 A 
ATOM     78  C   UNL     1      17.634 -16.922   7.582  1.00  0.00     0.010 A 
ATOM     79  C   UNL     1      18.984 -19.180   6.620  1.00  0.00     0.020 A 
ATOM     80  C   UNL     1      18.476 -17.641   8.433  1.00  0.00     0.020 A 
ATOM     81  C   UNL     1      19.137 -18.773   7.949  1.00  0.00     0.054 A 
BRANCH  81  82
ATOM     82  S   UNL     1      20.253 -19.712   9.027  1.00  0.00     0.124 S 
ATOM     83  O   UNL     1      19.452 -20.892   9.338  1.00  0.00    -0.237 OA
ATOM     84  O   UNL     1      21.411 -19.946   8.168  1.00  0.00    -0.237 OA
ATOM     85  O   UNL     1      20.491 -18.806  10.149  1.00  0.00    -0.744 OA
ENDBRANCH  81  82
ENDBRANCH  55  76
ENDBRANCH  29  30
ENDBRANCH  22  24
ENDBRANCH  21  22
ENDBRANCH   1  21
TORSDOF 17
