REMARK SMILES C[C@]1(C(=O)N2CCC(CC(=O)OCCOC(=O)c3ccc(-c4c5nc(c(-c6ccc(S(=O)(=O)[O-])cc6)c6ccc([nH]6)c(-c6ccc(S(=O)(=O)[O-])cc6)c6nc(c(-c7ccc(S(=O)(=O)[O-])cc7)c7ccc4[nH]7)C=C6)C=C5)cc3)CC2)CCC[NH2+]C1
REMARK SMILES IDX 14 1 13 2 12 3 10 4 11 5 9 6 8 7 3 8 4 9 5 10 6 11 79 12
REMARK SMILES IDX 7 13 78 14 2 15 1 16 80 17 84 18 81 19 83 20 82 21 15 24
REMARK SMILES IDX 16 25 17 26 18 27 19 28 77 29 20 30 76 31 21 32 22 33 23 34
REMARK SMILES IDX 70 35 24 36 75 37 69 38 71 39 25 40 74 41 68 42 67 43 26 45
REMARK SMILES IDX 56 46 37 47 55 48 38 49 41 50 54 51 72 52 39 53 40 54 53 56
REMARK SMILES IDX 73 57 42 58 27 59 28 60 36 61 29 62 35 63 30 64 31 65 32 66
REMARK SMILES IDX 33 67 34 68 57 69 58 70 66 71 59 72 65 73 60 74 61 75 62 76
REMARK SMILES IDX 63 77 64 78 43 79 44 80 52 81 45 82 51 83 46 84 47 85 48 86
REMARK SMILES IDX 49 87 50 88
REMARK H PARENT 83 22 83 23 71 44 41 55
REMARK Flexibility Score: inf
ROOT
ATOM      1  C   UNL     1       7.050   5.202  -1.705  1.00  0.00     0.275 C 
ENDROOT
BRANCH   1   2
ATOM      2  C   UNL     1       6.666   4.303  -2.881  1.00  0.00     0.274 C 
BRANCH   2   3
ATOM      3  O   UNL     1       5.936   3.155  -2.417  1.00  0.00    -0.462 OA
BRANCH   3   4
ATOM      4  C   UNL     1       6.663   2.031  -2.204  1.00  0.00     0.306 C 
ATOM      5  O   UNL     1       7.844   1.893  -2.497  1.00  0.00    -0.252 OA
BRANCH   4   6
ATOM      6  C   UNL     1       5.834   0.913  -1.620  1.00  0.00     0.126 C 
BRANCH   6   7
ATOM      7  C   UNL     1       4.901   1.276  -0.439  1.00  0.00     0.003 C 
ATOM      8  C   UNL     1       0.968  -0.025   0.076  1.00  0.00     0.234 C 
ATOM      9  O   UNL     1       0.391  -0.430   1.092  1.00  0.00    -0.274 OA
ATOM     10  N   UNL     1       2.193   0.591   0.174  1.00  0.00    -0.342 N 
ATOM     11  C   UNL     1       3.199   0.034   1.054  1.00  0.00     0.120 C 
ATOM     12  C   UNL     1       2.413   1.983  -0.146  1.00  0.00     0.120 C 
ATOM     13  C   UNL     1       4.506  -0.041   0.281  1.00  0.00     0.026 C 
ATOM     14  C   UNL     1       3.715   2.156  -0.914  1.00  0.00     0.026 C 
BRANCH   8  15
ATOM     15  C   UNL     1       0.398  -0.350  -1.333  1.00  0.00     0.095 C 
ATOM     16  C   UNL     1      -1.061   0.154  -1.327  1.00  0.00     0.028 C 
ATOM     17  C   UNL     1       1.091   0.231  -2.584  1.00  0.00     0.028 C 
ATOM     18  C   UNL     1       0.391  -1.899  -1.456  1.00  0.00     0.277 C 
ATOM     19  C   UNL     1       2.402  -0.466  -2.943  1.00  0.00     0.063 C 
ATOM     20  N   UNL     1       1.721  -2.469  -1.713  1.00  0.00    -0.345 N 
ATOM     21  C   UNL     1       2.277  -1.981  -2.968  1.00  0.00     0.260 C 
ATOM     22  H   UNL     1       2.346  -2.208  -0.950  1.00  0.00     0.346 HD
ATOM     23  H   UNL     1       1.628  -3.482  -1.777  1.00  0.00     0.346 HD
ENDBRANCH   8  15
ENDBRANCH   6   7
ENDBRANCH   4   6
ENDBRANCH   3   4
ENDBRANCH   2   3
ENDBRANCH   1   2
BRANCH   1  24
ATOM     24  O   UNL     1       8.016   4.552  -0.859  1.00  0.00    -0.458 OA
BRANCH  24  25
ATOM     25  C   UNL     1       7.548   4.057   0.311  1.00  0.00     0.338 C 
ATOM     26  O   UNL     1       6.419   4.148   0.758  1.00  0.00    -0.246 OA
BRANCH  25  27
ATOM     27  C   UNL     1       8.625   3.292   0.956  1.00  0.00     0.060 A 
ATOM     28  C   UNL     1       8.669   1.904   0.799  1.00  0.00     0.016 A 
ATOM     29  C   UNL     1       9.576   3.948   1.736  1.00  0.00     0.016 A 
ATOM     30  C   UNL     1       9.684   1.164   1.401  1.00  0.00     0.010 A 
ATOM     31  C   UNL     1      10.601   3.207   2.329  1.00  0.00     0.010 A 
ATOM     32  C   UNL     1      10.666   1.812   2.158  1.00  0.00    -0.014 A 
BRANCH  32  33
ATOM     33  C   UNL     1      11.784   1.045   2.756  1.00  0.00     0.031 A 
ATOM     34  C   UNL     1      11.844   0.833   4.239  1.00  0.00     0.074 A 
ATOM     35  C   UNL     1      12.763   0.573   1.960  1.00  0.00     0.049 A 
ATOM     36  N   UNL     1      12.807   0.322   4.959  1.00  0.00    -0.248 NA
ATOM     37  C   UNL     1      10.665   1.252   5.013  1.00  0.00     0.031 C 
ATOM     38  C   UNL     1      12.788   0.675   0.499  1.00  0.00     0.029 A 
ATOM     39  N   UNL     1      13.933  -0.072   2.271  1.00  0.00    -0.354 N 
ATOM     40  C   UNL     1      12.365   0.376   6.275  1.00  0.00     0.074 A 
ATOM     41  C   UNL     1      11.049   0.980   6.254  1.00  0.00     0.031 C 
ATOM     42  C   UNL     1      13.921   0.118   0.042  1.00  0.00     0.029 A 
ATOM     43  C   UNL     1      14.726  -0.324   1.177  1.00  0.00     0.049 A 
ATOM     44  H   UNL     1      14.181  -0.330   3.188  1.00  0.00     0.167 HD
ATOM     45  C   UNL     1      13.002  -0.038   7.396  1.00  0.00     0.031 A 
ATOM     46  C   UNL     1      15.979  -0.813   1.098  1.00  0.00     0.031 A 
ATOM     47  C   UNL     1      14.315  -0.627   7.407  1.00  0.00     0.049 A 
ATOM     48  C   UNL     1      16.707  -1.168   2.364  1.00  0.00     0.074 A 
ATOM     49  C   UNL     1      15.039  -1.099   8.488  1.00  0.00     0.029 A 
ATOM     50  N   UNL     1      15.107  -0.814   6.284  1.00  0.00    -0.354 N 
ATOM     51  N   UNL     1      16.275  -1.117   3.602  1.00  0.00    -0.248 NA
ATOM     52  C   UNL     1      18.095  -1.629   2.226  1.00  0.00     0.031 C 
ATOM     53  C   UNL     1      16.291  -1.518   8.025  1.00  0.00     0.029 A 
ATOM     54  C   UNL     1      16.328  -1.356   6.649  1.00  0.00     0.049 A 
ATOM     55  H   UNL     1      14.841  -0.594   5.362  1.00  0.00     0.167 HD
ATOM     56  C   UNL     1      17.337  -1.545   4.391  1.00  0.00     0.074 A 
ATOM     57  C   UNL     1      18.424  -1.869   3.489  1.00  0.00     0.031 C 
ATOM     58  C   UNL     1      17.405  -1.656   5.740  1.00  0.00     0.031 A 
BRANCH  45  59
ATOM     59  C   UNL     1      12.302   0.176   8.711  1.00  0.00    -0.014 A 
ATOM     60  C   UNL     1      11.199  -0.611   9.088  1.00  0.00     0.010 A 
ATOM     61  C   UNL     1      12.775   1.162   9.596  1.00  0.00     0.010 A 
ATOM     62  C   UNL     1      10.557  -0.388  10.309  1.00  0.00     0.020 A 
ATOM     63  C   UNL     1      12.149   1.373  10.828  1.00  0.00     0.020 A 
ATOM     64  C   UNL     1      11.032   0.608  11.168  1.00  0.00     0.054 A 
BRANCH  64  65
ATOM     65  S   UNL     1      10.185   0.874  12.750  1.00  0.00     0.124 S 
ATOM     66  O   UNL     1       8.962   1.552  12.326  1.00  0.00    -0.237 OA
ATOM     67  O   UNL     1      10.006  -0.486  13.252  1.00  0.00    -0.237 OA
ATOM     68  O   UNL     1      11.121   1.697  13.512  1.00  0.00    -0.744 OA
ENDBRANCH  64  65
ENDBRANCH  45  59
BRANCH  46  69
ATOM     69  C   UNL     1      16.639  -0.941  -0.229  1.00  0.00    -0.014 A 
ATOM     70  C   UNL     1      16.868  -2.206  -0.794  1.00  0.00     0.010 A 
ATOM     71  C   UNL     1      17.016   0.209  -0.948  1.00  0.00     0.010 A 
ATOM     72  C   UNL     1      17.463  -2.320  -2.055  1.00  0.00     0.020 A 
ATOM     73  C   UNL     1      17.587   0.101  -2.218  1.00  0.00     0.020 A 
ATOM     74  C   UNL     1      17.815  -1.165  -2.761  1.00  0.00     0.054 A 
BRANCH  74  75
ATOM     75  S   UNL     1      18.519  -1.334  -4.425  1.00  0.00     0.124 S 
ATOM     76  O   UNL     1      19.884  -1.761  -4.134  1.00  0.00    -0.237 OA
ATOM     77  O   UNL     1      17.656  -2.343  -5.034  1.00  0.00    -0.237 OA
ATOM     78  O   UNL     1      18.388   0.008  -4.988  1.00  0.00    -0.744 OA
ENDBRANCH  74  75
ENDBRANCH  46  69
BRANCH  58  79
ATOM     79  C   UNL     1      18.700  -2.146   6.328  1.00  0.00    -0.014 A 
ATOM     80  C   UNL     1      19.819  -1.300   6.408  1.00  0.00     0.010 A 
ATOM     81  C   UNL     1      18.777  -3.442   6.869  1.00  0.00     0.010 A 
ATOM     82  C   UNL     1      20.999  -1.746   7.008  1.00  0.00     0.020 A 
ATOM     83  C   UNL     1      19.948  -3.884   7.490  1.00  0.00     0.020 A 
ATOM     84  C   UNL     1      21.055  -3.034   7.548  1.00  0.00     0.054 A 
BRANCH  84  85
ATOM     85  S   UNL     1      22.576  -3.566   8.382  1.00  0.00     0.124 S 
ATOM     86  O   UNL     1      23.474  -3.804   7.255  1.00  0.00    -0.237 OA
ATOM     87  O   UNL     1      22.906  -2.412   9.215  1.00  0.00    -0.237 OA
ATOM     88  O   UNL     1      22.169  -4.761   9.117  1.00  0.00    -0.744 OA
ENDBRANCH  84  85
ENDBRANCH  58  79
ENDBRANCH  32  33
ENDBRANCH  25  27
ENDBRANCH  24  25
ENDBRANCH   1  24
TORSDOF 16
