REMARK SMILES COc1ccc(/C=C(\NC(=O)c2ccccc2Br)C(=O)OCCOC(=O)c2ccc(-c3c4nc(c(-c5ccc(S(=O)(=O)[O-])cc5)c5ccc([nH]5)c(-c5ccc(S(=O)(=O)[O-])cc5)c5nc(c(-c6ccc(S(=O)(=O)[O-])cc6)c6ccc3[nH]6)C=C5)C=C4)cc2)cc1
REMARK SMILES IDX 23 1 22 2 21 3 19 4 20 5 8 6 7 7 6 8 3 9 4 10 88 11 5 12
REMARK SMILES IDX 87 13 2 14 1 15 9 16 10 17 11 19 12 20 13 21 17 22 14 23
REMARK SMILES IDX 16 24 18 25 15 26 24 27 25 28 26 29 27 30 28 31 86 32 29 33
REMARK SMILES IDX 85 34 30 35 31 36 32 37 79 38 33 39 84 40 78 41 80 42 34 43
REMARK SMILES IDX 83 44 77 45 76 46 35 48 65 49 46 50 64 51 47 52 50 53 63 54
REMARK SMILES IDX 81 55 48 56 49 57 62 59 82 60 51 61 36 62 37 63 45 64 38 65
REMARK SMILES IDX 44 66 39 67 40 68 41 69 42 70 43 71 66 72 67 73 75 74 68 75
REMARK SMILES IDX 74 76 69 77 70 78 71 79 72 80 73 81 52 82 53 83 61 84 54 85
REMARK SMILES IDX 60 86 55 87 56 88 57 89 58 90 59 91
REMARK H PARENT 9 18 80 47 50 58
REMARK Flexibility Score: inf
ROOT
ATOM      1  C   UNL     1       1.912  -3.840  10.785  1.00  0.00     0.275 C 
ENDROOT
BRANCH   1   2
ATOM      2  C   UNL     1       1.700  -2.327  10.719  1.00  0.00     0.275 C 
BRANCH   2   3
ATOM      3  O   UNL     1       1.036  -1.942   9.494  1.00  0.00    -0.457 OA
BRANCH   3   4
ATOM      4  C   UNL     1       1.576  -0.898   8.811  1.00  0.00     0.354 C 
ATOM      5  O   UNL     1       2.615  -0.323   9.104  1.00  0.00    -0.244 OA
BRANCH   4   6
ATOM      6  C   UNL     1       0.778  -0.589   7.571  1.00  0.00     0.128 C 
ATOM      7  C   UNL     1       1.539  -0.409   6.467  1.00  0.00     0.042 C 
BRANCH   7   8
ATOM      8  C   UNL     1       1.196  -0.178   5.046  1.00  0.00    -0.023 A 
ATOM      9  C   UNL     1       0.748   0.222   2.272  1.00  0.00     0.118 A 
ATOM     10  C   UNL     1      -0.137   0.731   3.226  1.00  0.00     0.047 A 
ATOM     11  C   UNL     1       1.876  -0.465   2.706  1.00  0.00     0.047 A 
ATOM     12  C   UNL     1       0.092   0.552   4.599  1.00  0.00     0.012 A 
ATOM     13  C   UNL     1       2.093  -0.663   4.077  1.00  0.00     0.012 A 
BRANCH   9  14
ATOM     14  O   UNL     1       0.411   0.479   0.972  1.00  0.00    -0.497 OA
ATOM     15  C   UNL     1       1.214  -0.133  -0.032  1.00  0.00     0.278 C 
ENDBRANCH   9  14
ENDBRANCH   7   8
BRANCH   6  16
ATOM     16  N   UNL     1      -0.598  -0.519   7.539  1.00  0.00    -0.316 N 
ATOM     17  C   UNL     1      -1.571  -0.363   8.498  1.00  0.00     0.257 C 
ATOM     18  H   UNL     1      -0.966  -0.599   6.629  1.00  0.00     0.170 HD
ATOM     19  O   UNL     1      -2.754  -0.328   8.151  1.00  0.00    -0.269 OA
BRANCH  17  20
ATOM     20  C   UNL     1      -1.290  -0.255   9.940  1.00  0.00     0.054 A 
ATOM     21  C   UNL     1      -1.883  -1.243  10.745  1.00  0.00     0.015 A 
ATOM     22  C   UNL     1      -0.551   0.772  10.537  1.00  0.00     0.030 A 
ATOM     23  C   UNL     1      -1.679  -1.250  12.124  1.00  0.00     0.001 A 
ATOM     24  C   UNL     1      -0.321   0.740  11.919  1.00  0.00     0.016 A 
ATOM     25  Br  UNL     1       0.107   2.270   9.577  1.00  0.00    -0.050 Br
ATOM     26  C   UNL     1      -0.879  -0.270  12.709  1.00  0.00     0.001 A 
ENDBRANCH  17  20
ENDBRANCH   6  16
ENDBRANCH   4   6
ENDBRANCH   3   4
ENDBRANCH   2   3
ENDBRANCH   1   2
BRANCH   1  27
ATOM     27  O   UNL     1       3.040  -4.204   9.977  1.00  0.00    -0.458 OA
BRANCH  27  28
ATOM     28  C   UNL     1       2.738  -4.449   8.683  1.00  0.00     0.338 C 
ATOM     29  O   UNL     1       1.633  -4.574   8.186  1.00  0.00    -0.246 OA
BRANCH  28  30
ATOM     30  C   UNL     1       3.965  -4.294   7.896  1.00  0.00     0.060 A 
ATOM     31  C   UNL     1       4.018  -3.199   7.034  1.00  0.00     0.016 A 
ATOM     32  C   UNL     1       5.011  -5.211   7.957  1.00  0.00     0.016 A 
ATOM     33  C   UNL     1       5.099  -3.028   6.184  1.00  0.00     0.010 A 
ATOM     34  C   UNL     1       6.104  -5.037   7.106  1.00  0.00     0.010 A 
ATOM     35  C   UNL     1       6.138  -3.963   6.195  1.00  0.00    -0.014 A 
BRANCH  35  36
ATOM     36  C   UNL     1       7.190  -3.896   5.156  1.00  0.00     0.031 A 
ATOM     37  C   UNL     1       7.208  -4.948   4.084  1.00  0.00     0.074 A 
ATOM     38  C   UNL     1       8.093  -2.899   5.158  1.00  0.00     0.049 A 
ATOM     39  N   UNL     1       8.125  -5.202   3.190  1.00  0.00    -0.248 NA
ATOM     40  C   UNL     1       6.040  -5.843   4.023  1.00  0.00     0.031 C 
ATOM     41  C   UNL     1       8.120  -1.781   6.103  1.00  0.00     0.029 A 
ATOM     42  N   UNL     1       9.168  -2.672   4.338  1.00  0.00    -0.354 N 
ATOM     43  C   UNL     1       7.678  -6.327   2.506  1.00  0.00     0.074 A 
ATOM     44  C   UNL     1       6.404  -6.698   3.079  1.00  0.00     0.031 C 
ATOM     45  C   UNL     1       9.164  -0.987   5.810  1.00  0.00     0.029 A 
ATOM     46  C   UNL     1       9.913  -1.577   4.704  1.00  0.00     0.049 A 
ATOM     47  H   UNL     1       9.386  -3.239   3.563  1.00  0.00     0.167 HD
ATOM     48  C   UNL     1       8.290  -6.995   1.500  1.00  0.00     0.031 A 
ATOM     49  C   UNL     1      11.092  -1.129   4.232  1.00  0.00     0.031 A 
ATOM     50  C   UNL     1       9.543  -6.589   0.924  1.00  0.00     0.049 A 
ATOM     51  C   UNL     1      11.763  -1.893   3.124  1.00  0.00     0.074 A 
ATOM     52  C   UNL     1      10.254  -7.180  -0.104  1.00  0.00     0.029 A 
ATOM     53  N   UNL     1      10.268  -5.475   1.325  1.00  0.00    -0.354 N 
ATOM     54  N   UNL     1      11.358  -2.985   2.516  1.00  0.00    -0.248 NA
ATOM     55  C   UNL     1      13.050  -1.375   2.645  1.00  0.00     0.031 C 
ATOM     56  C   UNL     1      11.428  -6.444  -0.300  1.00  0.00     0.029 A 
ATOM     57  C   UNL     1      11.424  -5.366   0.574  1.00  0.00     0.049 A 
ATOM     58  H   UNL     1       9.998  -4.853   2.039  1.00  0.00     0.167 HD
ATOM     59  C   UNL     1      12.338  -3.281   1.577  1.00  0.00     0.074 A 
ATOM     60  C   UNL     1      13.344  -2.241   1.683  1.00  0.00     0.031 C 
ATOM     61  C   UNL     1      12.406  -4.320   0.708  1.00  0.00     0.031 A 
BRANCH  48  62
ATOM     62  C   UNL     1       7.640  -8.263   1.014  1.00  0.00    -0.014 A 
ATOM     63  C   UNL     1       6.455  -8.247   0.258  1.00  0.00     0.010 A 
ATOM     64  C   UNL     1       8.233  -9.501   1.329  1.00  0.00     0.010 A 
ATOM     65  C   UNL     1       5.849  -9.446  -0.133  1.00  0.00     0.020 A 
ATOM     66  C   UNL     1       7.645 -10.700   0.918  1.00  0.00     0.020 A 
ATOM     67  C   UNL     1       6.444 -10.665   0.207  1.00  0.00     0.054 A 
BRANCH  67  68
ATOM     68  S   UNL     1       5.641 -12.207  -0.310  1.00  0.00     0.124 S 
ATOM     69  O   UNL     1       4.531 -12.299   0.635  1.00  0.00    -0.237 OA
ATOM     70  O   UNL     1       5.265 -11.927  -1.693  1.00  0.00    -0.237 OA
ATOM     71  O   UNL     1       6.685 -13.215  -0.144  1.00  0.00    -0.744 OA
ENDBRANCH  67  68
ENDBRANCH  48  62
BRANCH  49  72
ATOM     72  C   UNL     1      11.726   0.067   4.849  1.00  0.00    -0.014 A 
ATOM     73  C   UNL     1      11.788   1.289   4.158  1.00  0.00     0.010 A 
ATOM     74  C   UNL     1      12.232  -0.001   6.161  1.00  0.00     0.010 A 
ATOM     75  C   UNL     1      12.340   2.420   4.768  1.00  0.00     0.020 A 
ATOM     76  C   UNL     1      12.761   1.133   6.784  1.00  0.00     0.020 A 
ATOM     77  C   UNL     1      12.817   2.337   6.080  1.00  0.00     0.054 A 
BRANCH  77  78
ATOM     78  S   UNL     1      13.449   3.836   6.884  1.00  0.00     0.124 S 
ATOM     79  O   UNL     1      14.767   3.975   6.274  1.00  0.00    -0.237 OA
ATOM     80  O   UNL     1      12.463   4.843   6.499  1.00  0.00    -0.237 OA
ATOM     81  O   UNL     1      13.447   3.487   8.303  1.00  0.00    -0.744 OA
ENDBRANCH  77  78
ENDBRANCH  49  72
BRANCH  61  82
ATOM     82  C   UNL     1      13.594  -4.365  -0.211  1.00  0.00    -0.014 A 
ATOM     83  C   UNL     1      14.859  -4.760   0.259  1.00  0.00     0.010 A 
ATOM     84  C   UNL     1      13.427  -4.062  -1.574  1.00  0.00     0.010 A 
ATOM     85  C   UNL     1      15.945  -4.824  -0.616  1.00  0.00     0.020 A 
ATOM     86  C   UNL     1      14.506  -4.147  -2.456  1.00  0.00     0.020 A 
ATOM     87  C   UNL     1      15.762  -4.515  -1.968  1.00  0.00     0.054 A 
BRANCH  87  88
ATOM     88  S   UNL     1      17.177  -4.645  -3.094  1.00  0.00     0.124 S 
ATOM     89  O   UNL     1      17.931  -3.437  -2.775  1.00  0.00    -0.237 OA
ATOM     90  O   UNL     1      17.800  -5.902  -2.686  1.00  0.00    -0.237 OA
ATOM     91  O   UNL     1      16.562  -4.665  -4.420  1.00  0.00    -0.744 OA
ENDBRANCH  87  88
ENDBRANCH  61  82
ENDBRANCH  35  36
ENDBRANCH  28  30
ENDBRANCH  27  28
ENDBRANCH   1  27
TORSDOF 18
