REMARK SMILES CC(C)Cc1ccc([C@H](C)C(=O)OCCOC(=O)c2ccc(-c3c4nc(c(-c5ccc(S(=O)(=O)[O-])cc5)c5ccc([nH]5)c(-c5ccc(S(=O)(=O)[O-])cc5)c5nc(c(-c6ccc(S(=O)(=O)[O-])cc6)c6ccc3[nH]6)C=C5)C=C4)cc2)cc1
REMARK SMILES IDX 14 1 13 2 11 3 12 4 9 5 10 6 8 7 5 8 6 9 80 10 7 11 79 12
REMARK SMILES IDX 4 13 2 14 1 15 3 16 15 17 16 18 17 19 18 20 19 21 20 22
REMARK SMILES IDX 78 23 21 24 77 25 22 26 23 27 24 28 71 29 25 30 76 31 70 32
REMARK SMILES IDX 72 33 26 34 75 35 69 36 68 37 27 39 57 40 38 41 56 42 39 43
REMARK SMILES IDX 42 44 55 45 73 46 40 47 41 48 54 50 74 51 43 52 28 53 29 54
REMARK SMILES IDX 37 55 30 56 36 57 31 58 32 59 33 60 34 61 35 62 58 63 59 64
REMARK SMILES IDX 67 65 60 66 66 67 61 68 62 69 63 70 64 71 65 72 44 73 45 74
REMARK SMILES IDX 53 75 46 76 52 77 47 78 48 79 49 80 50 81 51 82
REMARK H PARENT 72 38 42 49
REMARK Flexibility Score: inf
ROOT
ATOM      1  C   UNL     1      -6.114  -3.353   3.450  1.00  0.00     0.274 C 
ENDROOT
BRANCH   1   2
ATOM      2  O   UNL     1      -4.713  -3.025   3.428  1.00  0.00    -0.462 OA
BRANCH   2   3
ATOM      3  C   UNL     1      -3.858  -4.084   3.413  1.00  0.00     0.313 C 
ATOM      4  O   UNL     1      -4.213  -5.257   3.469  1.00  0.00    -0.252 OA
BRANCH   3   5
ATOM      5  C   UNL     1      -2.390  -3.664   3.348  1.00  0.00     0.126 C 
ATOM      6  C   UNL     1      -2.152  -2.233   2.881  1.00  0.00     0.025 C 
BRANCH   5   7
ATOM      7  C   UNL     1      -1.657  -3.975   4.638  1.00  0.00    -0.034 A 
ATOM      8  C   UNL     1      -0.359  -4.775   7.007  1.00  0.00    -0.048 A 
ATOM      9  C   UNL     1      -1.588  -4.107   7.061  1.00  0.00     0.004 A 
ATOM     10  C   UNL     1       0.245  -4.980   5.762  1.00  0.00     0.004 A 
ATOM     11  C   UNL     1      -2.224  -3.696   5.889  1.00  0.00     0.005 A 
ATOM     12  C   UNL     1      -0.401  -4.594   4.589  1.00  0.00     0.005 A 
BRANCH   8  13
ATOM     13  C   UNL     1       0.275  -5.314   8.266  1.00  0.00     0.038 C 
BRANCH  13  14
ATOM     14  C   UNL     1      -0.048  -6.801   8.527  1.00  0.00    -0.013 C 
ATOM     15  C   UNL     1       0.668  -7.739   7.550  1.00  0.00     0.008 C 
ATOM     16  C   UNL     1       0.344  -7.171   9.960  1.00  0.00     0.008 C 
ENDBRANCH  13  14
ENDBRANCH   8  13
ENDBRANCH   5   7
ENDBRANCH   3   5
ENDBRANCH   2   3
ENDBRANCH   1   2
BRANCH   1  17
ATOM     17  C   UNL     1      -6.724  -3.297   2.047  1.00  0.00     0.275 C 
BRANCH  17  18
ATOM     18  O   UNL     1      -6.194  -4.325   1.191  1.00  0.00    -0.458 OA
BRANCH  18  19
ATOM     19  C   UNL     1      -5.162  -3.948   0.400  1.00  0.00     0.338 C 
ATOM     20  O   UNL     1      -4.654  -2.844   0.318  1.00  0.00    -0.246 OA
BRANCH  19  21
ATOM     21  C   UNL     1      -4.646  -5.125  -0.311  1.00  0.00     0.060 A 
ATOM     22  C   UNL     1      -3.495  -5.750   0.173  1.00  0.00     0.016 A 
ATOM     23  C   UNL     1      -5.257  -5.571  -1.482  1.00  0.00     0.016 A 
ATOM     24  C   UNL     1      -2.947  -6.833  -0.508  1.00  0.00     0.010 A 
ATOM     25  C   UNL     1      -4.720  -6.672  -2.154  1.00  0.00     0.010 A 
ATOM     26  C   UNL     1      -3.564  -7.312  -1.669  1.00  0.00    -0.014 A 
BRANCH  26  27
ATOM     27  C   UNL     1      -3.025  -8.505  -2.361  1.00  0.00     0.031 A 
ATOM     28  C   UNL     1      -2.370  -8.366  -3.704  1.00  0.00     0.074 A 
ATOM     29  C   UNL     1      -3.163  -9.716  -1.787  1.00  0.00     0.049 A 
ATOM     30  N   UNL     1      -1.994  -9.302  -4.534  1.00  0.00    -0.248 NA
ATOM     31  C   UNL     1      -2.106  -6.997  -4.177  1.00  0.00     0.031 C 
ATOM     32  C   UNL     1      -3.745  -9.966  -0.466  1.00  0.00     0.029 A 
ATOM     33  N   UNL     1      -2.844 -10.967  -2.252  1.00  0.00    -0.354 N 
ATOM     34  C   UNL     1      -1.481  -8.640  -5.643  1.00  0.00     0.074 A 
ATOM     35  C   UNL     1      -1.589  -7.221  -5.379  1.00  0.00     0.031 C 
ATOM     36  C   UNL     1      -3.757 -11.289  -0.234  1.00  0.00     0.029 A 
ATOM     37  C   UNL     1      -3.244 -11.980  -1.411  1.00  0.00     0.049 A 
ATOM     38  H   UNL     1      -2.376 -11.125  -3.103  1.00  0.00     0.167 HD
ATOM     39  C   UNL     1      -0.978  -9.175  -6.780  1.00  0.00     0.031 A 
ATOM     40  C   UNL     1      -3.250 -13.315  -1.591  1.00  0.00     0.031 A 
ATOM     41  C   UNL     1      -0.863 -10.588  -7.024  1.00  0.00     0.049 A 
ATOM     42  C   UNL     1      -2.753 -13.876  -2.895  1.00  0.00     0.074 A 
ATOM     43  C   UNL     1      -0.323 -11.229  -8.126  1.00  0.00     0.029 A 
ATOM     44  N   UNL     1      -1.301 -11.579  -6.160  1.00  0.00    -0.354 N 
ATOM     45  N   UNL     1      -2.253 -13.239  -3.927  1.00  0.00    -0.248 NA
ATOM     46  C   UNL     1      -2.837 -15.333  -3.065  1.00  0.00     0.031 C 
ATOM     47  C   UNL     1      -0.485 -12.607  -7.952  1.00  0.00     0.029 A 
ATOM     48  C   UNL     1      -1.082 -12.825  -6.721  1.00  0.00     0.049 A 
ATOM     49  H   UNL     1      -1.708 -11.420  -5.277  1.00  0.00     0.167 HD
ATOM     50  C   UNL     1      -1.957 -14.219  -4.866  1.00  0.00     0.074 A 
ATOM     51  C   UNL     1      -2.311 -15.492  -4.272  1.00  0.00     0.031 C 
ATOM     52  C   UNL     1      -1.446 -14.079  -6.114  1.00  0.00     0.031 A 
BRANCH  39  53
ATOM     53  C   UNL     1      -0.546  -8.238  -7.874  1.00  0.00    -0.014 A 
ATOM     54  C   UNL     1       0.671  -7.538  -7.799  1.00  0.00     0.010 A 
ATOM     55  C   UNL     1      -1.331  -8.129  -9.037  1.00  0.00     0.010 A 
ATOM     56  C   UNL     1       1.090  -6.738  -8.867  1.00  0.00     0.020 A 
ATOM     57  C   UNL     1      -0.907  -7.345 -10.112  1.00  0.00     0.020 A 
ATOM     58  C   UNL     1       0.299  -6.648 -10.018  1.00  0.00     0.054 A 
BRANCH  58  59
ATOM     59  S   UNL     1       0.897  -5.653 -11.412  1.00  0.00     0.124 S 
ATOM     60  O   UNL     1       0.689  -4.293 -10.922  1.00  0.00    -0.237 OA
ATOM     61  O   UNL     1       2.291  -6.071 -11.531  1.00  0.00    -0.237 OA
ATOM     62  O   UNL     1       0.033  -6.054 -12.520  1.00  0.00    -0.744 OA
ENDBRANCH  58  59
ENDBRANCH  39  53
BRANCH  40  63
ATOM     63  C   UNL     1      -3.825 -14.207  -0.549  1.00  0.00    -0.014 A 
ATOM     64  C   UNL     1      -3.004 -15.080   0.185  1.00  0.00     0.010 A 
ATOM     65  C   UNL     1      -5.210 -14.199  -0.300  1.00  0.00     0.010 A 
ATOM     66  C   UNL     1      -3.562 -15.947   1.130  1.00  0.00     0.020 A 
ATOM     67  C   UNL     1      -5.768 -15.044   0.662  1.00  0.00     0.020 A 
ATOM     68  C   UNL     1      -4.941 -15.927   1.359  1.00  0.00     0.054 A 
BRANCH  68  69
ATOM     69  S   UNL     1      -5.647 -17.042   2.604  1.00  0.00     0.124 S 
ATOM     70  O   UNL     1      -5.686 -18.311   1.885  1.00  0.00    -0.237 OA
ATOM     71  O   UNL     1      -4.676 -16.961   3.693  1.00  0.00    -0.237 OA
ATOM     72  O   UNL     1      -6.948 -16.445   2.896  1.00  0.00    -0.744 OA
ENDBRANCH  68  69
ENDBRANCH  40  63
BRANCH  52  73
ATOM     73  C   UNL     1      -1.230 -15.332  -6.914  1.00  0.00    -0.014 A 
ATOM     74  C   UNL     1      -2.314 -16.003  -7.505  1.00  0.00     0.010 A 
ATOM     75  C   UNL     1       0.076 -15.809  -7.125  1.00  0.00     0.010 A 
ATOM     76  C   UNL     1      -2.097 -17.144  -8.282  1.00  0.00     0.020 A 
ATOM     77  C   UNL     1       0.298 -16.936  -7.920  1.00  0.00     0.020 A 
ATOM     78  C   UNL     1      -0.792 -17.603  -8.485  1.00  0.00     0.054 A 
BRANCH  78  79
ATOM     79  S   UNL     1      -0.530 -19.052  -9.543  1.00  0.00     0.124 S 
ATOM     80  O   UNL     1      -0.938 -20.146  -8.666  1.00  0.00    -0.237 OA
ATOM     81  O   UNL     1      -1.417 -18.790 -10.675  1.00  0.00    -0.237 OA
ATOM     82  O   UNL     1       0.897 -19.000  -9.854  1.00  0.00    -0.744 OA
ENDBRANCH  78  79
ENDBRANCH  52  73
ENDBRANCH  26  27
ENDBRANCH  19  21
ENDBRANCH  18  19
ENDBRANCH  17  18
ENDBRANCH   1  17
TORSDOF 17
