REMARK SMILES O=C(OCCOC(=O)c1ccc(-c2c3nc(c(-c4ccc(S(=O)(=O)[O-])cc4)c4ccc([nH]4)c(-c4ccc(S(=O)(=O)[O-])cc4)c4nc(c(-c5ccc(S(=O)(=O)[O-])cc5)c5ccc2[nH]5)C=C4)C=C3)cc1)C1=Cc2cc(Cl)ccc2O[C@@H]1C(F)(F)F
REMARK SMILES IDX 5 1 4 2 3 3 2 4 1 5 69 6 70 7 79 8 71 9 78 10 72 11 77 12
REMARK SMILES IDX 73 13 76 14 74 15 75 16 80 17 81 18 82 19 83 20 6 21 7 22
REMARK SMILES IDX 8 23 9 24 10 25 68 26 11 27 67 28 12 29 13 30 14 31 61 32
REMARK SMILES IDX 15 33 66 34 60 35 62 36 16 37 65 38 59 39 58 40 17 42 47 43
REMARK SMILES IDX 28 44 46 45 29 46 32 47 45 48 63 49 30 50 31 51 44 53 64 54
REMARK SMILES IDX 33 55 18 56 19 57 27 58 20 59 26 60 21 61 22 62 23 63 24 64
REMARK SMILES IDX 25 65 48 66 49 67 57 68 50 69 56 70 51 71 52 72 53 73 54 74
REMARK SMILES IDX 55 75 34 76 35 77 43 78 36 79 42 80 37 81 38 82 39 83 40 84
REMARK SMILES IDX 41 85
REMARK H PARENT 62 41 32 52
REMARK Flexibility Score: inf
ROOT
ATOM      1  C   UNL     1       3.118   0.193  -2.510  1.00  0.00     0.275 C 
ENDROOT
BRANCH   1   2
ATOM      2  C   UNL     1       2.853  -0.802  -1.361  1.00  0.00     0.275 C 
BRANCH   2   3
ATOM      3  O   UNL     1       2.233  -0.149  -0.239  1.00  0.00    -0.459 OA
BRANCH   3   4
ATOM      4  C   UNL     1       2.592  -0.649   0.966  1.00  0.00     0.338 C 
ATOM      5  O   UNL     1       2.152  -1.694   1.420  1.00  0.00    -0.246 OA
BRANCH   4   6
ATOM      6  C   UNL     1       3.608   0.208   1.656  1.00  0.00     0.087 C 
ATOM      7  C   UNL     1       4.574  -0.561   2.200  1.00  0.00     0.027 C 
ATOM      8  C   UNL     1       4.039   1.457   0.918  1.00  0.00     0.316 C 
ATOM      9  C   UNL     1       5.784  -0.666   1.362  1.00  0.00     0.019 A 
ATOM     10  O   UNL     1       5.093   1.198  -0.047  1.00  0.00    -0.475 OA
ATOM     11  C   UNL     1       6.713  -1.680   1.606  1.00  0.00     0.032 A 
ATOM     12  C   UNL     1       5.943   0.166   0.245  1.00  0.00     0.128 A 
ATOM     13  C   UNL     1       7.746  -1.900   0.695  1.00  0.00     0.041 A 
ATOM     14  C   UNL     1       6.962  -0.074  -0.675  1.00  0.00     0.048 A 
ATOM     15  Cl  UNL     1       8.871  -3.172   0.971  1.00  0.00    -0.084 Cl
ATOM     16  C   UNL     1       7.858  -1.120  -0.457  1.00  0.00     0.024 A 
BRANCH   8  17
ATOM     17  C   UNL     1       4.384   2.631   1.841  1.00  0.00     0.430 C 
ATOM     18  F   UNL     1       3.273   3.086   2.466  1.00  0.00    -0.167 F 
ATOM     19  F   UNL     1       5.282   2.299   2.794  1.00  0.00    -0.167 F 
ATOM     20  F   UNL     1       4.899   3.669   1.141  1.00  0.00    -0.167 F 
ENDBRANCH   8  17
ENDBRANCH   4   6
ENDBRANCH   3   4
ENDBRANCH   2   3
ENDBRANCH   1   2
BRANCH   1  21
ATOM     21  O   UNL     1       2.898   1.558  -2.116  1.00  0.00    -0.458 OA
BRANCH  21  22
ATOM     22  C   UNL     1       1.596   1.941  -2.160  1.00  0.00     0.338 C 
ATOM     23  O   UNL     1       0.694   1.346  -2.729  1.00  0.00    -0.246 OA
BRANCH  22  24
ATOM     24  C   UNL     1       1.374   3.065  -1.217  1.00  0.00     0.060 A 
ATOM     25  C   UNL     1       0.188   3.051  -0.476  1.00  0.00     0.016 A 
ATOM     26  C   UNL     1       2.317   4.078  -0.999  1.00  0.00     0.016 A 
ATOM     27  C   UNL     1      -0.079   4.064   0.446  1.00  0.00     0.010 A 
ATOM     28  C   UNL     1       2.057   5.082  -0.053  1.00  0.00     0.010 A 
ATOM     29  C   UNL     1       0.840   5.104   0.649  1.00  0.00    -0.014 A 
BRANCH  29  30
ATOM     30  C   UNL     1       0.427   6.266   1.484  1.00  0.00     0.031 A 
ATOM     31  C   UNL     1      -0.017   7.534   0.801  1.00  0.00     0.074 A 
ATOM     32  C   UNL     1       0.340   6.172   2.826  1.00  0.00     0.049 A 
ATOM     33  N   UNL     1      -0.611   8.583   1.311  1.00  0.00    -0.248 NA
ATOM     34  C   UNL     1       0.232   7.630  -0.647  1.00  0.00     0.031 C 
ATOM     35  C   UNL     1       0.741   5.016   3.627  1.00  0.00     0.029 A 
ATOM     36  N   UNL     1      -0.138   7.068   3.753  1.00  0.00    -0.354 N 
ATOM     37  C   UNL     1      -0.845   9.440   0.243  1.00  0.00     0.074 A 
ATOM     38  C   UNL     1      -0.260   8.827  -0.928  1.00  0.00     0.031 C 
ATOM     39  C   UNL     1       0.486   5.269   4.923  1.00  0.00     0.029 A 
ATOM     40  C   UNL     1      -0.105   6.600   5.047  1.00  0.00     0.049 A 
ATOM     41  H   UNL     1      -0.473   7.962   3.514  1.00  0.00     0.167 HD
ATOM     42  C   UNL     1      -1.518  10.615   0.223  1.00  0.00     0.031 A 
ATOM     43  C   UNL     1      -0.520   7.169   6.197  1.00  0.00     0.031 A 
ATOM     44  C   UNL     1      -2.075  11.255   1.382  1.00  0.00     0.049 A 
ATOM     45  C   UNL     1      -1.208   8.512   6.159  1.00  0.00     0.074 A 
ATOM     46  C   UNL     1      -2.776  12.447   1.455  1.00  0.00     0.029 A 
ATOM     47  N   UNL     1      -1.986  10.763   2.674  1.00  0.00    -0.354 N 
ATOM     48  N   UNL     1      -1.500   9.263   5.124  1.00  0.00    -0.248 NA
ATOM     49  C   UNL     1      -1.651   9.067   7.448  1.00  0.00     0.031 C 
ATOM     50  C   UNL     1      -3.071  12.698   2.800  1.00  0.00     0.029 A 
ATOM     51  C   UNL     1      -2.601  11.637   3.555  1.00  0.00     0.049 A 
ATOM     52  H   UNL     1      -1.551   9.917   2.928  1.00  0.00     0.167 HD
ATOM     53  C   UNL     1      -2.190  10.360   5.635  1.00  0.00     0.074 A 
ATOM     54  C   UNL     1      -2.289  10.165   7.066  1.00  0.00     0.031 C 
ATOM     55  C   UNL     1      -2.698  11.433   4.978  1.00  0.00     0.031 A 
BRANCH  42  56
ATOM     56  C   UNL     1      -1.695  11.275  -1.117  1.00  0.00    -0.014 A 
ATOM     57  C   UNL     1      -2.583  10.733  -2.066  1.00  0.00     0.010 A 
ATOM     58  C   UNL     1      -0.993  12.452  -1.427  1.00  0.00     0.010 A 
ATOM     59  C   UNL     1      -2.734  11.335  -3.317  1.00  0.00     0.020 A 
ATOM     60  C   UNL     1      -1.160  13.071  -2.670  1.00  0.00     0.020 A 
ATOM     61  C   UNL     1      -2.017  12.498  -3.612  1.00  0.00     0.054 A 
BRANCH  61  62
ATOM     62  S   UNL     1      -2.242  13.263  -5.241  1.00  0.00     0.124 S 
ATOM     63  O   UNL     1      -1.530  12.331  -6.112  1.00  0.00    -0.237 OA
ATOM     64  O   UNL     1      -3.695  13.276  -5.391  1.00  0.00    -0.237 OA
ATOM     65  O   UNL     1      -1.622  14.577  -5.095  1.00  0.00    -0.744 OA
ENDBRANCH  61  62
ENDBRANCH  42  56
BRANCH  43  66
ATOM     66  C   UNL     1      -0.314   6.477   7.502  1.00  0.00    -0.014 A 
ATOM     67  C   UNL     1      -1.405   5.986   8.242  1.00  0.00     0.010 A 
ATOM     68  C   UNL     1       0.980   6.367   8.041  1.00  0.00     0.010 A 
ATOM     69  C   UNL     1      -1.212   5.444   9.517  1.00  0.00     0.020 A 
ATOM     70  C   UNL     1       1.181   5.801   9.304  1.00  0.00     0.020 A 
ATOM     71  C   UNL     1       0.081   5.363  10.043  1.00  0.00     0.054 A 
BRANCH  71  72
ATOM     72  S   UNL     1       0.312   4.663  11.702  1.00  0.00     0.124 S 
ATOM     73  O   UNL     1      -0.166   5.745  12.557  1.00  0.00    -0.237 OA
ATOM     74  O   UNL     1      -0.528   3.469  11.662  1.00  0.00    -0.237 OA
ATOM     75  O   UNL     1       1.749   4.404  11.765  1.00  0.00    -0.744 OA
ENDBRANCH  71  72
ENDBRANCH  43  66
BRANCH  55  76
ATOM     76  C   UNL     1      -3.437  12.464   5.792  1.00  0.00    -0.014 A 
ATOM     77  C   UNL     1      -2.758  13.318   6.680  1.00  0.00     0.010 A 
ATOM     78  C   UNL     1      -4.828  12.609   5.635  1.00  0.00     0.010 A 
ATOM     79  C   UNL     1      -3.462  14.267   7.427  1.00  0.00     0.020 A 
ATOM     80  C   UNL     1      -5.531  13.576   6.358  1.00  0.00     0.020 A 
ATOM     81  C   UNL     1      -4.845  14.387   7.264  1.00  0.00     0.054 A 
BRANCH  81  82
ATOM     82  S   UNL     1      -5.734  15.646   8.223  1.00  0.00     0.124 S 
ATOM     83  O   UNL     1      -5.785  15.037   9.549  1.00  0.00    -0.237 OA
ATOM     84  O   UNL     1      -4.867  16.816   8.101  1.00  0.00    -0.237 OA
ATOM     85  O   UNL     1      -7.020  15.758   7.538  1.00  0.00    -0.744 OA
ENDBRANCH  81  82
ENDBRANCH  55  76
ENDBRANCH  29  30
ENDBRANCH  22  24
ENDBRANCH  21  22
ENDBRANCH   1  21
TORSDOF 15
