REMARK SMILES CC(C)(C[NH2+]Cc1ccc2c(c1)OCO2)C(=O)OCCOC(=O)c1ccc(-c2c3nc(c(-c4ccc(S(=O)(=O)[O-])cc4)c4ccc([nH]4)c(-c4ccc(S(=O)(=O)[O-])cc4)c4nc(c(-c5ccc(S(=O)(=O)[O-])cc5)c5ccc2[nH]5)C=C4)C=C3)cc1
REMARK SMILES IDX 19 1 18 2 16 3 17 4 2 5 1 6 3 7 4 8 5 9 6 12 7 13 8 14 12 15
REMARK SMILES IDX 9 16 11 17 10 18 13 19 15 20 14 21 20 22 21 23 22 24 23 25
REMARK SMILES IDX 24 26 25 27 83 28 26 29 82 30 27 31 28 32 29 33 76 34 30 35
REMARK SMILES IDX 81 36 75 37 77 38 31 39 80 40 74 41 73 42 32 44 62 45 43 46
REMARK SMILES IDX 61 47 44 48 47 49 60 50 78 51 45 52 46 53 59 55 79 56 48 57
REMARK SMILES IDX 33 58 34 59 42 60 35 61 41 62 36 63 37 64 38 65 39 66 40 67
REMARK SMILES IDX 63 68 64 69 72 70 65 71 71 72 66 73 67 74 68 75 69 76 70 77
REMARK SMILES IDX 49 78 50 79 58 80 51 81 57 82 52 83 53 84 54 85 55 86 56 87
REMARK H PARENT 5 10 5 11 77 43 47 54
REMARK Flexibility Score: inf
ROOT
ATOM      1  C   UNL     1       1.283   3.992  -2.744  1.00  0.00     0.274 C 
ENDROOT
BRANCH   1   2
ATOM      2  O   UNL     1       0.603   2.721  -2.728  1.00  0.00    -0.461 OA
BRANCH   2   3
ATOM      3  C   UNL     1       1.269   1.694  -2.128  1.00  0.00     0.317 C 
ATOM      4  O   UNL     1       2.433   1.759  -1.747  1.00  0.00    -0.251 OA
BRANCH   3   5
ATOM      5  C   UNL     1       0.439   0.410  -2.083  1.00  0.00     0.111 C 
ATOM      6  C   UNL     1       0.975  -0.531  -0.983  1.00  0.00     0.029 C 
ATOM      7  C   UNL     1       0.672  -0.289  -3.436  1.00  0.00     0.029 C 
BRANCH   5   8
ATOM      8  C   UNL     1      -1.082   0.678  -1.907  1.00  0.00     0.279 C 
BRANCH   8   9
ATOM      9  N   UNL     1      -1.478   1.221  -0.600  1.00  0.00    -0.342 N 
ATOM     10  H   UNL     1      -1.191   2.199  -0.554  1.00  0.00     0.346 HD
ATOM     11  H   UNL     1      -1.023   0.654   0.115  1.00  0.00     0.346 HD
BRANCH   9  12
ATOM     12  C   UNL     1      -2.927   1.148  -0.358  1.00  0.00     0.297 C 
BRANCH  12  13
ATOM     13  C   UNL     1      -3.499  -0.232  -0.072  1.00  0.00     0.010 A 
ATOM     14  C   UNL     1      -4.905  -0.364   0.053  1.00  0.00     0.013 A 
ATOM     15  C   UNL     1      -2.707  -1.384   0.069  1.00  0.00     0.060 A 
ATOM     16  C   UNL     1      -5.509  -1.613   0.258  1.00  0.00     0.051 A 
ATOM     17  C   UNL     1      -3.328  -2.604   0.232  1.00  0.00     0.166 A 
ATOM     18  C   UNL     1      -4.691  -2.719   0.320  1.00  0.00     0.165 A 
ATOM     19  O   UNL     1      -2.694  -3.805   0.299  1.00  0.00    -0.454 OA
ATOM     20  O   UNL     1      -5.092  -4.010   0.459  1.00  0.00    -0.454 OA
ATOM     21  C   UNL     1      -3.822  -4.695   0.409  1.00  0.00     0.468 C 
ENDBRANCH  12  13
ENDBRANCH   9  12
ENDBRANCH   8   9
ENDBRANCH   5   8
ENDBRANCH   3   5
ENDBRANCH   2   3
ENDBRANCH   1   2
BRANCH   1  22
ATOM     22  C   UNL     1       0.879   4.819  -1.525  1.00  0.00     0.275 C 
BRANCH  22  23
ATOM     23  O   UNL     1       1.323   4.141  -0.342  1.00  0.00    -0.458 OA
BRANCH  23  24
ATOM     24  C   UNL     1       0.692   4.487   0.804  1.00  0.00     0.338 C 
ATOM     25  O   UNL     1      -0.114   5.391   0.943  1.00  0.00    -0.246 OA
BRANCH  24  26
ATOM     26  C   UNL     1       1.153   3.601   1.900  1.00  0.00     0.060 A 
ATOM     27  C   UNL     1       1.483   2.266   1.657  1.00  0.00     0.016 A 
ATOM     28  C   UNL     1       1.214   4.097   3.203  1.00  0.00     0.016 A 
ATOM     29  C   UNL     1       1.821   1.413   2.709  1.00  0.00     0.010 A 
ATOM     30  C   UNL     1       1.626   3.261   4.248  1.00  0.00     0.010 A 
ATOM     31  C   UNL     1       1.907   1.901   4.020  1.00  0.00    -0.014 A 
BRANCH  31  32
ATOM     32  C   UNL     1       2.236   0.992   5.156  1.00  0.00     0.031 A 
ATOM     33  C   UNL     1       1.250   0.810   6.284  1.00  0.00     0.074 A 
ATOM     34  C   UNL     1       3.407   0.325   5.191  1.00  0.00     0.049 A 
ATOM     35  N   UNL     1       1.406   0.193   7.429  1.00  0.00    -0.248 NA
ATOM     36  C   UNL     1      -0.079   1.416   6.106  1.00  0.00     0.031 C 
ATOM     37  C   UNL     1       4.446   0.370   4.160  1.00  0.00     0.029 A 
ATOM     38  N   UNL     1       3.919  -0.531   6.137  1.00  0.00    -0.354 N 
ATOM     39  C   UNL     1       0.220   0.388   8.130  1.00  0.00     0.074 A 
ATOM     40  C   UNL     1      -0.643   1.184   7.283  1.00  0.00     0.031 C 
ATOM     41  C   UNL     1       5.450  -0.451   4.510  1.00  0.00     0.029 A 
ATOM     42  C   UNL     1       5.163  -1.025   5.820  1.00  0.00     0.049 A 
ATOM     43  H   UNL     1       3.440  -0.769   6.964  1.00  0.00     0.167 HD
ATOM     44  C   UNL     1      -0.122  -0.052   9.365  1.00  0.00     0.031 A 
ATOM     45  C   UNL     1       5.995  -1.828   6.513  1.00  0.00     0.031 A 
ATOM     46  C   UNL     1       0.714  -0.880  10.194  1.00  0.00     0.049 A 
ATOM     47  C   UNL     1       5.593  -2.309   7.879  1.00  0.00     0.074 A 
ATOM     48  C   UNL     1       0.451  -1.380  11.459  1.00  0.00     0.029 A 
ATOM     49  N   UNL     1       1.968  -1.350   9.834  1.00  0.00    -0.354 N 
ATOM     50  N   UNL     1       4.492  -2.066   8.548  1.00  0.00    -0.248 NA
ATOM     51  C   UNL     1       6.553  -3.170   8.586  1.00  0.00     0.031 C 
ATOM     52  C   UNL     1       1.557  -2.130  11.874  1.00  0.00     0.029 A 
ATOM     53  C   UNL     1       2.490  -2.133  10.851  1.00  0.00     0.049 A 
ATOM     54  H   UNL     1       2.420  -1.156   8.982  1.00  0.00     0.167 HD
ATOM     55  C   UNL     1       4.621  -2.752   9.750  1.00  0.00     0.074 A 
ATOM     56  C   UNL     1       5.896  -3.439   9.706  1.00  0.00     0.031 C 
ATOM     57  C   UNL     1       3.763  -2.805  10.798  1.00  0.00     0.031 A 
BRANCH  44  58
ATOM     58  C   UNL     1      -1.454   0.390   9.911  1.00  0.00    -0.014 A 
ATOM     59  C   UNL     1      -2.661  -0.143   9.425  1.00  0.00     0.010 A 
ATOM     60  C   UNL     1      -1.494   1.344  10.945  1.00  0.00     0.010 A 
ATOM     61  C   UNL     1      -3.885   0.303   9.932  1.00  0.00     0.020 A 
ATOM     62  C   UNL     1      -2.715   1.774  11.472  1.00  0.00     0.020 A 
ATOM     63  C   UNL     1      -3.904   1.265  10.947  1.00  0.00     0.054 A 
BRANCH  63  64
ATOM     64  S   UNL     1      -5.504   1.823  11.596  1.00  0.00     0.124 S 
ATOM     65  O   UNL     1      -5.956   2.728  10.542  1.00  0.00    -0.237 OA
ATOM     66  O   UNL     1      -6.257   0.577  11.717  1.00  0.00    -0.237 OA
ATOM     67  O   UNL     1      -5.160   2.463  12.863  1.00  0.00    -0.744 OA
ENDBRANCH  63  64
ENDBRANCH  44  58
BRANCH  45  68
ATOM     68  C   UNL     1       7.309  -2.214   5.929  1.00  0.00    -0.014 A 
ATOM     69  C   UNL     1       7.533  -3.529   5.484  1.00  0.00     0.010 A 
ATOM     70  C   UNL     1       8.338  -1.263   5.800  1.00  0.00     0.010 A 
ATOM     71  C   UNL     1       8.764  -3.888   4.927  1.00  0.00     0.020 A 
ATOM     72  C   UNL     1       9.560  -1.612   5.219  1.00  0.00     0.020 A 
ATOM     73  C   UNL     1       9.769  -2.925   4.795  1.00  0.00     0.054 A 
BRANCH  73  74
ATOM     74  S   UNL     1      11.335  -3.390   4.004  1.00  0.00     0.124 S 
ATOM     75  O   UNL     1      12.024  -4.089   5.083  1.00  0.00    -0.237 OA
ATOM     76  O   UNL     1      10.894  -4.225   2.889  1.00  0.00    -0.237 OA
ATOM     77  O   UNL     1      11.913  -2.105   3.616  1.00  0.00    -0.744 OA
ENDBRANCH  73  74
ENDBRANCH  45  68
BRANCH  57  78
ATOM     78  C   UNL     1       4.164  -3.663  11.967  1.00  0.00    -0.014 A 
ATOM     79  C   UNL     1       5.175  -3.256  12.857  1.00  0.00     0.010 A 
ATOM     80  C   UNL     1       3.515  -4.893  12.181  1.00  0.00     0.010 A 
ATOM     81  C   UNL     1       5.563  -4.087  13.911  1.00  0.00     0.020 A 
ATOM     82  C   UNL     1       3.885  -5.715  13.248  1.00  0.00     0.020 A 
ATOM     83  C   UNL     1       4.923  -5.317  14.093  1.00  0.00     0.054 A 
BRANCH  83  84
ATOM     84  S   UNL     1       5.439  -6.383  15.468  1.00  0.00     0.124 S 
ATOM     85  O   UNL     1       6.659  -6.987  14.941  1.00  0.00    -0.237 OA
ATOM     86  O   UNL     1       5.630  -5.433  16.562  1.00  0.00    -0.237 OA
ATOM     87  O   UNL     1       4.312  -7.297  15.637  1.00  0.00    -0.744 OA
ENDBRANCH  83  84
ENDBRANCH  57  78
ENDBRANCH  31  32
ENDBRANCH  24  26
ENDBRANCH  23  24
ENDBRANCH  22  23
ENDBRANCH   1  22
TORSDOF 18
