REMARK SMILES CC[N@@H+]1CCO[C@@H](Cn2cc(C(=O)OCCOC(=O)c3ccc(-c4c5nc(c(-c6ccc(S(=O)(=O)[O-])cc6)c6ccc([nH]6)c(-c6ccc(S(=O)(=O)[O-])cc6)c6nc(c(-c7ccc(S(=O)(=O)[O-])cc7)c7ccc4[nH]7)C=C6)C=C5)cc3)nn2)C1
REMARK SMILES IDX 15 1 14 2 12 3 13 4 11 5 9 6 10 7 81 8 80 9 8 10 7 11 3 12
REMARK SMILES IDX 4 13 82 14 5 16 6 17 2 18 1 19 16 20 17 21 18 22 19 23 20 24
REMARK SMILES IDX 21 25 79 26 22 27 78 28 23 29 24 30 25 31 72 32 26 33 77 34
REMARK SMILES IDX 71 35 73 36 27 37 76 38 70 39 69 40 28 42 58 43 39 44 57 45
REMARK SMILES IDX 40 46 43 47 56 48 74 49 41 50 42 51 55 53 75 54 44 55 29 56
REMARK SMILES IDX 30 57 38 58 31 59 37 60 32 61 33 62 34 63 35 64 36 65 59 66
REMARK SMILES IDX 60 67 68 68 61 69 67 70 62 71 63 72 64 73 65 74 66 75 45 76
REMARK SMILES IDX 46 77 54 78 47 79 53 80 48 81 49 82 50 83 51 84 52 85
REMARK H PARENT 3 15 73 41 43 52
REMARK Flexibility Score: inf
ROOT
ATOM      1  C   UNL     1      -5.393  -3.241  -3.091  1.00  0.00     0.275 C 
ENDROOT
BRANCH   1   2
ATOM      2  O   UNL     1      -4.158  -3.614  -2.456  1.00  0.00    -0.457 OA
BRANCH   2   3
ATOM      3  C   UNL     1      -4.260  -3.992  -1.136  1.00  0.00     0.360 C 
ATOM      4  O   UNL     1      -5.234  -3.776  -0.439  1.00  0.00    -0.244 OA
BRANCH   3   5
ATOM      5  C   UNL     1      -3.084  -4.724  -0.685  1.00  0.00     0.190 A 
ATOM      6  N   UNL     1      -1.127  -5.614  -0.465  1.00  0.00    -0.249 N 
ATOM      7  C   UNL     1      -1.913  -4.971  -1.373  1.00  0.00     0.147 A 
ATOM      8  N   UNL     1      -1.792  -5.855   0.676  1.00  0.00    -0.066 NA
ATOM      9  N   UNL     1      -2.994  -5.306   0.558  1.00  0.00    -0.123 NA
BRANCH   6  10
ATOM     10  C   UNL     1       0.318  -5.690  -0.482  1.00  0.00     0.184 C 
BRANCH  10  11
ATOM     11  C   UNL     1       0.934  -4.286  -0.447  1.00  0.00     0.194 C 
ATOM     12  N   UNL     1       1.080  -2.115   0.857  1.00  0.00    -0.331 N 
ATOM     13  C   UNL     1       2.542  -2.259   0.721  1.00  0.00     0.291 C 
ATOM     14  C   UNL     1       0.491  -3.477   0.804  1.00  0.00     0.296 C 
ATOM     15  H   UNL     1       0.892  -1.655   1.748  1.00  0.00     0.348 HD
ATOM     16  C   UNL     1       2.979  -3.099  -0.492  1.00  0.00     0.222 C 
ATOM     17  O   UNL     1       2.370  -4.399  -0.485  1.00  0.00    -0.365 OA
BRANCH  12  18
ATOM     18  C   UNL     1       0.456  -1.240  -0.148  1.00  0.00     0.258 C 
ATOM     19  C   UNL     1       0.866   0.221  -0.018  1.00  0.00     0.071 C 
ENDBRANCH  12  18
ENDBRANCH  10  11
ENDBRANCH   6  10
ENDBRANCH   3   5
ENDBRANCH   2   3
ENDBRANCH   1   2
BRANCH   1  20
ATOM     20  C   UNL     1      -6.086  -4.459  -3.687  1.00  0.00     0.275 C 
BRANCH  20  21
ATOM     21  O   UNL     1      -6.567  -5.312  -2.652  1.00  0.00    -0.458 OA
BRANCH  21  22
ATOM     22  C   UNL     1      -5.739  -6.321  -2.294  1.00  0.00     0.338 C 
ATOM     23  O   UNL     1      -4.568  -6.448  -2.615  1.00  0.00    -0.246 OA
BRANCH  22  24
ATOM     24  C   UNL     1      -6.528  -7.370  -1.643  1.00  0.00     0.060 A 
ATOM     25  C   UNL     1      -5.862  -8.565  -1.354  1.00  0.00     0.016 A 
ATOM     26  C   UNL     1      -7.927  -7.288  -1.690  1.00  0.00     0.016 A 
ATOM     27  C   UNL     1      -6.591  -9.732  -1.374  1.00  0.00     0.010 A 
ATOM     28  C   UNL     1      -8.648  -8.452  -1.736  1.00  0.00     0.010 A 
ATOM     29  C   UNL     1      -7.954  -9.657  -1.678  1.00  0.00    -0.014 A 
BRANCH  29  30
ATOM     30  C   UNL     1      -8.677 -10.888  -1.893  1.00  0.00     0.031 A 
ATOM     31  C   UNL     1      -8.994 -11.595  -0.637  1.00  0.00     0.074 A 
ATOM     32  C   UNL     1      -9.126 -11.246  -3.110  1.00  0.00     0.049 A 
ATOM     33  N   UNL     1      -8.513 -12.716  -0.218  1.00  0.00    -0.248 NA
ATOM     34  C   UNL     1      -9.805 -10.871   0.357  1.00  0.00     0.031 C 
ATOM     35  C   UNL     1      -9.130 -10.464  -4.350  1.00  0.00     0.029 A 
ATOM     36  N   UNL     1      -9.807 -12.366  -3.457  1.00  0.00    -0.354 N 
ATOM     37  C   UNL     1      -9.127 -12.942   1.008  1.00  0.00     0.074 A 
ATOM     38  C   UNL     1      -9.728 -11.693   1.401  1.00  0.00     0.031 C 
ATOM     39  C   UNL     1     -10.001 -11.025  -5.222  1.00  0.00     0.029 A 
ATOM     40  C   UNL     1     -10.504 -12.265  -4.652  1.00  0.00     0.049 A 
ATOM     41  H   UNL     1      -9.807 -13.182  -2.906  1.00  0.00     0.167 HD
ATOM     42  C   UNL     1      -9.338 -14.200   1.480  1.00  0.00     0.031 A 
ATOM     43  C   UNL     1     -11.493 -13.098  -5.071  1.00  0.00     0.031 A 
ATOM     44  C   UNL     1      -8.547 -15.177   0.780  1.00  0.00     0.049 A 
ATOM     45  C   UNL     1     -11.363 -14.355  -4.286  1.00  0.00     0.074 A 
ATOM     46  C   UNL     1      -7.193 -15.373   0.598  1.00  0.00     0.029 A 
ATOM     47  N   UNL     1      -9.172 -15.897  -0.214  1.00  0.00    -0.354 N 
ATOM     48  N   UNL     1     -10.335 -15.155  -4.380  1.00  0.00    -0.248 NA
ATOM     49  C   UNL     1     -12.123 -14.470  -3.049  1.00  0.00     0.031 C 
ATOM     50  C   UNL     1      -7.061 -15.792  -0.759  1.00  0.00     0.029 A 
ATOM     51  C   UNL     1      -8.342 -15.895  -1.307  1.00  0.00     0.049 A 
ATOM     52  H   UNL     1     -10.053 -16.332  -0.151  1.00  0.00     0.167 HD
ATOM     53  C   UNL     1     -10.066 -15.553  -3.077  1.00  0.00     0.074 A 
ATOM     54  C   UNL     1     -11.253 -15.168  -2.312  1.00  0.00     0.031 C 
ATOM     55  C   UNL     1      -8.803 -15.893  -2.681  1.00  0.00     0.031 A 
BRANCH  42  56
ATOM     56  C   UNL     1     -10.560 -14.567   2.280  1.00  0.00    -0.014 A 
ATOM     57  C   UNL     1     -10.660 -15.862   2.818  1.00  0.00     0.010 A 
ATOM     58  C   UNL     1     -11.729 -13.774   2.291  1.00  0.00     0.010 A 
ATOM     59  C   UNL     1     -11.885 -16.357   3.284  1.00  0.00     0.020 A 
ATOM     60  C   UNL     1     -12.941 -14.239   2.796  1.00  0.00     0.020 A 
ATOM     61  C   UNL     1     -13.020 -15.544   3.256  1.00  0.00     0.054 A 
BRANCH  61  62
ATOM     62  S   UNL     1     -14.619 -16.227   3.748  1.00  0.00     0.124 S 
ATOM     63  O   UNL     1     -14.851 -17.223   2.707  1.00  0.00    -0.237 OA
ATOM     64  O   UNL     1     -14.333 -16.754   5.079  1.00  0.00    -0.237 OA
ATOM     65  O   UNL     1     -15.510 -15.070   3.719  1.00  0.00    -0.744 OA
ENDBRANCH  61  62
ENDBRANCH  42  56
BRANCH  43  66
ATOM     66  C   UNL     1     -12.742 -12.713  -5.782  1.00  0.00    -0.014 A 
ATOM     67  C   UNL     1     -13.584 -13.678  -6.366  1.00  0.00     0.010 A 
ATOM     68  C   UNL     1     -13.250 -11.403  -5.649  1.00  0.00     0.010 A 
ATOM     69  C   UNL     1     -14.899 -13.356  -6.754  1.00  0.00     0.020 A 
ATOM     70  C   UNL     1     -14.554 -11.073  -6.038  1.00  0.00     0.020 A 
ATOM     71  C   UNL     1     -15.382 -12.057  -6.570  1.00  0.00     0.054 A 
BRANCH  71  72
ATOM     72  S   UNL     1     -17.128 -11.685  -6.915  1.00  0.00     0.124 S 
ATOM     73  O   UNL     1     -17.181 -11.760  -8.372  1.00  0.00    -0.237 OA
ATOM     74  O   UNL     1     -17.828 -12.749  -6.201  1.00  0.00    -0.237 OA
ATOM     75  O   UNL     1     -17.312 -10.345  -6.358  1.00  0.00    -0.744 OA
ENDBRANCH  71  72
ENDBRANCH  43  66
BRANCH  55  76
ATOM     76  C   UNL     1      -7.734 -16.053  -3.743  1.00  0.00    -0.014 A 
ATOM     77  C   UNL     1      -7.294 -15.002  -4.574  1.00  0.00     0.010 A 
ATOM     78  C   UNL     1      -7.033 -17.270  -3.781  1.00  0.00     0.010 A 
ATOM     79  C   UNL     1      -6.198 -15.176  -5.434  1.00  0.00     0.020 A 
ATOM     80  C   UNL     1      -5.931 -17.445  -4.622  1.00  0.00     0.020 A 
ATOM     81  C   UNL     1      -5.522 -16.400  -5.452  1.00  0.00     0.054 A 
BRANCH  81  82
ATOM     82  S   UNL     1      -4.076 -16.610  -6.529  1.00  0.00     0.124 S 
ATOM     83  O   UNL     1      -4.668 -16.590  -7.864  1.00  0.00    -0.237 OA
ATOM     84  O   UNL     1      -3.247 -15.456  -6.192  1.00  0.00    -0.237 OA
ATOM     85  O   UNL     1      -3.521 -17.900  -6.120  1.00  0.00    -0.744 OA
ENDBRANCH  81  82
ENDBRANCH  55  76
ENDBRANCH  29  30
ENDBRANCH  22  24
ENDBRANCH  21  22
ENDBRANCH  20  21
ENDBRANCH   1  20
TORSDOF 17
