REMARK SMILES C[C@@H](CNc1cccc(F)c1C(=O)OCCOC(=O)c1ccc(-c2c3nc(c(-c4ccc(S(=O)(=O)[O-])cc4)c4ccc([nH]4)c(-c4ccc(S(=O)(=O)[O-])cc4)c4nc(c(-c5ccc(S(=O)(=O)[O-])cc5)c5ccc2[nH]5)C=C4)C=C3)cc1)[NH+]1CCCCC1
REMARK SMILES IDX 15 1 14 2 12 3 13 4 11 5 5 6 6 7 7 8 9 9 8 10 10 11 4 12
REMARK SMILES IDX 3 14 2 15 1 16 80 17 81 18 85 19 82 21 84 22 83 23 16 24
REMARK SMILES IDX 17 25 18 26 19 27 20 28 21 29 79 30 22 31 78 32 23 33 24 34
REMARK SMILES IDX 25 35 72 36 26 37 77 38 71 39 73 40 27 41 76 42 70 43 69 44
REMARK SMILES IDX 28 46 58 47 39 48 57 49 40 50 43 51 56 52 74 53 41 54 42 55
REMARK SMILES IDX 55 57 75 58 44 59 29 60 30 61 38 62 31 63 37 64 32 65 33 66
REMARK SMILES IDX 34 67 35 68 36 69 59 70 60 71 68 72 61 73 67 74 62 75 63 76
REMARK SMILES IDX 64 77 65 78 66 79 45 80 46 81 54 82 47 83 53 84 48 85 49 86
REMARK SMILES IDX 50 87 51 88 52 89
REMARK H PARENT 4 13 80 20 73 45 43 56
REMARK Flexibility Score: inf
ROOT
ATOM      1  C   UNL     1      -2.743   4.201   1.072  1.00  0.00     0.275 C 
ENDROOT
BRANCH   1   2
ATOM      2  O   UNL     1      -2.574   3.782   2.446  1.00  0.00    -0.458 OA
BRANCH   2   3
ATOM      3  C   UNL     1      -1.744   2.712   2.577  1.00  0.00     0.343 C 
ATOM      4  O   UNL     1      -1.093   2.301   1.651  1.00  0.00    -0.246 OA
BRANCH   3   5
ATOM      5  C   UNL     1      -1.672   2.103   3.934  1.00  0.00     0.118 A 
ATOM      6  C   UNL     1      -0.819   0.984   4.147  1.00  0.00     0.052 A 
ATOM      7  C   UNL     1      -0.658   0.514   5.461  1.00  0.00     0.027 A 
ATOM      8  C   UNL     1      -1.358   1.080   6.529  1.00  0.00     0.005 A 
ATOM      9  C   UNL     1      -2.403   2.627   5.005  1.00  0.00     0.139 A 
ATOM     10  C   UNL     1      -2.246   2.124   6.296  1.00  0.00     0.040 A 
ATOM     11  F   UNL     1      -3.266   3.642   4.846  1.00  0.00    -0.206 F 
BRANCH   6  12
ATOM     12  N   UNL     1       0.036   0.504   3.168  1.00  0.00    -0.378 N 
ATOM     13  H   UNL     1       0.709   1.134   2.821  1.00  0.00     0.160 HD
BRANCH  12  14
ATOM     14  C   UNL     1       0.040  -0.834   2.604  1.00  0.00     0.177 C 
BRANCH  14  15
ATOM     15  C   UNL     1      -0.314  -0.932   1.072  1.00  0.00     0.200 C 
ATOM     16  C   UNL     1       0.348   0.076   0.114  1.00  0.00     0.077 C 
BRANCH  15  17
ATOM     17  N   UNL     1      -1.782  -1.065   0.895  1.00  0.00    -0.331 N 
ATOM     18  C   UNL     1      -2.390  -0.108  -0.034  1.00  0.00     0.262 C 
ATOM     19  C   UNL     1      -2.144  -2.435   0.505  1.00  0.00     0.262 C 
ATOM     20  H   UNL     1      -2.167  -0.842   1.813  1.00  0.00     0.348 HD
ATOM     21  C   UNL     1      -3.902  -0.161   0.106  1.00  0.00     0.062 C 
ATOM     22  C   UNL     1      -3.660  -2.620   0.556  1.00  0.00     0.062 C 
ATOM     23  C   UNL     1      -4.408  -1.552  -0.239  1.00  0.00     0.012 C 
ENDBRANCH  15  17
ENDBRANCH  14  15
ENDBRANCH  12  14
ENDBRANCH   6  12
ENDBRANCH   3   5
ENDBRANCH   2   3
ENDBRANCH   1   2
BRANCH   1  24
ATOM     24  C   UNL     1      -1.604   5.082   0.515  1.00  0.00     0.275 C 
BRANCH  24  25
ATOM     25  O   UNL     1      -0.390   4.353   0.205  1.00  0.00    -0.458 OA
BRANCH  25  26
ATOM     26  C   UNL     1       0.676   4.600   1.010  1.00  0.00     0.338 C 
ATOM     27  O   UNL     1       0.748   5.478   1.858  1.00  0.00    -0.246 OA
BRANCH  26  28
ATOM     28  C   UNL     1       1.726   3.554   0.881  1.00  0.00     0.060 A 
ATOM     29  C   UNL     1       2.041   2.831   2.037  1.00  0.00     0.016 A 
ATOM     30  C   UNL     1       2.449   3.308  -0.287  1.00  0.00     0.016 A 
ATOM     31  C   UNL     1       3.001   1.807   2.019  1.00  0.00     0.010 A 
ATOM     32  C   UNL     1       3.445   2.303  -0.296  1.00  0.00     0.010 A 
ATOM     33  C   UNL     1       3.711   1.520   0.850  1.00  0.00    -0.014 A 
BRANCH  33  34
ATOM     34  C   UNL     1       4.831   0.530   0.882  1.00  0.00     0.031 A 
ATOM     35  C   UNL     1       6.191   1.023   1.273  1.00  0.00     0.074 A 
ATOM     36  C   UNL     1       4.679  -0.793   0.654  1.00  0.00     0.049 A 
ATOM     37  N   UNL     1       7.311   0.356   1.354  1.00  0.00    -0.248 NA
ATOM     38  C   UNL     1       6.285   2.430   1.692  1.00  0.00     0.031 C 
ATOM     39  C   UNL     1       3.413  -1.491   0.539  1.00  0.00     0.029 A 
ATOM     40  N   UNL     1       5.597  -1.804   0.473  1.00  0.00    -0.354 N 
ATOM     41  C   UNL     1       8.239   1.251   1.862  1.00  0.00     0.074 A 
ATOM     42  C   UNL     1       7.558   2.515   2.046  1.00  0.00     0.031 C 
ATOM     43  C   UNL     1       3.603  -2.760   0.157  1.00  0.00     0.029 A 
ATOM     44  C   UNL     1       5.032  -2.994   0.059  1.00  0.00     0.049 A 
ATOM     45  H   UNL     1       6.563  -1.689   0.625  1.00  0.00     0.167 HD
ATOM     46  C   UNL     1       9.541   1.033   2.155  1.00  0.00     0.031 A 
ATOM     47  C   UNL     1       5.582  -4.155  -0.346  1.00  0.00     0.031 A 
ATOM     48  C   UNL     1      10.227  -0.208   1.919  1.00  0.00     0.049 A 
ATOM     49  C   UNL     1       7.065  -4.314  -0.214  1.00  0.00     0.074 A 
ATOM     50  C   UNL     1      11.561  -0.505   2.135  1.00  0.00     0.029 A 
ATOM     51  N   UNL     1       9.644  -1.350   1.387  1.00  0.00    -0.354 N 
ATOM     52  N   UNL     1       7.932  -3.452   0.259  1.00  0.00    -0.248 NA
ATOM     53  C   UNL     1       7.640  -5.605  -0.609  1.00  0.00     0.031 C 
ATOM     54  C   UNL     1      11.800  -1.801   1.667  1.00  0.00     0.029 A 
ATOM     55  C   UNL     1      10.601  -2.338   1.222  1.00  0.00     0.049 A 
ATOM     56  H   UNL     1       8.690  -1.444   1.161  1.00  0.00     0.167 HD
ATOM     57  C   UNL     1       9.152  -4.111   0.264  1.00  0.00     0.074 A 
ATOM     58  C   UNL     1       8.909  -5.443  -0.256  1.00  0.00     0.031 C 
ATOM     59  C   UNL     1      10.356  -3.653   0.683  1.00  0.00     0.031 A 
BRANCH  46  60
ATOM     60  C   UNL     1      10.315   2.211   2.674  1.00  0.00    -0.014 A 
ATOM     61  C   UNL     1      10.126   2.699   3.980  1.00  0.00     0.010 A 
ATOM     62  C   UNL     1      11.222   2.860   1.819  1.00  0.00     0.010 A 
ATOM     63  C   UNL     1      10.799   3.848   4.403  1.00  0.00     0.020 A 
ATOM     64  C   UNL     1      11.913   3.993   2.247  1.00  0.00     0.020 A 
ATOM     65  C   UNL     1      11.681   4.492   3.530  1.00  0.00     0.054 A 
BRANCH  65  66
ATOM     66  S   UNL     1      12.531   5.991   4.095  1.00  0.00     0.124 S 
ATOM     67  O   UNL     1      11.450   6.973   4.081  1.00  0.00    -0.237 OA
ATOM     68  O   UNL     1      13.014   5.606   5.418  1.00  0.00    -0.237 OA
ATOM     69  O   UNL     1      13.572   6.198   3.091  1.00  0.00    -0.744 OA
ENDBRANCH  65  66
ENDBRANCH  46  60
BRANCH  47  70
ATOM     70  C   UNL     1       4.722  -5.241  -0.900  1.00  0.00    -0.014 A 
ATOM     71  C   UNL     1       4.501  -6.438  -0.199  1.00  0.00     0.010 A 
ATOM     72  C   UNL     1       4.101  -5.064  -2.153  1.00  0.00     0.010 A 
ATOM     73  C   UNL     1       3.691  -7.442  -0.745  1.00  0.00     0.020 A 
ATOM     74  C   UNL     1       3.275  -6.056  -2.693  1.00  0.00     0.020 A 
ATOM     75  C   UNL     1       3.082  -7.245  -1.989  1.00  0.00     0.054 A 
BRANCH  75  76
ATOM     76  S   UNL     1       2.003  -8.544  -2.655  1.00  0.00     0.124 S 
ATOM     77  O   UNL     1       2.960  -9.595  -2.988  1.00  0.00    -0.237 OA
ATOM     78  O   UNL     1       1.119  -8.826  -1.527  1.00  0.00    -0.237 OA
ATOM     79  O   UNL     1       1.356  -7.902  -3.797  1.00  0.00    -0.744 OA
ENDBRANCH  75  76
ENDBRANCH  47  70
BRANCH  59  80
ATOM     80  C   UNL     1      11.513  -4.609   0.608  1.00  0.00    -0.014 A 
ATOM     81  C   UNL     1      12.074  -4.975  -0.628  1.00  0.00     0.010 A 
ATOM     82  C   UNL     1      12.079  -5.106   1.796  1.00  0.00     0.010 A 
ATOM     83  C   UNL     1      13.165  -5.844  -0.675  1.00  0.00     0.020 A 
ATOM     84  C   UNL     1      13.189  -5.951   1.754  1.00  0.00     0.020 A 
ATOM     85  C   UNL     1      13.717  -6.325   0.516  1.00  0.00     0.054 A 
BRANCH  85  86
ATOM     86  S   UNL     1      15.168  -7.408   0.429  1.00  0.00     0.124 S 
ATOM     87  O   UNL     1      14.582  -8.664  -0.032  1.00  0.00    -0.237 OA
ATOM     88  O   UNL     1      16.023  -6.722  -0.536  1.00  0.00    -0.237 OA
ATOM     89  O   UNL     1      15.673  -7.422   1.800  1.00  0.00    -0.744 OA
ENDBRANCH  85  86
ENDBRANCH  59  80
ENDBRANCH  33  34
ENDBRANCH  26  28
ENDBRANCH  25  26
ENDBRANCH  24  25
ENDBRANCH   1  24
TORSDOF 18
