REMARK SMILES O=C(Nc1ccccc1C(=O)OCCOC(=O)c1ccc(-c2c3nc(c(-c4ccc(S(=O)(=O)[O-])cc4)c4ccc([nH]4)c(-c4ccc(S(=O)(=O)[O-])cc4)c4nc(c(-c5ccc(S(=O)(=O)[O-])cc5)c5ccc2[nH]5)C=C4)C=C3)cc1)c1ccc(C[NH+]2CCOCC2)cc1
REMARK SMILES IDX 13 1 12 2 10 3 11 4 9 5 4 6 5 7 6 8 8 9 7 10 3 11 1 12 2 13
REMARK SMILES IDX 78 15 79 16 90 17 80 18 89 19 81 20 82 21 83 22 84 23 88 24
REMARK SMILES IDX 85 26 87 27 86 28 14 29 15 30 16 31 17 32 18 33 19 34 77 35
REMARK SMILES IDX 20 36 76 37 21 38 22 39 23 40 70 41 24 42 75 43 69 44 71 45
REMARK SMILES IDX 25 46 74 47 68 48 67 49 26 51 56 52 37 53 55 54 38 55 41 56
REMARK SMILES IDX 54 57 72 58 39 59 40 60 53 62 73 63 42 64 27 65 28 66 36 67
REMARK SMILES IDX 29 68 35 69 30 70 31 71 32 72 33 73 34 74 57 75 58 76 66 77
REMARK SMILES IDX 59 78 65 79 60 80 61 81 62 82 63 83 64 84 43 85 44 86 52 87
REMARK SMILES IDX 45 88 51 89 46 90 47 91 48 92 49 93 50 94
REMARK H PARENT 3 14 83 25 71 50 41 61
REMARK Flexibility Score: inf
ROOT
ATOM      1  C   UNL     1       2.334  -0.694   2.938  1.00  0.00     0.275 C 
ENDROOT
BRANCH   1   2
ATOM      2  O   UNL     1       2.937  -1.232   1.737  1.00  0.00    -0.458 OA
BRANCH   2   3
ATOM      3  C   UNL     1       4.088  -0.627   1.360  1.00  0.00     0.340 C 
ATOM      4  O   UNL     1       4.716   0.170   2.038  1.00  0.00    -0.246 OA
BRANCH   3   5
ATOM      5  C   UNL     1       4.567  -0.990   0.014  1.00  0.00     0.083 A 
ATOM      6  C   UNL     1       3.827  -0.823  -1.163  1.00  0.00     0.056 A 
ATOM      7  C   UNL     1       4.391  -1.266  -2.375  1.00  0.00     0.027 A 
ATOM      8  C   UNL     1       5.702  -1.752  -2.440  1.00  0.00     0.002 A 
ATOM      9  C   UNL     1       5.881  -1.492  -0.069  1.00  0.00     0.018 A 
ATOM     10  C   UNL     1       6.456  -1.851  -1.284  1.00  0.00     0.001 A 
BRANCH   6  11
ATOM     11  N   UNL     1       2.543  -0.250  -1.270  1.00  0.00    -0.321 N 
ATOM     12  O   UNL     1       0.699   0.848  -0.575  1.00  0.00    -0.269 OA
ATOM     13  C   UNL     1       1.927   0.760  -0.562  1.00  0.00     0.255 C 
ATOM     14  H   UNL     1       1.985  -0.643  -1.980  1.00  0.00     0.170 HD
BRANCH  13  15
ATOM     15  C   UNL     1       2.711   1.828   0.111  1.00  0.00     0.040 A 
ATOM     16  C   UNL     1       3.841   2.396  -0.480  1.00  0.00     0.014 A 
ATOM     17  C   UNL     1       2.264   2.321   1.340  1.00  0.00     0.014 A 
ATOM     18  C   UNL     1       4.562   3.383   0.203  1.00  0.00     0.010 A 
ATOM     19  C   UNL     1       3.030   3.254   2.051  1.00  0.00     0.010 A 
ATOM     20  C   UNL     1       4.214   3.774   1.506  1.00  0.00     0.006 A 
BRANCH  20  21
ATOM     21  C   UNL     1       5.033   4.798   2.271  1.00  0.00     0.299 C 
BRANCH  21  22
ATOM     22  N   UNL     1       6.346   4.438   2.809  1.00  0.00    -0.327 N 
ATOM     23  C   UNL     1       7.367   3.969   1.864  1.00  0.00     0.291 C 
ATOM     24  C   UNL     1       6.364   3.625   4.031  1.00  0.00     0.291 C 
ATOM     25  H   UNL     1       6.631   5.380   3.077  1.00  0.00     0.348 HD
ATOM     26  C   UNL     1       7.419   2.442   1.671  1.00  0.00     0.221 C 
ATOM     27  C   UNL     1       6.378   2.123   3.762  1.00  0.00     0.221 C 
ATOM     28  O   UNL     1       7.480   1.758   2.924  1.00  0.00    -0.370 OA
ENDBRANCH  21  22
ENDBRANCH  20  21
ENDBRANCH  13  15
ENDBRANCH   6  11
ENDBRANCH   3   5
ENDBRANCH   2   3
ENDBRANCH   1   2
BRANCH   1  29
ATOM     29  C   UNL     1       2.632  -1.460   4.230  1.00  0.00     0.275 C 
BRANCH  29  30
ATOM     30  O   UNL     1       3.976  -1.238   4.693  1.00  0.00    -0.458 OA
BRANCH  30  31
ATOM     31  C   UNL     1       4.857  -2.187   4.303  1.00  0.00     0.338 C 
ATOM     32  O   UNL     1       4.614  -3.191   3.658  1.00  0.00    -0.246 OA
BRANCH  31  33
ATOM     33  C   UNL     1       6.229  -1.780   4.638  1.00  0.00     0.060 A 
ATOM     34  C   UNL     1       7.013  -1.331   3.583  1.00  0.00     0.016 A 
ATOM     35  C   UNL     1       6.798  -1.978   5.891  1.00  0.00     0.016 A 
ATOM     36  C   UNL     1       8.378  -1.156   3.718  1.00  0.00     0.010 A 
ATOM     37  C   UNL     1       8.173  -1.753   6.052  1.00  0.00     0.010 A 
ATOM     38  C   UNL     1       8.975  -1.380   4.953  1.00  0.00    -0.014 A 
BRANCH  38  39
ATOM     39  C   UNL     1      10.453  -1.361   5.038  1.00  0.00     0.031 A 
ATOM     40  C   UNL     1      11.172  -2.664   5.239  1.00  0.00     0.074 A 
ATOM     41  C   UNL     1      11.145  -0.222   4.849  1.00  0.00     0.049 A 
ATOM     42  N   UNL     1      12.434  -2.882   5.493  1.00  0.00    -0.248 NA
ATOM     43  C   UNL     1      10.354  -3.886   5.141  1.00  0.00     0.031 C 
ATOM     44  C   UNL     1      10.563   1.077   4.506  1.00  0.00     0.029 A 
ATOM     45  N   UNL     1      12.492   0.025   4.912  1.00  0.00    -0.354 N 
ATOM     46  C   UNL     1      12.553  -4.259   5.636  1.00  0.00     0.074 A 
ATOM     47  C   UNL     1      11.237  -4.826   5.445  1.00  0.00     0.031 C 
ATOM     48  C   UNL     1      11.546   1.984   4.393  1.00  0.00     0.029 A 
ATOM     49  C   UNL     1      12.815   1.350   4.730  1.00  0.00     0.049 A 
ATOM     50  H   UNL     1      13.163  -0.677   5.072  1.00  0.00     0.167 HD
ATOM     51  C   UNL     1      13.664  -4.980   5.912  1.00  0.00     0.031 A 
ATOM     52  C   UNL     1      13.994   1.986   4.874  1.00  0.00     0.031 A 
ATOM     53  C   UNL     1      14.966  -4.394   6.088  1.00  0.00     0.049 A 
ATOM     54  C   UNL     1      15.198   1.180   5.284  1.00  0.00     0.074 A 
ATOM     55  C   UNL     1      16.158  -5.020   6.401  1.00  0.00     0.029 A 
ATOM     56  N   UNL     1      15.244  -3.040   5.958  1.00  0.00    -0.354 N 
ATOM     57  N   UNL     1      15.292  -0.114   5.490  1.00  0.00    -0.248 NA
ATOM     58  C   UNL     1      16.451   1.916   5.490  1.00  0.00     0.031 C 
ATOM     59  C   UNL     1      17.146  -4.036   6.515  1.00  0.00     0.029 A 
ATOM     60  C   UNL     1      16.584  -2.807   6.205  1.00  0.00     0.049 A 
ATOM     61  H   UNL     1      14.584  -2.348   5.724  1.00  0.00     0.167 HD
ATOM     62  C   UNL     1      16.620  -0.349   5.827  1.00  0.00     0.074 A 
ATOM     63  C   UNL     1      17.294   0.934   5.779  1.00  0.00     0.031 C 
ATOM     64  C   UNL     1      17.229  -1.518   6.146  1.00  0.00     0.031 A 
BRANCH  51  65
ATOM     65  C   UNL     1      13.496  -6.463   6.111  1.00  0.00    -0.014 A 
ATOM     66  C   UNL     1      13.200  -7.325   5.041  1.00  0.00     0.010 A 
ATOM     67  C   UNL     1      13.638  -7.002   7.404  1.00  0.00     0.010 A 
ATOM     68  C   UNL     1      13.006  -8.691   5.266  1.00  0.00     0.020 A 
ATOM     69  C   UNL     1      13.475  -8.371   7.629  1.00  0.00     0.020 A 
ATOM     70  C   UNL     1      13.141  -9.204   6.560  1.00  0.00     0.054 A 
BRANCH  70  71
ATOM     71  S   UNL     1      12.895 -10.982   6.824  1.00  0.00     0.124 S 
ATOM     72  O   UNL     1      11.449 -11.114   6.660  1.00  0.00    -0.237 OA
ATOM     73  O   UNL     1      13.703 -11.577   5.763  1.00  0.00    -0.237 OA
ATOM     74  O   UNL     1      13.391 -11.205   8.180  1.00  0.00    -0.744 OA
ENDBRANCH  70  71
ENDBRANCH  51  65
BRANCH  52  75
ATOM     75  C   UNL     1      14.076   3.464   4.697  1.00  0.00    -0.014 A 
ATOM     76  C   UNL     1      14.816   4.026   3.643  1.00  0.00     0.010 A 
ATOM     77  C   UNL     1      13.406   4.322   5.591  1.00  0.00     0.010 A 
ATOM     78  C   UNL     1      14.899   5.415   3.496  1.00  0.00     0.020 A 
ATOM     79  C   UNL     1      13.460   5.709   5.429  1.00  0.00     0.020 A 
ATOM     80  C   UNL     1      14.217   6.248   4.389  1.00  0.00     0.054 A 
BRANCH  80  81
ATOM     81  S   UNL     1      14.302   8.045   4.150  1.00  0.00     0.124 S 
ATOM     82  O   UNL     1      15.674   8.341   4.547  1.00  0.00    -0.237 OA
ATOM     83  O   UNL     1      14.011   8.188   2.725  1.00  0.00    -0.237 OA
ATOM     84  O   UNL     1      13.267   8.560   5.044  1.00  0.00    -0.744 OA
ENDBRANCH  80  81
ENDBRANCH  52  75
BRANCH  64  85
ATOM     85  C   UNL     1      18.707  -1.472   6.424  1.00  0.00    -0.014 A 
ATOM     86  C   UNL     1      19.212  -0.907   7.608  1.00  0.00     0.010 A 
ATOM     87  C   UNL     1      19.598  -2.063   5.510  1.00  0.00     0.010 A 
ATOM     88  C   UNL     1      20.587  -0.909   7.859  1.00  0.00     0.020 A 
ATOM     89  C   UNL     1      20.969  -2.095   5.771  1.00  0.00     0.020 A 
ATOM     90  C   UNL     1      21.456  -1.505   6.939  1.00  0.00     0.054 A 
BRANCH  90  91
ATOM     91  S   UNL     1      23.230  -1.540   7.311  1.00  0.00     0.124 S 
ATOM     92  O   UNL     1      23.613  -0.146   7.099  1.00  0.00    -0.237 OA
ATOM     93  O   UNL     1      23.257  -1.994   8.699  1.00  0.00    -0.237 OA
ATOM     94  O   UNL     1      23.770  -2.489   6.340  1.00  0.00    -0.744 OA
ENDBRANCH  90  91
ENDBRANCH  64  85
ENDBRANCH  38  39
ENDBRANCH  31  33
ENDBRANCH  30  31
ENDBRANCH  29  30
ENDBRANCH   1  29
TORSDOF 18
