REMARK SMILES COc1cccc([C@H]2CC(c3ccc(S(C)(=O)=O)cc3)=NN2c2ccc(C(=O)OCCOC(=O)c3ccc(-c4c5nc(c(-c6ccc(S(=O)(=O)[O-])cc6)c6ccc([nH]6)c(-c6ccc(S(=O)(=O)[O-])cc6)c6nc(c(-c7ccc(S(=O)(=O)[O-])cc7)c7ccc4[nH]7)C=C6)C=C5)cc3)cc2)c1
REMARK SMILES IDX 30 1 29 2 27 3 28 4 26 5 23 6 24 7 96 8 25 9 95 10 22 11
REMARK SMILES IDX 8 12 9 13 10 14 21 15 7 16 3 17 4 18 97 19 5 20 6 21 2 22
REMARK SMILES IDX 1 23 11 24 12 25 20 26 13 27 19 28 14 29 15 30 16 31 17 32
REMARK SMILES IDX 18 33 31 34 32 35 33 36 34 37 35 38 36 39 94 40 37 41 93 42
REMARK SMILES IDX 38 43 39 44 40 45 87 46 41 47 92 48 86 49 88 50 42 51 91 52
REMARK SMILES IDX 85 53 84 54 43 56 73 57 54 58 72 59 55 60 58 61 71 62 89 63
REMARK SMILES IDX 56 64 57 65 70 67 90 68 59 69 44 70 45 71 53 72 46 73 52 74
REMARK SMILES IDX 47 75 48 76 49 77 50 78 51 79 74 80 75 81 83 82 76 83 82 84
REMARK SMILES IDX 77 85 78 86 79 87 80 88 81 89 60 90 61 91 69 92 62 93 68 94
REMARK SMILES IDX 63 95 64 96 65 97 66 98 67 99
REMARK H PARENT 88 55 58 66
REMARK Flexibility Score: inf
ROOT
ATOM      1  C   UNL     1       5.106   3.881   9.291  1.00  0.00     0.275 C 
ENDROOT
BRANCH   1   2
ATOM      2  O   UNL     1       5.269   2.740   8.422  1.00  0.00    -0.458 OA
BRANCH   2   3
ATOM      3  C   UNL     1       4.487   2.747   7.315  1.00  0.00     0.338 C 
ATOM      4  O   UNL     1       3.672   3.602   7.004  1.00  0.00    -0.246 OA
BRANCH   3   5
ATOM      5  C   UNL     1       4.782   1.585   6.452  1.00  0.00     0.060 A 
ATOM      6  C   UNL     1       5.099  -0.589   4.689  1.00  0.00     0.060 A 
ATOM      7  C   UNL     1       5.167   0.725   4.223  1.00  0.00     0.029 A 
ATOM      8  C   UNL     1       4.910  -0.796   6.064  1.00  0.00     0.029 A 
ATOM      9  C   UNL     1       4.966   1.797   5.085  1.00  0.00     0.018 A 
ATOM     10  C   UNL     1       4.776   0.283   6.952  1.00  0.00     0.018 A 
BRANCH   6  11
ATOM     11  N   UNL     1       5.176  -1.638   3.785  1.00  0.00    -0.257 N 
ATOM     12  C   UNL     1       4.141  -2.660   3.625  1.00  0.00     0.144 C 
ATOM     13  C   UNL     1       4.590  -3.399   2.357  1.00  0.00     0.091 C 
ATOM     14  C   UNL     1       5.812  -2.600   1.999  1.00  0.00     0.071 C 
ATOM     15  N   UNL     1       6.104  -1.621   2.793  1.00  0.00    -0.176 NA
BRANCH  12  16
ATOM     16  C   UNL     1       2.736  -2.081   3.519  1.00  0.00    -0.019 A 
ATOM     17  C   UNL     1       1.022  -0.785   2.360  1.00  0.00     0.119 A 
ATOM     18  C   UNL     1       0.137  -1.026   3.412  1.00  0.00     0.046 A 
ATOM     19  C   UNL     1       2.323  -1.292   2.425  1.00  0.00     0.052 A 
ATOM     20  C   UNL     1       0.532  -1.786   4.510  1.00  0.00     0.004 A 
ATOM     21  C   UNL     1       1.821  -2.313   4.561  1.00  0.00     0.006 A 
BRANCH  17  22
ATOM     22  O   UNL     1       0.502  -0.025   1.350  1.00  0.00    -0.497 OA
ATOM     23  C   UNL     1       1.189  -0.055   0.105  1.00  0.00     0.278 C 
ENDBRANCH  17  22
ENDBRANCH  12  16
BRANCH  14  24
ATOM     24  C   UNL     1       6.661  -2.989   0.866  1.00  0.00    -0.002 A 
ATOM     25  C   UNL     1       8.024  -3.193   1.107  1.00  0.00     0.011 A 
ATOM     26  C   UNL     1       6.117  -3.207  -0.402  1.00  0.00     0.011 A 
ATOM     27  C   UNL     1       8.846  -3.664   0.085  1.00  0.00     0.021 A 
ATOM     28  C   UNL     1       6.945  -3.653  -1.436  1.00  0.00     0.021 A 
ATOM     29  C   UNL     1       8.301  -3.891  -1.183  1.00  0.00     0.067 A 
BRANCH  29  30
ATOM     30  S   UNL     1       9.340  -4.570  -2.456  1.00  0.00     0.175 S 
ATOM     31  C   UNL     1      10.582  -3.333  -2.725  1.00  0.00     0.163 C 
ATOM     32  O   UNL     1       9.974  -5.745  -1.886  1.00  0.00    -0.224 OA
ATOM     33  O   UNL     1       8.543  -4.675  -3.664  1.00  0.00    -0.224 OA
ENDBRANCH  29  30
ENDBRANCH  14  24
ENDBRANCH   6  11
ENDBRANCH   3   5
ENDBRANCH   2   3
ENDBRANCH   1   2
BRANCH   1  34
ATOM     34  C   UNL     1       6.193   4.929   9.052  1.00  0.00     0.275 C 
BRANCH  34  35
ATOM     35  O   UNL     1       6.060   5.495   7.736  1.00  0.00    -0.458 OA
BRANCH  35  36
ATOM     36  C   UNL     1       7.129   5.338   6.921  1.00  0.00     0.338 C 
ATOM     37  O   UNL     1       8.199   4.824   7.198  1.00  0.00    -0.246 OA
BRANCH  36  38
ATOM     38  C   UNL     1       6.830   5.876   5.582  1.00  0.00     0.060 A 
ATOM     39  C   UNL     1       5.774   5.346   4.851  1.00  0.00     0.016 A 
ATOM     40  C   UNL     1       7.696   6.789   4.985  1.00  0.00     0.016 A 
ATOM     41  C   UNL     1       5.668   5.602   3.486  1.00  0.00     0.010 A 
ATOM     42  C   UNL     1       7.497   7.159   3.648  1.00  0.00     0.010 A 
ATOM     43  C   UNL     1       6.513   6.531   2.862  1.00  0.00    -0.014 A 
BRANCH  43  44
ATOM     44  C   UNL     1       6.387   6.828   1.401  1.00  0.00     0.031 A 
ATOM     45  C   UNL     1       7.589   6.719   0.490  1.00  0.00     0.074 A 
ATOM     46  C   UNL     1       5.199   7.196   0.873  1.00  0.00     0.049 A 
ATOM     47  N   UNL     1       7.730   7.127  -0.747  1.00  0.00    -0.248 NA
ATOM     48  C   UNL     1       8.796   6.086   1.048  1.00  0.00     0.031 C 
ATOM     49  C   UNL     1       3.935   7.303   1.607  1.00  0.00     0.029 A 
ATOM     50  N   UNL     1       4.858   7.544  -0.413  1.00  0.00    -0.354 N 
ATOM     51  C   UNL     1       9.054   6.865  -1.088  1.00  0.00     0.074 A 
ATOM     52  C   UNL     1       9.675   6.263   0.072  1.00  0.00     0.031 C 
ATOM     53  C   UNL     1       2.954   7.635   0.756  1.00  0.00     0.029 A 
ATOM     54  C   UNL     1       3.530   7.875  -0.561  1.00  0.00     0.049 A 
ATOM     55  H   UNL     1       5.502   7.555  -1.157  1.00  0.00     0.167 HD
ATOM     56  C   UNL     1       9.695   7.108  -2.258  1.00  0.00     0.031 A 
ATOM     57  C   UNL     1       2.851   8.369  -1.614  1.00  0.00     0.031 A 
ATOM     58  C   UNL     1       9.062   7.658  -3.429  1.00  0.00     0.049 A 
ATOM     59  C   UNL     1       3.587   8.663  -2.889  1.00  0.00     0.074 A 
ATOM     60  C   UNL     1       9.624   7.924  -4.667  1.00  0.00     0.029 A 
ATOM     61  N   UNL     1       7.724   8.010  -3.516  1.00  0.00    -0.354 N 
ATOM     62  N   UNL     1       4.852   8.467  -3.171  1.00  0.00    -0.248 NA
ATOM     63  C   UNL     1       2.808   9.264  -3.979  1.00  0.00     0.031 C 
ATOM     64  C   UNL     1       8.635   8.475  -5.489  1.00  0.00     0.029 A 
ATOM     65  C   UNL     1       7.445   8.505  -4.780  1.00  0.00     0.049 A 
ATOM     66  H   UNL     1       7.069   7.922  -2.787  1.00  0.00     0.167 HD
ATOM     67  C   UNL     1       5.021   8.917  -4.475  1.00  0.00     0.074 A 
ATOM     68  C   UNL     1       3.724   9.371  -4.933  1.00  0.00     0.031 C 
ATOM     69  C   UNL     1       6.151   8.958  -5.221  1.00  0.00     0.031 A 
BRANCH  56  70
ATOM     70  C   UNL     1      11.174   6.819  -2.322  1.00  0.00    -0.014 A 
ATOM     71  C   UNL     1      11.669   5.504  -2.367  1.00  0.00     0.010 A 
ATOM     72  C   UNL     1      12.083   7.893  -2.382  1.00  0.00     0.010 A 
ATOM     73  C   UNL     1      13.046   5.269  -2.430  1.00  0.00     0.020 A 
ATOM     74  C   UNL     1      13.459   7.662  -2.472  1.00  0.00     0.020 A 
ATOM     75  C   UNL     1      13.933   6.349  -2.476  1.00  0.00     0.054 A 
BRANCH  75  76
ATOM     76  S   UNL     1      15.714   6.015  -2.575  1.00  0.00     0.124 S 
ATOM     77  O   UNL     1      16.016   5.587  -1.211  1.00  0.00    -0.237 OA
ATOM     78  O   UNL     1      15.789   4.968  -3.591  1.00  0.00    -0.237 OA
ATOM     79  O   UNL     1      16.288   7.300  -2.966  1.00  0.00    -0.744 OA
ENDBRANCH  75  76
ENDBRANCH  56  70
BRANCH  57  80
ATOM     80  C   UNL     1       1.400   8.678  -1.478  1.00  0.00    -0.014 A 
ATOM     81  C   UNL     1       0.437   7.910  -2.155  1.00  0.00     0.010 A 
ATOM     82  C   UNL     1       0.974   9.728  -0.643  1.00  0.00     0.010 A 
ATOM     83  C   UNL     1      -0.925   8.189  -2.001  1.00  0.00     0.020 A 
ATOM     84  C   UNL     1      -0.386   9.990  -0.463  1.00  0.00     0.020 A 
ATOM     85  C   UNL     1      -1.328   9.224  -1.152  1.00  0.00     0.054 A 
BRANCH  85  86
ATOM     86  S   UNL     1      -3.101   9.526  -0.912  1.00  0.00     0.124 S 
ATOM     87  O   UNL     1      -3.459  10.221  -2.144  1.00  0.00    -0.237 OA
ATOM     88  O   UNL     1      -3.637   8.175  -0.769  1.00  0.00    -0.237 OA
ATOM     89  O   UNL     1      -3.147  10.338   0.302  1.00  0.00    -0.744 OA
ENDBRANCH  85  86
ENDBRANCH  57  80
BRANCH  69  90
ATOM     90  C   UNL     1       6.029   9.487  -6.623  1.00  0.00    -0.014 A 
ATOM     91  C   UNL     1       5.871  10.863  -6.868  1.00  0.00     0.010 A 
ATOM     92  C   UNL     1       6.111   8.599  -7.711  1.00  0.00     0.010 A 
ATOM     93  C   UNL     1       5.768  11.338  -8.178  1.00  0.00     0.020 A 
ATOM     94  C   UNL     1       6.032   9.074  -9.023  1.00  0.00     0.020 A 
ATOM     95  C   UNL     1       5.846  10.440  -9.247  1.00  0.00     0.054 A 
BRANCH  95  96
ATOM     96  S   UNL     1       5.748  11.084 -10.940  1.00  0.00     0.124 S 
ATOM     97  O   UNL     1       4.322  11.371 -11.073  1.00  0.00    -0.237 OA
ATOM     98  O   UNL     1       6.622  12.253 -10.891  1.00  0.00    -0.237 OA
ATOM     99  O   UNL     1       6.240   9.979 -11.759  1.00  0.00    -0.744 OA
ENDBRANCH  95  96
ENDBRANCH  69  90
ENDBRANCH  43  44
ENDBRANCH  36  38
ENDBRANCH  35  36
ENDBRANCH  34  35
ENDBRANCH   1  34
TORSDOF 19
