REMARK SMILES CC(=O)NS(=O)(=O)c1ccc(-c2ccn(C(F)F)c(=O)c2)cc1C(=O)OCCOC(=O)c1ccc(-c2c3nc(c(-c4ccc(S(=O)(=O)[O-])cc4)c4ccc([nH]4)c(-c4ccc(S(=O)(=O)[O-])cc4)c4nc(c(-c5ccc(S(=O)(=O)[O-])cc5)c5ccc2[nH]5)C=C4)C=C3)cc1
REMARK SMILES IDX 28 1 27 2 26 3 24 4 25 5 23 6 8 7 9 8 10 9 22 10 11 11 5 12
REMARK SMILES IDX 6 13 7 14 4 15 1 16 2 17 3 18 12 20 13 21 21 22 14 23 19 24
REMARK SMILES IDX 15 25 20 26 16 27 17 28 18 29 29 30 30 31 31 32 32 33 33 34
REMARK SMILES IDX 91 35 34 36 90 37 35 38 36 39 37 40 84 41 38 42 89 43 83 44
REMARK SMILES IDX 85 45 39 46 88 47 82 48 81 49 40 51 70 52 51 53 69 54 52 55
REMARK SMILES IDX 55 56 68 57 86 58 53 59 54 60 67 62 87 63 56 64 41 65 42 66
REMARK SMILES IDX 50 67 43 68 49 69 44 70 45 71 46 72 47 73 48 74 71 75 72 76
REMARK SMILES IDX 80 77 73 78 79 79 74 80 75 81 76 82 77 83 78 84 57 85 58 86
REMARK SMILES IDX 66 87 59 88 65 89 60 90 61 91 62 92 63 93 64 94
REMARK H PARENT 4 19 85 50 55 61
REMARK Flexibility Score: inf
ROOT
ATOM      1  C   UNL     1       1.084   1.533  -6.604  1.00  0.00     0.275 C 
ENDROOT
BRANCH   1   2
ATOM      2  C   UNL     1       2.311   0.791  -6.083  1.00  0.00     0.275 C 
BRANCH   2   3
ATOM      3  O   UNL     1       2.287   0.740  -4.641  1.00  0.00    -0.458 OA
BRANCH   3   4
ATOM      4  C   UNL     1       3.134   1.557  -3.991  1.00  0.00     0.339 C 
ATOM      5  O   UNL     1       3.918   2.333  -4.518  1.00  0.00    -0.246 OA
BRANCH   4   6
ATOM      6  C   UNL     1       2.979   1.515  -2.511  1.00  0.00     0.081 A 
ATOM      7  C   UNL     1       2.682   0.396  -1.726  1.00  0.00     0.102 A 
ATOM      8  C   UNL     1       2.827   0.472  -0.328  1.00  0.00     0.024 A 
ATOM      9  C   UNL     1       3.057   1.696   0.302  1.00  0.00     0.010 A 
ATOM     10  C   UNL     1       3.240   2.735  -1.856  1.00  0.00     0.025 A 
ATOM     11  C   UNL     1       3.194   2.851  -0.463  1.00  0.00    -0.017 A 
BRANCH   7  12
ATOM     12  S   UNL     1       1.973  -1.067  -2.430  1.00  0.00     0.264 S 
ATOM     13  O   UNL     1       3.040  -1.791  -3.086  1.00  0.00    -0.201 OA
ATOM     14  O   UNL     1       0.737  -0.722  -3.091  1.00  0.00    -0.201 OA
BRANCH  12  15
ATOM     15  N   UNL     1       1.535  -2.005  -1.117  1.00  0.00    -0.249 N 
ATOM     16  C   UNL     1      -0.294  -0.603  -0.119  1.00  0.00     0.115 C 
ATOM     17  C   UNL     1       0.291  -1.950  -0.459  1.00  0.00     0.230 C 
ATOM     18  O   UNL     1      -0.180  -2.988  -0.012  1.00  0.00    -0.274 OA
ATOM     19  H   UNL     1       2.200  -2.647  -0.778  1.00  0.00     0.183 HD
ENDBRANCH  12  15
ENDBRANCH   7  12
BRANCH  11  20
ATOM     20  C   UNL     1       3.196   4.188   0.155  1.00  0.00    -0.011 A 
ATOM     21  C   UNL     1       2.083   5.106  -0.021  1.00  0.00     0.027 A 
ATOM     22  C   UNL     1       4.248   4.573   0.894  1.00  0.00     0.080 A 
ATOM     23  C   UNL     1       2.130   6.341   0.491  1.00  0.00     0.095 A 
ATOM     24  C   UNL     1       4.290   5.928   1.517  1.00  0.00     0.255 A 
ATOM     25  N   UNL     1       3.221   6.761   1.228  1.00  0.00    -0.258 N 
ATOM     26  O   UNL     1       5.248   6.202   2.232  1.00  0.00    -0.269 OA
BRANCH  25  27
ATOM     27  C   UNL     1       3.261   8.098   1.772  1.00  0.00     0.451 C 
ATOM     28  F   UNL     1       3.204   8.056   3.126  1.00  0.00    -0.185 F 
ATOM     29  F   UNL     1       4.407   8.729   1.421  1.00  0.00    -0.185 F 
ENDBRANCH  25  27
ENDBRANCH  11  20
ENDBRANCH   4   6
ENDBRANCH   3   4
ENDBRANCH   2   3
ENDBRANCH   1   2
BRANCH   1  30
ATOM     30  O   UNL     1       1.156   2.905  -6.181  1.00  0.00    -0.458 OA
BRANCH  30  31
ATOM     31  C   UNL     1       0.036   3.415  -5.621  1.00  0.00     0.338 C 
ATOM     32  O   UNL     1      -1.052   2.877  -5.505  1.00  0.00    -0.246 OA
BRANCH  31  33
ATOM     33  C   UNL     1       0.319   4.774  -5.128  1.00  0.00     0.060 A 
ATOM     34  C   UNL     1       1.376   4.981  -4.243  1.00  0.00     0.016 A 
ATOM     35  C   UNL     1      -0.528   5.828  -5.462  1.00  0.00     0.016 A 
ATOM     36  C   UNL     1       1.543   6.220  -3.627  1.00  0.00     0.010 A 
ATOM     37  C   UNL     1      -0.305   7.095  -4.910  1.00  0.00     0.010 A 
ATOM     38  C   UNL     1       0.707   7.298  -3.953  1.00  0.00    -0.014 A 
BRANCH  38  39
ATOM     39  C   UNL     1       0.848   8.612  -3.258  1.00  0.00     0.031 A 
ATOM     40  C   UNL     1      -0.320   9.198  -2.502  1.00  0.00     0.074 A 
ATOM     41  C   UNL     1       2.018   9.284  -3.276  1.00  0.00     0.049 A 
ATOM     42  N   UNL     1      -0.449  10.390  -1.976  1.00  0.00    -0.248 NA
ATOM     43  C   UNL     1      -1.498   8.335  -2.319  1.00  0.00     0.031 C 
ATOM     44  C   UNL     1       3.251   8.832  -3.923  1.00  0.00     0.029 A 
ATOM     45  N   UNL     1       2.362  10.493  -2.720  1.00  0.00    -0.354 N 
ATOM     46  C   UNL     1      -1.746  10.449  -1.477  1.00  0.00     0.074 A 
ATOM     47  C   UNL     1      -2.355   9.163  -1.738  1.00  0.00     0.031 C 
ATOM     48  C   UNL     1       4.226   9.724  -3.688  1.00  0.00     0.029 A 
ATOM     49  C   UNL     1       3.670  10.854  -2.951  1.00  0.00     0.049 A 
ATOM     50  H   UNL     1       1.732  11.049  -2.206  1.00  0.00     0.167 HD
ATOM     51  C   UNL     1      -2.378  11.482  -0.870  1.00  0.00     0.031 A 
ATOM     52  C   UNL     1       4.342  11.981  -2.647  1.00  0.00     0.031 A 
ATOM     53  C   UNL     1      -1.766  12.748  -0.567  1.00  0.00     0.049 A 
ATOM     54  C   UNL     1       3.625  13.112  -1.969  1.00  0.00     0.074 A 
ATOM     55  C   UNL     1      -2.329  13.851   0.053  1.00  0.00     0.029 A 
ATOM     56  N   UNL     1      -0.450  13.077  -0.846  1.00  0.00    -0.354 N 
ATOM     57  N   UNL     1       2.376  13.172  -1.573  1.00  0.00    -0.248 NA
ATOM     58  C   UNL     1       4.400  14.336  -1.722  1.00  0.00     0.031 C 
ATOM     59  C   UNL     1      -1.357  14.855   0.129  1.00  0.00     0.029 A 
ATOM     60  C   UNL     1      -0.180  14.363  -0.411  1.00  0.00     0.049 A 
ATOM     61  H   UNL     1       0.199  12.483  -1.289  1.00  0.00     0.167 HD
ATOM     62  C   UNL     1       2.214  14.445  -1.038  1.00  0.00     0.074 A 
ATOM     63  C   UNL     1       3.497  15.110  -1.134  1.00  0.00     0.031 C 
ATOM     64  C   UNL     1       1.097  15.016  -0.525  1.00  0.00     0.031 A 
BRANCH  51  65
ATOM     65  C   UNL     1      -3.833  11.299  -0.532  1.00  0.00    -0.014 A 
ATOM     66  C   UNL     1      -4.240  10.518   0.563  1.00  0.00     0.010 A 
ATOM     67  C   UNL     1      -4.808  11.944  -1.316  1.00  0.00     0.010 A 
ATOM     68  C   UNL     1      -5.599  10.352   0.844  1.00  0.00     0.020 A 
ATOM     69  C   UNL     1      -6.166  11.798  -1.025  1.00  0.00     0.020 A 
ATOM     70  C   UNL     1      -6.554  10.986   0.042  1.00  0.00     0.054 A 
BRANCH  70  71
ATOM     71  S   UNL     1      -8.312  10.762   0.428  1.00  0.00     0.124 S 
ATOM     72  O   UNL     1      -8.574   9.438  -0.132  1.00  0.00    -0.237 OA
ATOM     73  O   UNL     1      -8.337  10.842   1.886  1.00  0.00    -0.237 OA
ATOM     74  O   UNL     1      -8.961  11.872  -0.265  1.00  0.00    -0.744 OA
ENDBRANCH  70  71
ENDBRANCH  51  65
BRANCH  52  75
ATOM     75  C   UNL     1       5.771  12.114  -3.040  1.00  0.00    -0.014 A 
ATOM     76  C   UNL     1       6.787  12.045  -2.071  1.00  0.00     0.010 A 
ATOM     77  C   UNL     1       6.122  12.278  -4.392  1.00  0.00     0.010 A 
ATOM     78  C   UNL     1       8.130  12.136  -2.449  1.00  0.00     0.020 A 
ATOM     79  C   UNL     1       7.463  12.345  -4.775  1.00  0.00     0.020 A 
ATOM     80  C   UNL     1       8.460  12.281  -3.800  1.00  0.00     0.054 A 
BRANCH  80  81
ATOM     81  S   UNL     1      10.207  12.313  -4.289  1.00  0.00     0.124 S 
ATOM     82  O   UNL     1      10.561  13.709  -4.056  1.00  0.00    -0.237 OA
ATOM     83  O   UNL     1      10.816  11.345  -3.380  1.00  0.00    -0.237 OA
ATOM     84  O   UNL     1      10.171  11.899  -5.690  1.00  0.00    -0.744 OA
ENDBRANCH  80  81
ENDBRANCH  52  75
BRANCH  64  85
ATOM     85  C   UNL     1       1.217  16.426  -0.021  1.00  0.00    -0.014 A 
ATOM     86  C   UNL     1       1.246  17.510  -0.916  1.00  0.00     0.010 A 
ATOM     87  C   UNL     1       1.266  16.672   1.363  1.00  0.00     0.010 A 
ATOM     88  C   UNL     1       1.349  18.818  -0.435  1.00  0.00     0.020 A 
ATOM     89  C   UNL     1       1.351  17.980   1.847  1.00  0.00     0.020 A 
ATOM     90  C   UNL     1       1.407  19.044   0.944  1.00  0.00     0.054 A 
BRANCH  90  91
ATOM     91  S   UNL     1       1.505  20.751   1.551  1.00  0.00     0.124 S 
ATOM     92  O   UNL     1       2.920  21.059   1.361  1.00  0.00    -0.237 OA
ATOM     93  O   UNL     1       0.583  21.463   0.669  1.00  0.00    -0.237 OA
ATOM     94  O   UNL     1       1.070  20.646   2.942  1.00  0.00    -0.744 OA
ENDBRANCH  90  91
ENDBRANCH  64  85
ENDBRANCH  38  39
ENDBRANCH  31  33
ENDBRANCH  30  31
ENDBRANCH   1  30
TORSDOF 18
