REMARK SMILES CS(=O)(=O)c1ccc(-c2cc(Cl)cc3c2O[C@H](C(F)(F)F)C(C(=O)OCCOC(=O)c2ccc(-c4c5nc(c(-c6ccc(S(=O)(=O)[O-])cc6)c6ccc([nH]6)c(-c6ccc(S(=O)(=O)[O-])cc6)c6nc(c(-c7ccc(S(=O)(=O)[O-])cc7)c7ccc4[nH]7)C=C6)C=C5)cc2)=C3)cc1
REMARK SMILES IDX 27 1 26 2 25 3 23 4 24 5 22 6 9 7 10 8 15 9 11 10 14 11
REMARK SMILES IDX 16 12 12 13 13 14 91 15 17 16 8 17 5 18 6 19 93 20 7 21
REMARK SMILES IDX 92 22 2 23 1 24 3 25 4 26 18 27 19 28 20 29 21 30 28 31
REMARK SMILES IDX 29 32 30 33 31 34 32 35 90 36 33 37 89 38 34 39 35 40 36 41
REMARK SMILES IDX 83 42 37 43 88 44 82 45 84 46 38 47 87 48 81 49 80 50 39 52
REMARK SMILES IDX 69 53 50 54 68 55 51 56 54 57 67 58 85 59 52 60 53 61 66 63
REMARK SMILES IDX 86 64 55 65 40 66 41 67 49 68 42 69 48 70 43 71 44 72 45 73
REMARK SMILES IDX 46 74 47 75 70 76 71 77 79 78 72 79 78 80 73 81 74 82 75 83
REMARK SMILES IDX 76 84 77 85 56 86 57 87 65 88 58 89 64 90 59 91 60 92 61 93
REMARK SMILES IDX 62 94 63 95
REMARK H PARENT 84 51 54 62
REMARK Flexibility Score: inf
ROOT
ATOM      1  C   UNL     1       2.560   3.444  12.324  1.00  0.00     0.275 C 
ENDROOT
BRANCH   1   2
ATOM      2  C   UNL     1       2.529   4.965  12.169  1.00  0.00     0.275 C 
BRANCH   2   3
ATOM      3  O   UNL     1       1.582   5.413  11.170  1.00  0.00    -0.459 OA
BRANCH   3   4
ATOM      4  C   UNL     1       1.788   6.708  10.816  1.00  0.00     0.338 C 
ATOM      5  O   UNL     1       2.630   7.437  11.327  1.00  0.00    -0.246 OA
BRANCH   4   6
ATOM      6  C   UNL     1       0.945   7.163   9.681  1.00  0.00     0.087 C 
ATOM      7  C   UNL     1       1.350   5.352   6.063  1.00  0.00     0.026 A 
ATOM      8  C   UNL     1       2.698   4.918   6.060  1.00  0.00     0.033 A 
ATOM      9  C   UNL     1       1.013   6.217   7.105  1.00  0.00     0.135 A 
ATOM     10  C   UNL     1       3.674   5.448   6.911  1.00  0.00     0.042 A 
ATOM     11  C   UNL     1       2.042   6.905   7.794  1.00  0.00     0.019 A 
ATOM     12  O   UNL     1      -0.266   6.353   7.622  1.00  0.00    -0.475 OA
ATOM     13  Cl  UNL     1       5.269   4.826   7.011  1.00  0.00    -0.084 Cl
ATOM     14  C   UNL     1       3.367   6.521   7.712  1.00  0.00     0.032 A 
ATOM     15  C   UNL     1       1.652   7.902   8.809  1.00  0.00     0.027 C 
ATOM     16  C   UNL     1      -0.236   6.380   9.126  1.00  0.00     0.316 C 
BRANCH   7  17
ATOM     17  C   UNL     1       0.580   5.030   4.829  1.00  0.00    -0.015 A 
ATOM     18  C   UNL     1      -0.085   4.079   2.228  1.00  0.00     0.067 A 
ATOM     19  C   UNL     1      -0.554   3.413   3.363  1.00  0.00     0.021 A 
ATOM     20  C   UNL     1       0.631   5.264   2.375  1.00  0.00     0.021 A 
ATOM     21  C   UNL     1      -0.242   3.906   4.655  1.00  0.00     0.010 A 
ATOM     22  C   UNL     1       0.952   5.727   3.657  1.00  0.00     0.010 A 
BRANCH  18  23
ATOM     23  S   UNL     1      -0.425   3.481   0.578  1.00  0.00     0.175 S 
ATOM     24  C   UNL     1       0.188   1.823   0.502  1.00  0.00     0.163 C 
ATOM     25  O   UNL     1       0.360   4.279  -0.336  1.00  0.00    -0.224 OA
ATOM     26  O   UNL     1      -1.879   3.442   0.460  1.00  0.00    -0.224 OA
ENDBRANCH  18  23
ENDBRANCH   7  17
BRANCH  16  27
ATOM     27  C   UNL     1      -1.498   7.046   9.682  1.00  0.00     0.430 C 
ATOM     28  F   UNL     1      -1.643   8.315   9.229  1.00  0.00    -0.167 F 
ATOM     29  F   UNL     1      -2.619   6.365   9.365  1.00  0.00    -0.167 F 
ATOM     30  F   UNL     1      -1.450   7.118  11.038  1.00  0.00    -0.167 F 
ENDBRANCH  16  27
ENDBRANCH   4   6
ENDBRANCH   3   4
ENDBRANCH   2   3
ENDBRANCH   1   2
BRANCH   1  31
ATOM     31  O   UNL     1       2.892   2.805  11.077  1.00  0.00    -0.458 OA
BRANCH  31  32
ATOM     32  C   UNL     1       1.816   2.383  10.373  1.00  0.00     0.338 C 
ATOM     33  O   UNL     1       0.649   2.450  10.742  1.00  0.00    -0.246 OA
BRANCH  32  34
ATOM     34  C   UNL     1       2.191   1.931   9.012  1.00  0.00     0.060 A 
ATOM     35  C   UNL     1       1.209   2.062   8.033  1.00  0.00     0.016 A 
ATOM     36  C   UNL     1       3.433   1.381   8.665  1.00  0.00     0.016 A 
ATOM     37  C   UNL     1       1.479   1.679   6.722  1.00  0.00     0.010 A 
ATOM     38  C   UNL     1       3.690   0.983   7.333  1.00  0.00     0.010 A 
ATOM     39  C   UNL     1       2.719   1.147   6.336  1.00  0.00    -0.014 A 
BRANCH  39  40
ATOM     40  C   UNL     1       2.897   0.811   4.883  1.00  0.00     0.031 A 
ATOM     41  C   UNL     1       1.963  -0.169   4.228  1.00  0.00     0.074 A 
ATOM     42  C   UNL     1       3.711   1.536   4.086  1.00  0.00     0.049 A 
ATOM     43  N   UNL     1       1.825  -0.443   2.957  1.00  0.00    -0.248 NA
ATOM     44  C   UNL     1       1.065  -0.929   5.113  1.00  0.00     0.031 C 
ATOM     45  C   UNL     1       4.646   2.540   4.559  1.00  0.00     0.029 A 
ATOM     46  N   UNL     1       3.825   1.621   2.716  1.00  0.00    -0.354 N 
ATOM     47  C   UNL     1       0.829  -1.405   2.888  1.00  0.00     0.074 A 
ATOM     48  C   UNL     1       0.365  -1.637   4.239  1.00  0.00     0.031 C 
ATOM     49  C   UNL     1       5.094   3.270   3.526  1.00  0.00     0.029 A 
ATOM     50  C   UNL     1       4.609   2.676   2.287  1.00  0.00     0.049 A 
ATOM     51  H   UNL     1       3.388   0.991   2.099  1.00  0.00     0.167 HD
ATOM     52  C   UNL     1       0.367  -2.067   1.803  1.00  0.00     0.031 A 
ATOM     53  C   UNL     1       4.940   3.098   1.047  1.00  0.00     0.031 A 
ATOM     54  C   UNL     1       0.901  -1.934   0.477  1.00  0.00     0.049 A 
ATOM     55  C   UNL     1       4.503   2.263  -0.128  1.00  0.00     0.074 A 
ATOM     56  C   UNL     1       0.553  -2.635  -0.664  1.00  0.00     0.029 A 
ATOM     57  N   UNL     1       1.913  -1.061   0.116  1.00  0.00    -0.354 N 
ATOM     58  N   UNL     1       3.701   1.225  -0.140  1.00  0.00    -0.248 NA
ATOM     59  C   UNL     1       5.070   2.604  -1.441  1.00  0.00     0.031 C 
ATOM     60  C   UNL     1       1.349  -2.174  -1.719  1.00  0.00     0.029 A 
ATOM     61  C   UNL     1       2.141  -1.142  -1.246  1.00  0.00     0.049 A 
ATOM     62  H   UNL     1       2.398  -0.471   0.737  1.00  0.00     0.167 HD
ATOM     63  C   UNL     1       3.688   0.777  -1.456  1.00  0.00     0.074 A 
ATOM     64  C   UNL     1       4.531   1.673  -2.217  1.00  0.00     0.031 C 
ATOM     65  C   UNL     1       3.034  -0.286  -1.982  1.00  0.00     0.031 A 
BRANCH  52  66
ATOM     66  C   UNL     1      -0.740  -3.050   2.042  1.00  0.00    -0.014 A 
ATOM     67  C   UNL     1      -2.055  -2.607   2.265  1.00  0.00     0.010 A 
ATOM     68  C   UNL     1      -0.455  -4.425   2.067  1.00  0.00     0.010 A 
ATOM     69  C   UNL     1      -3.064  -3.527   2.555  1.00  0.00     0.020 A 
ATOM     70  C   UNL     1      -1.466  -5.349   2.337  1.00  0.00     0.020 A 
ATOM     71  C   UNL     1      -2.759  -4.891   2.601  1.00  0.00     0.054 A 
BRANCH  71  72
ATOM     72  S   UNL     1      -4.081  -6.063   3.006  1.00  0.00     0.124 S 
ATOM     73  O   UNL     1      -4.250  -5.835   4.439  1.00  0.00    -0.237 OA
ATOM     74  O   UNL     1      -5.182  -5.609   2.163  1.00  0.00    -0.237 OA
ATOM     75  O   UNL     1      -3.514  -7.360   2.645  1.00  0.00    -0.744 OA
ENDBRANCH  71  72
ENDBRANCH  52  66
BRANCH  53  76
ATOM     76  C   UNL     1       5.829   4.283   0.835  1.00  0.00    -0.014 A 
ATOM     77  C   UNL     1       5.394   5.403   0.099  1.00  0.00     0.010 A 
ATOM     78  C   UNL     1       7.149   4.275   1.324  1.00  0.00     0.010 A 
ATOM     79  C   UNL     1       6.264   6.472  -0.158  1.00  0.00     0.020 A 
ATOM     80  C   UNL     1       8.007   5.357   1.107  1.00  0.00     0.020 A 
ATOM     81  C   UNL     1       7.566   6.441   0.349  1.00  0.00     0.054 A 
BRANCH  81  82
ATOM     82  S   UNL     1       8.681   7.840   0.040  1.00  0.00     0.124 S 
ATOM     83  O   UNL     1       9.119   7.582  -1.328  1.00  0.00    -0.237 OA
ATOM     84  O   UNL     1       7.805   8.995   0.219  1.00  0.00    -0.237 OA
ATOM     85  O   UNL     1       9.710   7.685   1.067  1.00  0.00    -0.744 OA
ENDBRANCH  81  82
ENDBRANCH  53  76
BRANCH  65  86
ATOM     86  C   UNL     1       3.193  -0.537  -3.454  1.00  0.00    -0.014 A 
ATOM     87  C   UNL     1       4.357  -1.133  -3.970  1.00  0.00     0.010 A 
ATOM     88  C   UNL     1       2.131  -0.230  -4.322  1.00  0.00     0.010 A 
ATOM     89  C   UNL     1       4.454  -1.417  -5.335  1.00  0.00     0.020 A 
ATOM     90  C   UNL     1       2.216  -0.531  -5.683  1.00  0.00     0.020 A 
ATOM     91  C   UNL     1       3.380  -1.120  -6.181  1.00  0.00     0.054 A 
BRANCH  91  92
ATOM     92  S   UNL     1       3.499  -1.570  -7.935  1.00  0.00     0.124 S 
ATOM     93  O   UNL     1       4.452  -0.586  -8.439  1.00  0.00    -0.237 OA
ATOM     94  O   UNL     1       3.988  -2.946  -7.877  1.00  0.00    -0.237 OA
ATOM     95  O   UNL     1       2.130  -1.422  -8.424  1.00  0.00    -0.744 OA
ENDBRANCH  91  92
ENDBRANCH  65  86
ENDBRANCH  39  40
ENDBRANCH  32  34
ENDBRANCH  31  32
ENDBRANCH   1  31
TORSDOF 17
