REMARK SMILES CCC[NH2+][C@]1(C(=O)OCCOC(=O)c2ccc(-c3c4nc(c(-c5ccc(S(=O)(=O)[O-])cc5)c5ccc([nH]5)c(-c5ccc(S(=O)(=O)[O-])cc5)c5nc(c(-c6ccc(S(=O)(=O)[O-])cc6)c6ccc3[nH]6)C=C5)C=C4)cc2)CCC[C@H](Sc2nnc(C)o2)C1
REMARK SMILES IDX 9 1 8 2 6 3 7 4 5 5 74 6 85 7 75 8 77 9 76 10 4 11 3 14 2 15
REMARK SMILES IDX 1 16 78 17 79 18 80 19 84 20 81 21 82 22 83 23 10 24 11 25
REMARK SMILES IDX 12 26 13 27 14 28 15 29 73 30 16 31 72 32 17 33 18 34 19 35
REMARK SMILES IDX 66 36 20 37 71 38 65 39 67 40 21 41 70 42 64 43 63 44 22 46
REMARK SMILES IDX 52 47 33 48 51 49 34 50 37 51 50 52 68 53 35 54 36 55 49 57
REMARK SMILES IDX 69 58 38 59 23 60 24 61 32 62 25 63 31 64 26 65 27 66 28 67
REMARK SMILES IDX 29 68 30 69 53 70 54 71 62 72 55 73 61 74 56 75 57 76 58 77
REMARK SMILES IDX 59 78 60 79 39 80 40 81 48 82 41 83 47 84 42 85 43 86 44 87
REMARK SMILES IDX 45 88 46 89
REMARK H PARENT 4 12 4 13 67 45 37 56
REMARK Flexibility Score: inf
ROOT
ATOM      1  C   UNL     1      -0.723   0.806  -0.842  1.00  0.00     0.274 C 
ENDROOT
BRANCH   1   2
ATOM      2  O   UNL     1      -0.499   1.012  -2.252  1.00  0.00    -0.457 OA
BRANCH   2   3
ATOM      3  C   UNL     1       0.650   1.649  -2.614  1.00  0.00     0.368 C 
ATOM      4  O   UNL     1       1.519   1.990  -1.817  1.00  0.00    -0.245 OA
BRANCH   3   5
ATOM      5  C   UNL     1       0.748   1.921  -4.148  1.00  0.00     0.195 C 
ATOM      6  C   UNL     1       0.860   3.451  -4.330  1.00  0.00     0.081 C 
ATOM      7  C   UNL     1       2.060   1.256  -4.670  1.00  0.00     0.096 C 
ATOM      8  C   UNL     1       1.242   3.868  -5.747  1.00  0.00     0.008 C 
ATOM      9  C   UNL     1       2.543   1.690  -6.073  1.00  0.00     0.063 C 
ATOM     10  C   UNL     1       2.555   3.220  -6.175  1.00  0.00     0.015 C 
BRANCH   5  11
ATOM     11  N   UNL     1      -0.359   1.285  -4.900  1.00  0.00    -0.332 N 
ATOM     12  H   UNL     1      -0.055   1.208  -5.870  1.00  0.00     0.347 HD
ATOM     13  H   UNL     1      -0.522   0.411  -4.401  1.00  0.00     0.347 HD
BRANCH  11  14
ATOM     14  C   UNL     1      -1.663   1.926  -4.912  1.00  0.00     0.261 C 
BRANCH  14  15
ATOM     15  C   UNL     1      -2.595   1.204  -5.896  1.00  0.00     0.058 C 
ATOM     16  C   UNL     1      -2.869  -0.252  -5.544  1.00  0.00     0.010 C 
ENDBRANCH  14  15
ENDBRANCH  11  14
ENDBRANCH   5  11
BRANCH   9  17
ATOM     17  S   UNL     1       1.547   0.868  -7.372  1.00  0.00    -0.062 SA
BRANCH  17  18
ATOM     18  C   UNL     1       2.376   1.273  -8.834  1.00  0.00     0.276 A 
ATOM     19  N   UNL     1       3.567   1.827  -8.929  1.00  0.00    -0.101 NA
ATOM     20  O   UNL     1       1.806   1.057 -10.062  1.00  0.00    -0.416 OA
ATOM     21  N   UNL     1       3.816   2.008 -10.276  1.00  0.00    -0.112 NA
ATOM     22  C   UNL     1       2.764   1.536 -10.907  1.00  0.00     0.214 A 
ATOM     23  C   UNL     1       2.478   1.475 -12.349  1.00  0.00     0.113 C 
ENDBRANCH  17  18
ENDBRANCH   9  17
ENDBRANCH   3   5
ENDBRANCH   2   3
ENDBRANCH   1   2
BRANCH   1  24
ATOM     24  C   UNL     1      -0.882  -0.681  -0.542  1.00  0.00     0.275 C 
BRANCH  24  25
ATOM     25  O   UNL     1       0.377  -1.347  -0.739  1.00  0.00    -0.458 OA
BRANCH  25  26
ATOM     26  C   UNL     1       0.482  -2.050  -1.886  1.00  0.00     0.338 C 
ATOM     27  O   UNL     1      -0.388  -2.254  -2.719  1.00  0.00    -0.246 OA
BRANCH  26  28
ATOM     28  C   UNL     1       1.877  -2.468  -2.067  1.00  0.00     0.060 A 
ATOM     29  C   UNL     1       2.781  -1.526  -2.549  1.00  0.00     0.016 A 
ATOM     30  C   UNL     1       2.255  -3.800  -1.918  1.00  0.00     0.016 A 
ATOM     31  C   UNL     1       4.030  -1.934  -3.007  1.00  0.00     0.010 A 
ATOM     32  C   UNL     1       3.550  -4.188  -2.282  1.00  0.00     0.010 A 
ATOM     33  C   UNL     1       4.435  -3.271  -2.881  1.00  0.00    -0.014 A 
BRANCH  33  34
ATOM     34  C   UNL     1       5.743  -3.713  -3.446  1.00  0.00     0.031 A 
ATOM     35  C   UNL     1       5.789  -4.784  -4.508  1.00  0.00     0.074 A 
ATOM     36  C   UNL     1       6.895  -3.131  -3.054  1.00  0.00     0.049 A 
ATOM     37  N   UNL     1       6.827  -5.400  -5.016  1.00  0.00    -0.248 NA
ATOM     38  C   UNL     1       4.500  -5.233  -5.061  1.00  0.00     0.031 C 
ATOM     39  C   UNL     1       7.014  -2.052  -2.069  1.00  0.00     0.029 A 
ATOM     40  N   UNL     1       8.188  -3.347  -3.462  1.00  0.00    -0.354 N 
ATOM     41  C   UNL     1       6.315  -6.359  -5.883  1.00  0.00     0.074 A 
ATOM     42  C   UNL     1       4.874  -6.233  -5.847  1.00  0.00     0.031 C 
ATOM     43  C   UNL     1       8.294  -1.657  -2.002  1.00  0.00     0.029 A 
ATOM     44  C   UNL     1       9.101  -2.501  -2.877  1.00  0.00     0.049 A 
ATOM     45  H   UNL     1       8.439  -4.042  -4.112  1.00  0.00     0.167 HD
ATOM     46  C   UNL     1       6.981  -7.268  -6.635  1.00  0.00     0.031 A 
ATOM     47  C   UNL     1      10.439  -2.422  -3.009  1.00  0.00     0.031 A 
ATOM     48  C   UNL     1       8.414  -7.353  -6.731  1.00  0.00     0.049 A 
ATOM     49  C   UNL     1      11.155  -3.401  -3.893  1.00  0.00     0.074 A 
ATOM     50  C   UNL     1       9.181  -8.259  -7.445  1.00  0.00     0.029 A 
ATOM     51  N   UNL     1       9.296  -6.474  -6.124  1.00  0.00    -0.354 N 
ATOM     52  N   UNL     1      10.654  -4.372  -4.617  1.00  0.00    -0.248 NA
ATOM     53  C   UNL     1      12.618  -3.286  -3.959  1.00  0.00     0.031 C 
ATOM     54  C   UNL     1      10.530  -7.930  -7.263  1.00  0.00     0.029 A 
ATOM     55  C   UNL     1      10.599  -6.806  -6.456  1.00  0.00     0.049 A 
ATOM     56  H   UNL     1       9.036  -5.725  -5.541  1.00  0.00     0.167 HD
ATOM     57  C   UNL     1      11.743  -4.993  -5.216  1.00  0.00     0.074 A 
ATOM     58  C   UNL     1      12.926  -4.268  -4.796  1.00  0.00     0.031 C 
ATOM     59  C   UNL     1      11.763  -6.079  -6.027  1.00  0.00     0.031 A 
BRANCH  46  60
ATOM     60  C   UNL     1       6.154  -8.281  -7.377  1.00  0.00    -0.014 A 
ATOM     61  C   UNL     1       5.489  -7.955  -8.571  1.00  0.00     0.010 A 
ATOM     62  C   UNL     1       6.051  -9.589  -6.867  1.00  0.00     0.010 A 
ATOM     63  C   UNL     1       4.699  -8.909  -9.221  1.00  0.00     0.020 A 
ATOM     64  C   UNL     1       5.279 -10.550  -7.524  1.00  0.00     0.020 A 
ATOM     65  C   UNL     1       4.590 -10.197  -8.686  1.00  0.00     0.054 A 
BRANCH  65  66
ATOM     66  S   UNL     1       3.562 -11.426  -9.539  1.00  0.00     0.124 S 
ATOM     67  O   UNL     1       2.228 -11.092  -9.049  1.00  0.00    -0.237 OA
ATOM     68  O   UNL     1       3.803 -11.133 -10.950  1.00  0.00    -0.237 OA
ATOM     69  O   UNL     1       4.098 -12.703  -9.073  1.00  0.00    -0.744 OA
ENDBRANCH  65  66
ENDBRANCH  46  60
BRANCH  47  70
ATOM     70  C   UNL     1      11.192  -1.385  -2.256  1.00  0.00    -0.014 A 
ATOM     71  C   UNL     1      11.700  -0.255  -2.919  1.00  0.00     0.010 A 
ATOM     72  C   UNL     1      11.376  -1.510  -0.868  1.00  0.00     0.010 A 
ATOM     73  C   UNL     1      12.382   0.735  -2.205  1.00  0.00     0.020 A 
ATOM     74  C   UNL     1      12.038  -0.512  -0.148  1.00  0.00     0.020 A 
ATOM     75  C   UNL     1      12.544   0.601  -0.823  1.00  0.00     0.054 A 
BRANCH  75  76
ATOM     76  S   UNL     1      13.356   1.929   0.111  1.00  0.00     0.124 S 
ATOM     77  O   UNL     1      14.764   1.568  -0.012  1.00  0.00    -0.237 OA
ATOM     78  O   UNL     1      12.946   3.132  -0.609  1.00  0.00    -0.237 OA
ATOM     79  O   UNL     1      12.785   1.792   1.449  1.00  0.00    -0.744 OA
ENDBRANCH  75  76
ENDBRANCH  47  70
BRANCH  59  80
ATOM     80  C   UNL     1      13.107  -6.540  -6.513  1.00  0.00    -0.014 A 
ATOM     81  C   UNL     1      13.954  -7.285  -5.674  1.00  0.00     0.010 A 
ATOM     82  C   UNL     1      13.519  -6.243  -7.823  1.00  0.00     0.010 A 
ATOM     83  C   UNL     1      15.209  -7.699  -6.128  1.00  0.00     0.020 A 
ATOM     84  C   UNL     1      14.767  -6.668  -8.285  1.00  0.00     0.020 A 
ATOM     85  C   UNL     1      15.611  -7.380  -7.428  1.00  0.00     0.054 A 
BRANCH  85  86
ATOM     86  S   UNL     1      17.234  -7.942  -8.012  1.00  0.00     0.124 S 
ATOM     87  O   UNL     1      18.122  -6.916  -7.474  1.00  0.00    -0.237 OA
ATOM     88  O   UNL     1      17.362  -9.265  -7.405  1.00  0.00    -0.237 OA
ATOM     89  O   UNL     1      17.092  -7.945  -9.467  1.00  0.00    -0.744 OA
ENDBRANCH  85  86
ENDBRANCH  59  80
ENDBRANCH  33  34
ENDBRANCH  26  28
ENDBRANCH  25  26
ENDBRANCH  24  25
ENDBRANCH   1  24
TORSDOF 19
