REMARK SMILES CCOc1ccc(-n2ncc(C(=O)OCCOC(=O)c3ccc(-c4c5nc(c(-c6ccc(S(=O)(=O)[O-])cc6)c6ccc([nH]6)c(-c6ccc(S(=O)(=O)[O-])cc6)c6nc(c(-c7ccc(S(=O)(=O)[O-])cc7)c7ccc4[nH]7)C=C6)C=C5)cc3)c2C)nn1
REMARK SMILES IDX 15 1 14 2 12 3 13 4 11 5 8 6 9 7 80 8 10 9 81 10 7 11 4 12
REMARK SMILES IDX 5 13 83 14 6 15 82 16 3 17 2 18 1 19 16 20 17 21 18 22 19 23
REMARK SMILES IDX 20 24 21 25 79 26 22 27 78 28 23 29 24 30 25 31 72 32 26 33
REMARK SMILES IDX 77 34 71 35 73 36 27 37 76 38 70 39 69 40 28 42 58 43 39 44
REMARK SMILES IDX 57 45 40 46 43 47 56 48 74 49 41 50 42 51 55 53 75 54 44 55
REMARK SMILES IDX 29 56 30 57 38 58 31 59 37 60 32 61 33 62 34 63 35 64 36 65
REMARK SMILES IDX 59 66 60 67 68 68 61 69 67 70 62 71 63 72 64 73 65 74 66 75
REMARK SMILES IDX 45 76 46 77 54 78 47 79 53 80 48 81 49 82 50 83 51 84 52 85
REMARK H PARENT 73 41 43 52
REMARK Flexibility Score: inf
ROOT
ATOM      1  C   UNL     1      11.847  -1.216  -4.417  1.00  0.00     0.275 C 
ENDROOT
BRANCH   1   2
ATOM      2  O   UNL     1      10.718  -1.639  -3.632  1.00  0.00    -0.458 OA
BRANCH   2   3
ATOM      3  C   UNL     1       9.636  -0.806  -3.662  1.00  0.00     0.341 C 
ATOM      4  O   UNL     1       9.653   0.327  -4.138  1.00  0.00    -0.246 OA
BRANCH   3   5
ATOM      5  C   UNL     1       8.449  -1.405  -3.083  1.00  0.00     0.101 A 
ATOM      6  N   UNL     1       6.362  -1.859  -2.475  1.00  0.00    -0.217 N 
ATOM      7  N   UNL     1       7.145  -2.657  -1.692  1.00  0.00    -0.174 NA
ATOM      8  C   UNL     1       7.121  -1.074  -3.329  1.00  0.00     0.058 A 
ATOM      9  C   UNL     1       8.379  -2.458  -2.154  1.00  0.00     0.151 A 
ATOM     10  C   UNL     1       6.519  -0.059  -4.238  1.00  0.00     0.068 C 
BRANCH   6  11
ATOM     11  C   UNL     1       4.957  -1.792  -2.268  1.00  0.00     0.176 A 
ATOM     12  C   UNL     1       2.317  -1.453  -1.827  1.00  0.00     0.233 A 
ATOM     13  C   UNL     1       3.121  -1.766  -0.749  1.00  0.00     0.074 A 
ATOM     14  N   UNL     1       2.794  -1.319  -3.079  1.00  0.00    -0.110 NA
ATOM     15  C   UNL     1       4.476  -1.959  -0.976  1.00  0.00     0.057 A 
ATOM     16  N   UNL     1       4.138  -1.460  -3.296  1.00  0.00    -0.127 NA
BRANCH  12  17
ATOM     17  O   UNL     1       0.962  -1.354  -1.640  1.00  0.00    -0.477 OA
BRANCH  17  18
ATOM     18  C   UNL     1       0.571   0.006  -1.439  1.00  0.00     0.228 C 
ATOM     19  C   UNL     1       0.636   0.357   0.041  1.00  0.00     0.049 C 
ENDBRANCH  17  18
ENDBRANCH  12  17
ENDBRANCH   6  11
ENDBRANCH   3   5
ENDBRANCH   2   3
ENDBRANCH   1   2
BRANCH   1  20
ATOM     20  C   UNL     1      11.744  -1.692  -5.862  1.00  0.00     0.275 C 
BRANCH  20  21
ATOM     21  O   UNL     1      10.745  -0.977  -6.588  1.00  0.00    -0.458 OA
BRANCH  21  22
ATOM     22  C   UNL     1       9.534  -1.579  -6.610  1.00  0.00     0.338 C 
ATOM     23  O   UNL     1       9.138  -2.456  -5.860  1.00  0.00    -0.246 OA
BRANCH  22  24
ATOM     24  C   UNL     1       8.809  -1.177  -7.814  1.00  0.00     0.060 A 
ATOM     25  C   UNL     1       7.465  -1.547  -7.905  1.00  0.00     0.016 A 
ATOM     26  C   UNL     1       9.532  -0.720  -8.925  1.00  0.00     0.016 A 
ATOM     27  C   UNL     1       6.888  -1.615  -9.154  1.00  0.00     0.010 A 
ATOM     28  C   UNL     1       8.955  -0.790 -10.170  1.00  0.00     0.010 A 
ATOM     29  C   UNL     1       7.669  -1.313 -10.276  1.00  0.00    -0.014 A 
BRANCH  29  30
ATOM     30  C   UNL     1       7.069  -1.484 -11.583  1.00  0.00     0.031 A 
ATOM     31  C   UNL     1       5.947  -0.548 -11.835  1.00  0.00     0.074 A 
ATOM     32  C   UNL     1       7.566  -2.339 -12.497  1.00  0.00     0.049 A 
ATOM     33  N   UNL     1       4.707  -0.844 -12.033  1.00  0.00    -0.248 NA
ATOM     34  C   UNL     1       6.206   0.894 -11.677  1.00  0.00     0.031 C 
ATOM     35  C   UNL     1       8.814  -3.105 -12.444  1.00  0.00     0.029 A 
ATOM     36  N   UNL     1       7.106  -2.600 -13.747  1.00  0.00    -0.354 N 
ATOM     37  C   UNL     1       4.054   0.368 -12.216  1.00  0.00     0.074 A 
ATOM     38  C   UNL     1       4.982   1.399 -11.828  1.00  0.00     0.031 C 
ATOM     39  C   UNL     1       9.137  -3.507 -13.695  1.00  0.00     0.029 A 
ATOM     40  C   UNL     1       8.058  -3.145 -14.599  1.00  0.00     0.049 A 
ATOM     41  H   UNL     1       6.180  -2.418 -14.025  1.00  0.00     0.167 HD
ATOM     42  C   UNL     1       2.874   0.450 -12.886  1.00  0.00     0.031 A 
ATOM     43  C   UNL     1       7.991  -3.187 -15.956  1.00  0.00     0.031 A 
ATOM     44  C   UNL     1       2.248  -0.836 -13.030  1.00  0.00     0.049 A 
ATOM     45  C   UNL     1       6.560  -3.011 -16.325  1.00  0.00     0.074 A 
ATOM     46  C   UNL     1       1.759  -1.774 -12.143  1.00  0.00     0.029 A 
ATOM     47  N   UNL     1       2.434  -1.495 -14.223  1.00  0.00    -0.354 N 
ATOM     48  N   UNL     1       5.637  -3.885 -16.035  1.00  0.00    -0.248 NA
ATOM     49  C   UNL     1       6.078  -1.659 -16.571  1.00  0.00     0.031 C 
ATOM     50  C   UNL     1       2.132  -3.031 -12.699  1.00  0.00     0.029 A 
ATOM     51  C   UNL     1       2.758  -2.795 -13.925  1.00  0.00     0.049 A 
ATOM     52  H   UNL     1       2.351  -1.106 -15.124  1.00  0.00     0.167 HD
ATOM     53  C   UNL     1       4.546  -3.130 -15.627  1.00  0.00     0.074 A 
ATOM     54  C   UNL     1       4.846  -1.766 -16.063  1.00  0.00     0.031 C 
ATOM     55  C   UNL     1       3.640  -3.617 -14.727  1.00  0.00     0.031 A 
BRANCH  42  56
ATOM     56  C   UNL     1       2.498   1.629 -13.738  1.00  0.00    -0.014 A 
ATOM     57  C   UNL     1       1.206   1.688 -14.294  1.00  0.00     0.010 A 
ATOM     58  C   UNL     1       3.458   2.535 -14.235  1.00  0.00     0.010 A 
ATOM     59  C   UNL     1       0.909   2.576 -15.335  1.00  0.00     0.020 A 
ATOM     60  C   UNL     1       3.161   3.452 -15.242  1.00  0.00     0.020 A 
ATOM     61  C   UNL     1       1.895   3.444 -15.809  1.00  0.00     0.054 A 
BRANCH  61  62
ATOM     62  S   UNL     1       1.527   4.517 -17.217  1.00  0.00     0.124 S 
ATOM     63  O   UNL     1       1.327   3.549 -18.291  1.00  0.00    -0.237 OA
ATOM     64  O   UNL     1       0.330   5.220 -16.765  1.00  0.00    -0.237 OA
ATOM     65  O   UNL     1       2.723   5.348 -17.337  1.00  0.00    -0.744 OA
ENDBRANCH  61  62
ENDBRANCH  42  56
BRANCH  43  66
ATOM     66  C   UNL     1       9.107  -2.948 -16.912  1.00  0.00    -0.014 A 
ATOM     67  C   UNL     1       8.945  -3.171 -18.293  1.00  0.00     0.010 A 
ATOM     68  C   UNL     1      10.248  -2.227 -16.500  1.00  0.00     0.010 A 
ATOM     69  C   UNL     1       9.852  -2.632 -19.226  1.00  0.00     0.020 A 
ATOM     70  C   UNL     1      11.158  -1.696 -17.421  1.00  0.00     0.020 A 
ATOM     71  C   UNL     1      10.941  -1.876 -18.783  1.00  0.00     0.054 A 
BRANCH  71  72
ATOM     72  S   UNL     1      11.992  -1.012 -19.990  1.00  0.00     0.124 S 
ATOM     73  O   UNL     1      12.732  -2.111 -20.603  1.00  0.00    -0.237 OA
ATOM     74  O   UNL     1      11.013  -0.351 -20.849  1.00  0.00    -0.237 OA
ATOM     75  O   UNL     1      12.793  -0.110 -19.164  1.00  0.00    -0.744 OA
ENDBRANCH  71  72
ENDBRANCH  43  66
BRANCH  55  76
ATOM     76  C   UNL     1       3.699  -5.084 -14.366  1.00  0.00    -0.014 A 
ATOM     77  C   UNL     1       4.812  -5.705 -13.764  1.00  0.00     0.010 A 
ATOM     78  C   UNL     1       2.514  -5.828 -14.504  1.00  0.00     0.010 A 
ATOM     79  C   UNL     1       4.750  -7.045 -13.349  1.00  0.00     0.020 A 
ATOM     80  C   UNL     1       2.439  -7.155 -14.077  1.00  0.00     0.020 A 
ATOM     81  C   UNL     1       3.561  -7.763 -13.514  1.00  0.00     0.054 A 
BRANCH  81  82
ATOM     82  S   UNL     1       3.473  -9.491 -12.966  1.00  0.00     0.124 S 
ATOM     83  O   UNL     1       4.368 -10.167 -13.901  1.00  0.00    -0.237 OA
ATOM     84  O   UNL     1       3.943  -9.420 -11.585  1.00  0.00    -0.237 OA
ATOM     85  O   UNL     1       2.058  -9.832 -13.112  1.00  0.00    -0.744 OA
ENDBRANCH  81  82
ENDBRANCH  55  76
ENDBRANCH  29  30
ENDBRANCH  22  24
ENDBRANCH  21  22
ENDBRANCH  20  21
ENDBRANCH   1  20
TORSDOF 17
