REMARK SMILES O=C(Cn1c(-c2nc(-c3ccc(C(F)(F)F)cc3)no2)cc2ccccc21)OCCOC(=O)c1ccc(-c2c3nc(c(-c4ccc(S(=O)(=O)[O-])cc4)c4ccc([nH]4)c(-c4ccc(S(=O)(=O)[O-])cc4)c4nc(c(-c5ccc(S(=O)(=O)[O-])cc5)c5ccc2[nH]5)C=C4)C=C3)cc1
REMARK SMILES IDX 29 1 28 2 2 3 1 4 3 5 4 6 5 7 27 8 21 9 22 10 26 11 23 12
REMARK SMILES IDX 25 13 24 14 6 15 7 16 20 17 8 18 19 19 9 20 10 21 18 22
REMARK SMILES IDX 11 23 17 24 12 25 13 26 14 27 15 28 16 29 30 30 31 31 32 32
REMARK SMILES IDX 33 33 34 34 35 35 93 36 36 37 92 38 37 39 38 40 39 41 86 42
REMARK SMILES IDX 40 43 91 44 85 45 87 46 41 47 90 48 84 49 83 50 42 52 72 53
REMARK SMILES IDX 53 54 71 55 54 56 57 57 70 58 88 59 55 60 56 61 69 63 89 64
REMARK SMILES IDX 58 65 43 66 44 67 52 68 45 69 51 70 46 71 47 72 48 73 49 74
REMARK SMILES IDX 50 75 73 76 74 77 82 78 75 79 81 80 76 81 77 82 78 83 79 84
REMARK SMILES IDX 80 85 59 86 60 87 68 88 61 89 67 90 62 91 63 92 64 93 65 94
REMARK SMILES IDX 66 95
REMARK H PARENT 87 51 57 62
REMARK Flexibility Score: inf
ROOT
ATOM      1  C   UNL     1       3.932  -1.400   0.124  1.00  0.00     0.274 C 
ENDROOT
BRANCH   1   2
ATOM      2  O   UNL     1       2.939  -0.401   0.395  1.00  0.00    -0.461 OA
BRANCH   2   3
ATOM      3  C   UNL     1       3.393   0.757   0.961  1.00  0.00     0.326 C 
ATOM      4  O   UNL     1       3.258   0.952   2.160  1.00  0.00    -0.250 OA
BRANCH   3   5
ATOM      5  C   UNL     1       3.834   1.780  -0.076  1.00  0.00     0.245 C 
BRANCH   5   6
ATOM      6  N   UNL     1       4.827   2.742   0.380  1.00  0.00    -0.325 N 
ATOM      7  C   UNL     1       4.717   4.116   0.312  1.00  0.00     0.109 A 
ATOM      8  C   UNL     1       5.913   2.389   1.167  1.00  0.00     0.049 A 
ATOM      9  C   UNL     1       5.506   4.597   1.347  1.00  0.00     0.042 A 
ATOM     10  C   UNL     1       6.218   3.519   1.921  1.00  0.00     0.000 A 
ATOM     11  C   UNL     1       6.565   1.165   1.372  1.00  0.00     0.027 A 
ATOM     12  C   UNL     1       7.098   3.401   3.008  1.00  0.00     0.010 A 
ATOM     13  C   UNL     1       7.441   1.066   2.455  1.00  0.00     0.002 A 
ATOM     14  C   UNL     1       7.680   2.160   3.282  1.00  0.00     0.001 A 
BRANCH   7  15
ATOM     15  C   UNL     1       3.852   4.946  -0.486  1.00  0.00     0.274 A 
ATOM     16  N   UNL     1       3.537   4.859  -1.780  1.00  0.00    -0.185 NA
ATOM     17  O   UNL     1       3.362   6.086   0.084  1.00  0.00    -0.332 OA
ATOM     18  C   UNL     1       2.880   6.077  -2.006  1.00  0.00     0.202 A 
ATOM     19  N   UNL     1       2.778   6.822  -0.901  1.00  0.00    -0.057 NA
BRANCH  18  20
ATOM     20  C   UNL     1       2.250   6.580  -3.245  1.00  0.00     0.023 A 
ATOM     21  C   UNL     1       1.842   7.931  -3.264  1.00  0.00     0.013 A 
ATOM     22  C   UNL     1       1.899   5.795  -4.346  1.00  0.00     0.013 A 
ATOM     23  C   UNL     1       0.986   8.448  -4.237  1.00  0.00     0.014 A 
ATOM     24  C   UNL     1       1.057   6.322  -5.354  1.00  0.00     0.014 A 
ATOM     25  C   UNL     1       0.550   7.636  -5.279  1.00  0.00     0.056 A 
BRANCH  25  26
ATOM     26  C   UNL     1      -0.510   8.145  -6.231  1.00  0.00     0.416 C 
ATOM     27  F   UNL     1      -1.737   7.620  -5.957  1.00  0.00    -0.166 F 
ATOM     28  F   UNL     1      -0.661   9.498  -6.214  1.00  0.00    -0.166 F 
ATOM     29  F   UNL     1      -0.251   7.820  -7.530  1.00  0.00    -0.166 F 
ENDBRANCH  25  26
ENDBRANCH  18  20
ENDBRANCH   7  15
ENDBRANCH   5   6
ENDBRANCH   3   5
ENDBRANCH   2   3
ENDBRANCH   1   2
BRANCH   1  30
ATOM     30  C   UNL     1       4.149  -1.618  -1.384  1.00  0.00     0.275 C 
BRANCH  30  31
ATOM     31  O   UNL     1       3.426  -0.650  -2.160  1.00  0.00    -0.458 OA
BRANCH  31  32
ATOM     32  C   UNL     1       2.151  -1.022  -2.482  1.00  0.00     0.338 C 
ATOM     33  O   UNL     1       1.756  -2.144  -2.672  1.00  0.00    -0.246 OA
BRANCH  32  34
ATOM     34  C   UNL     1       1.283   0.150  -2.187  1.00  0.00     0.060 A 
ATOM     35  C   UNL     1       1.651   1.449  -2.527  1.00  0.00     0.016 A 
ATOM     36  C   UNL     1       0.207  -0.068  -1.319  1.00  0.00     0.016 A 
ATOM     37  C   UNL     1       1.033   2.520  -1.873  1.00  0.00     0.010 A 
ATOM     38  C   UNL     1      -0.394   1.010  -0.662  1.00  0.00     0.010 A 
ATOM     39  C   UNL     1       0.079   2.311  -0.858  1.00  0.00    -0.014 A 
BRANCH  39  40
ATOM     40  C   UNL     1      -0.330   3.466  -0.015  1.00  0.00     0.031 A 
ATOM     41  C   UNL     1      -0.648   4.765  -0.695  1.00  0.00     0.074 A 
ATOM     42  C   UNL     1      -0.463   3.461   1.335  1.00  0.00     0.049 A 
ATOM     43  N   UNL     1      -0.317   5.958  -0.301  1.00  0.00    -0.248 NA
ATOM     44  C   UNL     1      -1.413   4.742  -1.947  1.00  0.00     0.031 C 
ATOM     45  C   UNL     1      -0.376   2.332   2.265  1.00  0.00     0.029 A 
ATOM     46  N   UNL     1      -0.804   4.508   2.165  1.00  0.00    -0.354 N 
ATOM     47  C   UNL     1      -0.891   6.854  -1.197  1.00  0.00     0.074 A 
ATOM     48  C   UNL     1      -1.525   6.044  -2.215  1.00  0.00     0.031 C 
ATOM     49  C   UNL     1      -0.891   2.697   3.462  1.00  0.00     0.029 A 
ATOM     50  C   UNL     1      -1.185   4.119   3.437  1.00  0.00     0.049 A 
ATOM     51  H   UNL     1      -0.778   5.449   1.877  1.00  0.00     0.167 HD
ATOM     52  C   UNL     1      -0.875   8.212  -1.046  1.00  0.00     0.031 A 
ATOM     53  C   UNL     1      -1.754   4.883   4.398  1.00  0.00     0.031 A 
ATOM     54  C   UNL     1       0.111   8.752  -0.128  1.00  0.00     0.049 A 
ATOM     55  C   UNL     1      -1.299   6.287   4.274  1.00  0.00     0.074 A 
ATOM     56  C   UNL     1       1.086   9.738  -0.137  1.00  0.00     0.029 A 
ATOM     57  N   UNL     1       0.270   8.125   1.073  1.00  0.00    -0.354 N 
ATOM     58  N   UNL     1      -0.090   6.695   4.546  1.00  0.00    -0.248 NA
ATOM     59  C   UNL     1      -2.185   7.279   3.666  1.00  0.00     0.031 C 
ATOM     60  C   UNL     1       1.736   9.742   1.135  1.00  0.00     0.029 A 
ATOM     61  C   UNL     1       1.098   8.812   1.927  1.00  0.00     0.049 A 
ATOM     62  H   UNL     1      -0.163   7.271   1.302  1.00  0.00     0.167 HD
ATOM     63  C   UNL     1       0.037   7.869   3.838  1.00  0.00     0.074 A 
ATOM     64  C   UNL     1      -1.310   8.256   3.436  1.00  0.00     0.031 C 
ATOM     65  C   UNL     1       1.204   8.269   3.258  1.00  0.00     0.031 A 
BRANCH  52  66
ATOM     66  C   UNL     1      -1.918   9.101  -1.693  1.00  0.00    -0.014 A 
ATOM     67  C   UNL     1      -3.209   8.625  -2.012  1.00  0.00     0.010 A 
ATOM     68  C   UNL     1      -1.725  10.493  -1.788  1.00  0.00     0.010 A 
ATOM     69  C   UNL     1      -4.228   9.473  -2.460  1.00  0.00     0.020 A 
ATOM     70  C   UNL     1      -2.750  11.360  -2.196  1.00  0.00     0.020 A 
ATOM     71  C   UNL     1      -3.994  10.841  -2.541  1.00  0.00     0.054 A 
BRANCH  71  72
ATOM     72  S   UNL     1      -5.362  11.929  -3.009  1.00  0.00     0.124 S 
ATOM     73  O   UNL     1      -5.538  11.603  -4.422  1.00  0.00    -0.237 OA
ATOM     74  O   UNL     1      -6.436  11.487  -2.124  1.00  0.00    -0.237 OA
ATOM     75  O   UNL     1      -4.847  13.269  -2.739  1.00  0.00    -0.744 OA
ENDBRANCH  71  72
ENDBRANCH  52  66
BRANCH  53  76
ATOM     76  C   UNL     1      -2.975   4.547   5.178  1.00  0.00    -0.014 A 
ATOM     77  C   UNL     1      -3.876   3.574   4.704  1.00  0.00     0.010 A 
ATOM     78  C   UNL     1      -3.413   5.409   6.205  1.00  0.00     0.010 A 
ATOM     79  C   UNL     1      -5.194   3.523   5.166  1.00  0.00     0.020 A 
ATOM     80  C   UNL     1      -4.738   5.372   6.663  1.00  0.00     0.020 A 
ATOM     81  C   UNL     1      -5.628   4.451   6.112  1.00  0.00     0.054 A 
BRANCH  81  82
ATOM     82  S   UNL     1      -7.393   4.486   6.531  1.00  0.00     0.124 S 
ATOM     83  O   UNL     1      -7.995   4.917   5.272  1.00  0.00    -0.237 OA
ATOM     84  O   UNL     1      -7.653   3.099   6.908  1.00  0.00    -0.237 OA
ATOM     85  O   UNL     1      -7.472   5.451   7.625  1.00  0.00    -0.744 OA
ENDBRANCH  81  82
ENDBRANCH  53  76
BRANCH  65  86
ATOM     86  C   UNL     1       2.538   7.929   3.844  1.00  0.00    -0.014 A 
ATOM     87  C   UNL     1       3.455   8.978   4.040  1.00  0.00     0.010 A 
ATOM     88  C   UNL     1       2.943   6.622   4.169  1.00  0.00     0.010 A 
ATOM     89  C   UNL     1       4.745   8.734   4.517  1.00  0.00     0.020 A 
ATOM     90  C   UNL     1       4.232   6.370   4.666  1.00  0.00     0.020 A 
ATOM     91  C   UNL     1       5.132   7.427   4.817  1.00  0.00     0.054 A 
BRANCH  91  92
ATOM     92  S   UNL     1       6.824   7.145   5.401  1.00  0.00     0.124 S 
ATOM     93  O   UNL     1       7.605   7.339   4.181  1.00  0.00    -0.237 OA
ATOM     94  O   UNL     1       6.995   8.176   6.422  1.00  0.00    -0.237 OA
ATOM     95  O   UNL     1       6.805   5.774   5.907  1.00  0.00    -0.744 OA
ENDBRANCH  91  92
ENDBRANCH  65  86
ENDBRANCH  39  40
ENDBRANCH  32  34
ENDBRANCH  31  32
ENDBRANCH  30  31
ENDBRANCH   1  30
TORSDOF 18
