REMARK SMILES COc1cccc([C@@H]2[NH2+][C@@](C)(C(=O)OCCOC(=O)c3ccc(-c4c5nc(c(-c6ccc(S(=O)(=O)[O-])cc6)c6ccc([nH]6)c(-c6ccc(S(=O)(=O)[O-])cc6)c6nc(c(-c7ccc(S(=O)(=O)[O-])cc7)c7ccc4[nH]7)C=C6)C=C5)cc3)[C@@H]3C(=O)N(C)C(=O)[C@@H]32)c1O
REMARK SMILES IDX 16 1 15 2 14 3 12 4 13 5 10 6 8 7 9 8 87 9 80 12 85 13 11 14
REMARK SMILES IDX 81 15 83 16 86 17 82 18 84 19 7 20 3 21 4 22 88 23 5 24 6 25
REMARK SMILES IDX 2 26 1 27 89 28 17 30 18 31 19 32 20 33 21 34 79 35 22 36
REMARK SMILES IDX 78 37 23 38 24 39 25 40 72 41 26 42 77 43 71 44 73 45 27 46
REMARK SMILES IDX 76 47 70 48 69 49 28 51 58 52 39 53 57 54 40 55 43 56 56 57
REMARK SMILES IDX 74 58 41 59 42 60 55 62 75 63 44 64 29 65 30 66 38 67 31 68
REMARK SMILES IDX 37 69 32 70 33 71 34 72 35 73 36 74 59 75 60 76 68 77 61 78
REMARK SMILES IDX 67 79 62 80 63 81 64 82 65 83 66 84 45 85 46 86 54 87 47 88
REMARK SMILES IDX 53 89 48 90 49 91 50 92 51 93 52 94
REMARK H PARENT 9 10 9 11 89 29 73 50 43 61
REMARK Flexibility Score: inf
ROOT
ATOM      1  C   UNL     1       1.289  -9.372   0.184  1.00  0.00     0.275 C 
ENDROOT
BRANCH   1   2
ATOM      2  C   UNL     1       2.571  -8.602  -0.127  1.00  0.00     0.274 C 
BRANCH   2   3
ATOM      3  O   UNL     1       2.450  -7.224   0.282  1.00  0.00    -0.457 OA
BRANCH   3   4
ATOM      4  C   UNL     1       2.170  -6.339  -0.713  1.00  0.00     0.368 C 
ATOM      5  O   UNL     1       2.034  -6.662  -1.892  1.00  0.00    -0.245 OA
BRANCH   4   6
ATOM      6  C   UNL     1       2.059  -4.858  -0.248  1.00  0.00     0.204 C 
ATOM      7  C   UNL     1       0.658  -4.359   1.671  1.00  0.00     0.232 C 
ATOM      8  N   UNL     1       2.033  -4.730   1.243  1.00  0.00    -0.325 N 
ATOM      9  C   UNL     1      -0.225  -4.539   0.438  1.00  0.00     0.161 C 
ATOM     10  H   UNL     1       2.294  -5.620   1.667  1.00  0.00     0.347 HD
ATOM     11  H   UNL     1       2.692  -4.011   1.540  1.00  0.00     0.347 HD
ATOM     12  C   UNL     1       0.710  -4.362  -0.744  1.00  0.00     0.170 C 
ATOM     13  C   UNL     1      -1.280  -3.503   0.178  1.00  0.00     0.239 C 
ATOM     14  C   UNL     1       3.298  -4.189  -0.852  1.00  0.00     0.093 C 
ATOM     15  C   UNL     1       0.483  -2.929  -1.149  1.00  0.00     0.240 C 
ATOM     16  N   UNL     1      -0.772  -2.592  -0.709  1.00  0.00    -0.285 N 
ATOM     17  O   UNL     1      -2.385  -3.492   0.699  1.00  0.00    -0.274 OA
ATOM     18  O   UNL     1       1.226  -2.250  -1.838  1.00  0.00    -0.274 OA
ATOM     19  C   UNL     1      -1.498  -1.414  -1.118  1.00  0.00     0.156 C 
BRANCH   7  20
ATOM     20  C   UNL     1       0.527  -3.006   2.360  1.00  0.00     0.056 A 
ATOM     21  C   UNL     1       0.919  -0.600   2.508  1.00  0.00     0.161 A 
ATOM     22  C   UNL     1      -0.076  -0.462   3.466  1.00  0.00     0.050 A 
ATOM     23  C   UNL     1       1.254  -1.864   2.010  1.00  0.00     0.166 A 
ATOM     24  C   UNL     1      -0.771  -1.593   3.886  1.00  0.00     0.005 A 
ATOM     25  C   UNL     1      -0.485  -2.845   3.328  1.00  0.00     0.014 A 
BRANCH  21  26
ATOM     26  O   UNL     1       1.590   0.515   2.075  1.00  0.00    -0.493 OA
ATOM     27  C   UNL     1       1.168   0.892   0.756  1.00  0.00     0.278 C 
ENDBRANCH  21  26
BRANCH  23  28
ATOM     28  O   UNL     1       2.320  -1.969   1.165  1.00  0.00    -0.504 OA
ATOM     29  H   UNL     1       2.809  -1.205   0.929  1.00  0.00     0.293 HD
ENDBRANCH  23  28
ENDBRANCH   7  20
ENDBRANCH   4   6
ENDBRANCH   3   4
ENDBRANCH   2   3
ENDBRANCH   1   2
BRANCH   1  30
ATOM     30  O   UNL     1       0.193  -8.779  -0.532  1.00  0.00    -0.458 OA
BRANCH  30  31
ATOM     31  C   UNL     1      -1.013  -8.832   0.078  1.00  0.00     0.338 C 
ATOM     32  O   UNL     1      -1.267  -9.425   1.121  1.00  0.00    -0.246 OA
BRANCH  31  33
ATOM     33  C   UNL     1      -2.005  -8.011  -0.661  1.00  0.00     0.060 A 
ATOM     34  C   UNL     1      -1.603  -7.021  -1.559  1.00  0.00     0.016 A 
ATOM     35  C   UNL     1      -3.364  -8.156  -0.380  1.00  0.00     0.016 A 
ATOM     36  C   UNL     1      -2.530  -6.106  -2.065  1.00  0.00     0.010 A 
ATOM     37  C   UNL     1      -4.305  -7.317  -0.994  1.00  0.00     0.010 A 
ATOM     38  C   UNL     1      -3.902  -6.251  -1.819  1.00  0.00    -0.014 A 
BRANCH  38  39
ATOM     39  C   UNL     1      -4.913  -5.308  -2.398  1.00  0.00     0.031 A 
ATOM     40  C   UNL     1      -5.980  -4.693  -1.520  1.00  0.00     0.074 A 
ATOM     41  C   UNL     1      -4.918  -5.004  -3.715  1.00  0.00     0.049 A 
ATOM     42  N   UNL     1      -7.113  -4.133  -1.866  1.00  0.00    -0.248 NA
ATOM     43  C   UNL     1      -5.758  -4.742  -0.067  1.00  0.00     0.031 C 
ATOM     44  C   UNL     1      -3.944  -5.462  -4.708  1.00  0.00     0.029 A 
ATOM     45  N   UNL     1      -5.784  -4.224  -4.448  1.00  0.00    -0.354 N 
ATOM     46  C   UNL     1      -7.782  -3.861  -0.677  1.00  0.00     0.074 A 
ATOM     47  C   UNL     1      -6.916  -4.293   0.400  1.00  0.00     0.031 C 
ATOM     48  C   UNL     1      -4.225  -4.909  -5.896  1.00  0.00     0.029 A 
ATOM     49  C   UNL     1      -5.470  -4.159  -5.786  1.00  0.00     0.049 A 
ATOM     50  H   UNL     1      -6.555  -3.758  -4.052  1.00  0.00     0.167 HD
ATOM     51  C   UNL     1      -9.010  -3.312  -0.499  1.00  0.00     0.031 A 
ATOM     52  C   UNL     1      -6.129  -3.620  -6.831  1.00  0.00     0.031 A 
ATOM     53  C   UNL     1      -9.830  -2.792  -1.564  1.00  0.00     0.049 A 
ATOM     54  C   UNL     1      -7.478  -3.002  -6.617  1.00  0.00     0.074 A 
ATOM     55  C   UNL     1     -11.079  -2.198  -1.478  1.00  0.00     0.029 A 
ATOM     56  N   UNL     1      -9.469  -2.766  -2.901  1.00  0.00    -0.354 N 
ATOM     57  N   UNL     1      -8.151  -2.865  -5.501  1.00  0.00    -0.248 NA
ATOM     58  C   UNL     1      -8.173  -2.500  -7.811  1.00  0.00     0.031 C 
ATOM     59  C   UNL     1     -11.482  -1.833  -2.768  1.00  0.00     0.029 A 
ATOM     60  C   UNL     1     -10.468  -2.166  -3.651  1.00  0.00     0.049 A 
ATOM     61  H   UNL     1      -8.626  -3.121  -3.266  1.00  0.00     0.167 HD
ATOM     62  C   UNL     1      -9.355  -2.272  -5.859  1.00  0.00     0.074 A 
ATOM     63  C   UNL     1      -9.305  -2.046  -7.289  1.00  0.00     0.031 C 
ATOM     64  C   UNL     1     -10.413  -1.957  -5.073  1.00  0.00     0.031 A 
BRANCH  51  65
ATOM     65  C   UNL     1      -9.572  -3.285   0.898  1.00  0.00    -0.014 A 
ATOM     66  C   UNL     1      -9.118  -2.372   1.864  1.00  0.00     0.010 A 
ATOM     67  C   UNL     1     -10.622  -4.165   1.228  1.00  0.00     0.010 A 
ATOM     68  C   UNL     1      -9.679  -2.364   3.146  1.00  0.00     0.020 A 
ATOM     69  C   UNL     1     -11.201  -4.144   2.500  1.00  0.00     0.020 A 
ATOM     70  C   UNL     1     -10.712  -3.254   3.458  1.00  0.00     0.054 A 
BRANCH  70  71
ATOM     71  S   UNL     1     -11.443  -3.208   5.118  1.00  0.00     0.124 S 
ATOM     72  O   UNL     1     -10.444  -3.926   5.906  1.00  0.00    -0.237 OA
ATOM     73  O   UNL     1     -11.543  -1.776   5.389  1.00  0.00    -0.237 OA
ATOM     74  O   UNL     1     -12.721  -3.897   4.953  1.00  0.00    -0.744 OA
ENDBRANCH  70  71
ENDBRANCH  51  65
BRANCH  52  75
ATOM     75  C   UNL     1      -5.541  -3.715  -8.194  1.00  0.00    -0.014 A 
ATOM     76  C   UNL     1      -4.997  -2.578  -8.814  1.00  0.00     0.010 A 
ATOM     77  C   UNL     1      -5.478  -4.956  -8.856  1.00  0.00     0.010 A 
ATOM     78  C   UNL     1      -4.388  -2.682 -10.068  1.00  0.00     0.020 A 
ATOM     79  C   UNL     1      -4.845  -5.068 -10.096  1.00  0.00     0.020 A 
ATOM     80  C   UNL     1      -4.309  -3.928 -10.697  1.00  0.00     0.054 A 
BRANCH  80  81
ATOM     81  S   UNL     1      -3.424  -4.068 -12.275  1.00  0.00     0.124 S 
ATOM     82  O   UNL     1      -4.440  -3.640 -13.231  1.00  0.00    -0.237 OA
ATOM     83  O   UNL     1      -2.298  -3.154 -12.095  1.00  0.00    -0.237 OA
ATOM     84  O   UNL     1      -3.061  -5.483 -12.333  1.00  0.00    -0.744 OA
ENDBRANCH  80  81
ENDBRANCH  52  75
BRANCH  64  85
ATOM     85  C   UNL     1     -11.597  -1.321  -5.745  1.00  0.00    -0.014 A 
ATOM     86  C   UNL     1     -12.500  -2.094  -6.496  1.00  0.00     0.010 A 
ATOM     87  C   UNL     1     -11.825   0.059  -5.600  1.00  0.00     0.010 A 
ATOM     88  C   UNL     1     -13.596  -1.492  -7.118  1.00  0.00     0.020 A 
ATOM     89  C   UNL     1     -12.931   0.661  -6.206  1.00  0.00     0.020 A 
ATOM     90  C   UNL     1     -13.801  -0.116  -6.974  1.00  0.00     0.054 A 
BRANCH  90  91
ATOM     91  S   UNL     1     -15.246   0.643  -7.767  1.00  0.00     0.124 S 
ATOM     92  O   UNL     1     -14.812   0.742  -9.157  1.00  0.00    -0.237 OA
ATOM     93  O   UNL     1     -16.307  -0.327  -7.506  1.00  0.00    -0.237 OA
ATOM     94  O   UNL     1     -15.392   1.918  -7.067  1.00  0.00    -0.744 OA
ENDBRANCH  90  91
ENDBRANCH  64  85
ENDBRANCH  38  39
ENDBRANCH  31  33
ENDBRANCH  30  31
ENDBRANCH   1  30
TORSDOF 17
