REMARK SMILES Cc1nn(CC(=O)OCCOC(=O)c2ccc(-c3c4nc(c(-c5ccc(S(=O)(=O)[O-])cc5)c5ccc([nH]5)c(-c5ccc(S(=O)(=O)[O-])cc5)c5nc(c(-c6ccc(S(=O)(=O)[O-])cc6)c6ccc3[nH]6)C=C5)C=C4)cc2)c(C)c1NC(=O)C(=O)Nc1ccc(F)cc1
REMARK SMILES IDX 9 1 8 2 6 3 7 4 5 5 4 6 1 7 2 8 3 9 76 10 74 11 75 12 77 13
REMARK SMILES IDX 78 14 79 16 80 17 81 18 82 19 83 21 84 22 89 23 85 24 88 25
REMARK SMILES IDX 86 26 87 27 10 28 11 29 12 30 13 31 14 32 15 33 73 34 16 35
REMARK SMILES IDX 72 36 17 37 18 38 19 39 66 40 20 41 71 42 65 43 67 44 21 45
REMARK SMILES IDX 70 46 64 47 63 48 22 50 52 51 33 52 51 53 34 54 37 55 50 56
REMARK SMILES IDX 68 57 35 58 36 59 49 61 69 62 38 63 23 64 24 65 32 66 25 67
REMARK SMILES IDX 31 68 26 69 27 70 28 71 29 72 30 73 53 74 54 75 62 76 55 77
REMARK SMILES IDX 61 78 56 79 57 80 58 81 59 82 60 83 39 84 40 85 48 86 41 87
REMARK SMILES IDX 47 88 42 89 43 90 44 91 45 92 46 93
REMARK H PARENT 77 15 82 20 67 49 37 60
REMARK Flexibility Score: inf
ROOT
ATOM      1  C   UNL     1       1.107  -6.201  -3.600  1.00  0.00     0.274 C 
ENDROOT
BRANCH   1   2
ATOM      2  O   UNL     1       0.499  -5.545  -2.469  1.00  0.00    -0.461 OA
BRANCH   2   3
ATOM      3  C   UNL     1       0.517  -6.214  -1.284  1.00  0.00     0.327 C 
ATOM      4  O   UNL     1       0.815  -7.403  -1.181  1.00  0.00    -0.250 OA
BRANCH   3   5
ATOM      5  C   UNL     1       0.151  -5.391  -0.078  1.00  0.00     0.267 C 
BRANCH   5   6
ATOM      6  N   UNL     1      -0.160  -3.991  -0.321  1.00  0.00    -0.256 N 
ATOM      7  C   UNL     1       0.772  -0.616   0.164  1.00  0.00     0.071 C 
ATOM      8  C   UNL     1       0.076  -1.898  -0.121  1.00  0.00     0.083 A 
ATOM      9  N   UNL     1       0.675  -3.055   0.162  1.00  0.00    -0.175 NA
ATOM     10  C   UNL     1      -1.253  -2.107  -0.585  1.00  0.00     0.086 A 
ATOM     11  C   UNL     1      -1.334  -3.469  -0.820  1.00  0.00     0.060 A 
ATOM     12  C   UNL     1      -2.344  -4.339  -1.475  1.00  0.00     0.069 C 
BRANCH  10  13
ATOM     13  N   UNL     1      -2.183  -1.098  -0.757  1.00  0.00    -0.315 N 
ATOM     14  C   UNL     1      -3.552  -1.131  -0.603  1.00  0.00     0.314 C 
ATOM     15  H   UNL     1      -1.813  -0.227  -1.029  1.00  0.00     0.170 HD
ATOM     16  O   UNL     1      -4.212  -0.101  -0.699  1.00  0.00    -0.263 OA
BRANCH  14  17
ATOM     17  C   UNL     1      -4.221  -2.426  -0.149  1.00  0.00     0.314 C 
ATOM     18  O   UNL     1      -3.807  -3.002   0.858  1.00  0.00    -0.263 OA
ATOM     19  N   UNL     1      -5.315  -2.966  -0.799  1.00  0.00    -0.318 N 
ATOM     20  H   UNL     1      -5.401  -3.945  -0.742  1.00  0.00     0.170 HD
BRANCH  19  21
ATOM     21  C   UNL     1      -6.318  -2.314  -1.528  1.00  0.00     0.041 A 
ATOM     22  C   UNL     1      -7.627  -2.697  -1.198  1.00  0.00     0.029 A 
ATOM     23  C   UNL     1      -6.115  -1.289  -2.449  1.00  0.00     0.029 A 
ATOM     24  C   UNL     1      -8.716  -1.970  -1.671  1.00  0.00     0.041 A 
ATOM     25  C   UNL     1      -7.212  -0.571  -2.940  1.00  0.00     0.041 A 
ATOM     26  C   UNL     1      -8.497  -0.898  -2.522  1.00  0.00     0.123 A 
ATOM     27  F   UNL     1      -9.538  -0.167  -2.939  1.00  0.00    -0.207 F 
ENDBRANCH  19  21
ENDBRANCH  14  17
ENDBRANCH  10  13
ENDBRANCH   5   6
ENDBRANCH   3   5
ENDBRANCH   2   3
ENDBRANCH   1   2
BRANCH   1  28
ATOM     28  C   UNL     1       2.566  -5.784  -3.777  1.00  0.00     0.275 C 
BRANCH  28  29
ATOM     29  O   UNL     1       3.325  -6.109  -2.613  1.00  0.00    -0.458 OA
BRANCH  29  30
ATOM     30  C   UNL     1       3.307  -5.114  -1.695  1.00  0.00     0.338 C 
ATOM     31  O   UNL     1       2.667  -4.082  -1.768  1.00  0.00    -0.246 OA
BRANCH  30  32
ATOM     32  C   UNL     1       4.266  -5.369  -0.624  1.00  0.00     0.060 A 
ATOM     33  C   UNL     1       4.172  -4.543   0.503  1.00  0.00     0.016 A 
ATOM     34  C   UNL     1       5.419  -6.095  -0.933  1.00  0.00     0.016 A 
ATOM     35  C   UNL     1       5.327  -4.247   1.186  1.00  0.00     0.010 A 
ATOM     36  C   UNL     1       6.575  -5.777  -0.267  1.00  0.00     0.010 A 
ATOM     37  C   UNL     1       6.524  -4.782   0.711  1.00  0.00    -0.014 A 
BRANCH  37  38
ATOM     38  C   UNL     1       7.756  -4.232   1.229  1.00  0.00     0.031 A 
ATOM     39  C   UNL     1       8.166  -4.784   2.534  1.00  0.00     0.074 A 
ATOM     40  C   UNL     1       8.512  -3.400   0.490  1.00  0.00     0.049 A 
ATOM     41  N   UNL     1       8.279  -4.171   3.663  1.00  0.00    -0.248 NA
ATOM     42  C   UNL     1       8.336  -6.243   2.609  1.00  0.00     0.031 C 
ATOM     43  C   UNL     1       8.360  -3.065  -0.930  1.00  0.00     0.029 A 
ATOM     44  N   UNL     1       9.681  -2.798   0.827  1.00  0.00    -0.354 N 
ATOM     45  C   UNL     1       8.723  -5.136   4.559  1.00  0.00     0.074 A 
ATOM     46  C   UNL     1       8.549  -6.411   3.911  1.00  0.00     0.031 C 
ATOM     47  C   UNL     1       9.525  -2.550  -1.383  1.00  0.00     0.029 A 
ATOM     48  C   UNL     1      10.444  -2.410  -0.265  1.00  0.00     0.049 A 
ATOM     49  H   UNL     1       9.961  -2.650   1.759  1.00  0.00     0.167 HD
ATOM     50  C   UNL     1       9.445  -4.821   5.667  1.00  0.00     0.031 A 
ATOM     51  C   UNL     1      11.769  -2.120  -0.245  1.00  0.00     0.031 A 
ATOM     52  C   UNL     1       9.370  -3.422   5.992  1.00  0.00     0.049 A 
ATOM     53  C   UNL     1      12.148  -1.865   1.171  1.00  0.00     0.074 A 
ATOM     54  C   UNL     1       8.340  -2.555   6.298  1.00  0.00     0.029 A 
ATOM     55  N   UNL     1      10.443  -2.632   5.650  1.00  0.00    -0.354 N 
ATOM     56  N   UNL     1      11.723  -0.844   1.863  1.00  0.00    -0.248 NA
ATOM     57  C   UNL     1      12.646  -2.983   1.960  1.00  0.00     0.031 C 
ATOM     58  C   UNL     1       8.697  -1.323   5.677  1.00  0.00     0.029 A 
ATOM     59  C   UNL     1       9.941  -1.496   5.066  1.00  0.00     0.049 A 
ATOM     60  H   UNL     1      11.393  -2.843   5.796  1.00  0.00     0.167 HD
ATOM     61  C   UNL     1      11.513  -1.338   3.144  1.00  0.00     0.074 A 
ATOM     62  C   UNL     1      12.191  -2.631   3.167  1.00  0.00     0.031 C 
ATOM     63  C   UNL     1      10.579  -0.787   3.976  1.00  0.00     0.031 A 
BRANCH  50  64
ATOM     64  C   UNL     1      10.525  -5.721   6.205  1.00  0.00    -0.014 A 
ATOM     65  C   UNL     1      11.127  -5.415   7.438  1.00  0.00     0.010 A 
ATOM     66  C   UNL     1      11.149  -6.709   5.410  1.00  0.00     0.010 A 
ATOM     67  C   UNL     1      12.325  -6.029   7.827  1.00  0.00     0.020 A 
ATOM     68  C   UNL     1      12.310  -7.364   5.811  1.00  0.00     0.020 A 
ATOM     69  C   UNL     1      12.914  -6.990   7.002  1.00  0.00     0.054 A 
BRANCH  69  70
ATOM     70  S   UNL     1      14.520  -7.690   7.449  1.00  0.00     0.124 S 
ATOM     71  O   UNL     1      15.401  -6.538   7.286  1.00  0.00    -0.237 OA
ATOM     72  O   UNL     1      14.295  -8.129   8.823  1.00  0.00    -0.237 OA
ATOM     73  O   UNL     1      14.706  -8.766   6.479  1.00  0.00    -0.744 OA
ENDBRANCH  69  70
ENDBRANCH  50  64
BRANCH  51  74
ATOM     74  C   UNL     1      12.768  -2.426  -1.301  1.00  0.00    -0.014 A 
ATOM     75  C   UNL     1      14.064  -1.882  -1.246  1.00  0.00     0.010 A 
ATOM     76  C   UNL     1      12.536  -3.469  -2.223  1.00  0.00     0.010 A 
ATOM     77  C   UNL     1      15.101  -2.404  -2.039  1.00  0.00     0.020 A 
ATOM     78  C   UNL     1      13.559  -3.985  -3.025  1.00  0.00     0.020 A 
ATOM     79  C   UNL     1      14.845  -3.467  -2.910  1.00  0.00     0.054 A 
BRANCH  79  80
ATOM     80  S   UNL     1      16.223  -4.255  -3.793  1.00  0.00     0.124 S 
ATOM     81  O   UNL     1      16.588  -3.236  -4.772  1.00  0.00    -0.237 OA
ATOM     82  O   UNL     1      17.194  -4.484  -2.726  1.00  0.00    -0.237 OA
ATOM     83  O   UNL     1      15.625  -5.467  -4.351  1.00  0.00    -0.744 OA
ENDBRANCH  79  80
ENDBRANCH  51  74
BRANCH  63  84
ATOM     84  C   UNL     1       9.962   0.539   3.591  1.00  0.00    -0.014 A 
ATOM     85  C   UNL     1       9.213   0.733   2.413  1.00  0.00     0.010 A 
ATOM     86  C   UNL     1       9.999   1.578   4.538  1.00  0.00     0.010 A 
ATOM     87  C   UNL     1       8.541   1.942   2.180  1.00  0.00     0.020 A 
ATOM     88  C   UNL     1       9.317   2.778   4.320  1.00  0.00     0.020 A 
ATOM     89  C   UNL     1       8.597   2.958   3.139  1.00  0.00     0.054 A 
BRANCH  89  90
ATOM     90  S   UNL     1       7.675   4.497   2.860  1.00  0.00     0.124 S 
ATOM     91  O   UNL     1       8.420   5.121   1.770  1.00  0.00    -0.237 OA
ATOM     92  O   UNL     1       6.338   4.019   2.514  1.00  0.00    -0.237 OA
ATOM     93  O   UNL     1       7.760   5.192   4.144  1.00  0.00    -0.744 OA
ENDBRANCH  89  90
ENDBRANCH  63  84
ENDBRANCH  37  38
ENDBRANCH  30  32
ENDBRANCH  29  30
ENDBRANCH  28  29
ENDBRANCH   1  28
TORSDOF 18
