REMARK SMILES CC(C)[C@H](CO)NS(=O)(=O)c1ccc(C(=O)OCCOC(=O)c2ccc(-c3c4nc(c(-c5ccc(S(=O)(=O)[O-])cc5)c5ccc([nH]5)c(-c5ccc(S(=O)(=O)[O-])cc5)c5nc(c(-c6ccc(S(=O)(=O)[O-])cc6)c6ccc3[nH]6)C=C5)C=C4)cc2)cn1
REMARK SMILES IDX 18 1 17 2 15 3 16 4 14 5 11 6 12 7 84 8 13 9 83 10 8 11 9 12
REMARK SMILES IDX 10 13 7 14 4 16 2 17 1 18 3 19 5 20 6 21 19 23 20 24 21 25
REMARK SMILES IDX 22 26 23 27 24 28 82 29 25 30 81 31 26 32 27 33 28 34 75 35
REMARK SMILES IDX 29 36 80 37 74 38 76 39 30 40 79 41 73 42 72 43 31 45 61 46
REMARK SMILES IDX 42 47 60 48 43 49 46 50 59 51 77 52 44 53 45 54 58 56 78 57
REMARK SMILES IDX 47 58 32 59 33 60 41 61 34 62 40 63 35 64 36 65 37 66 38 67
REMARK SMILES IDX 39 68 62 69 63 70 71 71 64 72 70 73 65 74 66 75 67 76 68 77
REMARK SMILES IDX 69 78 48 79 49 80 57 81 50 82 56 83 51 84 52 85 53 86 54 87
REMARK SMILES IDX 55 88
REMARK H PARENT 7 15 6 22 76 44 46 55
REMARK Flexibility Score: inf
ROOT
ATOM      1  C   UNL     1      -5.884  -1.495   6.904  1.00  0.00     0.275 C 
ENDROOT
BRANCH   1   2
ATOM      2  O   UNL     1      -5.409  -2.104   5.684  1.00  0.00    -0.458 OA
BRANCH   2   3
ATOM      3  C   UNL     1      -5.644  -1.398   4.552  1.00  0.00     0.339 C 
ATOM      4  O   UNL     1      -6.255  -0.344   4.473  1.00  0.00    -0.246 OA
BRANCH   3   5
ATOM      5  C   UNL     1      -4.988  -2.014   3.381  1.00  0.00     0.078 A 
ATOM      6  C   UNL     1      -3.838  -2.938   1.078  1.00  0.00     0.170 A 
ATOM      7  C   UNL     1      -4.168  -3.863   2.063  1.00  0.00     0.043 A 
ATOM      8  N   UNL     1      -4.049  -1.603   1.183  1.00  0.00    -0.243 NA
ATOM      9  C   UNL     1      -4.742  -3.383   3.247  1.00  0.00     0.020 A 
ATOM     10  C   UNL     1      -4.641  -1.183   2.321  1.00  0.00     0.128 A 
BRANCH   6  11
ATOM     11  S   UNL     1      -3.289  -3.448  -0.549  1.00  0.00     0.258 S 
ATOM     12  O   UNL     1      -4.165  -2.838  -1.524  1.00  0.00    -0.205 OA
ATOM     13  O   UNL     1      -3.145  -4.893  -0.514  1.00  0.00    -0.205 OA
BRANCH  11  14
ATOM     14  N   UNL     1      -1.724  -2.883  -0.766  1.00  0.00    -0.204 NA
ATOM     15  H   UNL     1      -1.128  -3.534  -0.254  1.00  0.00     0.141 HD
BRANCH  14  16
ATOM     16  C   UNL     1      -1.240  -1.532  -0.394  1.00  0.00     0.098 C 
BRANCH  16  17
ATOM     17  C   UNL     1      -1.486  -0.419  -1.453  1.00  0.00     0.003 C 
ATOM     18  C   UNL     1      -2.079  -0.844  -2.795  1.00  0.00     0.009 C 
ATOM     19  C   UNL     1      -2.329   0.713  -0.851  1.00  0.00     0.009 C 
ENDBRANCH  16  17
BRANCH  16  20
ATOM     20  C   UNL     1       0.294  -1.691  -0.168  1.00  0.00     0.176 C 
BRANCH  20  21
ATOM     21  O   UNL     1       0.922  -2.345  -1.274  1.00  0.00    -0.395 OA
ATOM     22  H   UNL     1       0.547  -3.234  -1.380  1.00  0.00     0.210 HD
ENDBRANCH  20  21
ENDBRANCH  16  20
ENDBRANCH  14  16
ENDBRANCH  11  14
ENDBRANCH   6  11
ENDBRANCH   3   5
ENDBRANCH   2   3
ENDBRANCH   1   2
BRANCH   1  23
ATOM     23  C   UNL     1      -4.757  -0.787   7.662  1.00  0.00     0.275 C 
BRANCH  23  24
ATOM     24  O   UNL     1      -4.351   0.430   7.009  1.00  0.00    -0.458 OA
BRANCH  24  25
ATOM     25  C   UNL     1      -3.290   0.309   6.182  1.00  0.00     0.338 C 
ATOM     26  O   UNL     1      -2.664  -0.706   5.924  1.00  0.00    -0.246 OA
BRANCH  25  27
ATOM     27  C   UNL     1      -3.017   1.592   5.521  1.00  0.00     0.060 A 
ATOM     28  C   UNL     1      -3.592   1.823   4.274  1.00  0.00     0.016 A 
ATOM     29  C   UNL     1      -2.084   2.485   6.043  1.00  0.00     0.016 A 
ATOM     30  C   UNL     1      -3.174   2.896   3.494  1.00  0.00     0.010 A 
ATOM     31  C   UNL     1      -1.728   3.613   5.293  1.00  0.00     0.010 A 
ATOM     32  C   UNL     1      -2.243   3.812   3.996  1.00  0.00    -0.014 A 
BRANCH  32  33
ATOM     33  C   UNL     1      -1.778   4.960   3.169  1.00  0.00     0.031 A 
ATOM     34  C   UNL     1      -0.313   5.105   2.848  1.00  0.00     0.074 A 
ATOM     35  C   UNL     1      -2.653   5.881   2.718  1.00  0.00     0.049 A 
ATOM     36  N   UNL     1       0.330   6.136   2.365  1.00  0.00    -0.248 NA
ATOM     37  C   UNL     1       0.542   3.938   3.122  1.00  0.00     0.031 C 
ATOM     38  C   UNL     1      -4.107   5.831   2.889  1.00  0.00     0.029 A 
ATOM     39  N   UNL     1      -2.443   7.050   2.027  1.00  0.00    -0.354 N 
ATOM     40  C   UNL     1       1.671   5.768   2.338  1.00  0.00     0.074 A 
ATOM     41  C   UNL     1       1.748   4.415   2.847  1.00  0.00     0.031 C 
ATOM     42  C   UNL     1      -4.657   6.908   2.307  1.00  0.00     0.029 A 
ATOM     43  C   UNL     1      -3.594   7.770   1.806  1.00  0.00     0.049 A 
ATOM     44  H   UNL     1      -1.555   7.343   1.720  1.00  0.00     0.167 HD
ATOM     45  C   UNL     1       2.740   6.499   1.938  1.00  0.00     0.031 A 
ATOM     46  C   UNL     1      -3.776   9.010   1.309  1.00  0.00     0.031 A 
ATOM     47  C   UNL     1       2.646   7.832   1.402  1.00  0.00     0.049 A 
ATOM     48  C   UNL     1      -2.575   9.821   0.911  1.00  0.00     0.074 A 
ATOM     49  C   UNL     1       3.667   8.661   0.971  1.00  0.00     0.029 A 
ATOM     50  N   UNL     1       1.460   8.523   1.206  1.00  0.00    -0.354 N 
ATOM     51  N   UNL     1      -1.307   9.489   0.959  1.00  0.00    -0.248 NA
ATOM     52  C   UNL     1      -2.827  11.177   0.406  1.00  0.00     0.031 C 
ATOM     53  C   UNL     1       3.101   9.868   0.548  1.00  0.00     0.029 A 
ATOM     54  C   UNL     1       1.723   9.770   0.667  1.00  0.00     0.049 A 
ATOM     55  H   UNL     1       0.563   8.178   1.420  1.00  0.00     0.167 HD
ATOM     56  C   UNL     1      -0.611  10.586   0.466  1.00  0.00     0.074 A 
ATOM     57  C   UNL     1      -1.598  11.588   0.120  1.00  0.00     0.031 C 
ATOM     58  C   UNL     1       0.726  10.748   0.313  1.00  0.00     0.031 A 
BRANCH  45  59
ATOM     59  C   UNL     1       4.108   5.895   2.117  1.00  0.00    -0.014 A 
ATOM     60  C   UNL     1       4.566   4.847   1.300  1.00  0.00     0.010 A 
ATOM     61  C   UNL     1       4.965   6.415   3.106  1.00  0.00     0.010 A 
ATOM     62  C   UNL     1       5.838   4.302   1.497  1.00  0.00     0.020 A 
ATOM     63  C   UNL     1       6.247   5.891   3.288  1.00  0.00     0.020 A 
ATOM     64  C   UNL     1       6.669   4.823   2.495  1.00  0.00     0.054 A 
BRANCH  64  65
ATOM     65  S   UNL     1       8.318   4.104   2.726  1.00  0.00     0.124 S 
ATOM     66  O   UNL     1       8.004   2.843   3.393  1.00  0.00    -0.237 OA
ATOM     67  O   UNL     1       8.812   3.983   1.357  1.00  0.00    -0.237 OA
ATOM     68  O   UNL     1       9.014   5.088   3.551  1.00  0.00    -0.744 OA
ENDBRANCH  64  65
ENDBRANCH  45  59
BRANCH  46  69
ATOM     69  C   UNL     1      -5.150   9.575   1.217  1.00  0.00    -0.014 A 
ATOM     70  C   UNL     1      -5.763   9.768  -0.032  1.00  0.00     0.010 A 
ATOM     71  C   UNL     1      -5.865   9.895   2.387  1.00  0.00     0.010 A 
ATOM     72  C   UNL     1      -7.062  10.278  -0.112  1.00  0.00     0.020 A 
ATOM     73  C   UNL     1      -7.175  10.377   2.313  1.00  0.00     0.020 A 
ATOM     74  C   UNL     1      -7.761  10.576   1.062  1.00  0.00     0.054 A 
BRANCH  74  75
ATOM     75  S   UNL     1      -9.470  11.175   0.940  1.00  0.00     0.124 S 
ATOM     76  O   UNL     1      -9.276  12.562   0.531  1.00  0.00    -0.237 OA
ATOM     77  O   UNL     1     -10.045  10.290  -0.071  1.00  0.00    -0.237 OA
ATOM     78  O   UNL     1      -9.994  10.986   2.291  1.00  0.00    -0.744 OA
ENDBRANCH  74  75
ENDBRANCH  46  69
BRANCH  58  79
ATOM     79  C   UNL     1       1.203  12.030  -0.310  1.00  0.00    -0.014 A 
ATOM     80  C   UNL     1       1.232  13.230   0.419  1.00  0.00     0.010 A 
ATOM     81  C   UNL     1       1.703  12.009  -1.625  1.00  0.00     0.010 A 
ATOM     82  C   UNL     1       1.741  14.395  -0.163  1.00  0.00     0.020 A 
ATOM     83  C   UNL     1       2.232  13.165  -2.202  1.00  0.00     0.020 A 
ATOM     84  C   UNL     1       2.240  14.353  -1.470  1.00  0.00     0.054 A 
BRANCH  84  85
ATOM     85  S   UNL     1       2.958  15.860  -2.180  1.00  0.00     0.124 S 
ATOM     86  O   UNL     1       1.769  16.649  -2.486  1.00  0.00    -0.237 OA
ATOM     87  O   UNL     1       3.786  16.367  -1.088  1.00  0.00    -0.237 OA
ATOM     88  O   UNL     1       3.701  15.375  -3.341  1.00  0.00    -0.744 OA
ENDBRANCH  84  85
ENDBRANCH  58  79
ENDBRANCH  32  33
ENDBRANCH  25  27
ENDBRANCH  24  25
ENDBRANCH  23  24
ENDBRANCH   1  23
TORSDOF 20
