REMARK SMILES CC1=C[C@H](C)[C@@H](C(=O)OCCOC(=O)c2ccc(-c3c4nc(c(-c5ccc(S(=O)(=O)[O-])cc5)c5ccc([nH]5)c(-c5ccc(S(=O)(=O)[O-])cc5)c5nc(c(-c6ccc(S(=O)(=O)[O-])cc6)c6ccc3[nH]6)C=C5)C=C4)cc2)[C@H](C(=O)Nc2cccnc2)C1
REMARK SMILES IDX 11 1 10 2 9 3 7 4 8 5 6 6 1 7 2 8 3 9 85 10 4 11 75 12 5 13
REMARK SMILES IDX 76 14 77 15 78 16 79 18 80 19 84 20 81 21 83 22 82 23 12 24
REMARK SMILES IDX 13 25 14 26 15 27 16 28 74 29 17 30 73 31 18 32 19 33 20 34
REMARK SMILES IDX 67 35 21 36 72 37 66 38 68 39 22 40 71 41 65 42 64 43 23 45
REMARK SMILES IDX 53 46 34 47 52 48 35 49 38 50 51 51 69 52 36 53 37 54 50 56
REMARK SMILES IDX 70 57 39 58 24 59 25 60 33 61 26 62 32 63 27 64 28 65 29 66
REMARK SMILES IDX 30 67 31 68 54 69 55 70 63 71 56 72 62 73 57 74 58 75 59 76
REMARK SMILES IDX 60 77 61 78 40 79 41 80 49 81 42 82 48 83 43 84 44 85 45 86
REMARK SMILES IDX 46 87 47 88
REMARK H PARENT 78 17 68 44 38 55
REMARK Flexibility Score: inf
ROOT
ATOM      1  C   UNL     1       2.570  -0.998   7.047  1.00  0.00     0.275 C 
ENDROOT
BRANCH   1   2
ATOM      2  C   UNL     1       3.026  -1.555   5.694  1.00  0.00     0.274 C 
BRANCH   2   3
ATOM      3  O   UNL     1       2.027  -1.431   4.663  1.00  0.00    -0.462 OA
BRANCH   3   4
ATOM      4  C   UNL     1       1.218  -2.512   4.490  1.00  0.00     0.310 C 
ATOM      5  O   UNL     1       1.282  -3.540   5.154  1.00  0.00    -0.252 OA
BRANCH   4   6
ATOM      6  C   UNL     1       0.320  -2.394   3.262  1.00  0.00     0.118 C 
ATOM      7  C   UNL     1       1.120  -0.078  -0.467  1.00  0.00     0.039 C 
ATOM      8  C   UNL     1       0.899  -0.871   0.789  1.00  0.00    -0.076 C 
ATOM      9  C   UNL     1       1.210  -2.175   0.849  1.00  0.00    -0.024 C 
ATOM     10  C   UNL     1       0.368  -0.117   1.973  1.00  0.00     0.044 C 
ATOM     11  C   UNL     1       1.167  -2.989   2.108  1.00  0.00     0.023 C 
ATOM     12  C   UNL     1      -0.260  -0.974   3.078  1.00  0.00     0.097 C 
ATOM     13  C   UNL     1       0.798  -4.462   1.854  1.00  0.00     0.013 C 
BRANCH  12  14
ATOM     14  C   UNL     1      -1.804  -0.882   3.141  1.00  0.00     0.228 C 
ATOM     15  O   UNL     1      -2.363  -0.769   4.237  1.00  0.00    -0.274 OA
ATOM     16  N   UNL     1      -2.603  -0.787   2.042  1.00  0.00    -0.324 N 
ATOM     17  H   UNL     1      -3.413  -0.241   2.167  1.00  0.00     0.169 HD
BRANCH  16  18
ATOM     18  C   UNL     1      -2.461  -1.338   0.768  1.00  0.00     0.059 A 
ATOM     19  C   UNL     1      -1.985  -2.626   0.583  1.00  0.00     0.029 A 
ATOM     20  C   UNL     1      -2.913  -0.655  -0.354  1.00  0.00     0.137 A 
ATOM     21  C   UNL     1      -1.864  -3.144  -0.702  1.00  0.00     0.022 A 
ATOM     22  N   UNL     1      -2.801  -1.122  -1.622  1.00  0.00    -0.263 NA
ATOM     23  C   UNL     1      -2.262  -2.352  -1.765  1.00  0.00     0.111 A 
ENDBRANCH  16  18
ENDBRANCH  12  14
ENDBRANCH   4   6
ENDBRANCH   3   4
ENDBRANCH   2   3
ENDBRANCH   1   2
BRANCH   1  24
ATOM     24  O   UNL     1       1.451  -1.723   7.583  1.00  0.00    -0.458 OA
BRANCH  24  25
ATOM     25  C   UNL     1       0.242  -1.194   7.274  1.00  0.00     0.338 C 
ATOM     26  O   UNL     1       0.037  -0.159   6.664  1.00  0.00    -0.246 OA
BRANCH  25  27
ATOM     27  C   UNL     1      -0.824  -2.135   7.654  1.00  0.00     0.060 A 
ATOM     28  C   UNL     1      -1.586  -2.702   6.631  1.00  0.00     0.016 A 
ATOM     29  C   UNL     1      -1.140  -2.385   8.988  1.00  0.00     0.016 A 
ATOM     30  C   UNL     1      -2.687  -3.497   6.924  1.00  0.00     0.010 A 
ATOM     31  C   UNL     1      -2.246  -3.188   9.287  1.00  0.00     0.010 A 
ATOM     32  C   UNL     1      -3.037  -3.730   8.255  1.00  0.00    -0.014 A 
BRANCH  32  33
ATOM     33  C   UNL     1      -4.297  -4.445   8.559  1.00  0.00     0.031 A 
ATOM     34  C   UNL     1      -5.486  -3.661   9.036  1.00  0.00     0.074 A 
ATOM     35  C   UNL     1      -4.392  -5.773   8.362  1.00  0.00     0.049 A 
ATOM     36  N   UNL     1      -6.641  -4.093   9.470  1.00  0.00    -0.248 NA
ATOM     37  C   UNL     1      -5.355  -2.195   9.020  1.00  0.00     0.031 C 
ATOM     38  C   UNL     1      -3.338  -6.624   7.809  1.00  0.00     0.029 A 
ATOM     39  N   UNL     1      -5.431  -6.636   8.600  1.00  0.00    -0.354 N 
ATOM     40  C   UNL     1      -7.363  -2.955   9.812  1.00  0.00     0.074 A 
ATOM     41  C   UNL     1      -6.513  -1.816   9.540  1.00  0.00     0.031 C 
ATOM     42  C   UNL     1      -3.788  -7.889   7.745  1.00  0.00     0.029 A 
ATOM     43  C   UNL     1      -5.136  -7.945   8.305  1.00  0.00     0.049 A 
ATOM     44  H   UNL     1      -6.304  -6.345   8.950  1.00  0.00     0.167 HD
ATOM     45  C   UNL     1      -8.619  -2.871  10.312  1.00  0.00     0.031 A 
ATOM     46  C   UNL     1      -5.859  -9.065   8.496  1.00  0.00     0.031 A 
ATOM     47  C   UNL     1      -9.457  -4.011  10.573  1.00  0.00     0.049 A 
ATOM     48  C   UNL     1      -7.220  -8.955   9.129  1.00  0.00     0.074 A 
ATOM     49  C   UNL     1     -10.734  -4.040  11.105  1.00  0.00     0.029 A 
ATOM     50  N   UNL     1      -9.102  -5.327  10.312  1.00  0.00    -0.354 N 
ATOM     51  N   UNL     1      -7.868  -7.880   9.509  1.00  0.00    -0.248 NA
ATOM     52  C   UNL     1      -7.942 -10.212   9.368  1.00  0.00     0.031 C 
ATOM     53  C   UNL     1     -11.136  -5.378  11.200  1.00  0.00     0.029 A 
ATOM     54  C   UNL     1     -10.129  -6.177  10.682  1.00  0.00     0.049 A 
ATOM     55  H   UNL     1      -8.245  -5.613   9.922  1.00  0.00     0.167 HD
ATOM     56  C   UNL     1      -9.084  -8.328  10.013  1.00  0.00     0.074 A 
ATOM     57  C   UNL     1      -9.085  -9.771   9.879  1.00  0.00     0.031 C 
ATOM     58  C   UNL     1     -10.108  -7.611  10.538  1.00  0.00     0.031 A 
BRANCH  45  59
ATOM     59  C   UNL     1      -9.130  -1.500  10.661  1.00  0.00    -0.014 A 
ATOM     60  C   UNL     1      -9.496  -0.578   9.664  1.00  0.00     0.010 A 
ATOM     61  C   UNL     1      -9.243  -1.127  12.013  1.00  0.00     0.010 A 
ATOM     62  C   UNL     1      -9.921   0.708  10.013  1.00  0.00     0.020 A 
ATOM     63  C   UNL     1      -9.691   0.148  12.366  1.00  0.00     0.020 A 
ATOM     64  C   UNL     1     -10.007   1.066  11.362  1.00  0.00     0.054 A 
BRANCH  64  65
ATOM     65  S   UNL     1     -10.556   2.741  11.791  1.00  0.00     0.124 S 
ATOM     66  O   UNL     1      -9.364   3.533  11.496  1.00  0.00    -0.237 OA
ATOM     67  O   UNL     1     -11.687   2.951  10.892  1.00  0.00    -0.237 OA
ATOM     68  O   UNL     1     -10.902   2.640  13.207  1.00  0.00    -0.744 OA
ENDBRANCH  64  65
ENDBRANCH  45  59
BRANCH  46  69
ATOM     69  C   UNL     1      -5.296 -10.388   8.114  1.00  0.00    -0.014 A 
ATOM     70  C   UNL     1      -5.823 -11.101   7.024  1.00  0.00     0.010 A 
ATOM     71  C   UNL     1      -4.218 -10.936   8.834  1.00  0.00     0.010 A 
ATOM     72  C   UNL     1      -5.288 -12.342   6.665  1.00  0.00     0.020 A 
ATOM     73  C   UNL     1      -3.664 -12.164   8.463  1.00  0.00     0.020 A 
ATOM     74  C   UNL     1      -4.209 -12.865   7.386  1.00  0.00     0.054 A 
BRANCH  74  75
ATOM     75  S   UNL     1      -3.489 -14.447   6.865  1.00  0.00     0.124 S 
ATOM     76  O   UNL     1      -4.471 -15.405   7.360  1.00  0.00    -0.237 OA
ATOM     77  O   UNL     1      -3.422 -14.302   5.412  1.00  0.00    -0.237 OA
ATOM     78  O   UNL     1      -2.193 -14.470   7.540  1.00  0.00    -0.744 OA
ENDBRANCH  74  75
ENDBRANCH  46  69
BRANCH  58  79
ATOM     79  C   UNL     1     -11.331  -8.374  10.970  1.00  0.00    -0.014 A 
ATOM     80  C   UNL     1     -11.336  -9.133  12.153  1.00  0.00     0.010 A 
ATOM     81  C   UNL     1     -12.505  -8.290  10.201  1.00  0.00     0.010 A 
ATOM     82  C   UNL     1     -12.489  -9.819  12.545  1.00  0.00     0.020 A 
ATOM     83  C   UNL     1     -13.666  -8.956  10.601  1.00  0.00     0.020 A 
ATOM     84  C   UNL     1     -13.646  -9.729  11.764  1.00  0.00     0.054 A 
BRANCH  84  85
ATOM     85  S   UNL     1     -15.143 -10.594  12.312  1.00  0.00     0.124 S 
ATOM     86  O   UNL     1     -14.844 -11.976  11.949  1.00  0.00    -0.237 OA
ATOM     87  O   UNL     1     -15.172 -10.313  13.746  1.00  0.00    -0.237 OA
ATOM     88  O   UNL     1     -16.210  -9.962  11.539  1.00  0.00    -0.744 OA
ENDBRANCH  84  85
ENDBRANCH  58  79
ENDBRANCH  32  33
ENDBRANCH  25  27
ENDBRANCH  24  25
ENDBRANCH   1  24
TORSDOF 16
