REMARK SMILES CC(C)[NH2+][C@@]1(C(=O)OCCOC(=O)c2ccc(-c3c4nc(c(-c5ccc(S(=O)(=O)[O-])cc5)c5ccc([nH]5)c(-c5ccc(S(=O)(=O)[O-])cc5)c5nc(c(-c6ccc(S(=O)(=O)[O-])cc6)c6ccc3[nH]6)C=C5)C=C4)cc2)CCC[C@@H]1CCOC1CCOCC1
REMARK SMILES IDX 9 1 8 2 6 3 7 4 5 5 74 6 77 7 75 8 76 9 4 10 2 13 1 14 3 15
REMARK SMILES IDX 78 16 79 17 80 18 81 19 82 20 86 21 83 22 85 23 84 24 10 25
REMARK SMILES IDX 11 26 12 27 13 28 14 29 15 30 73 31 16 32 72 33 17 34 18 35
REMARK SMILES IDX 19 36 66 37 20 38 71 39 65 40 67 41 21 42 70 43 64 44 63 45
REMARK SMILES IDX 22 47 52 48 33 49 51 50 34 51 37 52 50 53 68 54 35 55 36 56
REMARK SMILES IDX 49 58 69 59 38 60 23 61 24 62 32 63 25 64 31 65 26 66 27 67
REMARK SMILES IDX 28 68 29 69 30 70 53 71 54 72 62 73 55 74 61 75 56 76 57 77
REMARK SMILES IDX 58 78 59 79 60 80 39 81 40 82 48 83 41 84 47 85 42 86 43 87
REMARK SMILES IDX 44 88 45 89 46 90
REMARK H PARENT 4 11 4 12 67 46 37 57
REMARK Flexibility Score: inf
ROOT
ATOM      1  C   UNL     1      -4.209  -2.291   2.918  1.00  0.00     0.274 C 
ENDROOT
BRANCH   1   2
ATOM      2  O   UNL     1      -3.411  -2.129   1.690  1.00  0.00    -0.457 OA
BRANCH   2   3
ATOM      3  C   UNL     1      -2.208  -2.734   1.523  1.00  0.00     0.368 C 
ATOM      4  O   UNL     1      -1.379  -2.699   2.432  1.00  0.00    -0.245 OA
BRANCH   3   5
ATOM      5  C   UNL     1      -1.768  -3.346  -0.117  1.00  0.00     0.197 C 
ATOM      6  C   UNL     1      -2.841  -4.179  -1.826  1.00  0.00     0.081 C 
ATOM      7  C   UNL     1      -0.496  -4.761   0.335  1.00  0.00     0.065 C 
ATOM      8  C   UNL     1      -1.846  -5.839  -2.382  1.00  0.00     0.008 C 
ATOM      9  C   UNL     1      -0.429  -6.061  -1.105  1.00  0.00     0.011 C 
BRANCH   5  10
ATOM     10  N   UNL     1      -0.717  -2.030  -0.216  1.00  0.00    -0.330 N 
ATOM     11  H   UNL     1      -0.896  -1.641  -1.142  1.00  0.00     0.347 HD
ATOM     12  H   UNL     1      -0.951  -1.610   0.683  1.00  0.00     0.347 HD
BRANCH  10  13
ATOM     13  C   UNL     1       0.743  -1.963  -0.079  1.00  0.00     0.176 C 
ATOM     14  C   UNL     1       1.174  -0.597  -0.655  1.00  0.00     0.075 C 
ATOM     15  C   UNL     1       1.318  -2.061   1.334  1.00  0.00     0.075 C 
ENDBRANCH  10  13
ENDBRANCH   5  10
BRANCH   7  16
ATOM     16  C   UNL     1      -0.848  -5.379   1.744  1.00  0.00     0.039 C 
BRANCH  16  17
ATOM     17  C   UNL     1      -2.317  -5.332   2.341  1.00  0.00     0.161 C 
BRANCH  17  18
ATOM     18  O   UNL     1      -3.477  -4.706   1.723  1.00  0.00    -0.378 OA
BRANCH  18  19
ATOM     19  C   UNL     1      -3.664  -4.553   0.312  1.00  0.00     0.122 C 
ATOM     20  C   UNL     1      -2.333  -5.249  -0.434  1.00  0.00     0.060 C 
ATOM     21  C   UNL     1      -4.228  -2.989  -0.442  1.00  0.00     0.060 C 
ATOM     22  C   UNL     1      -1.035  -4.059  -1.699  1.00  0.00     0.163 C 
ATOM     23  C   UNL     1      -3.172  -1.957  -1.434  1.00  0.00     0.163 C 
ATOM     24  O   UNL     1      -1.762  -2.463  -2.152  1.00  0.00    -0.381 OA
ENDBRANCH  18  19
ENDBRANCH  17  18
ENDBRANCH  16  17
ENDBRANCH   7  16
ENDBRANCH   3   5
ENDBRANCH   2   3
ENDBRANCH   1   2
BRANCH   1  25
ATOM     25  C   UNL     1      -3.520  -2.092   4.259  1.00  0.00     0.275 C 
BRANCH  25  26
ATOM     26  O   UNL     1      -3.040  -0.756   4.243  1.00  0.00    -0.458 OA
BRANCH  26  27
ATOM     27  C   UNL     1      -1.793  -0.611   4.726  1.00  0.00     0.338 C 
ATOM     28  O   UNL     1      -1.237  -1.287   5.572  1.00  0.00    -0.246 OA
BRANCH  27  29
ATOM     29  C   UNL     1      -1.199   0.522   4.007  1.00  0.00     0.060 A 
ATOM     30  C   UNL     1      -1.388   0.653   2.625  1.00  0.00     0.016 A 
ATOM     31  C   UNL     1      -0.392   1.409   4.704  1.00  0.00     0.016 A 
ATOM     32  C   UNL     1      -0.695   1.623   1.920  1.00  0.00     0.010 A 
ATOM     33  C   UNL     1       0.218   2.445   4.008  1.00  0.00     0.010 A 
ATOM     34  C   UNL     1       0.104   2.539   2.607  1.00  0.00    -0.014 A 
BRANCH  34  35
ATOM     35  C   UNL     1       0.875   3.588   1.901  1.00  0.00     0.031 A 
ATOM     36  C   UNL     1       2.346   3.699   2.182  1.00  0.00     0.074 A 
ATOM     37  C   UNL     1       0.255   4.472   1.097  1.00  0.00     0.049 A 
ATOM     38  N   UNL     1       3.130   4.736   2.080  1.00  0.00    -0.248 NA
ATOM     39  C   UNL     1       3.008   2.488   2.702  1.00  0.00     0.031 C 
ATOM     40  C   UNL     1      -1.148   4.414   0.675  1.00  0.00     0.029 A 
ATOM     41  N   UNL     1       0.727   5.619   0.512  1.00  0.00    -0.354 N 
ATOM     42  C   UNL     1       4.350   4.336   2.617  1.00  0.00     0.074 A 
ATOM     43  C   UNL     1       4.206   2.956   3.024  1.00  0.00     0.031 C 
ATOM     44  C   UNL     1      -1.416   5.463  -0.115  1.00  0.00     0.029 A 
ATOM     45  C   UNL     1      -0.251   6.334  -0.139  1.00  0.00     0.049 A 
ATOM     46  H   UNL     1       1.669   5.901   0.554  1.00  0.00     0.167 HD
ATOM     47  C   UNL     1       5.470   5.081   2.775  1.00  0.00     0.031 A 
ATOM     48  C   UNL     1      -0.241   7.591  -0.619  1.00  0.00     0.031 A 
ATOM     49  C   UNL     1       5.569   6.442   2.313  1.00  0.00     0.049 A 
ATOM     50  C   UNL     1       0.997   8.412  -0.411  1.00  0.00     0.074 A 
ATOM     51  C   UNL     1       6.639   7.312   2.399  1.00  0.00     0.029 A 
ATOM     52  N   UNL     1       4.552   7.121   1.650  1.00  0.00    -0.354 N 
ATOM     53  N   UNL     1       2.114   8.077   0.192  1.00  0.00    -0.248 NA
ATOM     54  C   UNL     1       0.969   9.786  -0.923  1.00  0.00     0.031 C 
ATOM     55  C   UNL     1       6.255   8.530   1.824  1.00  0.00     0.029 A 
ATOM     56  C   UNL     1       4.967   8.399   1.326  1.00  0.00     0.049 A 
ATOM     57  H   UNL     1       3.666   6.746   1.442  1.00  0.00     0.167 HD
ATOM     58  C   UNL     1       2.933   9.195   0.120  1.00  0.00     0.074 A 
ATOM     59  C   UNL     1       2.185  10.208  -0.603  1.00  0.00     0.031 C 
ATOM     60  C   UNL     1       4.186   9.375   0.606  1.00  0.00     0.031 A 
BRANCH  47  61
ATOM     61  C   UNL     1       6.630   4.470   3.522  1.00  0.00    -0.014 A 
ATOM     62  C   UNL     1       7.382   3.407   2.991  1.00  0.00     0.010 A 
ATOM     63  C   UNL     1       6.986   4.987   4.783  1.00  0.00     0.010 A 
ATOM     64  C   UNL     1       8.435   2.846   3.723  1.00  0.00     0.020 A 
ATOM     65  C   UNL     1       8.057   4.451   5.505  1.00  0.00     0.020 A 
ATOM     66  C   UNL     1       8.764   3.370   4.978  1.00  0.00     0.054 A 
BRANCH  66  67
ATOM     67  S   UNL     1      10.145   2.634   5.899  1.00  0.00     0.124 S 
ATOM     68  O   UNL     1       9.577   1.357   6.325  1.00  0.00    -0.237 OA
ATOM     69  O   UNL     1      11.194   2.546   4.887  1.00  0.00    -0.237 OA
ATOM     70  O   UNL     1      10.398   3.592   6.972  1.00  0.00    -0.744 OA
ENDBRANCH  66  67
ENDBRANCH  47  61
BRANCH  48  71
ATOM     71  C   UNL     1      -1.463   8.145  -1.264  1.00  0.00    -0.014 A 
ATOM     72  C   UNL     1      -1.489   8.387  -2.647  1.00  0.00     0.010 A 
ATOM     73  C   UNL     1      -2.635   8.364  -0.512  1.00  0.00     0.010 A 
ATOM     74  C   UNL     1      -2.662   8.830  -3.268  1.00  0.00     0.020 A 
ATOM     75  C   UNL     1      -3.818   8.773  -1.133  1.00  0.00     0.020 A 
ATOM     76  C   UNL     1      -3.822   9.010  -2.508  1.00  0.00     0.054 A 
BRANCH  76  77
ATOM     77  S   UNL     1      -5.353   9.499  -3.350  1.00  0.00     0.124 S 
ATOM     78  O   UNL     1      -5.098  10.903  -3.653  1.00  0.00    -0.237 OA
ATOM     79  O   UNL     1      -5.383   8.598  -4.500  1.00  0.00    -0.237 OA
ATOM     80  O   UNL     1      -6.389   9.250  -2.349  1.00  0.00    -0.744 OA
ENDBRANCH  76  77
ENDBRANCH  48  71
BRANCH  60  81
ATOM     81  C   UNL     1       4.832  10.700   0.319  1.00  0.00    -0.014 A 
ATOM     82  C   UNL     1       4.439  11.866   0.998  1.00  0.00     0.010 A 
ATOM     83  C   UNL     1       5.875  10.764  -0.622  1.00  0.00     0.010 A 
ATOM     84  C   UNL     1       5.057  13.085   0.712  1.00  0.00     0.020 A 
ATOM     85  C   UNL     1       6.514  11.974  -0.889  1.00  0.00     0.020 A 
ATOM     86  C   UNL     1       6.090  13.130  -0.231  1.00  0.00     0.054 A 
BRANCH  86  87
ATOM     87  S   UNL     1       6.901  14.718  -0.558  1.00  0.00     0.124 S 
ATOM     88  O   UNL     1       5.887  15.420  -1.340  1.00  0.00    -0.237 OA
ATOM     89  O   UNL     1       7.133  15.241   0.786  1.00  0.00    -0.237 OA
ATOM     90  O   UNL     1       8.107  14.345  -1.292  1.00  0.00    -0.744 OA
ENDBRANCH  86  87
ENDBRANCH  60  81
ENDBRANCH  34  35
ENDBRANCH  27  29
ENDBRANCH  26  27
ENDBRANCH  25  26
ENDBRANCH   1  25
TORSDOF 20
