REMARK SMILES C#CCN(CC(=O)OCCOC(=O)c1ccc(-c2c3nc(c(-c4ccc(S(=O)(=O)[O-])cc4)c4ccc([nH]4)c(-c4ccc(S(=O)(=O)[O-])cc4)c4nc(c(-c5ccc(S(=O)(=O)[O-])cc5)c5ccc2[nH]5)C=C4)C=C3)cc1)C(=O)C(C)(C)[NH2+]CC
REMARK SMILES IDX 9 1 8 2 6 3 7 4 5 5 4 6 3 7 2 8 1 9 74 10 75 11 76 12 77 13
REMARK SMILES IDX 78 14 79 15 80 18 81 19 10 20 11 21 12 22 13 23 14 24 15 25
REMARK SMILES IDX 73 26 16 27 72 28 17 29 18 30 19 31 66 32 20 33 71 34 65 35
REMARK SMILES IDX 67 36 21 37 70 38 64 39 63 40 22 42 52 43 33 44 51 45 34 46
REMARK SMILES IDX 37 47 50 48 68 49 35 50 36 51 49 53 69 54 38 55 23 56 24 57
REMARK SMILES IDX 32 58 25 59 31 60 26 61 27 62 28 63 29 64 30 65 53 66 54 67
REMARK SMILES IDX 62 68 55 69 61 70 56 71 57 72 58 73 59 74 60 75 39 76 40 77
REMARK SMILES IDX 48 78 41 79 47 80 42 81 43 82 44 83 45 84 46 85
REMARK H PARENT 79 16 79 17 67 41 37 52
REMARK Flexibility Score: inf
ROOT
ATOM      1  C   UNL     1      -6.680   1.838   0.068  1.00  0.00     0.274 C 
ENDROOT
BRANCH   1   2
ATOM      2  O   UNL     1      -5.265   1.581   0.106  1.00  0.00    -0.461 OA
BRANCH   2   3
ATOM      3  C   UNL     1      -4.744   0.931  -0.970  1.00  0.00     0.325 C 
ATOM      4  O   UNL     1      -5.380   0.220  -1.738  1.00  0.00    -0.250 OA
BRANCH   3   5
ATOM      5  C   UNL     1      -3.310   1.404  -1.237  1.00  0.00     0.243 C 
BRANCH   5   6
ATOM      6  N   UNL     1      -2.351   1.263  -0.130  1.00  0.00    -0.315 N 
BRANCH   6   7
ATOM      7  C   UNL     1      -1.858  -0.091   0.024  1.00  0.00     0.210 C 
BRANCH   7   8
ATOM      8  C   UNL     1      -0.338  -0.091   0.024  1.00  0.00    -0.085 C 
ATOM      9  C   UNL     1       0.966  -0.091   0.024  1.00  0.00     0.006 C 
ENDBRANCH   7   8
ENDBRANCH   6   7
BRANCH   6  10
ATOM     10  C   UNL     1      -1.979   2.156   0.888  1.00  0.00     0.284 C 
ATOM     11  O   UNL     1      -1.563   1.689   1.961  1.00  0.00    -0.268 OA
BRANCH  10  12
ATOM     12  C   UNL     1      -2.089   3.715   0.727  1.00  0.00     0.170 C 
ATOM     13  C   UNL     1      -1.769   4.210  -0.673  1.00  0.00     0.090 C 
ATOM     14  C   UNL     1      -3.498   4.094   1.170  1.00  0.00     0.090 C 
BRANCH  12  15
ATOM     15  N   UNL     1      -1.231   4.452   1.699  1.00  0.00    -0.334 N 
ATOM     16  H   UNL     1      -1.469   4.110   2.630  1.00  0.00     0.347 HD
ATOM     17  H   UNL     1      -1.434   5.435   1.516  1.00  0.00     0.347 HD
BRANCH  15  18
ATOM     18  C   UNL     1       0.219   4.356   1.561  1.00  0.00     0.257 C 
ATOM     19  C   UNL     1       0.830   5.294   0.522  1.00  0.00     0.071 C 
ENDBRANCH  15  18
ENDBRANCH  12  15
ENDBRANCH  10  12
ENDBRANCH   6  10
ENDBRANCH   5   6
ENDBRANCH   3   5
ENDBRANCH   2   3
ENDBRANCH   1   2
BRANCH   1  20
ATOM     20  C   UNL     1      -6.948   3.301   0.481  1.00  0.00     0.275 C 
BRANCH  20  21
ATOM     21  O   UNL     1      -6.250   4.364  -0.227  1.00  0.00    -0.458 OA
BRANCH  21  22
ATOM     22  C   UNL     1      -5.942   4.229  -1.533  1.00  0.00     0.338 C 
ATOM     23  O   UNL     1      -6.280   3.308  -2.260  1.00  0.00    -0.246 OA
BRANCH  22  24
ATOM     24  C   UNL     1      -4.967   5.259  -1.982  1.00  0.00     0.060 A 
ATOM     25  C   UNL     1      -4.119   4.898  -3.038  1.00  0.00     0.016 A 
ATOM     26  C   UNL     1      -4.839   6.527  -1.403  1.00  0.00     0.016 A 
ATOM     27  C   UNL     1      -3.144   5.780  -3.501  1.00  0.00     0.010 A 
ATOM     28  C   UNL     1      -3.931   7.454  -1.945  1.00  0.00     0.010 A 
ATOM     29  C   UNL     1      -3.106   7.097  -3.025  1.00  0.00    -0.014 A 
BRANCH  29  30
ATOM     30  C   UNL     1      -2.394   8.130  -3.826  1.00  0.00     0.031 A 
ATOM     31  C   UNL     1      -1.237   8.917  -3.285  1.00  0.00     0.074 A 
ATOM     32  C   UNL     1      -2.859   8.366  -5.072  1.00  0.00     0.049 A 
ATOM     33  N   UNL     1      -0.629   9.948  -3.815  1.00  0.00    -0.248 NA
ATOM     34  C   UNL     1      -0.686   8.496  -1.989  1.00  0.00     0.031 C 
ATOM     35  C   UNL     1      -3.955   7.628  -5.716  1.00  0.00     0.029 A 
ATOM     36  N   UNL     1      -2.487   9.282  -6.022  1.00  0.00    -0.354 N 
ATOM     37  C   UNL     1       0.359  10.320  -2.910  1.00  0.00     0.074 A 
ATOM     38  C   UNL     1       0.272   9.398  -1.796  1.00  0.00     0.031 C 
ATOM     39  C   UNL     1      -4.149   8.101  -6.951  1.00  0.00     0.029 A 
ATOM     40  C   UNL     1      -3.276   9.246  -7.149  1.00  0.00     0.049 A 
ATOM     41  H   UNL     1      -1.732   9.903  -5.910  1.00  0.00     0.167 HD
ATOM     42  C   UNL     1       1.239  11.348  -3.003  1.00  0.00     0.031 A 
ATOM     43  C   UNL     1      -3.351  10.078  -8.203  1.00  0.00     0.031 A 
ATOM     44  C   UNL     1       1.283  12.264  -4.118  1.00  0.00     0.049 A 
ATOM     45  C   UNL     1      -2.434  11.259  -8.239  1.00  0.00     0.074 A 
ATOM     46  C   UNL     1       2.124  13.346  -4.314  1.00  0.00     0.029 A 
ATOM     47  N   UNL     1       0.442  12.210  -5.223  1.00  0.00    -0.354 N 
ATOM     48  N   UNL     1      -1.526  11.612  -7.361  1.00  0.00    -0.248 NA
ATOM     49  C   UNL     1      -2.549  12.155  -9.394  1.00  0.00     0.031 C 
ATOM     50  C   UNL     1       1.752  13.980  -5.504  1.00  0.00     0.029 A 
ATOM     51  C   UNL     1       0.727  13.252  -6.089  1.00  0.00     0.049 A 
ATOM     52  H   UNL     1      -0.254  11.529  -5.369  1.00  0.00     0.167 HD
ATOM     53  C   UNL     1      -0.935  12.757  -7.872  1.00  0.00     0.074 A 
ATOM     54  C   UNL     1      -1.591  13.036  -9.136  1.00  0.00     0.031 C 
ATOM     55  C   UNL     1       0.065  13.503  -7.346  1.00  0.00     0.031 A 
BRANCH  42  56
ATOM     56  C   UNL     1       2.182  11.584  -1.848  1.00  0.00    -0.014 A 
ATOM     57  C   UNL     1       3.256  10.717  -1.580  1.00  0.00     0.010 A 
ATOM     58  C   UNL     1       2.020  12.731  -1.046  1.00  0.00     0.010 A 
ATOM     59  C   UNL     1       4.122  10.969  -0.508  1.00  0.00     0.020 A 
ATOM     60  C   UNL     1       2.897  13.001   0.009  1.00  0.00     0.020 A 
ATOM     61  C   UNL     1       3.933  12.107   0.283  1.00  0.00     0.054 A 
BRANCH  61  62
ATOM     62  S   UNL     1       5.073  12.413   1.662  1.00  0.00     0.124 S 
ATOM     63  O   UNL     1       4.674  11.381   2.616  1.00  0.00    -0.237 OA
ATOM     64  O   UNL     1       6.383  12.223   1.044  1.00  0.00    -0.237 OA
ATOM     65  O   UNL     1       4.771  13.784   2.067  1.00  0.00    -0.744 OA
ENDBRANCH  61  62
ENDBRANCH  42  56
BRANCH  43  66
ATOM     66  C   UNL     1      -4.374   9.834  -9.256  1.00  0.00    -0.014 A 
ATOM     67  C   UNL     1      -3.999   9.390 -10.534  1.00  0.00     0.010 A 
ATOM     68  C   UNL     1      -5.745   9.964  -8.952  1.00  0.00     0.010 A 
ATOM     69  C   UNL     1      -4.973   9.082 -11.488  1.00  0.00     0.020 A 
ATOM     70  C   UNL     1      -6.721   9.626  -9.891  1.00  0.00     0.020 A 
ATOM     71  C   UNL     1      -6.328   9.195 -11.158  1.00  0.00     0.054 A 
BRANCH  71  72
ATOM     72  S   UNL     1      -7.572   8.717 -12.389  1.00  0.00     0.124 S 
ATOM     73  O   UNL     1      -7.499   9.822 -13.338  1.00  0.00    -0.237 OA
ATOM     74  O   UNL     1      -7.065   7.434 -12.869  1.00  0.00    -0.237 OA
ATOM     75  O   UNL     1      -8.808   8.638 -11.613  1.00  0.00    -0.744 OA
ENDBRANCH  71  72
ENDBRANCH  43  66
BRANCH  55  76
ATOM     76  C   UNL     1       0.558  14.660  -8.167  1.00  0.00    -0.014 A 
ATOM     77  C   UNL     1      -0.182  15.849  -8.277  1.00  0.00     0.010 A 
ATOM     78  C   UNL     1       1.824  14.573  -8.775  1.00  0.00     0.010 A 
ATOM     79  C   UNL     1       0.334  16.931  -8.993  1.00  0.00     0.020 A 
ATOM     80  C   UNL     1       2.354  15.662  -9.467  1.00  0.00     0.020 A 
ATOM     81  C   UNL     1       1.602  16.833  -9.576  1.00  0.00     0.054 A 
BRANCH  81  82
ATOM     82  S   UNL     1       2.285  18.282 -10.427  1.00  0.00     0.124 S 
ATOM     83  O   UNL     1       1.496  18.312 -11.655  1.00  0.00    -0.237 OA
ATOM     84  O   UNL     1       2.018  19.362  -9.480  1.00  0.00    -0.237 OA
ATOM     85  O   UNL     1       3.697  17.948 -10.600  1.00  0.00    -0.744 OA
ENDBRANCH  81  82
ENDBRANCH  55  76
ENDBRANCH  29  30
ENDBRANCH  22  24
ENDBRANCH  21  22
ENDBRANCH  20  21
ENDBRANCH   1  20
TORSDOF 21
