REMARK SMILES O=C(CCCCCC(F)(F)c1ccccc1)OCCOC(=O)c1ccc(-c2c3nc(c(-c4ccc(S(=O)(=O)[O-])cc4)c4ccc([nH]4)c(-c4ccc(S(=O)(=O)[O-])cc4)c4nc(c(-c5ccc(S(=O)(=O)[O-])cc5)c5ccc2[nH]5)C=C4)C=C3)cc1
REMARK SMILES IDX 17 1 2 2 1 3 3 4 4 5 5 6 6 7 7 8 8 9 9 10 10 11 11 12 12 13
REMARK SMILES IDX 16 14 13 15 15 16 14 17 18 18 19 19 20 20 21 21 22 22 23 23
REMARK SMILES IDX 24 24 82 25 25 26 81 27 26 28 27 29 28 30 75 31 29 32 80 33
REMARK SMILES IDX 74 34 76 35 30 36 79 37 73 38 72 39 31 41 61 42 42 43 60 44
REMARK SMILES IDX 43 45 46 46 59 47 77 48 44 49 45 50 58 52 78 53 47 54 32 55
REMARK SMILES IDX 33 56 41 57 34 58 40 59 35 60 36 61 37 62 38 63 39 64 62 65
REMARK SMILES IDX 63 66 71 67 64 68 70 69 65 70 66 71 67 72 68 73 69 74 48 75
REMARK SMILES IDX 49 76 57 77 50 78 56 79 51 80 52 81 53 82 54 83 55 84
REMARK H PARENT 76 40 46 51
REMARK Flexibility Score: inf
ROOT
ATOM      1  O   UNL     1       2.295   0.512  -1.336  1.00  0.00    -0.462 OA
ENDROOT
BRANCH   1   2
ATOM      2  C   UNL     1       2.210  -0.555  -0.501  1.00  0.00     0.305 C 
ATOM      3  O   UNL     1       1.470  -1.499  -0.761  1.00  0.00    -0.252 OA
BRANCH   2   4
ATOM      4  C   UNL     1       2.947  -0.458   0.818  1.00  0.00     0.123 C 
BRANCH   4   5
ATOM      5  C   UNL     1       3.851  -1.647   1.113  1.00  0.00     0.012 C 
BRANCH   5   6
ATOM      6  C   UNL     1       5.160  -1.660   0.318  1.00  0.00     0.001 C 
BRANCH   6   7
ATOM      7  C   UNL     1       6.157  -0.524   0.598  1.00  0.00     0.007 C 
BRANCH   7   8
ATOM      8  C   UNL     1       6.678  -0.328   2.027  1.00  0.00     0.082 C 
BRANCH   8   9
ATOM      9  C   UNL     1       7.656  -1.394   2.547  1.00  0.00     0.273 C 
ATOM     10  F   UNL     1       8.678  -1.488   1.642  1.00  0.00    -0.201 F 
ATOM     11  F   UNL     1       8.236  -0.883   3.676  1.00  0.00    -0.201 F 
BRANCH   9  12
ATOM     12  C   UNL     1       6.992  -2.721   2.830  1.00  0.00     0.021 A 
ATOM     13  C   UNL     1       5.972  -2.812   3.790  1.00  0.00     0.010 A 
ATOM     14  C   UNL     1       7.339  -3.866   2.098  1.00  0.00     0.010 A 
ATOM     15  C   UNL     1       5.247  -3.994   3.942  1.00  0.00     0.001 A 
ATOM     16  C   UNL     1       6.618  -5.050   2.258  1.00  0.00     0.001 A 
ATOM     17  C   UNL     1       5.560  -5.106   3.164  1.00  0.00     0.000 A 
ENDBRANCH   9  12
ENDBRANCH   8   9
ENDBRANCH   7   8
ENDBRANCH   6   7
ENDBRANCH   5   6
ENDBRANCH   4   5
ENDBRANCH   2   4
ENDBRANCH   1   2
BRANCH   1  18
ATOM     18  C   UNL     1       3.573   1.087  -1.655  1.00  0.00     0.274 C 
BRANCH  18  19
ATOM     19  C   UNL     1       3.721   2.538  -1.188  1.00  0.00     0.275 C 
BRANCH  19  20
ATOM     20  O   UNL     1       3.491   2.673   0.224  1.00  0.00    -0.458 OA
BRANCH  20  21
ATOM     21  C   UNL     1       2.199   2.930   0.557  1.00  0.00     0.338 C 
ATOM     22  O   UNL     1       1.290   3.168  -0.222  1.00  0.00    -0.246 OA
BRANCH  21  23
ATOM     23  C   UNL     1       1.984   2.737   2.010  1.00  0.00     0.060 A 
ATOM     24  C   UNL     1       0.747   2.217   2.412  1.00  0.00     0.016 A 
ATOM     25  C   UNL     1       2.944   3.079   2.970  1.00  0.00     0.016 A 
ATOM     26  C   UNL     1       0.440   2.100   3.767  1.00  0.00     0.010 A 
ATOM     27  C   UNL     1       2.632   2.964   4.332  1.00  0.00     0.010 A 
ATOM     28  C   UNL     1       1.363   2.515   4.736  1.00  0.00    -0.014 A 
BRANCH  28  29
ATOM     29  C   UNL     1       0.914   2.649   6.145  1.00  0.00     0.031 A 
ATOM     30  C   UNL     1       0.417   3.989   6.619  1.00  0.00     0.074 A 
ATOM     31  C   UNL     1       0.878   1.591   6.975  1.00  0.00     0.049 A 
ATOM     32  N   UNL     1      -0.112   4.317   7.770  1.00  0.00    -0.248 NA
ATOM     33  C   UNL     1       0.523   5.106   5.665  1.00  0.00     0.031 C 
ATOM     34  C   UNL     1       1.300   0.232   6.640  1.00  0.00     0.029 A 
ATOM     35  N   UNL     1       0.454   1.500   8.278  1.00  0.00    -0.354 N 
ATOM     36  C   UNL     1      -0.423   5.668   7.671  1.00  0.00     0.074 A 
ATOM     37  C   UNL     1       0.021   6.111   6.367  1.00  0.00     0.031 C 
ATOM     38  C   UNL     1       1.113  -0.559   7.712  1.00  0.00     0.029 A 
ATOM     39  C   UNL     1       0.569   0.238   8.811  1.00  0.00     0.049 A 
ATOM     40  H   UNL     1       0.101   2.267   8.784  1.00  0.00     0.167 HD
ATOM     41  C   UNL     1      -1.040   6.468   8.572  1.00  0.00     0.031 A 
ATOM     42  C   UNL     1       0.268  -0.221  10.042  1.00  0.00     0.031 A 
ATOM     43  C   UNL     1      -1.456   6.050   9.882  1.00  0.00     0.049 A 
ATOM     44  C   UNL     1      -0.338   0.711  11.062  1.00  0.00     0.074 A 
ATOM     45  C   UNL     1      -2.084   6.795  10.866  1.00  0.00     0.029 A 
ATOM     46  N   UNL     1      -1.275   4.777  10.399  1.00  0.00    -0.354 N 
ATOM     47  N   UNL     1      -0.668   1.974  10.933  1.00  0.00    -0.248 NA
ATOM     48  C   UNL     1      -0.627   0.146  12.389  1.00  0.00     0.031 C 
ATOM     49  C   UNL     1      -2.241   5.983  11.995  1.00  0.00     0.029 A 
ATOM     50  C   UNL     1      -1.758   4.720  11.695  1.00  0.00     0.049 A 
ATOM     51  H   UNL     1      -0.864   4.024   9.915  1.00  0.00     0.167 HD
ATOM     52  C   UNL     1      -1.232   2.344  12.151  1.00  0.00     0.074 A 
ATOM     53  C   UNL     1      -1.207   1.171  12.999  1.00  0.00     0.031 C 
ATOM     54  C   UNL     1      -1.731   3.547  12.530  1.00  0.00     0.031 A 
BRANCH  41  55
ATOM     55  C   UNL     1      -1.286   7.895   8.164  1.00  0.00    -0.014 A 
ATOM     56  C   UNL     1      -2.284   8.211   7.224  1.00  0.00     0.010 A 
ATOM     57  C   UNL     1      -0.528   8.930   8.737  1.00  0.00     0.010 A 
ATOM     58  C   UNL     1      -2.492   9.536   6.834  1.00  0.00     0.020 A 
ATOM     59  C   UNL     1      -0.749  10.259   8.366  1.00  0.00     0.020 A 
ATOM     60  C   UNL     1      -1.718  10.551   7.403  1.00  0.00     0.054 A 
BRANCH  60  61
ATOM     61  S   UNL     1      -2.011  12.264   6.884  1.00  0.00     0.124 S 
ATOM     62  O   UNL     1      -1.397  12.285   5.559  1.00  0.00    -0.237 OA
ATOM     63  O   UNL     1      -3.468  12.362   6.903  1.00  0.00    -0.237 OA
ATOM     64  O   UNL     1      -1.323  13.056   7.901  1.00  0.00    -0.744 OA
ENDBRANCH  60  61
ENDBRANCH  41  55
BRANCH  42  65
ATOM     65  C   UNL     1       0.537  -1.642  10.396  1.00  0.00    -0.014 A 
ATOM     66  C   UNL     1      -0.520  -2.547  10.594  1.00  0.00     0.010 A 
ATOM     67  C   UNL     1       1.860  -2.086  10.570  1.00  0.00     0.010 A 
ATOM     68  C   UNL     1      -0.260  -3.863  10.988  1.00  0.00     0.020 A 
ATOM     69  C   UNL     1       2.125  -3.407  10.940  1.00  0.00     0.020 A 
ATOM     70  C   UNL     1       1.061  -4.284  11.162  1.00  0.00     0.054 A 
BRANCH  70  71
ATOM     71  S   UNL     1       1.381  -6.003  11.645  1.00  0.00     0.124 S 
ATOM     72  O   UNL     1       1.052  -5.984  13.066  1.00  0.00    -0.237 OA
ATOM     73  O   UNL     1       0.460  -6.749  10.790  1.00  0.00    -0.237 OA
ATOM     74  O   UNL     1       2.796  -6.186  11.329  1.00  0.00    -0.744 OA
ENDBRANCH  70  71
ENDBRANCH  42  65
BRANCH  54  75
ATOM     75  C   UNL     1      -2.325   3.654  13.910  1.00  0.00    -0.014 A 
ATOM     76  C   UNL     1      -1.511   3.671  15.057  1.00  0.00     0.010 A 
ATOM     77  C   UNL     1      -3.718   3.796  14.057  1.00  0.00     0.010 A 
ATOM     78  C   UNL     1      -2.082   3.797  16.327  1.00  0.00     0.020 A 
ATOM     79  C   UNL     1      -4.290   3.947  15.323  1.00  0.00     0.020 A 
ATOM     80  C   UNL     1      -3.468   3.932  16.452  1.00  0.00     0.054 A 
BRANCH  80  81
ATOM     81  S   UNL     1      -4.183   4.139  18.107  1.00  0.00     0.124 S 
ATOM     82  O   UNL     1      -4.125   2.779  18.635  1.00  0.00    -0.237 OA
ATOM     83  O   UNL     1      -3.274   5.096  18.735  1.00  0.00    -0.237 OA
ATOM     84  O   UNL     1      -5.527   4.648  17.843  1.00  0.00    -0.744 OA
ENDBRANCH  80  81
ENDBRANCH  54  75
ENDBRANCH  28  29
ENDBRANCH  21  23
ENDBRANCH  20  21
ENDBRANCH  19  20
ENDBRANCH  18  19
ENDBRANCH   1  18
TORSDOF 20
