REMARK SMILES Cc1nn(-c2cc(Cl)ccc2Cl)nc1C(=O)OCCOC(=O)c1ccc(-c2c3nc(c(-c4ccc(S(=O)(=O)[O-])cc4)c4ccc([nH]4)c(-c4ccc(S(=O)(=O)[O-])cc4)c4nc(c(-c5ccc(S(=O)(=O)[O-])cc5)c5ccc2[nH]5)C=C4)C=C3)cc1
REMARK SMILES IDX 19 1 18 2 17 3 15 4 16 5 14 6 1 7 2 8 3 9 4 10 13 11 5 12
REMARK SMILES IDX 6 13 11 14 7 15 10 16 12 17 8 18 9 19 20 20 21 21 22 22
REMARK SMILES IDX 23 23 24 24 82 25 25 26 81 27 26 28 27 29 28 30 75 31 29 32
REMARK SMILES IDX 80 33 74 34 76 35 30 36 79 37 73 38 72 39 31 41 61 42 42 43
REMARK SMILES IDX 60 44 43 45 46 46 59 47 77 48 44 49 45 50 58 52 78 53 47 54
REMARK SMILES IDX 32 55 33 56 41 57 34 58 40 59 35 60 36 61 37 62 38 63 39 64
REMARK SMILES IDX 62 65 63 66 71 67 64 68 70 69 65 70 66 71 67 72 68 73 69 74
REMARK SMILES IDX 48 75 49 76 57 77 50 78 56 79 51 80 52 81 53 82 54 83 55 84
REMARK H PARENT 76 40 46 51
REMARK Flexibility Score: inf
ROOT
ATOM      1  C   UNL     1       1.345   4.211  -1.551  1.00  0.00     0.275 C 
ENDROOT
BRANCH   1   2
ATOM      2  C   UNL     1       2.514   3.358  -1.070  1.00  0.00     0.275 C 
BRANCH   2   3
ATOM      3  O   UNL     1       2.081   2.347  -0.139  1.00  0.00    -0.457 OA
BRANCH   3   4
ATOM      4  C   UNL     1       2.026   2.728   1.179  1.00  0.00     0.360 C 
ATOM      5  O   UNL     1       2.562   3.747   1.609  1.00  0.00    -0.244 OA
BRANCH   4   6
ATOM      6  C   UNL     1       1.205   1.834   2.002  1.00  0.00     0.193 A 
ATOM      7  C   UNL     1       0.879  -0.268   0.474  1.00  0.00     0.071 C 
ATOM      8  C   UNL     1       0.732   0.529   1.712  1.00  0.00     0.095 A 
ATOM      9  N   UNL     1       0.097   0.030   2.782  1.00  0.00    -0.153 NA
ATOM     10  N   UNL     1       0.102   1.082   3.630  1.00  0.00    -0.149 N 
ATOM     11  N   UNL     1       0.723   2.202   3.207  1.00  0.00    -0.141 NA
BRANCH  10  12
ATOM     12  C   UNL     1      -0.460   1.014   4.914  1.00  0.00     0.106 A 
ATOM     13  C   UNL     1      -1.493   1.907   5.243  1.00  0.00     0.052 A 
ATOM     14  C   UNL     1       0.042   0.117   5.863  1.00  0.00     0.068 A 
ATOM     15  C   UNL     1      -2.038   1.873   6.525  1.00  0.00     0.043 A 
ATOM     16  C   UNL     1      -0.491   0.125   7.156  1.00  0.00     0.024 A 
ATOM     17  Cl  UNL     1       1.388  -0.926   5.569  1.00  0.00    -0.082 Cl
ATOM     18  Cl  UNL     1      -3.343   2.915   6.935  1.00  0.00    -0.084 Cl
ATOM     19  C   UNL     1      -1.534   0.995   7.485  1.00  0.00     0.022 A 
ENDBRANCH  10  12
ENDBRANCH   4   6
ENDBRANCH   3   4
ENDBRANCH   2   3
ENDBRANCH   1   2
BRANCH   1  20
ATOM     20  O   UNL     1       0.818   4.986  -0.478  1.00  0.00    -0.458 OA
BRANCH  20  21
ATOM     21  C   UNL     1      -0.198   4.409   0.204  1.00  0.00     0.338 C 
ATOM     22  O   UNL     1      -0.577   3.253   0.106  1.00  0.00    -0.246 OA
BRANCH  21  23
ATOM     23  C   UNL     1      -0.914   5.440   0.958  1.00  0.00     0.060 A 
ATOM     24  C   UNL     1      -2.039   5.024   1.678  1.00  0.00     0.016 A 
ATOM     25  C   UNL     1      -0.681   6.784   0.639  1.00  0.00     0.016 A 
ATOM     26  C   UNL     1      -3.060   5.927   1.865  1.00  0.00     0.010 A 
ATOM     27  C   UNL     1      -1.710   7.672   0.793  1.00  0.00     0.010 A 
ATOM     28  C   UNL     1      -2.913   7.204   1.320  1.00  0.00    -0.014 A 
BRANCH  28  29
ATOM     29  C   UNL     1      -4.051   8.090   1.315  1.00  0.00     0.031 A 
ATOM     30  C   UNL     1      -4.279   8.765   2.610  1.00  0.00     0.074 A 
ATOM     31  C   UNL     1      -4.695   8.366   0.166  1.00  0.00     0.049 A 
ATOM     32  N   UNL     1      -5.321   8.688   3.365  1.00  0.00    -0.248 NA
ATOM     33  C   UNL     1      -3.144   9.481   3.219  1.00  0.00     0.031 C 
ATOM     34  C   UNL     1      -4.331   7.951  -1.194  1.00  0.00     0.029 A 
ATOM     35  N   UNL     1      -5.727   9.220  -0.043  1.00  0.00    -0.354 N 
ATOM     36  C   UNL     1      -5.050   9.498   4.462  1.00  0.00     0.074 A 
ATOM     37  C   UNL     1      -3.644   9.798   4.411  1.00  0.00     0.031 C 
ATOM     38  C   UNL     1      -4.950   8.764  -2.080  1.00  0.00     0.029 A 
ATOM     39  C   UNL     1      -5.823   9.672  -1.353  1.00  0.00     0.049 A 
ATOM     40  H   UNL     1      -6.350   9.495   0.667  1.00  0.00     0.167 HD
ATOM     41  C   UNL     1      -6.045  10.059   5.200  1.00  0.00     0.031 A 
ATOM     42  C   UNL     1      -6.472  10.791  -1.770  1.00  0.00     0.031 A 
ATOM     43  C   UNL     1      -7.319   9.455   4.917  1.00  0.00     0.049 A 
ATOM     44  C   UNL     1      -7.424  11.170  -0.689  1.00  0.00     0.074 A 
ATOM     45  C   UNL     1      -7.827   8.179   5.053  1.00  0.00     0.029 A 
ATOM     46  N   UNL     1      -8.140  10.108   4.024  1.00  0.00    -0.354 N 
ATOM     47  N   UNL     1      -8.449  10.436  -0.352  1.00  0.00    -0.248 NA
ATOM     48  C   UNL     1      -6.966  12.094   0.342  1.00  0.00     0.031 C 
ATOM     49  C   UNL     1      -8.635   7.983   3.898  1.00  0.00     0.029 A 
ATOM     50  C   UNL     1      -8.637   9.168   3.157  1.00  0.00     0.049 A 
ATOM     51  H   UNL     1      -8.334  11.073   4.011  1.00  0.00     0.167 HD
ATOM     52  C   UNL     1      -8.481  10.477   1.037  1.00  0.00     0.074 A 
ATOM     53  C   UNL     1      -7.612  11.595   1.402  1.00  0.00     0.031 C 
ATOM     54  C   UNL     1      -8.961   9.426   1.768  1.00  0.00     0.031 A 
BRANCH  41  55
ATOM     55  C   UNL     1      -5.925  11.400   5.872  1.00  0.00    -0.014 A 
ATOM     56  C   UNL     1      -7.003  11.861   6.652  1.00  0.00     0.010 A 
ATOM     57  C   UNL     1      -4.925  12.338   5.539  1.00  0.00     0.010 A 
ATOM     58  C   UNL     1      -7.119  13.212   6.999  1.00  0.00     0.020 A 
ATOM     59  C   UNL     1      -5.007  13.676   5.920  1.00  0.00     0.020 A 
ATOM     60  C   UNL     1      -6.128  14.113   6.609  1.00  0.00     0.054 A 
BRANCH  60  61
ATOM     61  S   UNL     1      -6.360  15.878   6.927  1.00  0.00     0.124 S 
ATOM     62  O   UNL     1      -7.497  16.188   6.066  1.00  0.00    -0.237 OA
ATOM     63  O   UNL     1      -6.624  15.902   8.363  1.00  0.00    -0.237 OA
ATOM     64  O   UNL     1      -5.087  16.469   6.521  1.00  0.00    -0.744 OA
ENDBRANCH  60  61
ENDBRANCH  41  55
BRANCH  42  65
ATOM     65  C   UNL     1      -6.041  11.715  -2.856  1.00  0.00    -0.014 A 
ATOM     66  C   UNL     1      -6.878  12.743  -3.329  1.00  0.00     0.010 A 
ATOM     67  C   UNL     1      -4.691  11.741  -3.271  1.00  0.00     0.010 A 
ATOM     68  C   UNL     1      -6.371  13.780  -4.137  1.00  0.00     0.020 A 
ATOM     69  C   UNL     1      -4.182  12.759  -4.085  1.00  0.00     0.020 A 
ATOM     70  C   UNL     1      -5.019  13.790  -4.495  1.00  0.00     0.054 A 
BRANCH  70  71
ATOM     71  S   UNL     1      -4.324  15.216  -5.381  1.00  0.00     0.124 S 
ATOM     72  O   UNL     1      -4.899  15.067  -6.714  1.00  0.00    -0.237 OA
ATOM     73  O   UNL     1      -4.817  16.347  -4.601  1.00  0.00    -0.237 OA
ATOM     74  O   UNL     1      -2.879  15.000  -5.302  1.00  0.00    -0.744 OA
ENDBRANCH  70  71
ENDBRANCH  42  65
BRANCH  54  75
ATOM     75  C   UNL     1      -9.669   8.303   1.041  1.00  0.00    -0.014 A 
ATOM     76  C   UNL     1      -9.045   7.495   0.069  1.00  0.00     0.010 A 
ATOM     77  C   UNL     1     -10.943   7.928   1.501  1.00  0.00     0.010 A 
ATOM     78  C   UNL     1      -9.688   6.359  -0.444  1.00  0.00     0.020 A 
ATOM     79  C   UNL     1     -11.581   6.787   1.010  1.00  0.00     0.020 A 
ATOM     80  C   UNL     1     -10.955   6.011   0.033  1.00  0.00     0.054 A 
BRANCH  80  81
ATOM     81  S   UNL     1     -11.760   4.508  -0.588  1.00  0.00     0.124 S 
ATOM     82  O   UNL     1     -12.099   4.874  -1.960  1.00  0.00    -0.237 OA
ATOM     83  O   UNL     1     -10.716   3.495  -0.446  1.00  0.00    -0.237 OA
ATOM     84  O   UNL     1     -12.905   4.332   0.305  1.00  0.00    -0.744 OA
ENDBRANCH  80  81
ENDBRANCH  54  75
ENDBRANCH  28  29
ENDBRANCH  21  23
ENDBRANCH  20  21
ENDBRANCH   1  20
TORSDOF 15
