REMARK SMILES CCN(CC(=O)NC(C)C)C(=O)N[C@H]1C=C[C@H](C(=O)OCCOC(=O)c2ccc(-c3c4nc(c(-c5ccc(S(=O)(=O)[O-])cc5)c5ccc([nH]5)c(-c5ccc(S(=O)(=O)[O-])cc5)c5nc(c(-c6ccc(S(=O)(=O)[O-])cc6)c6ccc3[nH]6)C=C5)C=C4)cc2)C1
REMARK SMILES IDX 21 1 20 2 18 3 19 4 17 5 14 6 15 7 86 8 16 9 13 10 11 11
REMARK SMILES IDX 12 12 3 14 2 15 1 16 4 17 5 18 6 19 7 20 8 22 9 23 10 24
REMARK SMILES IDX 22 25 23 26 24 27 25 28 26 29 27 30 85 31 28 32 84 33 29 34
REMARK SMILES IDX 30 35 31 36 78 37 32 38 83 39 77 40 79 41 33 42 82 43 76 44
REMARK SMILES IDX 75 45 34 47 64 48 45 49 63 50 46 51 49 52 62 53 80 54 47 55
REMARK SMILES IDX 48 56 61 58 81 59 50 60 35 61 36 62 44 63 37 64 43 65 38 66
REMARK SMILES IDX 39 67 40 68 41 69 42 70 65 71 66 72 74 73 67 74 73 75 68 76
REMARK SMILES IDX 69 77 70 78 71 79 72 80 51 81 52 82 60 83 53 84 59 85 54 86
REMARK SMILES IDX 55 87 56 88 57 89 58 90
REMARK H PARENT 13 13 7 21 79 46 49 57
REMARK Flexibility Score: inf
ROOT
ATOM      1  C   UNL     1      -1.811   4.700  -7.923  1.00  0.00     0.274 C 
ENDROOT
BRANCH   1   2
ATOM      2  O   UNL     1      -1.317   3.997  -6.768  1.00  0.00    -0.462 OA
BRANCH   2   3
ATOM      3  C   UNL     1      -0.026   3.547  -6.826  1.00  0.00     0.312 C 
ATOM      4  O   UNL     1       0.705   3.641  -7.801  1.00  0.00    -0.252 OA
BRANCH   3   5
ATOM      5  C   UNL     1       0.347   2.903  -5.496  1.00  0.00     0.124 C 
ATOM      6  C   UNL     1       2.097   1.417  -4.643  1.00  0.00     0.107 C 
ATOM      7  C   UNL     1       0.824   0.683  -4.853  1.00  0.00    -0.006 C 
ATOM      8  C   UNL     1       1.863   2.797  -5.258  1.00  0.00     0.048 C 
ATOM      9  C   UNL     1      -0.117   1.475  -5.386  1.00  0.00    -0.014 C 
BRANCH   6  10
ATOM     10  N   UNL     1       2.662   1.351  -3.303  1.00  0.00    -0.332 N 
ATOM     11  C   UNL     1       2.427   1.351  -1.991  1.00  0.00     0.318 C 
ATOM     12  O   UNL     1       3.438   1.113  -1.313  1.00  0.00    -0.249 OA
ATOM     13  H   UNL     1       3.638   1.272  -3.414  1.00  0.00     0.165 HD
BRANCH  11  14
ATOM     14  N   UNL     1       1.226   1.526  -1.377  1.00  0.00    -0.316 N 
BRANCH  14  15
ATOM     15  C   UNL     1       1.163   1.205   0.055  1.00  0.00     0.118 C 
ATOM     16  C   UNL     1       1.264  -0.295   0.321  1.00  0.00     0.027 C 
ENDBRANCH  14  15
BRANCH  14  17
ATOM     17  C   UNL     1       0.065   2.214  -1.917  1.00  0.00     0.221 C 
BRANCH  17  18
ATOM     18  C   UNL     1       0.284   3.723  -2.045  1.00  0.00     0.239 C 
ATOM     19  O   UNL     1       1.200   4.214  -2.701  1.00  0.00    -0.273 OA
ATOM     20  N   UNL     1      -0.585   4.590  -1.446  1.00  0.00    -0.352 N 
ATOM     21  H   UNL     1      -1.048   5.253  -2.007  1.00  0.00     0.163 HD
BRANCH  20  22
ATOM     22  C   UNL     1      -0.860   4.578  -0.019  1.00  0.00     0.075 C 
ATOM     23  C   UNL     1       0.377   5.090   0.723  1.00  0.00     0.030 C 
ATOM     24  C   UNL     1      -2.069   5.453   0.287  1.00  0.00     0.030 C 
ENDBRANCH  20  22
ENDBRANCH  17  18
ENDBRANCH  14  17
ENDBRANCH  11  14
ENDBRANCH   6  10
ENDBRANCH   3   5
ENDBRANCH   2   3
ENDBRANCH   1   2
BRANCH   1  25
ATOM     25  C   UNL     1      -2.090   6.166  -7.586  1.00  0.00     0.275 C 
BRANCH  25  26
ATOM     26  O   UNL     1      -0.881   6.844  -7.199  1.00  0.00    -0.458 OA
BRANCH  26  27
ATOM     27  C   UNL     1      -0.721   7.033  -5.869  1.00  0.00     0.338 C 
ATOM     28  O   UNL     1      -1.516   6.761  -4.979  1.00  0.00    -0.246 OA
BRANCH  27  29
ATOM     29  C   UNL     1       0.658   7.469  -5.607  1.00  0.00     0.060 A 
ATOM     30  C   UNL     1       1.476   6.593  -4.895  1.00  0.00     0.016 A 
ATOM     31  C   UNL     1       1.138   8.717  -6.004  1.00  0.00     0.016 A 
ATOM     32  C   UNL     1       2.785   6.946  -4.579  1.00  0.00     0.010 A 
ATOM     33  C   UNL     1       2.457   9.072  -5.688  1.00  0.00     0.010 A 
ATOM     34  C   UNL     1       3.290   8.189  -4.974  1.00  0.00    -0.014 A 
BRANCH  34  35
ATOM     35  C   UNL     1       4.675   8.580  -4.610  1.00  0.00     0.031 A 
ATOM     36  C   UNL     1       4.906   9.614  -3.546  1.00  0.00     0.074 A 
ATOM     37  C   UNL     1       5.726   8.001  -5.221  1.00  0.00     0.049 A 
ATOM     38  N   UNL     1       6.024  10.188  -3.179  1.00  0.00    -0.248 NA
ATOM     39  C   UNL     1       3.723  10.062  -2.794  1.00  0.00     0.031 C 
ATOM     40  C   UNL     1       5.643   6.932  -6.218  1.00  0.00     0.029 A 
ATOM     41  N   UNL     1       7.074   8.236  -5.094  1.00  0.00    -0.354 N 
ATOM     42  C   UNL     1       5.678  11.085  -2.176  1.00  0.00     0.074 A 
ATOM     43  C   UNL     1       4.245  10.983  -1.995  1.00  0.00     0.031 C 
ATOM     44  C   UNL     1       6.886   6.601  -6.608  1.00  0.00     0.029 A 
ATOM     45  C   UNL     1       7.847   7.474  -5.939  1.00  0.00     0.049 A 
ATOM     46  H   UNL     1       7.450   8.886  -4.459  1.00  0.00     0.167 HD
ATOM     47  C   UNL     1       6.481  11.921  -1.476  1.00  0.00     0.031 A 
ATOM     48  C   UNL     1       9.173   7.503  -6.179  1.00  0.00     0.031 A 
ATOM     49  C   UNL     1       7.906  12.015  -1.653  1.00  0.00     0.049 A 
ATOM     50  C   UNL     1      10.033   8.501  -5.451  1.00  0.00     0.074 A 
ATOM     51  C   UNL     1       8.803  12.835  -0.991  1.00  0.00     0.029 A 
ATOM     52  N   UNL     1       8.643  11.264  -2.557  1.00  0.00    -0.354 N 
ATOM     53  N   UNL     1       9.688   9.368  -4.529  1.00  0.00    -0.248 NA
ATOM     54  C   UNL     1      11.459   8.537  -5.808  1.00  0.00     0.031 C 
ATOM     55  C   UNL     1      10.076  12.615  -1.529  1.00  0.00     0.029 A 
ATOM     56  C   UNL     1       9.979  11.621  -2.490  1.00  0.00     0.049 A 
ATOM     57  H   UNL     1       8.271  10.578  -3.157  1.00  0.00     0.167 HD
ATOM     58  C   UNL     1      10.855  10.044  -4.189  1.00  0.00     0.074 A 
ATOM     59  C   UNL     1      11.919   9.474  -4.989  1.00  0.00     0.031 C 
ATOM     60  C   UNL     1      11.028  11.048  -3.295  1.00  0.00     0.031 A 
BRANCH  47  61
ATOM     61  C   UNL     1       5.824  12.845  -0.486  1.00  0.00    -0.014 A 
ATOM     62  C   UNL     1       5.332  12.372   0.743  1.00  0.00     0.010 A 
ATOM     63  C   UNL     1       5.729  14.217  -0.781  1.00  0.00     0.010 A 
ATOM     64  C   UNL     1       4.720  13.251   1.642  1.00  0.00     0.020 A 
ATOM     65  C   UNL     1       5.139  15.102   0.124  1.00  0.00     0.020 A 
ATOM     66  C   UNL     1       4.620  14.609   1.323  1.00  0.00     0.054 A 
BRANCH  66  67
ATOM     67  S   UNL     1       3.826  15.730   2.508  1.00  0.00     0.124 S 
ATOM     68  O   UNL     1       2.414  15.391   2.341  1.00  0.00    -0.237 OA
ATOM     69  O   UNL     1       4.420  15.328   3.780  1.00  0.00    -0.237 OA
ATOM     70  O   UNL     1       4.207  17.059   2.038  1.00  0.00    -0.744 OA
ENDBRANCH  66  67
ENDBRANCH  47  61
BRANCH  48  71
ATOM     71  C   UNL     1       9.762   6.596  -7.202  1.00  0.00    -0.014 A 
ATOM     72  C   UNL     1      10.610   5.540  -6.826  1.00  0.00     0.010 A 
ATOM     73  C   UNL     1       9.470   6.785  -8.566  1.00  0.00     0.010 A 
ATOM     74  C   UNL     1      11.164   4.698  -7.796  1.00  0.00     0.020 A 
ATOM     75  C   UNL     1      10.000   5.930  -9.535  1.00  0.00     0.020 A 
ATOM     76  C   UNL     1      10.853   4.897  -9.145  1.00  0.00     0.054 A 
BRANCH  76  77
ATOM     77  S   UNL     1      11.538   3.760 -10.383  1.00  0.00     0.124 S 
ATOM     78  O   UNL     1      12.921   4.216 -10.481  1.00  0.00    -0.237 OA
ATOM     79  O   UNL     1      11.344   2.454  -9.758  1.00  0.00    -0.237 OA
ATOM     80  O   UNL     1      10.712   4.005 -11.563  1.00  0.00    -0.744 OA
ENDBRANCH  76  77
ENDBRANCH  48  71
BRANCH  60  81
ATOM     81  C   UNL     1      12.421  11.591  -3.117  1.00  0.00    -0.014 A 
ATOM     82  C   UNL     1      12.995  12.440  -4.079  1.00  0.00     0.010 A 
ATOM     83  C   UNL     1      13.133  11.309  -1.937  1.00  0.00     0.010 A 
ATOM     84  C   UNL     1      14.265  12.986  -3.869  1.00  0.00     0.020 A 
ATOM     85  C   UNL     1      14.393  11.871  -1.714  1.00  0.00     0.020 A 
ATOM     86  C   UNL     1      14.954  12.700  -2.687  1.00  0.00     0.054 A 
BRANCH  86  87
ATOM     87  S   UNL     1      16.571  13.476  -2.408  1.00  0.00     0.124 S 
ATOM     88  O   UNL     1      17.435  12.709  -3.302  1.00  0.00    -0.237 OA
ATOM     89  O   UNL     1      16.335  14.863  -2.801  1.00  0.00    -0.237 OA
ATOM     90  O   UNL     1      16.812  13.272  -0.982  1.00  0.00    -0.744 OA
ENDBRANCH  86  87
ENDBRANCH  60  81
ENDBRANCH  34  35
ENDBRANCH  27  29
ENDBRANCH  26  27
ENDBRANCH  25  26
ENDBRANCH   1  25
TORSDOF 20
