REMARK SMILES CCCC[C@H](NC(=O)CC1([NH3+])CCC1)C(=O)OCCOC(=O)c1ccc(-c2c3nc(c(-c4ccc(S(=O)(=O)[O-])cc4)c4ccc([nH]4)c(-c4ccc(S(=O)(=O)[O-])cc4)c4nc(c(-c5ccc(S(=O)(=O)[O-])cc5)c5ccc2[nH]5)C=C4)C=C3)cc1
REMARK SMILES IDX 18 1 17 2 15 3 16 4 5 5 4 6 3 7 2 8 1 9 6 10 7 11 8 13 9 14
REMARK SMILES IDX 10 15 12 16 14 17 13 18 11 19 19 23 20 24 21 25 22 26 23 27
REMARK SMILES IDX 24 28 82 29 25 30 81 31 26 32 27 33 28 34 75 35 29 36 80 37
REMARK SMILES IDX 74 38 76 39 30 40 79 41 73 42 72 43 31 45 61 46 42 47 60 48
REMARK SMILES IDX 43 49 46 50 59 51 77 52 44 53 45 54 58 56 78 57 47 58 32 59
REMARK SMILES IDX 33 60 41 61 34 62 40 63 35 64 36 65 37 66 38 67 39 68 62 69
REMARK SMILES IDX 63 70 71 71 64 72 70 73 65 74 66 75 67 76 68 77 69 78 48 79
REMARK SMILES IDX 49 80 57 81 50 82 56 83 51 84 52 85 53 86 54 87 55 88
REMARK H PARENT 6 12 11 20 11 21 11 22 76 44 46 55
REMARK Flexibility Score: inf
ROOT
ATOM      1  C   UNL     1      -2.790   1.850  -5.989  1.00  0.00     0.274 C 
ENDROOT
BRANCH   1   2
ATOM      2  O   UNL     1      -1.925   2.609  -5.028  1.00  0.00    -0.461 OA
BRANCH   2   3
ATOM      3  C   UNL     1      -2.367   3.629  -4.186  1.00  0.00     0.328 C 
ATOM      4  O   UNL     1      -3.395   4.261  -4.416  1.00  0.00    -0.250 OA
BRANCH   3   5
ATOM      5  C   UNL     1      -1.559   3.741  -2.727  1.00  0.00     0.192 C 
BRANCH   5   6
ATOM      6  C   UNL     1      -1.670   4.988  -1.799  1.00  0.00     0.037 C 
BRANCH   6   7
ATOM      7  C   UNL     1      -1.361   4.689  -0.263  1.00  0.00     0.002 C 
BRANCH   7   8
ATOM      8  C   UNL     1       0.083   4.468   0.282  1.00  0.00    -0.003 C 
ATOM      9  C   UNL     1       1.157   5.410  -0.235  1.00  0.00     0.004 C 
ENDBRANCH   7   8
ENDBRANCH   6   7
ENDBRANCH   5   6
BRANCH   5  10
ATOM     10  N   UNL     1      -0.245   3.194  -2.387  1.00  0.00    -0.343 N 
ATOM     11  C   UNL     1       0.997   3.260  -2.923  1.00  0.00     0.226 C 
ATOM     12  H   UNL     1      -0.270   2.646  -1.570  1.00  0.00     0.164 HD
ATOM     13  O   UNL     1       2.006   3.249  -2.221  1.00  0.00    -0.275 OA
BRANCH  11  14
ATOM     14  C   UNL     1       1.042   2.898  -4.350  1.00  0.00     0.168 C 
BRANCH  14  15
ATOM     15  C   UNL     1       0.624   1.439  -4.479  1.00  0.00     0.103 C 
ATOM     16  C   UNL     1       1.307   0.257  -3.684  1.00  0.00     0.069 C 
ATOM     17  C   UNL     1      -0.673   0.878  -3.781  1.00  0.00     0.069 C 
ATOM     18  C   UNL     1       0.165   0.361  -2.640  1.00  0.00     0.013 C 
BRANCH  15  19
ATOM     19  N   UNL     1       0.623   1.071  -5.900  1.00  0.00    -0.352 N 
ATOM     20  H   UNL     1       1.464   1.437  -6.347  1.00  0.00     0.344 HD
ATOM     21  H   UNL     1      -0.202   1.465  -6.353  1.00  0.00     0.344 HD
ATOM     22  H   UNL     1       0.606   0.055  -5.988  1.00  0.00     0.344 HD
ENDBRANCH  15  19
ENDBRANCH  14  15
ENDBRANCH  11  14
ENDBRANCH   5  10
ENDBRANCH   3   5
ENDBRANCH   2   3
ENDBRANCH   1   2
BRANCH   1  23
ATOM     23  C   UNL     1      -2.407   0.306  -6.405  1.00  0.00     0.275 C 
BRANCH  23  24
ATOM     24  O   UNL     1      -2.637  -0.799  -5.427  1.00  0.00    -0.458 OA
BRANCH  24  25
ATOM     25  C   UNL     1      -1.731  -1.861  -5.365  1.00  0.00     0.338 C 
ATOM     26  O   UNL     1      -0.785  -2.037  -6.126  1.00  0.00    -0.246 OA
BRANCH  25  27
ATOM     27  C   UNL     1      -1.900  -2.693  -4.109  1.00  0.00     0.060 A 
ATOM     28  C   UNL     1      -1.031  -2.515  -3.035  1.00  0.00     0.016 A 
ATOM     29  C   UNL     1      -2.830  -3.714  -3.959  1.00  0.00     0.016 A 
ATOM     30  C   UNL     1      -1.314  -2.988  -1.738  1.00  0.00     0.010 A 
ATOM     31  C   UNL     1      -3.013  -4.348  -2.695  1.00  0.00     0.010 A 
ATOM     32  C   UNL     1      -2.324  -3.925  -1.541  1.00  0.00    -0.014 A 
BRANCH  32  33
ATOM     33  C   UNL     1      -2.504  -4.564  -0.191  1.00  0.00     0.031 A 
ATOM     34  C   UNL     1      -1.435  -5.498   0.336  1.00  0.00     0.074 A 
ATOM     35  C   UNL     1      -3.563  -4.298   0.608  1.00  0.00     0.049 A 
ATOM     36  N   UNL     1      -1.432  -6.240   1.417  1.00  0.00    -0.248 NA
ATOM     37  C   UNL     1      -0.198  -5.593  -0.454  1.00  0.00     0.031 C 
ATOM     38  C   UNL     1      -4.603  -3.303   0.344  1.00  0.00     0.029 A 
ATOM     39  N   UNL     1      -3.939  -4.846   1.820  1.00  0.00    -0.354 N 
ATOM     40  C   UNL     1      -0.205  -6.899   1.424  1.00  0.00     0.074 A 
ATOM     41  C   UNL     1       0.519  -6.451   0.256  1.00  0.00     0.031 C 
ATOM     42  C   UNL     1      -5.513  -3.339   1.337  1.00  0.00     0.029 A 
ATOM     43  C   UNL     1      -5.152  -4.387   2.293  1.00  0.00     0.049 A 
ATOM     44  H   UNL     1      -3.390  -5.505   2.303  1.00  0.00     0.167 HD
ATOM     45  C   UNL     1       0.275  -7.818   2.296  1.00  0.00     0.031 A 
ATOM     46  C   UNL     1      -5.904  -4.787   3.345  1.00  0.00     0.031 A 
ATOM     47  C   UNL     1      -0.450  -8.322   3.431  1.00  0.00     0.049 A 
ATOM     48  C   UNL     1      -5.413  -5.915   4.228  1.00  0.00     0.074 A 
ATOM     49  C   UNL     1      -0.070  -9.303   4.331  1.00  0.00     0.029 A 
ATOM     50  N   UNL     1      -1.710  -7.894   3.816  1.00  0.00    -0.354 N 
ATOM     51  N   UNL     1      -4.278  -6.572   4.177  1.00  0.00    -0.248 NA
ATOM     52  C   UNL     1      -6.312  -6.360   5.307  1.00  0.00     0.031 C 
ATOM     53  C   UNL     1      -1.124  -9.507   5.227  1.00  0.00     0.029 A 
ATOM     54  C   UNL     1      -2.132  -8.606   4.927  1.00  0.00     0.049 A 
ATOM     55  H   UNL     1      -2.229  -7.189   3.366  1.00  0.00     0.167 HD
ATOM     56  C   UNL     1      -4.317  -7.485   5.230  1.00  0.00     0.074 A 
ATOM     57  C   UNL     1      -5.578  -7.285   5.912  1.00  0.00     0.031 C 
ATOM     58  C   UNL     1      -3.391  -8.406   5.599  1.00  0.00     0.031 A 
BRANCH  45  59
ATOM     59  C   UNL     1       1.626  -8.410   1.988  1.00  0.00    -0.014 A 
ATOM     60  C   UNL     1       2.810  -7.669   2.154  1.00  0.00     0.010 A 
ATOM     61  C   UNL     1       1.707  -9.733   1.516  1.00  0.00     0.010 A 
ATOM     62  C   UNL     1       4.045  -8.226   1.809  1.00  0.00     0.020 A 
ATOM     63  C   UNL     1       2.942 -10.303   1.197  1.00  0.00     0.020 A 
ATOM     64  C   UNL     1       4.103  -9.537   1.329  1.00  0.00     0.054 A 
BRANCH  64  65
ATOM     65  S   UNL     1       5.712 -10.253   0.894  1.00  0.00     0.124 S 
ATOM     66  O   UNL     1       6.035  -9.524  -0.343  1.00  0.00    -0.237 OA
ATOM     67  O   UNL     1       6.542  -9.885   2.053  1.00  0.00    -0.237 OA
ATOM     68  O   UNL     1       5.449 -11.657   0.740  1.00  0.00    -0.744 OA
ENDBRANCH  64  65
ENDBRANCH  45  59
BRANCH  46  69
ATOM     69  C   UNL     1      -7.248  -4.178   3.605  1.00  0.00    -0.014 A 
ATOM     70  C   UNL     1      -7.501  -3.438   4.776  1.00  0.00     0.010 A 
ATOM     71  C   UNL     1      -8.307  -4.386   2.701  1.00  0.00     0.010 A 
ATOM     72  C   UNL     1      -8.780  -2.930   5.040  1.00  0.00     0.020 A 
ATOM     73  C   UNL     1      -9.579  -3.856   2.946  1.00  0.00     0.020 A 
ATOM     74  C   UNL     1      -9.811  -3.138   4.120  1.00  0.00     0.054 A 
BRANCH  74  75
ATOM     75  S   UNL     1     -11.446  -2.418   4.450  1.00  0.00     0.124 S 
ATOM     76  O   UNL     1     -11.946  -3.272   5.523  1.00  0.00    -0.237 OA
ATOM     77  O   UNL     1     -11.116  -1.048   4.833  1.00  0.00    -0.237 OA
ATOM     78  O   UNL     1     -12.141  -2.548   3.171  1.00  0.00    -0.744 OA
ENDBRANCH  74  75
ENDBRANCH  46  69
BRANCH  58  79
ATOM     79  C   UNL     1      -3.680  -9.243   6.820  1.00  0.00    -0.014 A 
ATOM     80  C   UNL     1      -4.671 -10.242   6.810  1.00  0.00     0.010 A 
ATOM     81  C   UNL     1      -2.917  -9.052   7.987  1.00  0.00     0.010 A 
ATOM     82  C   UNL     1      -4.925 -10.998   7.959  1.00  0.00     0.020 A 
ATOM     83  C   UNL     1      -3.147  -9.826   9.128  1.00  0.00     0.020 A 
ATOM     84  C   UNL     1      -4.165 -10.781   9.113  1.00  0.00     0.054 A 
BRANCH  84  85
ATOM     85  S   UNL     1      -4.505 -11.781  10.589  1.00  0.00     0.124 S 
ATOM     86  O   UNL     1      -5.753 -11.195  11.071  1.00  0.00    -0.237 OA
ATOM     87  O   UNL     1      -4.615 -13.132  10.044  1.00  0.00    -0.237 OA
ATOM     88  O   UNL     1      -3.340 -11.552  11.439  1.00  0.00    -0.744 OA
ENDBRANCH  84  85
ENDBRANCH  58  79
ENDBRANCH  32  33
ENDBRANCH  25  27
ENDBRANCH  24  25
ENDBRANCH  23  24
ENDBRANCH   1  23
TORSDOF 21
