REMARK SMILES C[NH2+][C@@]1(C(=O)OCCOC(=O)c2ccc(-c3c4nc(c(-c5ccc(S(=O)(=O)[O-])cc5)c5ccc([nH]5)c(-c5ccc(S(=O)(=O)[O-])cc5)c5nc(c(-c6ccc(S(=O)(=O)[O-])cc6)c6ccc3[nH]6)C=C5)C=C4)cc2)CCC[C@H](Oc2cccc(OC)c2)C1
REMARK SMILES IDX 7 1 6 2 4 3 5 4 3 5 72 6 85 7 73 8 75 9 74 10 2 11 1 12
REMARK SMILES IDX 76 15 77 16 78 17 84 18 79 19 81 20 80 21 82 22 83 23 8 24
REMARK SMILES IDX 9 25 10 26 11 27 12 28 13 29 71 30 14 31 70 32 15 33 16 34
REMARK SMILES IDX 17 35 64 36 18 37 69 38 63 39 65 40 19 41 68 42 62 43 61 44
REMARK SMILES IDX 20 46 50 47 31 48 49 49 32 50 35 51 48 52 66 53 33 54 34 55
REMARK SMILES IDX 47 57 67 58 36 59 21 60 22 61 30 62 23 63 29 64 24 65 25 66
REMARK SMILES IDX 26 67 27 68 28 69 51 70 52 71 60 72 53 73 59 74 54 75 55 76
REMARK SMILES IDX 56 77 57 78 58 79 37 80 38 81 46 82 39 83 45 84 40 85 41 86
REMARK SMILES IDX 42 87 43 88 44 89
REMARK H PARENT 2 13 2 14 65 45 35 56
REMARK Flexibility Score: inf
ROOT
ATOM      1  C   UNL     1      -2.592  -0.297  -4.474  1.00  0.00     0.274 C 
ENDROOT
BRANCH   1   2
ATOM      2  O   UNL     1      -2.236   0.152  -3.151  1.00  0.00    -0.457 OA
BRANCH   2   3
ATOM      3  C   UNL     1      -1.476  -0.685  -2.405  1.00  0.00     0.368 C 
ATOM      4  O   UNL     1      -1.024  -1.744  -2.836  1.00  0.00    -0.245 OA
BRANCH   3   5
ATOM      5  C   UNL     1      -1.226  -0.184  -0.931  1.00  0.00     0.197 C 
ATOM      6  C   UNL     1      -1.717  -1.345  -0.035  1.00  0.00     0.081 C 
ATOM      7  C   UNL     1      -1.920   1.151  -0.531  1.00  0.00     0.126 C 
ATOM      8  C   UNL     1      -3.239  -1.433  -0.024  1.00  0.00     0.011 C 
ATOM      9  C   UNL     1      -3.446   1.089  -0.285  1.00  0.00     0.180 C 
ATOM     10  C   UNL     1      -3.820  -0.147   0.544  1.00  0.00     0.046 C 
BRANCH   5  11
ATOM     11  N   UNL     1       0.250   0.041  -0.848  1.00  0.00    -0.334 N 
ATOM     12  C   UNL     1       0.898  -0.175   0.431  1.00  0.00     0.331 C 
ATOM     13  H   UNL     1       0.692  -0.586  -1.522  1.00  0.00     0.347 HD
ATOM     14  H   UNL     1       0.368   1.038  -1.030  1.00  0.00     0.347 HD
ENDBRANCH   5  11
BRANCH   9  15
ATOM     15  O   UNL     1      -4.063   1.109  -1.569  1.00  0.00    -0.490 OA
BRANCH  15  16
ATOM     16  C   UNL     1      -5.396   1.311  -1.735  1.00  0.00     0.123 A 
ATOM     17  C   UNL     1      -6.351   1.475  -0.739  1.00  0.00     0.047 A 
ATOM     18  C   UNL     1      -5.795   1.288  -3.076  1.00  0.00     0.092 A 
ATOM     19  C   UNL     1      -7.705   1.503  -1.081  1.00  0.00     0.008 A 
ATOM     20  C   UNL     1      -7.140   1.322  -3.429  1.00  0.00     0.122 A 
ATOM     21  C   UNL     1      -8.096   1.409  -2.419  1.00  0.00     0.046 A 
BRANCH  20  22
ATOM     22  O   UNL     1      -7.632   1.257  -4.704  1.00  0.00    -0.497 OA
ATOM     23  C   UNL     1      -6.670   1.212  -5.754  1.00  0.00     0.278 C 
ENDBRANCH  20  22
ENDBRANCH  15  16
ENDBRANCH   9  15
ENDBRANCH   3   5
ENDBRANCH   2   3
ENDBRANCH   1   2
BRANCH   1  24
ATOM     24  C   UNL     1      -2.333   0.822  -5.477  1.00  0.00     0.275 C 
BRANCH  24  25
ATOM     25  O   UNL     1      -0.915   0.997  -5.619  1.00  0.00    -0.458 OA
BRANCH  25  26
ATOM     26  C   UNL     1      -0.379   1.946  -4.819  1.00  0.00     0.338 C 
ATOM     27  O   UNL     1      -0.957   2.777  -4.143  1.00  0.00    -0.246 OA
BRANCH  26  28
ATOM     28  C   UNL     1       1.071   1.740  -4.776  1.00  0.00     0.060 A 
ATOM     29  C   UNL     1       1.577   0.845  -3.837  1.00  0.00     0.016 A 
ATOM     30  C   UNL     1       1.923   2.490  -5.580  1.00  0.00     0.016 A 
ATOM     31  C   UNL     1       2.947   0.760  -3.626  1.00  0.00     0.010 A 
ATOM     32  C   UNL     1       3.303   2.335  -5.430  1.00  0.00     0.010 A 
ATOM     33  C   UNL     1       3.828   1.493  -4.430  1.00  0.00    -0.014 A 
BRANCH  33  34
ATOM     34  C   UNL     1       5.294   1.397  -4.214  1.00  0.00     0.031 A 
ATOM     35  C   UNL     1       6.076   2.624  -3.833  1.00  0.00     0.074 A 
ATOM     36  C   UNL     1       5.922   0.213  -4.357  1.00  0.00     0.049 A 
ATOM     37  N   UNL     1       7.372   2.794  -3.779  1.00  0.00    -0.248 NA
ATOM     38  C   UNL     1       5.298   3.823  -3.477  1.00  0.00     0.031 C 
ATOM     39  C   UNL     1       5.271  -1.062  -4.670  1.00  0.00     0.029 A 
ATOM     40  N   UNL     1       7.251  -0.112  -4.254  1.00  0.00    -0.354 N 
ATOM     41  C   UNL     1       7.565   4.128  -3.441  1.00  0.00     0.074 A 
ATOM     42  C   UNL     1       6.254   4.724  -3.299  1.00  0.00     0.031 C 
ATOM     43  C   UNL     1       6.196  -2.033  -4.704  1.00  0.00     0.029 A 
ATOM     44  C   UNL     1       7.512  -1.439  -4.499  1.00  0.00     0.049 A 
ATOM     45  H   UNL     1       7.950   0.543  -4.027  1.00  0.00     0.167 HD
ATOM     46  C   UNL     1       8.732   4.796  -3.274  1.00  0.00     0.031 A 
ATOM     47  C   UNL     1       8.681  -2.100  -4.592  1.00  0.00     0.031 A 
ATOM     48  C   UNL     1      10.030   4.186  -3.388  1.00  0.00     0.049 A 
ATOM     49  C   UNL     1       9.962  -1.335  -4.428  1.00  0.00     0.074 A 
ATOM     50  C   UNL     1      11.275   4.772  -3.247  1.00  0.00     0.029 A 
ATOM     51  N   UNL     1      10.248   2.842  -3.656  1.00  0.00    -0.354 N 
ATOM     52  N   UNL     1      10.130  -0.059  -4.175  1.00  0.00    -0.248 NA
ATOM     53  C   UNL     1      11.211  -2.093  -4.579  1.00  0.00     0.031 C 
ATOM     54  C   UNL     1      12.248   3.788  -3.460  1.00  0.00     0.029 A 
ATOM     55  C   UNL     1      11.607   2.581  -3.691  1.00  0.00     0.049 A 
ATOM     56  H   UNL     1       9.541   2.173  -3.800  1.00  0.00     0.167 HD
ATOM     57  C   UNL     1      11.504   0.139  -4.131  1.00  0.00     0.074 A 
ATOM     58  C   UNL     1      12.121  -1.153  -4.361  1.00  0.00     0.031 C 
ATOM     59  C   UNL     1      12.195   1.288  -3.926  1.00  0.00     0.031 A 
BRANCH  46  60
ATOM     60  C   UNL     1       8.651   6.274  -2.998  1.00  0.00    -0.014 A 
ATOM     61  C   UNL     1       8.245   6.767  -1.746  1.00  0.00     0.010 A 
ATOM     62  C   UNL     1       9.004   7.184  -4.011  1.00  0.00     0.010 A 
ATOM     63  C   UNL     1       8.153   8.145  -1.526  1.00  0.00     0.020 A 
ATOM     64  C   UNL     1       8.935   8.562  -3.788  1.00  0.00     0.020 A 
ATOM     65  C   UNL     1       8.490   9.034  -2.551  1.00  0.00     0.054 A 
BRANCH  65  66
ATOM     66  S   UNL     1       8.366  10.818  -2.242  1.00  0.00     0.124 S 
ATOM     67  O   UNL     1       6.925  11.038  -2.330  1.00  0.00    -0.237 OA
ATOM     68  O   UNL     1       8.941  10.955  -0.906  1.00  0.00    -0.237 OA
ATOM     69  O   UNL     1       9.154  11.412  -3.319  1.00  0.00    -0.744 OA
ENDBRANCH  65  66
ENDBRANCH  46  60
BRANCH  47  70
ATOM     70  C   UNL     1       8.684  -3.554  -4.906  1.00  0.00    -0.014 A 
ATOM     71  C   UNL     1       9.034  -4.498  -3.925  1.00  0.00     0.010 A 
ATOM     72  C   UNL     1       8.296  -4.005  -6.182  1.00  0.00     0.010 A 
ATOM     73  C   UNL     1       9.000  -5.865  -4.215  1.00  0.00     0.020 A 
ATOM     74  C   UNL     1       8.235  -5.371  -6.467  1.00  0.00     0.020 A 
ATOM     75  C   UNL     1       8.597  -6.293  -5.484  1.00  0.00     0.054 A 
BRANCH  75  76
ATOM     76  S   UNL     1       8.488  -8.073  -5.821  1.00  0.00     0.124 S 
ATOM     77  O   UNL     1       9.886  -8.424  -6.050  1.00  0.00    -0.237 OA
ATOM     78  O   UNL     1       7.898  -8.597  -4.591  1.00  0.00    -0.237 OA
ATOM     79  O   UNL     1       7.622  -8.144  -6.996  1.00  0.00    -0.744 OA
ENDBRANCH  75  76
ENDBRANCH  47  70
BRANCH  59  80
ATOM     80  C   UNL     1      13.694   1.189  -3.920  1.00  0.00    -0.014 A 
ATOM     81  C   UNL     1      14.415   1.056  -5.119  1.00  0.00     0.010 A 
ATOM     82  C   UNL     1      14.390   1.273  -2.701  1.00  0.00     0.010 A 
ATOM     83  C   UNL     1      15.809   0.981  -5.097  1.00  0.00     0.020 A 
ATOM     84  C   UNL     1      15.785   1.219  -2.677  1.00  0.00     0.020 A 
ATOM     85  C   UNL     1      16.486   1.059  -3.875  1.00  0.00     0.054 A 
BRANCH  85  86
ATOM     86  S   UNL     1      18.298   0.999  -3.872  1.00  0.00     0.124 S 
ATOM     87  O   UNL     1      18.555  -0.427  -4.054  1.00  0.00    -0.237 OA
ATOM     88  O   UNL     1      18.653   1.851  -5.004  1.00  0.00    -0.237 OA
ATOM     89  O   UNL     1      18.658   1.536  -2.561  1.00  0.00    -0.744 OA
ENDBRANCH  85  86
ENDBRANCH  59  80
ENDBRANCH  33  34
ENDBRANCH  26  28
ENDBRANCH  25  26
ENDBRANCH  24  25
ENDBRANCH   1  24
TORSDOF 18
