REMARK SMILES COc1cc(OC)cc(C(=O)C[C@H](C)CC(=O)OCCOC(=O)c2ccc(-c3c4nc(c(-c5ccc(S(=O)(=O)[O-])cc5)c5ccc([nH]5)c(-c5ccc(S(=O)(=O)[O-])cc5)c5nc(c(-c6ccc(S(=O)(=O)[O-])cc6)c6ccc3[nH]6)C=C5)C=C4)cc2)c1
REMARK SMILES IDX 19 1 18 2 16 3 17 4 15 5 13 6 14 7 12 8 10 9 11 10 9 11 3 12
REMARK SMILES IDX 4 13 84 14 5 15 8 16 2 17 1 18 6 19 7 20 20 21 21 22 22 23
REMARK SMILES IDX 23 24 24 25 25 26 83 27 26 28 82 29 27 30 28 31 29 32 76 33
REMARK SMILES IDX 30 34 81 35 75 36 77 37 31 38 80 39 74 40 73 41 32 43 62 44
REMARK SMILES IDX 43 45 61 46 44 47 47 48 60 49 78 50 45 51 46 52 59 54 79 55
REMARK SMILES IDX 48 56 33 57 34 58 42 59 35 60 41 61 36 62 37 63 38 64 39 65
REMARK SMILES IDX 40 66 63 67 64 68 72 69 65 70 71 71 66 72 67 73 68 74 69 75
REMARK SMILES IDX 70 76 49 77 50 78 58 79 51 80 57 81 52 82 53 83 54 84 55 85
REMARK SMILES IDX 56 86
REMARK H PARENT 77 42 47 53
REMARK Flexibility Score: inf
ROOT
ATOM      1  C   UNL     1       9.089   2.523   2.581  1.00  0.00     0.274 C 
ENDROOT
BRANCH   1   2
ATOM      2  O   UNL     1       7.771   2.385   2.018  1.00  0.00    -0.462 OA
BRANCH   2   3
ATOM      3  C   UNL     1       7.302   1.116   1.949  1.00  0.00     0.306 C 
ATOM      4  O   UNL     1       7.931   0.124   2.301  1.00  0.00    -0.252 OA
BRANCH   3   5
ATOM      5  C   UNL     1       5.961   1.005   1.262  1.00  0.00     0.126 C 
BRANCH   5   6
ATOM      6  C   UNL     1       4.760   1.782   1.824  1.00  0.00     0.005 C 
ATOM      7  C   UNL     1       4.809   3.254   1.391  1.00  0.00     0.009 C 
BRANCH   6   8
ATOM      8  C   UNL     1       3.397   1.201   1.362  1.00  0.00     0.085 C 
BRANCH   8   9
ATOM      9  C   UNL     1       3.075  -0.213   1.841  1.00  0.00     0.163 C 
ATOM     10  O   UNL     1       2.447  -0.390   2.883  1.00  0.00    -0.294 OA
BRANCH   9  11
ATOM     11  C   UNL     1       3.570  -1.404   1.076  1.00  0.00     0.025 A 
ATOM     12  C   UNL     1       4.918  -2.348  -0.693  1.00  0.00     0.123 A 
ATOM     13  C   UNL     1       4.861  -3.595  -0.084  1.00  0.00     0.092 A 
ATOM     14  C   UNL     1       4.208  -1.272  -0.163  1.00  0.00     0.058 A 
ATOM     15  C   UNL     1       4.123  -3.767   1.087  1.00  0.00     0.123 A 
ATOM     16  C   UNL     1       3.505  -2.667   1.686  1.00  0.00     0.058 A 
BRANCH  12  17
ATOM     17  O   UNL     1       5.691  -2.216  -1.815  1.00  0.00    -0.497 OA
ATOM     18  C   UNL     1       6.731  -1.253  -1.622  1.00  0.00     0.278 C 
ENDBRANCH  12  17
BRANCH  15  19
ATOM     19  O   UNL     1       4.138  -5.035   1.597  1.00  0.00    -0.497 OA
ATOM     20  C   UNL     1       2.997  -5.405   2.364  1.00  0.00     0.278 C 
ENDBRANCH  15  19
ENDBRANCH   9  11
ENDBRANCH   8   9
ENDBRANCH   6   8
ENDBRANCH   5   6
ENDBRANCH   3   5
ENDBRANCH   2   3
ENDBRANCH   1   2
BRANCH   1  21
ATOM     21  C   UNL     1       9.061   2.816   4.085  1.00  0.00     0.275 C 
BRANCH  21  22
ATOM     22  O   UNL     1       8.595   1.695   4.859  1.00  0.00    -0.458 OA
BRANCH  22  23
ATOM     23  C   UNL     1       7.255   1.664   5.051  1.00  0.00     0.338 C 
ATOM     24  O   UNL     1       6.447   2.490   4.656  1.00  0.00    -0.246 OA
BRANCH  23  25
ATOM     25  C   UNL     1       6.850   0.427   5.740  1.00  0.00     0.060 A 
ATOM     26  C   UNL     1       5.839  -0.349   5.164  1.00  0.00     0.016 A 
ATOM     27  C   UNL     1       7.353   0.109   7.004  1.00  0.00     0.016 A 
ATOM     28  C   UNL     1       5.286  -1.413   5.872  1.00  0.00     0.010 A 
ATOM     29  C   UNL     1       6.800  -0.964   7.712  1.00  0.00     0.010 A 
ATOM     30  C   UNL     1       5.737  -1.705   7.165  1.00  0.00    -0.014 A 
BRANCH  30  31
ATOM     31  C   UNL     1       5.002  -2.697   7.988  1.00  0.00     0.031 A 
ATOM     32  C   UNL     1       4.048  -2.213   9.047  1.00  0.00     0.074 A 
ATOM     33  C   UNL     1       5.139  -4.014   7.757  1.00  0.00     0.049 A 
ATOM     34  N   UNL     1       3.307  -2.906   9.875  1.00  0.00    -0.248 NA
ATOM     35  C   UNL     1       3.910  -0.755   9.192  1.00  0.00     0.031 C 
ATOM     36  C   UNL     1       5.986  -4.608   6.723  1.00  0.00     0.029 A 
ATOM     37  N   UNL     1       4.552  -5.091   8.372  1.00  0.00    -0.354 N 
ATOM     38  C   UNL     1       2.624  -1.971  10.644  1.00  0.00     0.074 A 
ATOM     39  C   UNL     1       3.062  -0.663  10.205  1.00  0.00     0.031 C 
ATOM     40  C   UNL     1       5.847  -5.944   6.761  1.00  0.00     0.029 A 
ATOM     41  C   UNL     1       4.929  -6.300   7.841  1.00  0.00     0.049 A 
ATOM     42  H   UNL     1       3.921  -5.005   9.123  1.00  0.00     0.167 HD
ATOM     43  C   UNL     1       1.709  -2.178  11.623  1.00  0.00     0.031 A 
ATOM     44  C   UNL     1       4.575  -7.553   8.188  1.00  0.00     0.031 A 
ATOM     45  C   UNL     1       1.277  -3.476  12.067  1.00  0.00     0.049 A 
ATOM     46  C   UNL     1       3.604  -7.762   9.318  1.00  0.00     0.074 A 
ATOM     47  C   UNL     1       0.371  -3.792  13.064  1.00  0.00     0.029 A 
ATOM     48  N   UNL     1       1.720  -4.678  11.536  1.00  0.00    -0.354 N 
ATOM     49  N   UNL     1       2.985  -6.868  10.052  1.00  0.00    -0.248 NA
ATOM     50  C   UNL     1       3.278  -9.154   9.659  1.00  0.00     0.031 C 
ATOM     51  C   UNL     1       0.290  -5.187  13.157  1.00  0.00     0.029 A 
ATOM     52  C   UNL     1       1.113  -5.738  12.188  1.00  0.00     0.049 A 
ATOM     53  H   UNL     1       2.372  -4.765  10.802  1.00  0.00     0.167 HD
ATOM     54  C   UNL     1       2.172  -7.588  10.920  1.00  0.00     0.074 A 
ATOM     55  C   UNL     1       2.376  -8.991  10.618  1.00  0.00     0.031 C 
ATOM     56  C   UNL     1       1.326  -7.129  11.876  1.00  0.00     0.031 A 
BRANCH  43  57
ATOM     57  C   UNL     1       1.152  -0.954  12.300  1.00  0.00    -0.014 A 
ATOM     58  C   UNL     1       0.244  -0.107  11.640  1.00  0.00     0.010 A 
ATOM     59  C   UNL     1       1.564  -0.633  13.605  1.00  0.00     0.010 A 
ATOM     60  C   UNL     1      -0.193   1.074  12.248  1.00  0.00     0.020 A 
ATOM     61  C   UNL     1       1.111   0.534  14.227  1.00  0.00     0.020 A 
ATOM     62  C   UNL     1       0.258   1.394  13.533  1.00  0.00     0.054 A 
BRANCH  62  63
ATOM     63  S   UNL     1      -0.290   2.947  14.294  1.00  0.00     0.124 S 
ATOM     64  O   UNL     1       0.576   3.924  13.638  1.00  0.00    -0.237 OA
ATOM     65  O   UNL     1      -1.702   3.013  13.923  1.00  0.00    -0.237 OA
ATOM     66  O   UNL     1      -0.034   2.743  15.717  1.00  0.00    -0.744 OA
ENDBRANCH  62  63
ENDBRANCH  43  57
BRANCH  44  67
ATOM     67  C   UNL     1       5.129  -8.710   7.437  1.00  0.00    -0.014 A 
ATOM     68  C   UNL     1       4.316  -9.432   6.547  1.00  0.00     0.010 A 
ATOM     69  C   UNL     1       6.477  -9.081   7.590  1.00  0.00     0.010 A 
ATOM     70  C   UNL     1       4.838 -10.511   5.829  1.00  0.00     0.020 A 
ATOM     71  C   UNL     1       7.008 -10.145   6.857  1.00  0.00     0.020 A 
ATOM     72  C   UNL     1       6.183 -10.859   5.986  1.00  0.00     0.054 A 
BRANCH  72  73
ATOM     73  S   UNL     1       6.858 -12.221   4.995  1.00  0.00     0.124 S 
ATOM     74  O   UNL     1       6.335 -13.392   5.691  1.00  0.00    -0.237 OA
ATOM     75  O   UNL     1       6.290 -11.965   3.674  1.00  0.00    -0.237 OA
ATOM     76  O   UNL     1       8.303 -12.028   5.091  1.00  0.00    -0.744 OA
ENDBRANCH  72  73
ENDBRANCH  44  67
BRANCH  56  77
ATOM     77  C   UNL     1       0.521  -8.152  12.631  1.00  0.00    -0.014 A 
ATOM     78  C   UNL     1       1.109  -8.961  13.620  1.00  0.00     0.010 A 
ATOM     79  C   UNL     1      -0.854  -8.284  12.363  1.00  0.00     0.010 A 
ATOM     80  C   UNL     1       0.343  -9.911  14.301  1.00  0.00     0.020 A 
ATOM     81  C   UNL     1      -1.627  -9.218  13.057  1.00  0.00     0.020 A 
ATOM     82  C   UNL     1      -1.019 -10.039  14.010  1.00  0.00     0.054 A 
BRANCH  82  83
ATOM     83  S   UNL     1      -2.003 -11.261  14.921  1.00  0.00     0.124 S 
ATOM     84  O   UNL     1      -1.646 -12.504  14.243  1.00  0.00    -0.237 OA
ATOM     85  O   UNL     1      -1.505 -11.126  16.288  1.00  0.00    -0.237 OA
ATOM     86  O   UNL     1      -3.380 -10.813  14.721  1.00  0.00    -0.744 OA
ENDBRANCH  82  83
ENDBRANCH  56  77
ENDBRANCH  30  31
ENDBRANCH  23  25
ENDBRANCH  22  23
ENDBRANCH  21  22
ENDBRANCH   1  21
TORSDOF 20
