REMARK SMILES O=C(OCCOC(=O)c1ccc(-c2c3nc(c(-c4ccc(S(=O)(=O)[O-])cc4)c4ccc([nH]4)c(-c4ccc(S(=O)(=O)[O-])cc4)c4nc(c(-c5ccc(S(=O)(=O)[O-])cc5)c5ccc2[nH]5)C=C4)C=C3)cc1)C1=Cc2cc(Cl)cc(Cl)c2O[C@@H]1C(F)(F)F
REMARK SMILES IDX 5 1 4 2 3 3 2 4 1 5 69 6 70 7 80 8 71 9 79 10 72 11 78 12
REMARK SMILES IDX 73 13 76 14 74 15 75 16 77 17 81 18 82 19 83 20 84 21 6 22
REMARK SMILES IDX 7 23 8 24 9 25 10 26 68 27 11 28 67 29 12 30 13 31 14 32
REMARK SMILES IDX 61 33 15 34 66 35 60 36 62 37 16 38 65 39 59 40 58 41 17 43
REMARK SMILES IDX 47 44 28 45 46 46 29 47 32 48 45 49 63 50 30 51 31 52 44 54
REMARK SMILES IDX 64 55 33 56 18 57 19 58 27 59 20 60 26 61 21 62 22 63 23 64
REMARK SMILES IDX 24 65 25 66 48 67 49 68 57 69 50 70 56 71 51 72 52 73 53 74
REMARK SMILES IDX 54 75 55 76 34 77 35 78 43 79 36 80 42 81 37 82 38 83 39 84
REMARK SMILES IDX 40 85 41 86
REMARK H PARENT 62 42 32 53
REMARK Flexibility Score: inf
ROOT
ATOM      1  C   UNL     1       4.622   0.444   0.828  1.00  0.00     0.275 C 
ENDROOT
BRANCH   1   2
ATOM      2  C   UNL     1       3.803  -1.043  -0.517  1.00  0.00     0.275 C 
BRANCH   2   3
ATOM      3  O   UNL     1       2.935  -2.265  -0.122  1.00  0.00    -0.459 OA
BRANCH   3   4
ATOM      4  C   UNL     1       3.148  -2.678   1.134  1.00  0.00     0.338 C 
ATOM      5  O   UNL     1       2.548  -3.489   1.789  1.00  0.00    -0.246 OA
BRANCH   4   6
ATOM      6  C   UNL     1       4.002  -1.570   1.493  1.00  0.00     0.087 C 
ATOM      7  C   UNL     1       5.365  -1.710   0.977  1.00  0.00     0.027 C 
ATOM      8  C   UNL     1       2.745  -0.198   0.988  1.00  0.00     0.316 C 
ATOM      9  C   UNL     1       6.006  -0.728  -0.387  1.00  0.00     0.020 A 
ATOM     10  O   UNL     1       3.390   0.821  -0.523  1.00  0.00    -0.474 OA
ATOM     11  C   UNL     1       7.206  -1.104  -0.924  1.00  0.00     0.032 A 
ATOM     12  C   UNL     1       5.045   0.459  -1.212  1.00  0.00     0.146 A 
ATOM     13  C   UNL     1       7.529  -0.478  -2.137  1.00  0.00     0.043 A 
ATOM     14  C   UNL     1       5.454   1.012  -2.396  1.00  0.00     0.085 A 
ATOM     15  Cl  UNL     1       9.014  -0.978  -2.885  1.00  0.00    -0.084 Cl
ATOM     16  C   UNL     1       6.710   0.510  -2.832  1.00  0.00     0.045 A 
ATOM     17  Cl  UNL     1       4.566   2.113  -3.334  1.00  0.00    -0.080 Cl
BRANCH   8  18
ATOM     18  C   UNL     1       2.328   0.158   2.482  1.00  0.00     0.430 C 
ATOM     19  F   UNL     1       1.048   0.544   2.558  1.00  0.00    -0.167 F 
ATOM     20  F   UNL     1       2.359  -0.989   3.232  1.00  0.00    -0.167 F 
ATOM     21  F   UNL     1       3.131   0.971   3.183  1.00  0.00    -0.167 F 
ENDBRANCH   8  18
ENDBRANCH   4   6
ENDBRANCH   3   4
ENDBRANCH   2   3
ENDBRANCH   1   2
BRANCH   1  22
ATOM     22  O   UNL     1       3.823   1.914   1.297  1.00  0.00    -0.458 OA
BRANCH  22  23
ATOM     23  C   UNL     1       2.903   2.855   0.888  1.00  0.00     0.338 C 
ATOM     24  O   UNL     1       2.445   3.065  -0.220  1.00  0.00    -0.246 OA
BRANCH  23  25
ATOM     25  C   UNL     1       2.213   3.321   2.135  1.00  0.00     0.060 A 
ATOM     26  C   UNL     1       0.851   3.008   2.305  1.00  0.00     0.016 A 
ATOM     27  C   UNL     1       2.979   3.688   3.240  1.00  0.00     0.016 A 
ATOM     28  C   UNL     1       0.330   2.836   3.603  1.00  0.00     0.010 A 
ATOM     29  C   UNL     1       2.455   3.520   4.527  1.00  0.00     0.010 A 
ATOM     30  C   UNL     1       1.153   3.023   4.723  1.00  0.00    -0.014 A 
BRANCH  30  31
ATOM     31  C   UNL     1       0.603   2.978   6.106  1.00  0.00     0.031 A 
ATOM     32  C   UNL     1       0.096   4.290   6.630  1.00  0.00     0.074 A 
ATOM     33  C   UNL     1       0.604   1.883   6.901  1.00  0.00     0.049 A 
ATOM     34  N   UNL     1      -0.365   4.598   7.810  1.00  0.00    -0.248 NA
ATOM     35  C   UNL     1       0.154   5.419   5.683  1.00  0.00     0.031 C 
ATOM     36  C   UNL     1       1.074   0.546   6.535  1.00  0.00     0.029 A 
ATOM     37  N   UNL     1       0.200   1.733   8.213  1.00  0.00    -0.354 N 
ATOM     38  C   UNL     1      -0.660   5.952   7.739  1.00  0.00     0.074 A 
ATOM     39  C   UNL     1      -0.248   6.422   6.439  1.00  0.00     0.031 C 
ATOM     40  C   UNL     1       0.937  -0.280   7.594  1.00  0.00     0.029 A 
ATOM     41  C   UNL     1       0.382   0.464   8.725  1.00  0.00     0.049 A 
ATOM     42  H   UNL     1      -0.185   2.470   8.740  1.00  0.00     0.167 HD
ATOM     43  C   UNL     1      -1.258   6.740   8.658  1.00  0.00     0.031 A 
ATOM     44  C   UNL     1       0.127  -0.030   9.960  1.00  0.00     0.031 A 
ATOM     45  C   UNL     1      -1.633   6.294   9.965  1.00  0.00     0.049 A 
ATOM     46  C   UNL     1      -0.471   0.894  11.006  1.00  0.00     0.074 A 
ATOM     47  C   UNL     1      -2.229   7.013  10.982  1.00  0.00     0.029 A 
ATOM     48  N   UNL     1      -1.437   5.005  10.436  1.00  0.00    -0.354 N 
ATOM     49  N   UNL     1      -0.808   2.160  10.899  1.00  0.00    -0.248 NA
ATOM     50  C   UNL     1      -0.738   0.320  12.335  1.00  0.00     0.031 C 
ATOM     51  C   UNL     1      -2.353   6.169  12.089  1.00  0.00     0.029 A 
ATOM     52  C   UNL     1      -1.892   4.908  11.737  1.00  0.00     0.049 A 
ATOM     53  H   UNL     1      -1.034   4.269   9.921  1.00  0.00     0.167 HD
ATOM     54  C   UNL     1      -1.368   2.513  12.126  1.00  0.00     0.074 A 
ATOM     55  C   UNL     1      -1.333   1.329  12.957  1.00  0.00     0.031 C 
ATOM     56  C   UNL     1      -1.869   3.707  12.532  1.00  0.00     0.031 A 
BRANCH  43  57
ATOM     57  C   UNL     1      -1.521   8.158   8.243  1.00  0.00    -0.014 A 
ATOM     58  C   UNL     1      -2.467   8.441   7.237  1.00  0.00     0.010 A 
ATOM     59  C   UNL     1      -0.779   9.208   8.807  1.00  0.00     0.010 A 
ATOM     60  C   UNL     1      -2.622   9.741   6.761  1.00  0.00     0.020 A 
ATOM     61  C   UNL     1      -0.958  10.518   8.357  1.00  0.00     0.020 A 
ATOM     62  C   UNL     1      -1.863  10.771   7.322  1.00  0.00     0.054 A 
BRANCH  62  63
ATOM     63  S   UNL     1      -2.089  12.453   6.686  1.00  0.00     0.124 S 
ATOM     64  O   UNL     1      -1.449  12.367   5.375  1.00  0.00    -0.237 OA
ATOM     65  O   UNL     1      -3.543  12.593   6.667  1.00  0.00    -0.237 OA
ATOM     66  O   UNL     1      -1.397  13.289   7.663  1.00  0.00    -0.744 OA
ENDBRANCH  62  63
ENDBRANCH  43  57
BRANCH  44  67
ATOM     67  C   UNL     1       0.409  -1.460  10.317  1.00  0.00    -0.014 A 
ATOM     68  C   UNL     1      -0.642  -2.343  10.639  1.00  0.00     0.010 A 
ATOM     69  C   UNL     1       1.731  -1.930  10.430  1.00  0.00     0.010 A 
ATOM     70  C   UNL     1      -0.379  -3.641  11.102  1.00  0.00     0.020 A 
ATOM     71  C   UNL     1       1.998  -3.238  10.863  1.00  0.00     0.020 A 
ATOM     72  C   UNL     1       0.942  -4.080  11.214  1.00  0.00     0.054 A 
BRANCH  72  73
ATOM     73  S   UNL     1       1.259  -5.770  11.806  1.00  0.00     0.124 S 
ATOM     74  O   UNL     1       0.903  -5.673  13.218  1.00  0.00    -0.237 OA
ATOM     75  O   UNL     1       0.357  -6.569  10.981  1.00  0.00    -0.237 OA
ATOM     76  O   UNL     1       2.681  -5.967  11.533  1.00  0.00    -0.744 OA
ENDBRANCH  72  73
ENDBRANCH  44  67
BRANCH  56  77
ATOM     77  C   UNL     1      -2.481   3.789  13.907  1.00  0.00    -0.014 A 
ATOM     78  C   UNL     1      -1.692   3.753  15.068  1.00  0.00     0.010 A 
ATOM     79  C   UNL     1      -3.868   4.005  14.026  1.00  0.00     0.010 A 
ATOM     80  C   UNL     1      -2.282   3.906  16.326  1.00  0.00     0.020 A 
ATOM     81  C   UNL     1      -4.456   4.191  15.279  1.00  0.00     0.020 A 
ATOM     82  C   UNL     1      -3.660   4.127  16.423  1.00  0.00     0.054 A 
BRANCH  82  83
ATOM     83  S   UNL     1      -4.391   4.382  18.063  1.00  0.00     0.124 S 
ATOM     84  O   UNL     1      -4.345   3.037  18.629  1.00  0.00    -0.237 OA
ATOM     85  O   UNL     1      -3.483   5.351  18.671  1.00  0.00    -0.237 OA
ATOM     86  O   UNL     1      -5.729   4.890  17.772  1.00  0.00    -0.744 OA
ENDBRANCH  82  83
ENDBRANCH  56  77
ENDBRANCH  30  31
ENDBRANCH  23  25
ENDBRANCH  22  23
ENDBRANCH   1  22
TORSDOF 15
