REMARK SMILES C=CC[N@@H+](CC(=O)OCCOC(=O)c1ccc(-c2c3nc(c(-c4ccc(S(=O)(=O)[O-])cc4)c4ccc([nH]4)c(-c4ccc(S(=O)(=O)[O-])cc4)c4nc(c(-c5ccc(S(=O)(=O)[O-])cc5)c5ccc2[nH]5)C=C4)C=C3)cc1)[C@@H]1CC[N@@H+](C(C)C)C1
REMARK SMILES IDX 9 1 8 2 6 3 7 4 5 5 4 6 3 8 2 9 1 10 74 11 75 12 81 13 76 14
REMARK SMILES IDX 77 15 78 17 79 18 80 19 10 20 11 21 12 22 13 23 14 24 15 25
REMARK SMILES IDX 73 26 16 27 72 28 17 29 18 30 19 31 66 32 20 33 71 34 65 35
REMARK SMILES IDX 67 36 21 37 70 38 64 39 63 40 22 42 52 43 33 44 51 45 34 46
REMARK SMILES IDX 37 47 50 48 68 49 35 50 36 51 49 53 69 54 38 55 23 56 24 57
REMARK SMILES IDX 32 58 25 59 31 60 26 61 27 62 28 63 29 64 30 65 53 66 54 67
REMARK SMILES IDX 62 68 55 69 61 70 56 71 57 72 58 73 59 74 60 75 39 76 40 77
REMARK SMILES IDX 48 78 41 79 47 80 42 81 43 82 44 83 45 84 46 85
REMARK H PARENT 4 7 77 16 67 41 37 52
REMARK Flexibility Score: inf
ROOT
ATOM      1  C   UNL     1      -3.872   0.165   1.527  1.00  0.00     0.274 C 
ENDROOT
BRANCH   1   2
ATOM      2  O   UNL     1      -3.023   0.263   0.364  1.00  0.00    -0.458 OA
BRANCH   2   3
ATOM      3  C   UNL     1      -3.636   0.424  -0.838  1.00  0.00     0.361 C 
ATOM      4  O   UNL     1      -4.852   0.529  -0.973  1.00  0.00    -0.245 OA
BRANCH   3   5
ATOM      5  C   UNL     1      -2.705   0.321  -2.046  1.00  0.00     0.387 C 
BRANCH   5   6
ATOM      6  N   UNL     1      -1.269   0.644  -1.888  1.00  0.00    -0.315 N 
ATOM      7  H   UNL     1      -0.900   0.557  -2.835  1.00  0.00     0.349 HD
BRANCH   6   8
ATOM      8  C   UNL     1      -0.588  -0.341  -1.035  1.00  0.00     0.291 C 
BRANCH   8   9
ATOM      9  C   UNL     1       0.899  -0.394  -1.212  1.00  0.00     0.025 C 
ATOM     10  C   UNL     1       1.770  -0.245  -0.204  1.00  0.00     0.010 C 
ENDBRANCH   8   9
ENDBRANCH   6   8
BRANCH   6  11
ATOM     11  C   UNL     1      -0.903   2.052  -1.602  1.00  0.00     0.246 C 
ATOM     12  C   UNL     1      -1.838   3.182  -2.054  1.00  0.00     0.132 C 
ATOM     13  C   UNL     1       0.433   2.441  -2.302  1.00  0.00     0.328 C 
ATOM     14  C   UNL     1      -1.125   3.952  -3.148  1.00  0.00     0.269 C 
ATOM     15  N   UNL     1       0.300   3.773  -2.902  1.00  0.00    -0.328 N 
ATOM     16  H   UNL     1       0.836   3.804  -3.769  1.00  0.00     0.348 HD
BRANCH  15  17
ATOM     17  C   UNL     1       0.960   4.890  -2.214  1.00  0.00     0.177 C 
ATOM     18  C   UNL     1       0.607   5.090  -0.738  1.00  0.00     0.075 C 
ATOM     19  C   UNL     1       2.481   4.767  -2.383  1.00  0.00     0.075 C 
ENDBRANCH  15  17
ENDBRANCH   6  11
ENDBRANCH   5   6
ENDBRANCH   3   5
ENDBRANCH   2   3
ENDBRANCH   1   2
BRANCH   1  20
ATOM     20  C   UNL     1      -3.809   1.450   2.345  1.00  0.00     0.275 C 
BRANCH  20  21
ATOM     21  O   UNL     1      -4.325   2.523   1.547  1.00  0.00    -0.458 OA
BRANCH  21  22
ATOM     22  C   UNL     1      -3.559   3.635   1.470  1.00  0.00     0.338 C 
ATOM     23  O   UNL     1      -2.538   3.870   2.092  1.00  0.00    -0.246 OA
BRANCH  22  24
ATOM     24  C   UNL     1      -4.147   4.559   0.478  1.00  0.00     0.060 A 
ATOM     25  C   UNL     1      -4.696   4.070  -0.710  1.00  0.00     0.016 A 
ATOM     26  C   UNL     1      -4.067   5.935   0.694  1.00  0.00     0.016 A 
ATOM     27  C   UNL     1      -5.112   4.952  -1.703  1.00  0.00     0.010 A 
ATOM     28  C   UNL     1      -4.593   6.815  -0.256  1.00  0.00     0.010 A 
ATOM     29  C   UNL     1      -5.123   6.333  -1.465  1.00  0.00    -0.014 A 
BRANCH  29  30
ATOM     30  C   UNL     1      -5.771   7.265  -2.426  1.00  0.00     0.031 A 
ATOM     31  C   UNL     1      -5.016   8.425  -3.014  1.00  0.00     0.074 A 
ATOM     32  C   UNL     1      -7.078   7.100  -2.719  1.00  0.00     0.049 A 
ATOM     33  N   UNL     1      -5.479   9.462  -3.662  1.00  0.00    -0.248 NA
ATOM     34  C   UNL     1      -3.554   8.427  -2.840  1.00  0.00     0.031 C 
ATOM     35  C   UNL     1      -7.926   6.003  -2.241  1.00  0.00     0.029 A 
ATOM     36  N   UNL     1      -7.930   7.863  -3.479  1.00  0.00    -0.354 N 
ATOM     37  C   UNL     1      -4.378  10.267  -3.932  1.00  0.00     0.074 A 
ATOM     38  C   UNL     1      -3.220   9.592  -3.382  1.00  0.00     0.031 C 
ATOM     39  C   UNL     1      -9.162   6.149  -2.737  1.00  0.00     0.029 A 
ATOM     40  C   UNL     1      -9.224   7.399  -3.480  1.00  0.00     0.049 A 
ATOM     41  H   UNL     1      -7.642   8.664  -3.974  1.00  0.00     0.167 HD
ATOM     42  C   UNL     1      -4.342  11.462  -4.570  1.00  0.00     0.031 A 
ATOM     43  C   UNL     1     -10.358   7.942  -3.961  1.00  0.00     0.031 A 
ATOM     44  C   UNL     1      -5.497  12.113  -5.135  1.00  0.00     0.049 A 
ATOM     45  C   UNL     1     -10.304   9.292  -4.605  1.00  0.00     0.074 A 
ATOM     46  C   UNL     1      -5.557  13.310  -5.829  1.00  0.00     0.029 A 
ATOM     47  N   UNL     1      -6.793  11.624  -5.074  1.00  0.00    -0.354 N 
ATOM     48  N   UNL     1      -9.261  10.059  -4.814  1.00  0.00    -0.248 NA
ATOM     49  C   UNL     1     -11.581   9.863  -5.051  1.00  0.00     0.031 C 
ATOM     50  C   UNL     1      -6.895  13.566  -6.148  1.00  0.00     0.029 A 
ATOM     51  C   UNL     1      -7.663  12.508  -5.691  1.00  0.00     0.049 A 
ATOM     52  H   UNL     1      -7.056  10.774  -4.653  1.00  0.00     0.167 HD
ATOM     53  C   UNL     1      -9.757  11.210  -5.411  1.00  0.00     0.074 A 
ATOM     54  C   UNL     1     -11.188  11.026  -5.553  1.00  0.00     0.031 C 
ATOM     55  C   UNL     1      -9.087  12.321  -5.800  1.00  0.00     0.031 A 
BRANCH  42  56
ATOM     56  C   UNL     1      -3.018  12.172  -4.658  1.00  0.00    -0.014 A 
ATOM     57  C   UNL     1      -2.019  11.755  -5.556  1.00  0.00     0.010 A 
ATOM     58  C   UNL     1      -2.795  13.316  -3.869  1.00  0.00     0.010 A 
ATOM     59  C   UNL     1      -0.810  12.454  -5.641  1.00  0.00     0.020 A 
ATOM     60  C   UNL     1      -1.596  14.028  -3.966  1.00  0.00     0.020 A 
ATOM     61  C   UNL     1      -0.605  13.584  -4.842  1.00  0.00     0.054 A 
BRANCH  61  62
ATOM     62  S   UNL     1       0.960  14.491  -4.991  1.00  0.00     0.124 S 
ATOM     63  O   UNL     1       1.882  13.621  -4.265  1.00  0.00    -0.237 OA
ATOM     64  O   UNL     1       1.162  14.552  -6.437  1.00  0.00    -0.237 OA
ATOM     65  O   UNL     1       0.680  15.774  -4.351  1.00  0.00    -0.744 OA
ENDBRANCH  61  62
ENDBRANCH  42  56
BRANCH  43  66
ATOM     66  C   UNL     1     -11.646   7.226  -3.768  1.00  0.00    -0.014 A 
ATOM     67  C   UNL     1     -12.274   6.587  -4.849  1.00  0.00     0.010 A 
ATOM     68  C   UNL     1     -12.213   7.124  -2.483  1.00  0.00     0.010 A 
ATOM     69  C   UNL     1     -13.444   5.848  -4.647  1.00  0.00     0.020 A 
ATOM     70  C   UNL     1     -13.367   6.366  -2.274  1.00  0.00     0.020 A 
ATOM     71  C   UNL     1     -13.979   5.737  -3.360  1.00  0.00     0.054 A 
BRANCH  71  72
ATOM     72  S   UNL     1     -15.440   4.694  -3.099  1.00  0.00     0.124 S 
ATOM     73  O   UNL     1     -16.521   5.574  -3.530  1.00  0.00    -0.237 OA
ATOM     74  O   UNL     1     -15.174   3.547  -3.964  1.00  0.00    -0.237 OA
ATOM     75  O   UNL     1     -15.398   4.404  -1.667  1.00  0.00    -0.744 OA
ENDBRANCH  71  72
ENDBRANCH  43  66
BRANCH  55  76
ATOM     76  C   UNL     1      -9.903  13.423  -6.413  1.00  0.00    -0.014 A 
ATOM     77  C   UNL     1     -10.692  14.264  -5.609  1.00  0.00     0.010 A 
ATOM     78  C   UNL     1      -9.864  13.633  -7.802  1.00  0.00     0.010 A 
ATOM     79  C   UNL     1     -11.454  15.281  -6.189  1.00  0.00     0.020 A 
ATOM     80  C   UNL     1     -10.610  14.661  -8.383  1.00  0.00     0.020 A 
ATOM     81  C   UNL     1     -11.412  15.469  -7.574  1.00  0.00     0.054 A 
BRANCH  81  82
ATOM     82  S   UNL     1     -12.386  16.814  -8.304  1.00  0.00     0.124 S 
ATOM     83  O   UNL     1     -13.734  16.251  -8.294  1.00  0.00    -0.237 OA
ATOM     84  O   UNL     1     -12.160  17.919  -7.375  1.00  0.00    -0.237 OA
ATOM     85  O   UNL     1     -11.793  16.990  -9.628  1.00  0.00    -0.744 OA
ENDBRANCH  81  82
ENDBRANCH  55  76
ENDBRANCH  29  30
ENDBRANCH  22  24
ENDBRANCH  21  22
ENDBRANCH  20  21
ENDBRANCH   1  20
TORSDOF 19
