REMARK SMILES Cc1coc2cc3c(cc12)[C@@H](C)[C@H](CCC(=O)N[C@@H](Cc1c[nH]c2ccccc12)C(=O)OCCOC(=O)c1ccc(-c2c4nc(c(-c5ccc(S(=O)(=O)[O-])cc5)c5ccc([nH]5)c(-c5ccc(S(=O)(=O)[O-])cc5)c5nc(c(-c6ccc(S(=O)(=O)[O-])cc6)c6ccc2[nH]6)C=C5)C=C4)cc1)C(=O)O3
REMARK SMILES IDX 33 1 32 2 30 3 31 4 19 5 18 6 16 7 17 8 15 10 14 11 13 12
REMARK SMILES IDX 1 13 2 14 3 15 10 16 4 17 5 18 9 19 6 20 8 21 7 22 11 23
REMARK SMILES IDX 100 24 12 25 98 26 99 27 20 28 21 29 22 30 29 31 23 32 24 33
REMARK SMILES IDX 28 34 25 36 27 37 26 38 34 39 35 40 36 41 37 42 38 43 39 44
REMARK SMILES IDX 97 45 40 46 96 47 41 48 42 49 43 50 90 51 44 52 95 53 89 54
REMARK SMILES IDX 91 55 45 56 94 57 88 58 87 59 46 61 76 62 57 63 75 64 58 65
REMARK SMILES IDX 61 66 74 67 92 68 59 69 60 70 73 72 93 73 62 74 47 75 48 76
REMARK SMILES IDX 56 77 49 78 55 79 50 80 51 81 52 82 53 83 54 84 77 85 78 86
REMARK SMILES IDX 86 87 79 88 85 89 80 90 81 91 82 92 83 93 84 94 63 95 64 96
REMARK SMILES IDX 72 97 65 98 71 99 66 100 67 101 68 102 69 103 70 104
REMARK H PARENT 18 9 23 35 91 60 61 71
REMARK Flexibility Score: inf
ROOT
ATOM      1  C   UNL     1      -6.020  -4.715  -8.312  1.00  0.00     0.274 C 
ENDROOT
BRANCH   1   2
ATOM      2  O   UNL     1      -4.838  -4.086  -7.782  1.00  0.00    -0.461 OA
BRANCH   2   3
ATOM      3  C   UNL     1      -4.455  -4.538  -6.558  1.00  0.00     0.329 C 
ATOM      4  O   UNL     1      -5.105  -5.316  -5.868  1.00  0.00    -0.250 OA
BRANCH   3   5
ATOM      5  C   UNL     1      -3.159  -3.881  -6.078  1.00  0.00     0.196 C 
BRANCH   5   6
ATOM      6  N   UNL     1      -2.321  -3.281  -7.151  1.00  0.00    -0.342 N 
ATOM      7  C   UNL     1      -1.069  -3.379  -7.678  1.00  0.00     0.220 C 
ATOM      8  O   UNL     1      -0.884  -2.658  -8.673  1.00  0.00    -0.275 OA
ATOM      9  H   UNL     1      -2.835  -2.594  -7.634  1.00  0.00     0.164 HD
BRANCH   7  10
ATOM     10  C   UNL     1       0.146  -4.255  -7.237  1.00  0.00     0.101 C 
BRANCH  10  11
ATOM     11  C   UNL     1       0.846  -4.209  -5.860  1.00  0.00     0.026 C 
BRANCH  11  12
ATOM     12  C   UNL     1       0.058  -3.450  -4.822  1.00  0.00     0.107 C 
ATOM     13  C   UNL     1       1.066   0.603   0.894  1.00  0.00     0.048 C 
ATOM     14  C   UNL     1       0.908   0.955  -0.533  1.00  0.00    -0.005 A 
ATOM     15  C   UNL     1       0.685   2.206  -1.068  1.00  0.00     0.199 A 
ATOM     16  C   UNL     1       0.986   0.065  -1.641  1.00  0.00     0.024 A 
ATOM     17  O   UNL     1       0.693   2.167  -2.422  1.00  0.00    -0.464 OA
ATOM     18  C   UNL     1       0.915   0.874  -2.768  1.00  0.00     0.137 A 
ATOM     19  C   UNL     1       1.090  -1.333  -1.800  1.00  0.00     0.020 A 
ATOM     20  C   UNL     1       1.045   0.419  -4.063  1.00  0.00     0.095 A 
ATOM     21  C   UNL     1       1.064  -1.862  -3.097  1.00  0.00    -0.001 A 
ATOM     22  C   UNL     1       1.135  -0.964  -4.186  1.00  0.00     0.138 A 
ATOM     23  C   UNL     1       0.619  -3.304  -3.385  1.00  0.00     0.034 C 
ATOM     24  O   UNL     1       1.058  -1.442  -5.475  1.00  0.00    -0.426 OA
ATOM     25  C   UNL     1      -0.568  -3.627  -2.475  1.00  0.00     0.014 C 
ATOM     26  C   UNL     1      -0.141  -2.048  -5.299  1.00  0.00     0.314 C 
ATOM     27  O   UNL     1      -1.204  -1.475  -5.321  1.00  0.00    -0.251 OA
ENDBRANCH  11  12
ENDBRANCH  10  11
ENDBRANCH   7  10
ENDBRANCH   5   6
BRANCH   5  28
ATOM     28  C   UNL     1      -3.605  -3.003  -4.893  1.00  0.00     0.074 C 
BRANCH  28  29
ATOM     29  C   UNL     1      -4.544  -1.859  -5.148  1.00  0.00    -0.020 A 
ATOM     30  C   UNL     1      -5.822  -1.788  -4.619  1.00  0.00     0.087 A 
ATOM     31  C   UNL     1      -4.302  -0.602  -5.798  1.00  0.00     0.003 A 
ATOM     32  N   UNL     1      -6.317  -0.536  -4.848  1.00  0.00    -0.361 N 
ATOM     33  C   UNL     1      -5.393   0.225  -5.520  1.00  0.00     0.046 A 
ATOM     34  C   UNL     1      -3.246  -0.038  -6.542  1.00  0.00     0.010 A 
ATOM     35  H   UNL     1      -7.209  -0.225  -4.571  1.00  0.00     0.166 HD
ATOM     36  C   UNL     1      -5.430   1.579  -5.880  1.00  0.00     0.026 A 
ATOM     37  C   UNL     1      -3.239   1.318  -6.869  1.00  0.00     0.001 A 
ATOM     38  C   UNL     1      -4.317   2.118  -6.532  1.00  0.00     0.002 A 
ENDBRANCH  28  29
ENDBRANCH   5  28
ENDBRANCH   3   5
ENDBRANCH   2   3
ENDBRANCH   1   2
BRANCH   1  39
ATOM     39  C   UNL     1      -5.587  -5.844  -9.247  1.00  0.00     0.275 C 
BRANCH  39  40
ATOM     40  O   UNL     1      -5.070  -6.936  -8.452  1.00  0.00    -0.458 OA
BRANCH  40  41
ATOM     41  C   UNL     1      -3.743  -7.188  -8.565  1.00  0.00     0.338 C 
ATOM     42  O   UNL     1      -3.022  -6.850  -9.492  1.00  0.00    -0.246 OA
BRANCH  41  43
ATOM     43  C   UNL     1      -3.226  -7.566  -7.221  1.00  0.00     0.060 A 
ATOM     44  C   UNL     1      -3.860  -8.378  -6.284  1.00  0.00     0.016 A 
ATOM     45  C   UNL     1      -2.101  -6.867  -6.822  1.00  0.00     0.016 A 
ATOM     46  C   UNL     1      -3.476  -8.320  -4.919  1.00  0.00     0.010 A 
ATOM     47  C   UNL     1      -1.742  -6.801  -5.476  1.00  0.00     0.010 A 
ATOM     48  C   UNL     1      -2.494  -7.421  -4.478  1.00  0.00    -0.014 A 
BRANCH  48  49
ATOM     49  C   UNL     1      -1.944  -7.362  -3.093  1.00  0.00     0.031 A 
ATOM     50  C   UNL     1      -0.797  -8.293  -3.008  1.00  0.00     0.074 A 
ATOM     51  C   UNL     1      -2.205  -6.589  -1.998  1.00  0.00     0.049 A 
ATOM     52  N   UNL     1      -0.937  -9.559  -2.804  1.00  0.00    -0.248 NA
ATOM     53  C   UNL     1       0.551  -7.901  -3.449  1.00  0.00     0.031 C 
ATOM     54  C   UNL     1      -3.181  -5.503  -1.832  1.00  0.00     0.029 A 
ATOM     55  N   UNL     1      -1.556  -6.568  -0.769  1.00  0.00    -0.354 N 
ATOM     56  C   UNL     1       0.347 -10.058  -2.774  1.00  0.00     0.074 A 
ATOM     57  C   UNL     1       1.151  -9.095  -3.482  1.00  0.00     0.031 C 
ATOM     58  C   UNL     1      -2.947  -4.830  -0.669  1.00  0.00     0.029 A 
ATOM     59  C   UNL     1      -1.866  -5.484   0.074  1.00  0.00     0.049 A 
ATOM     60  H   UNL     1      -0.917  -7.269  -0.505  1.00  0.00     0.167 HD
ATOM     61  C   UNL     1       0.685 -10.999  -1.852  1.00  0.00     0.031 A 
ATOM     62  C   UNL     1      -1.562  -5.293   1.401  1.00  0.00     0.031 A 
ATOM     63  C   UNL     1      -0.484 -11.418  -1.108  1.00  0.00     0.049 A 
ATOM     64  C   UNL     1      -1.418  -6.643   1.974  1.00  0.00     0.074 A 
ATOM     65  C   UNL     1      -1.644 -12.111  -1.382  1.00  0.00     0.029 A 
ATOM     66  N   UNL     1      -0.713 -10.669   0.023  1.00  0.00    -0.354 N 
ATOM     67  N   UNL     1      -2.428  -7.447   2.123  1.00  0.00    -0.248 NA
ATOM     68  C   UNL     1      -0.098  -7.248   2.090  1.00  0.00     0.031 C 
ATOM     69  C   UNL     1      -2.635 -11.584  -0.504  1.00  0.00     0.029 A 
ATOM     70  C   UNL     1      -2.046 -10.641   0.336  1.00  0.00     0.049 A 
ATOM     71  H   UNL     1      -0.010 -10.214   0.541  1.00  0.00     0.167 HD
ATOM     72  C   UNL     1      -1.889  -8.686   1.857  1.00  0.00     0.074 A 
ATOM     73  C   UNL     1      -0.451  -8.534   2.039  1.00  0.00     0.031 C 
ATOM     74  C   UNL     1      -2.620  -9.619   1.190  1.00  0.00     0.031 A 
BRANCH  61  75
ATOM     75  C   UNL     1       2.068 -11.185  -1.282  1.00  0.00    -0.014 A 
ATOM     76  C   UNL     1       3.138 -10.293  -1.484  1.00  0.00     0.010 A 
ATOM     77  C   UNL     1       2.261 -12.201  -0.322  1.00  0.00     0.010 A 
ATOM     78  C   UNL     1       4.345 -10.414  -0.797  1.00  0.00     0.020 A 
ATOM     79  C   UNL     1       3.456 -12.312   0.401  1.00  0.00     0.020 A 
ATOM     80  C   UNL     1       4.496 -11.424   0.143  1.00  0.00     0.054 A 
BRANCH  80  81
ATOM     81  S   UNL     1       6.065 -11.522   1.031  1.00  0.00     0.124 S 
ATOM     82  O   UNL     1       6.988 -11.893  -0.039  1.00  0.00    -0.237 OA
ATOM     83  O   UNL     1       6.213 -10.165   1.549  1.00  0.00    -0.237 OA
ATOM     84  O   UNL     1       5.826 -12.554   2.037  1.00  0.00    -0.744 OA
ENDBRANCH  80  81
ENDBRANCH  61  75
BRANCH  62  85
ATOM     85  C   UNL     1      -0.831  -4.181   2.112  1.00  0.00    -0.014 A 
ATOM     86  C   UNL     1       0.203  -3.488   1.467  1.00  0.00     0.010 A 
ATOM     87  C   UNL     1      -0.897  -4.034   3.520  1.00  0.00     0.010 A 
ATOM     88  C   UNL     1       1.137  -2.706   2.171  1.00  0.00     0.020 A 
ATOM     89  C   UNL     1       0.031  -3.240   4.239  1.00  0.00     0.020 A 
ATOM     90  C   UNL     1       1.051  -2.583   3.555  1.00  0.00     0.054 A 
BRANCH  90  91
ATOM     91  S   UNL     1       2.326  -1.605   4.415  1.00  0.00     0.124 S 
ATOM     92  O   UNL     1       3.557  -2.287   4.027  1.00  0.00    -0.237 OA
ATOM     93  O   UNL     1       2.139  -0.278   3.832  1.00  0.00    -0.237 OA
ATOM     94  O   UNL     1       1.966  -1.718   5.825  1.00  0.00    -0.744 OA
ENDBRANCH  90  91
ENDBRANCH  62  85
BRANCH  74  95
ATOM     95  C   UNL     1      -4.122  -9.485   1.197  1.00  0.00    -0.014 A 
ATOM     96  C   UNL     1      -4.843 -10.571   1.719  1.00  0.00     0.010 A 
ATOM     97  C   UNL     1      -4.835  -8.430   0.592  1.00  0.00     0.010 A 
ATOM     98  C   UNL     1      -6.226 -10.649   1.574  1.00  0.00     0.020 A 
ATOM     99  C   UNL     1      -6.232  -8.489   0.468  1.00  0.00     0.020 A 
ATOM    100  C   UNL     1      -6.912  -9.619   0.929  1.00  0.00     0.054 A 
BRANCH 100 101
ATOM    101  S   UNL     1      -8.694  -9.823   0.674  1.00  0.00     0.124 S 
ATOM    102  O   UNL     1      -8.741 -10.888  -0.326  1.00  0.00    -0.237 OA
ATOM    103  O   UNL     1      -9.169 -10.197   2.004  1.00  0.00    -0.237 OA
ATOM    104  O   UNL     1      -9.138  -8.512   0.205  1.00  0.00    -0.744 OA
ENDBRANCH 100 101
ENDBRANCH  74  95
ENDBRANCH  48  49
ENDBRANCH  41  43
ENDBRANCH  40  41
ENDBRANCH  39  40
ENDBRANCH   1  39
TORSDOF 20
