REMARK SMILES Cc1nsc(N(C)C(=O)[C@@H](C)CCC[C@H](C)[NH3+])c1C(=O)OCCOC(=O)c1ccc(-c2c3nc(c(-c4ccc(S(=O)(=O)[O-])cc4)c4ccc([nH]4)c(-c4ccc(S(=O)(=O)[O-])cc4)c4nc(c(-c5ccc(S(=O)(=O)[O-])cc5)c5ccc2[nH]5)C=C4)C=C3)cc1
REMARK SMILES IDX 19 1 20 2 18 3 1 4 2 5 3 6 4 7 5 8 6 9 7 10 8 11 9 12 10 13
REMARK SMILES IDX 11 14 12 15 13 16 14 17 15 18 16 19 17 20 21 24 22 25 23 26
REMARK SMILES IDX 24 27 25 28 26 29 27 30 28 31 86 32 29 33 85 34 30 35 31 36
REMARK SMILES IDX 32 37 79 38 33 39 84 40 78 41 80 42 34 43 83 44 77 45 76 46
REMARK SMILES IDX 35 48 65 49 46 50 64 51 47 52 50 53 63 54 81 55 48 56 49 57
REMARK SMILES IDX 62 59 82 60 51 61 36 62 37 63 45 64 38 65 44 66 39 67 40 68
REMARK SMILES IDX 41 69 42 70 43 71 66 72 67 73 75 74 68 75 74 76 69 77 70 78
REMARK SMILES IDX 71 79 72 80 73 81 52 82 53 83 61 84 54 85 60 86 55 87 56 88
REMARK SMILES IDX 57 89 58 90 59 91
REMARK H PARENT 17 21 17 22 17 23 80 47 50 58
REMARK Flexibility Score: inf
ROOT
ATOM      1  C   UNL     1      -9.302   3.062  -6.991  1.00  0.00     0.343 C 
ATOM      2  O   UNL     1      -9.106   4.189  -6.540  1.00  0.00    -0.246 OA
ENDROOT
BRANCH   1   3
ATOM      3  C   UNL     1      -9.252   2.728  -8.401  1.00  0.00     0.117 A 
ATOM      4  C   UNL     1     -11.706   1.760  -8.477  1.00  0.00     0.069 C 
ATOM      5  C   UNL     1     -10.401   2.157  -9.086  1.00  0.00     0.068 A 
ATOM      6  N   UNL     1     -10.275   1.982 -10.398  1.00  0.00    -0.195 NA
ATOM      7  S   UNL     1      -8.748   2.371 -10.835  1.00  0.00    -0.017 S 
ATOM      8  C   UNL     1      -8.166   2.850  -9.276  1.00  0.00     0.133 A 
BRANCH   8   9
ATOM      9  N   UNL     1      -6.779   3.213  -9.188  1.00  0.00    -0.305 N 
ATOM     10  C   UNL     1      -5.958   3.338 -10.399  1.00  0.00     0.154 C 
BRANCH   9  11
ATOM     11  C   UNL     1      -6.174   3.248  -7.925  1.00  0.00     0.230 C 
ATOM     12  O   UNL     1      -6.750   2.908  -6.888  1.00  0.00    -0.274 OA
BRANCH  11  13
ATOM     13  C   UNL     1      -4.718   3.727  -7.726  1.00  0.00     0.076 C 
ATOM     14  C   UNL     1      -3.632   2.866  -8.366  1.00  0.00     0.018 C 
BRANCH  13  15
ATOM     15  C   UNL     1      -4.533   5.238  -7.948  1.00  0.00     0.013 C 
BRANCH  15  16
ATOM     16  C   UNL     1      -5.396   6.125  -7.029  1.00  0.00     0.007 C 
BRANCH  16  17
ATOM     17  C   UNL     1      -5.278   5.825  -5.526  1.00  0.00     0.064 C 
BRANCH  17  18
ATOM     18  C   UNL     1      -3.855   6.015  -4.965  1.00  0.00     0.177 C 
ATOM     19  C   UNL     1      -3.523   5.019  -3.850  1.00  0.00     0.075 C 
BRANCH  18  20
ATOM     20  N   UNL     1      -3.680   7.391  -4.487  1.00  0.00    -0.355 N 
ATOM     21  H   UNL     1      -4.332   7.570  -3.724  1.00  0.00     0.344 HD
ATOM     22  H   UNL     1      -3.863   8.042  -5.251  1.00  0.00     0.344 HD
ATOM     23  H   UNL     1      -2.724   7.516  -4.155  1.00  0.00     0.344 HD
ENDBRANCH  18  20
ENDBRANCH  17  18
ENDBRANCH  16  17
ENDBRANCH  15  16
ENDBRANCH  13  15
ENDBRANCH  11  13
ENDBRANCH   9  11
ENDBRANCH   8   9
ENDBRANCH   1   3
BRANCH   1  24
ATOM     24  O   UNL     1      -9.707   1.992  -6.255  1.00  0.00    -0.458 OA
BRANCH  24  25
ATOM     25  C   UNL     1      -9.359   1.978  -4.869  1.00  0.00     0.275 C 
BRANCH  25  26
ATOM     26  C   UNL     1      -8.635   0.669  -4.595  1.00  0.00     0.275 C 
BRANCH  26  27
ATOM     27  O   UNL     1      -7.329   0.681  -5.164  1.00  0.00    -0.458 OA
BRANCH  27  28
ATOM     28  C   UNL     1      -7.182   0.171  -6.410  1.00  0.00     0.338 C 
ATOM     29  O   UNL     1      -8.053  -0.074  -7.225  1.00  0.00    -0.246 OA
BRANCH  28  30
ATOM     30  C   UNL     1      -5.768  -0.230  -6.555  1.00  0.00     0.060 A 
ATOM     31  C   UNL     1      -5.325  -0.754  -7.774  1.00  0.00     0.016 A 
ATOM     32  C   UNL     1      -4.943  -0.248  -5.418  1.00  0.00     0.016 A 
ATOM     33  C   UNL     1      -4.097  -1.398  -7.815  1.00  0.00     0.010 A 
ATOM     34  C   UNL     1      -3.739  -0.909  -5.453  1.00  0.00     0.010 A 
ATOM     35  C   UNL     1      -3.347  -1.522  -6.636  1.00  0.00    -0.014 A 
BRANCH  35  36
ATOM     36  C   UNL     1      -2.066  -2.200  -6.663  1.00  0.00     0.031 A 
ATOM     37  C   UNL     1      -1.012  -1.446  -7.384  1.00  0.00     0.074 A 
ATOM     38  C   UNL     1      -1.809  -3.332  -5.978  1.00  0.00     0.049 A 
ATOM     39  N   UNL     1      -0.501  -1.745  -8.529  1.00  0.00    -0.248 NA
ATOM     40  C   UNL     1      -0.583  -0.139  -6.862  1.00  0.00     0.031 C 
ATOM     41  C   UNL     1      -2.658  -4.037  -5.012  1.00  0.00     0.029 A 
ATOM     42  N   UNL     1      -0.658  -4.055  -5.947  1.00  0.00    -0.354 N 
ATOM     43  C   UNL     1       0.476  -0.790  -8.779  1.00  0.00     0.074 A 
ATOM     44  C   UNL     1       0.280   0.253  -7.803  1.00  0.00     0.031 C 
ATOM     45  C   UNL     1      -1.914  -4.947  -4.338  1.00  0.00     0.029 A 
ATOM     46  C   UNL     1      -0.587  -4.999  -4.929  1.00  0.00     0.049 A 
ATOM     47  H   UNL     1       0.070  -3.920  -6.596  1.00  0.00     0.167 HD
ATOM     48  C   UNL     1       1.500  -1.045  -9.638  1.00  0.00     0.031 A 
ATOM     49  C   UNL     1       0.495  -5.750  -4.594  1.00  0.00     0.031 A 
ATOM     50  C   UNL     1       1.246  -2.225 -10.425  1.00  0.00     0.049 A 
ATOM     51  C   UNL     1       1.366  -5.804  -5.794  1.00  0.00     0.074 A 
ATOM     52  C   UNL     1       0.289  -2.590 -11.349  1.00  0.00     0.029 A 
ATOM     53  N   UNL     1       1.821  -3.396  -9.986  1.00  0.00    -0.354 N 
ATOM     54  N   UNL     1       1.009  -6.394  -6.901  1.00  0.00    -0.248 NA
ATOM     55  C   UNL     1       2.412  -4.803  -5.931  1.00  0.00     0.031 C 
ATOM     56  C   UNL     1       0.005  -3.956 -11.059  1.00  0.00     0.029 A 
ATOM     57  C   UNL     1       0.860  -4.372 -10.034  1.00  0.00     0.049 A 
ATOM     58  H   UNL     1       2.754  -3.512  -9.692  1.00  0.00     0.167 HD
ATOM     59  C   UNL     1       1.438  -5.542  -7.909  1.00  0.00     0.074 A 
ATOM     60  C   UNL     1       2.377  -4.629  -7.256  1.00  0.00     0.031 C 
ATOM     61  C   UNL     1       0.785  -5.482  -9.108  1.00  0.00     0.031 A 
BRANCH  48  62
ATOM     62  C   UNL     1       2.888  -0.480  -9.497  1.00  0.00    -0.014 A 
ATOM     63  C   UNL     1       3.840  -0.785 -10.492  1.00  0.00     0.010 A 
ATOM     64  C   UNL     1       3.368   0.084  -8.298  1.00  0.00     0.010 A 
ATOM     65  C   UNL     1       5.209  -0.609 -10.268  1.00  0.00     0.020 A 
ATOM     66  C   UNL     1       4.731   0.301  -8.079  1.00  0.00     0.020 A 
ATOM     67  C   UNL     1       5.645  -0.078  -9.054  1.00  0.00     0.054 A 
BRANCH  67  68
ATOM     68  S   UNL     1       7.423   0.052  -8.744  1.00  0.00     0.124 S 
ATOM     69  O   UNL     1       7.831  -1.349  -8.728  1.00  0.00    -0.237 OA
ATOM     70  O   UNL     1       7.878   0.832  -9.892  1.00  0.00    -0.237 OA
ATOM     71  O   UNL     1       7.496   0.742  -7.458  1.00  0.00    -0.744 OA
ENDBRANCH  67  68
ENDBRANCH  48  62
BRANCH  49  72
ATOM     72  C   UNL     1       0.984  -6.113  -3.237  1.00  0.00    -0.014 A 
ATOM     73  C   UNL     1       1.993  -7.081  -3.055  1.00  0.00     0.010 A 
ATOM     74  C   UNL     1       0.674  -5.282  -2.141  1.00  0.00     0.010 A 
ATOM     75  C   UNL     1       2.708  -7.169  -1.845  1.00  0.00     0.020 A 
ATOM     76  C   UNL     1       1.381  -5.365  -0.933  1.00  0.00     0.020 A 
ATOM     77  C   UNL     1       2.412  -6.292  -0.798  1.00  0.00     0.054 A 
BRANCH  77  78
ATOM     78  S   UNL     1       3.459  -6.282   0.691  1.00  0.00     0.124 S 
ATOM     79  O   UNL     1       3.105  -7.545   1.331  1.00  0.00    -0.237 OA
ATOM     80  O   UNL     1       4.807  -6.212   0.133  1.00  0.00    -0.237 OA
ATOM     81  O   UNL     1       3.027  -5.082   1.406  1.00  0.00    -0.744 OA
ENDBRANCH  77  78
ENDBRANCH  49  72
BRANCH  61  82
ATOM     82  C   UNL     1      -0.249  -6.543  -9.416  1.00  0.00    -0.014 A 
ATOM     83  C   UNL     1      -1.426  -6.745  -8.666  1.00  0.00     0.010 A 
ATOM     84  C   UNL     1      -0.084  -7.271 -10.607  1.00  0.00     0.010 A 
ATOM     85  C   UNL     1      -2.393  -7.675  -9.084  1.00  0.00     0.020 A 
ATOM     86  C   UNL     1      -1.049  -8.183 -11.038  1.00  0.00     0.020 A 
ATOM     87  C   UNL     1      -2.194  -8.391 -10.269  1.00  0.00     0.054 A 
BRANCH  87  88
ATOM     88  S   UNL     1      -3.450  -9.578 -10.824  1.00  0.00     0.124 S 
ATOM     89  O   UNL     1      -3.358 -10.632  -9.817  1.00  0.00    -0.237 OA
ATOM     90  O   UNL     1      -4.679  -8.787 -10.797  1.00  0.00    -0.237 OA
ATOM     91  O   UNL     1      -3.001  -9.961 -12.162  1.00  0.00    -0.744 OA
ENDBRANCH  87  88
ENDBRANCH  61  82
ENDBRANCH  35  36
ENDBRANCH  28  30
ENDBRANCH  27  28
ENDBRANCH  26  27
ENDBRANCH  25  26
ENDBRANCH  24  25
ENDBRANCH   1  24
TORSDOF 22
