REMARK SMILES O=C(OCCOC(=O)c1ccccc1Nc1cccc(S(F)(F)(F)(F)F)c1)c1ccc(-c2c3nc(c(-c4ccc(S(=O)(=O)[O-])cc4)c4ccc([nH]4)c(-c4ccc(S(=O)(=O)[O-])cc4)c4nc(c(-c5ccc(S(=O)(=O)[O-])cc5)c5ccc2[nH]5)C=C4)C=C3)cc1
REMARK SMILES IDX 4 1 3 2 2 3 1 4 28 5 29 6 87 7 30 8 86 9 31 10 32 11 33 12
REMARK SMILES IDX 80 13 34 14 85 15 79 16 81 17 35 18 84 19 78 20 77 21 36 23
REMARK SMILES IDX 66 24 47 25 65 26 48 27 51 28 64 29 82 30 49 31 50 32 63 34
REMARK SMILES IDX 83 35 52 36 37 37 38 38 46 39 39 40 45 41 40 42 41 43 42 44
REMARK SMILES IDX 43 45 44 46 67 47 68 48 76 49 69 50 75 51 70 52 71 53 72 54
REMARK SMILES IDX 73 55 74 56 53 57 54 58 62 59 55 60 61 61 56 62 57 63 58 64
REMARK SMILES IDX 59 65 60 66 5 67 6 68 7 69 8 70 9 71 10 72 14 73 11 74 13 75
REMARK SMILES IDX 12 76 15 77 16 79 17 80 27 81 18 82 20 83 19 84 21 85 22 86
REMARK SMILES IDX 23 87 24 88 25 89 26 90
REMARK H PARENT 81 22 51 33 15 78
REMARK Flexibility Score: inf
ROOT
ATOM      1  C   UNL     1       4.338   0.777  -1.051  1.00  0.00     0.275 C 
ENDROOT
BRANCH   1   2
ATOM      2  O   UNL     1       2.918   0.777  -1.051  1.00  0.00    -0.458 OA
BRANCH   2   3
ATOM      3  C   UNL     1       2.208   0.042  -0.066  1.00  0.00     0.338 C 
ATOM      4  O   UNL     1       0.937   0.042  -0.066  1.00  0.00    -0.246 OA
BRANCH   3   5
ATOM      5  C   UNL     1       2.968  -0.745   0.989  1.00  0.00     0.060 A 
ATOM      6  C   UNL     1       4.117  -0.170   1.506  1.00  0.00     0.016 A 
ATOM      7  C   UNL     1       2.616  -1.986   1.308  1.00  0.00     0.016 A 
ATOM      8  C   UNL     1       4.989  -1.092   2.131  1.00  0.00     0.010 A 
ATOM      9  C   UNL     1       3.461  -2.787   2.037  1.00  0.00     0.010 A 
ATOM     10  C   UNL     1       4.640  -2.302   2.529  1.00  0.00    -0.014 A 
BRANCH  10  11
ATOM     11  C   UNL     1       5.503  -3.111   3.484  1.00  0.00     0.031 A 
ATOM     12  C   UNL     1       6.017  -4.352   3.105  1.00  0.00     0.074 A 
ATOM     13  C   UNL     1       5.807  -2.479   4.678  1.00  0.00     0.049 A 
ATOM     14  N   UNL     1       6.885  -5.111   3.775  1.00  0.00    -0.248 NA
ATOM     15  C   UNL     1       5.669  -5.040   1.853  1.00  0.00     0.031 C 
ATOM     16  C   UNL     1       5.299  -1.223   5.064  1.00  0.00     0.029 A 
ATOM     17  N   UNL     1       6.630  -2.928   5.686  1.00  0.00    -0.354 N 
ATOM     18  C   UNL     1       7.156  -6.221   3.083  1.00  0.00     0.074 A 
ATOM     19  C   UNL     1       6.372  -6.194   1.841  1.00  0.00     0.031 C 
ATOM     20  C   UNL     1       5.799  -0.925   6.292  1.00  0.00     0.029 A 
ATOM     21  C   UNL     1       6.628  -1.989   6.694  1.00  0.00     0.049 A 
ATOM     22  H   UNL     1       7.132  -3.775   5.687  1.00  0.00     0.167 HD
ATOM     23  C   UNL     1       8.026  -7.252   3.440  1.00  0.00     0.031 A 
ATOM     24  C   UNL     1       7.304  -2.040   7.903  1.00  0.00     0.031 A 
ATOM     25  C   UNL     1       8.735  -7.283   4.630  1.00  0.00     0.049 A 
ATOM     26  C   UNL     1       8.129  -3.100   8.286  1.00  0.00     0.074 A 
ATOM     27  C   UNL     1       9.622  -8.311   5.001  1.00  0.00     0.029 A 
ATOM     28  N   UNL     1       8.714  -6.355   5.648  1.00  0.00    -0.354 N 
ATOM     29  N   UNL     1       8.430  -4.190   7.577  1.00  0.00    -0.248 NA
ATOM     30  C   UNL     1       8.824  -3.180   9.577  1.00  0.00     0.031 C 
ATOM     31  C   UNL     1      10.123  -8.013   6.230  1.00  0.00     0.029 A 
ATOM     32  C   UNL     1       9.555  -6.794   6.647  1.00  0.00     0.049 A 
ATOM     33  H   UNL     1       8.189  -5.522   5.660  1.00  0.00     0.167 HD
ATOM     34  C   UNL     1       9.266  -4.969   8.266  1.00  0.00     0.074 A 
ATOM     35  C   UNL     1       9.526  -4.335   9.565  1.00  0.00     0.031 C 
ATOM     36  C   UNL     1       9.826  -6.182   7.861  1.00  0.00     0.031 A 
BRANCH  23  37
ATOM     37  C   UNL     1       8.206  -8.407   2.468  1.00  0.00    -0.014 A 
ATOM     38  C   UNL     1       8.767  -8.083   1.244  1.00  0.00     0.010 A 
ATOM     39  C   UNL     1       7.919  -9.665   2.783  1.00  0.00     0.010 A 
ATOM     40  C   UNL     1       8.723  -9.134   0.297  1.00  0.00     0.020 A 
ATOM     41  C   UNL     1       8.029 -10.663   1.846  1.00  0.00     0.020 A 
ATOM     42  C   UNL     1       8.521 -10.404   0.596  1.00  0.00     0.054 A 
BRANCH  42  43
ATOM     43  S   UNL     1       8.876 -11.730  -0.583  1.00  0.00     0.124 S 
ATOM     44  O   UNL     1       8.027 -11.534  -1.842  1.00  0.00    -0.237 OA
ATOM     45  O   UNL     1      10.359 -11.697  -0.958  1.00  0.00    -0.237 OA
ATOM     46  O   UNL     1       8.501 -13.240   0.127  1.00  0.00    -0.744 OA
ENDBRANCH  42  43
ENDBRANCH  23  37
BRANCH  24  47
ATOM     47  C   UNL     1       7.137  -0.877   8.867  1.00  0.00    -0.014 A 
ATOM     48  C   UNL     1       8.229  -0.178   9.354  1.00  0.00     0.010 A 
ATOM     49  C   UNL     1       5.907  -0.618   9.295  1.00  0.00     0.010 A 
ATOM     50  C   UNL     1       7.951   0.586  10.512  1.00  0.00     0.020 A 
ATOM     51  C   UNL     1       5.698   0.244  10.345  1.00  0.00     0.020 A 
ATOM     52  C   UNL     1       6.739   0.924  10.913  1.00  0.00     0.054 A 
BRANCH  52  53
ATOM     53  S   UNL     1       6.470   2.220  12.148  1.00  0.00     0.124 S 
ATOM     54  O   UNL     1       7.169   1.832  13.454  1.00  0.00    -0.237 OA
ATOM     55  O   UNL     1       7.045   3.542  11.635  1.00  0.00    -0.237 OA
ATOM     56  O   UNL     1       4.793   2.399  12.431  1.00  0.00    -0.744 OA
ENDBRANCH  52  53
ENDBRANCH  24  47
BRANCH  36  57
ATOM     57  C   UNL     1      10.791  -6.875   8.809  1.00  0.00    -0.014 A 
ATOM     58  C   UNL     1      10.344  -7.160  10.089  1.00  0.00     0.010 A 
ATOM     59  C   UNL     1      12.044  -7.123   8.447  1.00  0.00     0.010 A 
ATOM     60  C   UNL     1      11.380  -7.442  11.009  1.00  0.00     0.020 A 
ATOM     61  C   UNL     1      12.974  -7.527   9.374  1.00  0.00     0.020 A 
ATOM     62  C   UNL     1      12.614  -7.771  10.671  1.00  0.00     0.054 A 
BRANCH  62  63
ATOM     63  S   UNL     1      13.766  -8.504  11.858  1.00  0.00     0.124 S 
ATOM     64  O   UNL     1      13.975  -7.540  13.028  1.00  0.00    -0.237 OA
ATOM     65  O   UNL     1      13.190  -9.822  12.381  1.00  0.00    -0.237 OA
ATOM     66  O   UNL     1      15.264  -8.802  11.090  1.00  0.00    -0.744 OA
ENDBRANCH  62  63
ENDBRANCH  36  57
ENDBRANCH  10  11
ENDBRANCH   3   5
ENDBRANCH   2   3
ENDBRANCH   1   2
BRANCH   1  67
ATOM     67  C   UNL     1       4.845   1.343   0.266  1.00  0.00     0.275 C 
BRANCH  67  68
ATOM     68  O   UNL     1       4.371   0.543   1.339  1.00  0.00    -0.458 OA
BRANCH  68  69
ATOM     69  C   UNL     1       2.975   0.388   1.546  1.00  0.00     0.340 C 
ATOM     70  O   UNL     1       2.149   0.965   0.772  1.00  0.00    -0.246 OA
BRANCH  69  71
ATOM     71  C   UNL     1       2.469  -0.470   2.695  1.00  0.00     0.083 A 
ATOM     72  C   UNL     1       1.334  -1.250   2.546  1.00  0.00     0.018 A 
ATOM     73  C   UNL     1       3.048  -0.316   3.880  1.00  0.00     0.053 A 
ATOM     74  C   UNL     1       0.713  -1.599   3.768  1.00  0.00     0.001 A 
ATOM     75  C   UNL     1       2.451  -0.801   5.018  1.00  0.00     0.027 A 
ATOM     76  C   UNL     1       1.297  -1.531   4.951  1.00  0.00     0.002 A 
BRANCH  73  77
ATOM     77  N   UNL     1       4.339   0.380   3.974  1.00  0.00    -0.355 N 
ATOM     78  H   UNL     1       4.771   0.729   3.161  1.00  0.00     0.167 HD
BRANCH  77  79
ATOM     79  C   UNL     1       4.987   0.554   5.282  1.00  0.00     0.040 A 
ATOM     80  C   UNL     1       5.262   1.831   5.742  1.00  0.00     0.026 A 
ATOM     81  C   UNL     1       5.311  -0.519   5.994  1.00  0.00     0.050 A 
ATOM     82  C   UNL     1       6.151   1.865   6.843  1.00  0.00     0.004 A 
ATOM     83  C   UNL     1       6.068  -0.399   7.135  1.00  0.00     0.109 A 
ATOM     84  C   UNL     1       6.426   0.830   7.615  1.00  0.00     0.024 A 
BRANCH  83  85
ATOM     85  S   UNL     1       6.597  -1.889   8.015  1.00  0.00     0.310 S 
ATOM     86  F   UNL     1       5.319  -1.682   8.932  1.00  0.00    -0.094 F 
ATOM     87  F   UNL     1       7.410  -1.061   9.081  1.00  0.00    -0.094 F 
ATOM     88  F   UNL     1       6.865  -3.208   8.794  1.00  0.00    -0.094 F 
ATOM     89  F   UNL     1       5.662  -2.679   7.017  1.00  0.00    -0.094 F 
ATOM     90  F   UNL     1       6.222  -0.542   7.278  1.00  0.00    -0.094 F 
ENDBRANCH  83  85
ENDBRANCH  77  79
ENDBRANCH  73  77
ENDBRANCH  69  71
ENDBRANCH  68  69
ENDBRANCH  67  68
ENDBRANCH   1  67
TORSDOF 17
