REMARK SMILES CCN(C)S(=O)(=O)N1CC[C@H](Cc2ccc(C(=O)OCCOC(=O)c3ccc(-c4c5nc(c(-c6ccc(S(=O)(=O)[O-])cc6)c6ccc([nH]6)c(-c6ccc(S(=O)(=O)[O-])cc6)c6nc(c(-c7ccc(S(=O)(=O)[O-])cc7)c7ccc4[nH]7)C=C6)C=C5)cc3)cc2)C1
REMARK SMILES IDX 20 1 19 2 17 3 18 4 16 5 13 6 14 7 86 8 15 9 85 10 12 11
REMARK SMILES IDX 11 12 8 13 9 14 87 15 10 16 5 17 6 18 7 19 3 20 4 21 2 22
REMARK SMILES IDX 1 23 21 24 22 25 23 26 24 27 25 28 26 29 84 30 27 31 83 32
REMARK SMILES IDX 28 33 29 34 30 35 77 36 31 37 82 38 76 39 78 40 32 41 81 42
REMARK SMILES IDX 75 43 74 44 33 46 63 47 44 48 62 49 45 50 48 51 61 52 79 53
REMARK SMILES IDX 46 54 47 55 60 57 80 58 49 59 34 60 35 61 43 62 36 63 42 64
REMARK SMILES IDX 37 65 38 66 39 67 40 68 41 69 64 70 65 71 73 72 66 73 72 74
REMARK SMILES IDX 67 75 68 76 69 77 70 78 71 79 50 80 51 81 59 82 52 83 58 84
REMARK SMILES IDX 53 85 54 86 55 87 56 88 57 89
REMARK H PARENT 78 45 48 56
REMARK Flexibility Score: inf
ROOT
ATOM      1  C   UNL     1      12.230   8.124  -0.070  1.00  0.00     0.275 C 
ENDROOT
BRANCH   1   2
ATOM      2  O   UNL     1      10.828   7.980  -0.380  1.00  0.00    -0.458 OA
BRANCH   2   3
ATOM      3  C   UNL     1      10.263   6.826   0.051  1.00  0.00     0.338 C 
ATOM      4  O   UNL     1      10.838   5.913   0.623  1.00  0.00    -0.246 OA
BRANCH   3   5
ATOM      5  C   UNL     1       8.805   6.806  -0.201  1.00  0.00     0.060 A 
ATOM      6  C   UNL     1       6.071   6.432  -0.679  1.00  0.00    -0.048 A 
ATOM      7  C   UNL     1       6.623   6.052   0.542  1.00  0.00     0.004 A 
ATOM      8  C   UNL     1       6.880   7.062  -1.637  1.00  0.00     0.004 A 
ATOM      9  C   UNL     1       7.982   6.207   0.757  1.00  0.00     0.016 A 
ATOM     10  C   UNL     1       8.246   7.258  -1.397  1.00  0.00     0.016 A 
BRANCH   6  11
ATOM     11  C   UNL     1       4.645   6.047  -0.959  1.00  0.00     0.040 C 
BRANCH  11  12
ATOM     12  C   UNL     1       4.525   5.013  -2.086  1.00  0.00     0.010 C 
ATOM     13  N   UNL     1       3.198   2.976  -2.299  1.00  0.00    -0.189 NA
ATOM     14  C   UNL     1       4.622   2.722  -2.683  1.00  0.00     0.104 C 
ATOM     15  C   UNL     1       3.096   4.463  -2.170  1.00  0.00     0.107 C 
ATOM     16  C   UNL     1       5.398   3.772  -1.913  1.00  0.00     0.022 C 
BRANCH  13  17
ATOM     17  S   UNL     1       2.726   2.063  -0.934  1.00  0.00     0.281 S 
ATOM     18  O   UNL     1       3.115   2.802   0.249  1.00  0.00    -0.195 OA
ATOM     19  O   UNL     1       3.185   0.715  -1.158  1.00  0.00    -0.195 OA
BRANCH  17  20
ATOM     20  N   UNL     1       1.022   2.042  -1.006  1.00  0.00    -0.192 NA
ATOM     21  C   UNL     1       0.353   3.360  -1.065  1.00  0.00     0.125 C 
BRANCH  20  22
ATOM     22  C   UNL     1       0.398   1.231   0.099  1.00  0.00     0.100 C 
ATOM     23  C   UNL     1       0.690  -0.254   0.010  1.00  0.00     0.022 C 
ENDBRANCH  20  22
ENDBRANCH  17  20
ENDBRANCH  13  17
ENDBRANCH  11  12
ENDBRANCH   6  11
ENDBRANCH   3   5
ENDBRANCH   2   3
ENDBRANCH   1   2
BRANCH   1  24
ATOM     24  C   UNL     1      12.456   8.968   1.187  1.00  0.00     0.275 C 
BRANCH  24  25
ATOM     25  O   UNL     1      12.058   8.270   2.383  1.00  0.00    -0.458 OA
BRANCH  25  26
ATOM     26  C   UNL     1      10.844   8.626   2.858  1.00  0.00     0.338 C 
ATOM     27  O   UNL     1      10.086   9.457   2.384  1.00  0.00    -0.246 OA
BRANCH  26  28
ATOM     28  C   UNL     1      10.460   7.820   4.026  1.00  0.00     0.060 A 
ATOM     29  C   UNL     1       9.808   6.621   3.783  1.00  0.00     0.016 A 
ATOM     30  C   UNL     1      10.454   8.363   5.306  1.00  0.00     0.016 A 
ATOM     31  C   UNL     1       8.963   6.078   4.745  1.00  0.00     0.010 A 
ATOM     32  C   UNL     1       9.746   7.710   6.327  1.00  0.00     0.010 A 
ATOM     33  C   UNL     1       8.923   6.602   6.044  1.00  0.00    -0.014 A 
BRANCH  33  34
ATOM     34  C   UNL     1       8.000   6.023   7.073  1.00  0.00     0.031 A 
ATOM     35  C   UNL     1       7.051   6.916   7.848  1.00  0.00     0.074 A 
ATOM     36  C   UNL     1       7.979   4.692   7.308  1.00  0.00     0.049 A 
ATOM     37  N   UNL     1       6.302   6.629   8.885  1.00  0.00    -0.248 NA
ATOM     38  C   UNL     1       6.947   8.319   7.416  1.00  0.00     0.031 C 
ATOM     39  C   UNL     1       8.790   3.689   6.611  1.00  0.00     0.029 A 
ATOM     40  N   UNL     1       7.236   3.946   8.192  1.00  0.00    -0.354 N 
ATOM     41  C   UNL     1       5.694   7.824   9.265  1.00  0.00     0.074 A 
ATOM     42  C   UNL     1       6.179   8.843   8.360  1.00  0.00     0.031 C 
ATOM     43  C   UNL     1       8.454   2.466   7.041  1.00  0.00     0.029 A 
ATOM     44  C   UNL     1       7.496   2.595   8.130  1.00  0.00     0.049 A 
ATOM     45  H   UNL     1       6.580   4.340   8.811  1.00  0.00     0.167 HD
ATOM     46  C   UNL     1       4.813   8.053  10.270  1.00  0.00     0.031 A 
ATOM     47  C   UNL     1       7.060   1.571   8.888  1.00  0.00     0.031 A 
ATOM     48  C   UNL     1       4.300   7.027  11.143  1.00  0.00     0.049 A 
ATOM     49  C   UNL     1       6.131   1.856  10.032  1.00  0.00     0.074 A 
ATOM     50  C   UNL     1       3.395   7.154  12.184  1.00  0.00     0.029 A 
ATOM     51  N   UNL     1       4.632   5.682  11.069  1.00  0.00    -0.354 N 
ATOM     52  N   UNL     1       5.614   3.000  10.408  1.00  0.00    -0.248 NA
ATOM     53  C   UNL     1       5.734   0.710  10.860  1.00  0.00     0.031 C 
ATOM     54  C   UNL     1       3.226   5.897  12.775  1.00  0.00     0.029 A 
ATOM     55  C   UNL     1       3.967   4.973  12.056  1.00  0.00     0.049 A 
ATOM     56  H   UNL     1       5.251   5.289  10.411  1.00  0.00     0.167 HD
ATOM     57  C   UNL     1       4.805   2.707  11.500  1.00  0.00     0.074 A 
ATOM     58  C   UNL     1       4.889   1.276  11.710  1.00  0.00     0.031 C 
ATOM     59  C   UNL     1       4.057   3.548  12.257  1.00  0.00     0.031 A 
BRANCH  46  60
ATOM     60  C   UNL     1       4.377   9.480  10.513  1.00  0.00    -0.014 A 
ATOM     61  C   UNL     1       3.561  10.173   9.599  1.00  0.00     0.010 A 
ATOM     62  C   UNL     1       4.769  10.131  11.699  1.00  0.00     0.010 A 
ATOM     63  C   UNL     1       3.194  11.502   9.840  1.00  0.00     0.020 A 
ATOM     64  C   UNL     1       4.375  11.447  11.960  1.00  0.00     0.020 A 
ATOM     65  C   UNL     1       3.608  12.132  11.018  1.00  0.00     0.054 A 
BRANCH  65  66
ATOM     66  S   UNL     1       3.114  13.854  11.305  1.00  0.00     0.124 S 
ATOM     67  O   UNL     1       3.934  14.570  10.331  1.00  0.00    -0.237 OA
ATOM     68  O   UNL     1       1.681  13.828  11.020  1.00  0.00    -0.237 OA
ATOM     69  O   UNL     1       3.463  14.088  12.704  1.00  0.00    -0.744 OA
ENDBRANCH  65  66
ENDBRANCH  46  60
BRANCH  47  70
ATOM     70  C   UNL     1       7.535   0.184   8.612  1.00  0.00    -0.014 A 
ATOM     71  C   UNL     1       6.643  -0.800   8.152  1.00  0.00     0.010 A 
ATOM     72  C   UNL     1       8.889  -0.156   8.795  1.00  0.00     0.010 A 
ATOM     73  C   UNL     1       7.092  -2.100   7.896  1.00  0.00     0.020 A 
ATOM     74  C   UNL     1       9.349  -1.443   8.504  1.00  0.00     0.020 A 
ATOM     75  C   UNL     1       8.443  -2.412   8.069  1.00  0.00     0.054 A 
BRANCH  75  76
ATOM     76  S   UNL     1       9.011  -4.091   7.686  1.00  0.00     0.124 S 
ATOM     77  O   UNL     1       8.445  -4.862   8.790  1.00  0.00    -0.237 OA
ATOM     78  O   UNL     1       8.416  -4.334   6.374  1.00  0.00    -0.237 OA
ATOM     79  O   UNL     1      10.467  -3.970   7.690  1.00  0.00    -0.744 OA
ENDBRANCH  75  76
ENDBRANCH  47  70
BRANCH  59  80
ATOM     80  C   UNL     1       3.223   2.931  13.348  1.00  0.00    -0.014 A 
ATOM     81  C   UNL     1       3.807   2.375  14.500  1.00  0.00     0.010 A 
ATOM     82  C   UNL     1       1.821   2.928  13.223  1.00  0.00     0.010 A 
ATOM     83  C   UNL     1       3.007   1.786  15.483  1.00  0.00     0.020 A 
ATOM     84  C   UNL     1       1.016   2.371  14.219  1.00  0.00     0.020 A 
ATOM     85  C   UNL     1       1.617   1.786  15.335  1.00  0.00     0.054 A 
BRANCH  85  86
ATOM     86  S   UNL     1       0.599   1.036  16.635  1.00  0.00     0.124 S 
ATOM     87  O   UNL     1       0.851  -0.388  16.435  1.00  0.00    -0.237 OA
ATOM     88  O   UNL     1       1.165   1.609  17.854  1.00  0.00    -0.237 OA
ATOM     89  O   UNL     1      -0.756   1.480  16.316  1.00  0.00    -0.744 OA
ENDBRANCH  85  86
ENDBRANCH  59  80
ENDBRANCH  33  34
ENDBRANCH  26  28
ENDBRANCH  25  26
ENDBRANCH  24  25
ENDBRANCH   1  24
TORSDOF 19
