REMARK SMILES CC1(C)[C@H](C(=O)N(Cc2ccccc2)Cc2ccccc2)CC[C@@]1(C)C(=O)OCCOC(=O)c1ccc(-c2c3nc(c(-c4ccc(S(=O)(=O)[O-])cc4)c4ccc([nH]4)c(-c4ccc(S(=O)(=O)[O-])cc4)c4nc(c(-c5ccc(S(=O)(=O)[O-])cc5)c5ccc2[nH]5)C=C4)C=C3)cc1
REMARK SMILES IDX 29 1 28 2 26 3 27 4 24 5 1 6 2 7 3 8 4 9 22 10 23 11 25 12
REMARK SMILES IDX 5 13 6 14 7 15 8 16 9 17 10 18 14 19 11 20 13 21 12 22 15 23
REMARK SMILES IDX 16 24 17 25 21 26 18 27 20 28 19 29 30 30 31 31 32 32 33 33
REMARK SMILES IDX 34 34 35 35 93 36 36 37 92 38 37 39 38 40 39 41 86 42 40 43
REMARK SMILES IDX 91 44 85 45 87 46 41 47 90 48 84 49 83 50 42 52 72 53 53 54
REMARK SMILES IDX 71 55 54 56 57 57 70 58 88 59 55 60 56 61 69 63 89 64 58 65
REMARK SMILES IDX 43 66 44 67 52 68 45 69 51 70 46 71 47 72 48 73 49 74 50 75
REMARK SMILES IDX 73 76 74 77 82 78 75 79 81 80 76 81 77 82 78 83 79 84 80 85
REMARK SMILES IDX 59 86 60 87 68 88 61 89 67 90 62 91 63 92 64 93 65 94 66 95
REMARK H PARENT 87 51 57 62
REMARK Flexibility Score: inf
ROOT
ATOM      1  C   UNL     1       2.605   3.569  -1.277  1.00  0.00     0.274 C 
ENDROOT
BRANCH   1   2
ATOM      2  O   UNL     1       1.417   3.192  -0.556  1.00  0.00    -0.462 OA
BRANCH   2   3
ATOM      3  C   UNL     1       1.562   2.270   0.435  1.00  0.00     0.312 C 
ATOM      4  O   UNL     1       2.644   1.806   0.770  1.00  0.00    -0.252 OA
BRANCH   3   5
ATOM      5  C   UNL     1       0.207   1.804   1.021  1.00  0.00     0.071 C 
ATOM      6  C   UNL     1       0.817  -0.362  -0.328  1.00  0.00     0.013 C 
ATOM      7  C   UNL     1       0.067   0.230   0.890  1.00  0.00    -0.008 C 
ATOM      8  C   UNL     1      -1.388  -0.171   0.688  1.00  0.00     0.013 C 
ATOM      9  C   UNL     1       0.700  -0.289   2.221  1.00  0.00     0.085 C 
ATOM     10  C   UNL     1       0.571   0.798   3.278  1.00  0.00     0.015 C 
ATOM     11  C   UNL     1       0.124   2.060   2.549  1.00  0.00     0.020 C 
ATOM     12  C   UNL     1      -0.937   2.624   0.380  1.00  0.00     0.024 C 
BRANCH   9  13
ATOM     13  C   UNL     1       0.511  -1.737   2.713  1.00  0.00     0.226 C 
ATOM     14  O   UNL     1       1.551  -2.411   2.784  1.00  0.00    -0.275 OA
ATOM     15  N   UNL     1      -0.707  -2.331   3.035  1.00  0.00    -0.334 N 
BRANCH  15  16
ATOM     16  C   UNL     1      -1.894  -1.633   3.568  1.00  0.00     0.155 C 
BRANCH  16  17
ATOM     17  C   UNL     1      -3.196  -1.704   2.783  1.00  0.00    -0.029 A 
ATOM     18  C   UNL     1      -4.014  -0.557   2.728  1.00  0.00     0.005 A 
ATOM     19  C   UNL     1      -3.640  -2.840   2.102  1.00  0.00     0.005 A 
ATOM     20  C   UNL     1      -5.154  -0.513   1.919  1.00  0.00     0.000 A 
ATOM     21  C   UNL     1      -4.788  -2.806   1.304  1.00  0.00     0.000 A 
ATOM     22  C   UNL     1      -5.532  -1.636   1.193  1.00  0.00     0.000 A 
ENDBRANCH  16  17
ENDBRANCH  15  16
BRANCH  15  23
ATOM     23  C   UNL     1      -0.645  -3.789   3.271  1.00  0.00     0.155 C 
BRANCH  23  24
ATOM     24  C   UNL     1      -0.672  -4.658   2.019  1.00  0.00    -0.029 A 
ATOM     25  C   UNL     1      -1.310  -5.910   2.063  1.00  0.00     0.005 A 
ATOM     26  C   UNL     1      -0.026  -4.298   0.828  1.00  0.00     0.005 A 
ATOM     27  C   UNL     1      -1.339  -6.742   0.939  1.00  0.00     0.000 A 
ATOM     28  C   UNL     1      -0.051  -5.128  -0.294  1.00  0.00     0.000 A 
ATOM     29  C   UNL     1      -0.714  -6.348  -0.241  1.00  0.00     0.000 A 
ENDBRANCH  23  24
ENDBRANCH  15  23
ENDBRANCH   9  13
ENDBRANCH   3   5
ENDBRANCH   2   3
ENDBRANCH   1   2
BRANCH   1  30
ATOM     30  C   UNL     1       3.228   4.856  -0.733  1.00  0.00     0.275 C 
BRANCH  30  31
ATOM     31  O   UNL     1       3.923   4.630   0.506  1.00  0.00    -0.458 OA
BRANCH  31  32
ATOM     32  C   UNL     1       3.190   4.858   1.621  1.00  0.00     0.338 C 
ATOM     33  O   UNL     1       2.045   5.269   1.681  1.00  0.00    -0.246 OA
BRANCH  32  34
ATOM     34  C   UNL     1       3.938   4.410   2.804  1.00  0.00     0.060 A 
ATOM     35  C   UNL     1       3.568   3.197   3.380  1.00  0.00     0.016 A 
ATOM     36  C   UNL     1       4.892   5.215   3.421  1.00  0.00     0.016 A 
ATOM     37  C   UNL     1       4.092   2.797   4.597  1.00  0.00     0.010 A 
ATOM     38  C   UNL     1       5.460   4.792   4.630  1.00  0.00     0.010 A 
ATOM     39  C   UNL     1       5.044   3.591   5.237  1.00  0.00    -0.014 A 
BRANCH  39  40
ATOM     40  C   UNL     1       5.530   3.182   6.575  1.00  0.00     0.031 A 
ATOM     41  C   UNL     1       5.176   4.011   7.777  1.00  0.00     0.074 A 
ATOM     42  C   UNL     1       6.221   2.035   6.721  1.00  0.00     0.049 A 
ATOM     43  N   UNL     1       5.605   3.905   9.006  1.00  0.00    -0.248 NA
ATOM     44  C   UNL     1       4.214   5.106   7.565  1.00  0.00     0.031 C 
ATOM     45  C   UNL     1       6.544   1.096   5.643  1.00  0.00     0.029 A 
ATOM     46  N   UNL     1       6.761   1.454   7.840  1.00  0.00    -0.354 N 
ATOM     47  C   UNL     1       5.015   4.953   9.702  1.00  0.00     0.074 A 
ATOM     48  C   UNL     1       4.187   5.676   8.762  1.00  0.00     0.031 C 
ATOM     49  C   UNL     1       7.203   0.047   6.158  1.00  0.00     0.029 A 
ATOM     50  C   UNL     1       7.417   0.274   7.583  1.00  0.00     0.049 A 
ATOM     51  H   UNL     1       6.685   1.845   8.740  1.00  0.00     0.167 HD
ATOM     52  C   UNL     1       5.166   5.286  11.006  1.00  0.00     0.031 A 
ATOM     53  C   UNL     1       8.147  -0.514   8.394  1.00  0.00     0.031 A 
ATOM     54  C   UNL     1       5.968   4.539  11.937  1.00  0.00     0.049 A 
ATOM     55  C   UNL     1       8.329  -0.106   9.828  1.00  0.00     0.074 A 
ATOM     56  C   UNL     1       6.205   4.800  13.275  1.00  0.00     0.029 A 
ATOM     57  N   UNL     1       6.652   3.372  11.629  1.00  0.00    -0.354 N 
ATOM     58  N   UNL     1       7.834   0.935  10.455  1.00  0.00    -0.248 NA
ATOM     59  C   UNL     1       9.183  -0.965  10.658  1.00  0.00     0.031 C 
ATOM     60  C   UNL     1       7.060   3.806  13.767  1.00  0.00     0.029 A 
ATOM     61  C   UNL     1       7.320   2.905  12.747  1.00  0.00     0.049 A 
ATOM     62  H   UNL     1       6.660   2.940  10.744  1.00  0.00     0.167 HD
ATOM     63  C   UNL     1       8.318   0.857  11.755  1.00  0.00     0.074 A 
ATOM     64  C   UNL     1       9.123  -0.346  11.830  1.00  0.00     0.031 C 
ATOM     65  C   UNL     1       8.121   1.709  12.791  1.00  0.00     0.031 A 
BRANCH  52  66
ATOM     66  C   UNL     1       4.502   6.552  11.474  1.00  0.00    -0.014 A 
ATOM     67  C   UNL     1       3.115   6.622  11.691  1.00  0.00     0.010 A 
ATOM     68  C   UNL     1       5.292   7.693  11.707  1.00  0.00     0.010 A 
ATOM     69  C   UNL     1       2.525   7.824  12.093  1.00  0.00     0.020 A 
ATOM     70  C   UNL     1       4.708   8.890  12.129  1.00  0.00     0.020 A 
ATOM     71  C   UNL     1       3.325   8.953  12.300  1.00  0.00     0.054 A 
BRANCH  71  72
ATOM     72  S   UNL     1       2.539  10.502  12.824  1.00  0.00     0.124 S 
ATOM     73  O   UNL     1       1.958  10.982  11.572  1.00  0.00    -0.237 OA
ATOM     74  O   UNL     1       1.579  10.055  13.830  1.00  0.00    -0.237 OA
ATOM     75  O   UNL     1       3.651  11.297  13.340  1.00  0.00    -0.744 OA
ENDBRANCH  71  72
ENDBRANCH  52  66
BRANCH  53  76
ATOM     76  C   UNL     1       8.811  -1.726   7.843  1.00  0.00    -0.014 A 
ATOM     77  C   UNL     1       8.361  -3.013   8.182  1.00  0.00     0.010 A 
ATOM     78  C   UNL     1       9.884  -1.592   6.941  1.00  0.00     0.010 A 
ATOM     79  C   UNL     1       8.973  -4.144   7.632  1.00  0.00     0.020 A 
ATOM     80  C   UNL     1      10.481  -2.717   6.370  1.00  0.00     0.020 A 
ATOM     81  C   UNL     1      10.028  -3.989   6.727  1.00  0.00     0.054 A 
BRANCH  81  82
ATOM     82  S   UNL     1      10.768  -5.462   5.968  1.00  0.00     0.124 S 
ATOM     83  O   UNL     1      11.662  -5.929   7.022  1.00  0.00    -0.237 OA
ATOM     84  O   UNL     1       9.606  -6.307   5.704  1.00  0.00    -0.237 OA
ATOM     85  O   UNL     1      11.426  -4.934   4.774  1.00  0.00    -0.744 OA
ENDBRANCH  81  82
ENDBRANCH  53  76
BRANCH  65  86
ATOM     86  C   UNL     1       8.778   1.357  14.096  1.00  0.00    -0.014 A 
ATOM     87  C   UNL     1      10.155   1.562  14.288  1.00  0.00     0.010 A 
ATOM     88  C   UNL     1       7.999   0.857  15.154  1.00  0.00     0.010 A 
ATOM     89  C   UNL     1      10.749   1.245  15.512  1.00  0.00     0.020 A 
ATOM     90  C   UNL     1       8.586   0.558  16.385  1.00  0.00     0.020 A 
ATOM     91  C   UNL     1       9.961   0.741  16.552  1.00  0.00     0.054 A 
BRANCH  91  92
ATOM     92  S   UNL     1      10.744   0.372  18.146  1.00  0.00     0.124 S 
ATOM     93  O   UNL     1      11.391  -0.909  17.876  1.00  0.00    -0.237 OA
ATOM     94  O   UNL     1      11.647   1.505  18.334  1.00  0.00    -0.237 OA
ATOM     95  O   UNL     1       9.620   0.320  19.077  1.00  0.00    -0.744 OA
ENDBRANCH  91  92
ENDBRANCH  65  86
ENDBRANCH  39  40
ENDBRANCH  32  34
ENDBRANCH  31  32
ENDBRANCH  30  31
ENDBRANCH   1  30
TORSDOF 19
