REMARK SMILES Cc1ccc(C)c(N2C(=O)C[C@@H](SCC(=O)OCCOC(=O)c3ccc(-c4c5nc(c(-c6ccc(S(=O)(=O)[O-])cc6)c6ccc([nH]6)c(-c6ccc(S(=O)(=O)[O-])cc6)c6nc(c(-c7ccc(S(=O)(=O)[O-])cc7)c7ccc4[nH]7)C=C6)C=C5)cc3)C2=O)c1
REMARK SMILES IDX 18 1 17 2 15 3 16 4 14 5 13 6 12 7 8 8 9 9 83 10 10 11 11 12
REMARK SMILES IDX 84 13 7 14 1 15 2 16 3 17 85 18 4 19 5 20 6 21 19 22 20 23
REMARK SMILES IDX 21 24 22 25 23 26 24 27 82 28 25 29 81 30 26 31 27 32 28 33
REMARK SMILES IDX 75 34 29 35 80 36 74 37 76 38 30 39 79 40 73 41 72 42 31 44
REMARK SMILES IDX 61 45 42 46 60 47 43 48 46 49 59 50 77 51 44 52 45 53 58 55
REMARK SMILES IDX 78 56 47 57 32 58 33 59 41 60 34 61 40 62 35 63 36 64 37 65
REMARK SMILES IDX 38 66 39 67 62 68 63 69 71 70 64 71 70 72 65 73 66 74 67 75
REMARK SMILES IDX 68 76 69 77 48 78 49 79 57 80 50 81 56 82 51 83 52 84 53 85
REMARK SMILES IDX 54 86 55 87
REMARK H PARENT 76 43 46 54
REMARK Flexibility Score: inf
ROOT
ATOM      1  C   UNL     1      -4.497   6.159   3.312  1.00  0.00     0.274 C 
ENDROOT
BRANCH   1   2
ATOM      2  O   UNL     1      -4.715   5.142   2.332  1.00  0.00    -0.461 OA
BRANCH   2   3
ATOM      3  C   UNL     1      -5.842   5.228   1.585  1.00  0.00     0.316 C 
ATOM      4  O   UNL     1      -6.827   5.877   1.907  1.00  0.00    -0.251 OA
BRANCH   3   5
ATOM      5  C   UNL     1      -5.674   4.606   0.217  1.00  0.00     0.192 C 
BRANCH   5   6
ATOM      6  S   UNL     1      -4.669   3.096   0.164  1.00  0.00    -0.136 SA
BRANCH   6   7
ATOM      7  C   UNL     1      -2.974   3.762   0.461  1.00  0.00     0.146 C 
ATOM      8  N   UNL     1      -1.339   2.215  -0.110  1.00  0.00    -0.249 N 
ATOM      9  C   UNL     1      -1.299   3.141  -1.118  1.00  0.00     0.235 C 
ATOM     10  C   UNL     1      -2.137   2.603   0.934  1.00  0.00     0.247 C 
ATOM     11  O   UNL     1      -0.603   3.130  -2.124  1.00  0.00    -0.274 OA
ATOM     12  C   UNL     1      -2.253   4.250  -0.782  1.00  0.00     0.125 C 
ATOM     13  O   UNL     1      -2.185   2.128   2.062  1.00  0.00    -0.273 OA
BRANCH   8  14
ATOM     14  C   UNL     1      -0.606   1.017  -0.097  1.00  0.00     0.055 A 
ATOM     15  C   UNL     1       3.051  -0.047  -0.092  1.00  0.00     0.044 C 
ATOM     16  C   UNL     1       1.554  -0.098  -0.080  1.00  0.00    -0.049 A 
ATOM     17  C   UNL     1       0.900  -1.329   0.039  1.00  0.00     0.004 A 
ATOM     18  C   UNL     1       0.792   1.072  -0.172  1.00  0.00     0.030 A 
ATOM     19  C   UNL     1      -0.492  -1.391   0.079  1.00  0.00     0.006 A 
ATOM     20  C   UNL     1      -1.264  -0.225   0.007  1.00  0.00    -0.027 A 
ATOM     21  C   UNL     1      -2.762  -0.370   0.013  1.00  0.00     0.046 C 
ENDBRANCH   8  14
ENDBRANCH   6   7
ENDBRANCH   5   6
ENDBRANCH   3   5
ENDBRANCH   2   3
ENDBRANCH   1   2
BRANCH   1  22
ATOM     22  C   UNL     1      -3.101   6.752   3.078  1.00  0.00     0.275 C 
BRANCH  22  23
ATOM     23  O   UNL     1      -2.708   7.004   1.686  1.00  0.00    -0.458 OA
BRANCH  23  24
ATOM     24  C   UNL     1      -3.379   7.602   0.668  1.00  0.00     0.338 C 
ATOM     25  O   UNL     1      -3.104   7.345  -0.500  1.00  0.00    -0.246 OA
BRANCH  24  26
ATOM     26  C   UNL     1      -4.514   8.481   0.986  1.00  0.00     0.060 A 
ATOM     27  C   UNL     1      -5.651   8.466   0.163  1.00  0.00     0.016 A 
ATOM     28  C   UNL     1      -4.505   9.220   2.157  1.00  0.00     0.016 A 
ATOM     29  C   UNL     1      -6.838   9.034   0.621  1.00  0.00     0.010 A 
ATOM     30  C   UNL     1      -5.707   9.671   2.660  1.00  0.00     0.010 A 
ATOM     31  C   UNL     1      -6.886   9.577   1.908  1.00  0.00    -0.014 A 
BRANCH  31  32
ATOM     32  C   UNL     1      -8.172   9.916   2.532  1.00  0.00     0.031 A 
ATOM     33  C   UNL     1      -9.248   8.874   2.530  1.00  0.00     0.074 A 
ATOM     34  C   UNL     1      -8.333  10.984   3.342  1.00  0.00     0.049 A 
ATOM     35  N   UNL     1     -10.409   8.931   1.960  1.00  0.00    -0.248 NA
ATOM     36  C   UNL     1      -8.998   7.604   3.223  1.00  0.00     0.031 C 
ATOM     37  C   UNL     1      -7.330  11.982   3.732  1.00  0.00     0.029 A 
ATOM     38  N   UNL     1      -9.406  11.313   4.115  1.00  0.00    -0.354 N 
ATOM     39  C   UNL     1     -11.108   7.790   2.363  1.00  0.00     0.074 A 
ATOM     40  C   UNL     1     -10.143   6.947   3.022  1.00  0.00     0.031 C 
ATOM     41  C   UNL     1      -7.739  12.617   4.850  1.00  0.00     0.029 A 
ATOM     42  C   UNL     1      -9.113  12.234   5.107  1.00  0.00     0.049 A 
ATOM     43  H   UNL     1     -10.305  10.933   3.980  1.00  0.00     0.167 HD
ATOM     44  C   UNL     1     -12.471   7.715   2.306  1.00  0.00     0.031 A 
ATOM     45  C   UNL     1      -9.941  12.702   6.065  1.00  0.00     0.031 A 
ATOM     46  C   UNL     1     -13.031   8.851   1.622  1.00  0.00     0.049 A 
ATOM     47  C   UNL     1     -11.322  12.567   5.557  1.00  0.00     0.074 A 
ATOM     48  C   UNL     1     -13.061   9.333   0.333  1.00  0.00     0.029 A 
ATOM     49  N   UNL     1     -13.429   9.876   2.443  1.00  0.00    -0.354 N 
ATOM     50  N   UNL     1     -11.745  13.196   4.496  1.00  0.00    -0.248 NA
ATOM     51  C   UNL     1     -12.177  11.483   6.016  1.00  0.00     0.031 C 
ATOM     52  C   UNL     1     -13.128  10.753   0.464  1.00  0.00     0.029 A 
ATOM     53  C   UNL     1     -13.167  11.069   1.824  1.00  0.00     0.049 A 
ATOM     54  H   UNL     1     -13.837   9.771   3.333  1.00  0.00     0.167 HD
ATOM     55  C   UNL     1     -12.647  12.327   3.911  1.00  0.00     0.074 A 
ATOM     56  C   UNL     1     -13.013  11.401   4.975  1.00  0.00     0.031 C 
ATOM     57  C   UNL     1     -12.777  12.261   2.553  1.00  0.00     0.031 A 
BRANCH  44  58
ATOM     58  C   UNL     1     -13.360   6.870   3.202  1.00  0.00    -0.014 A 
ATOM     59  C   UNL     1     -14.760   6.914   2.991  1.00  0.00     0.010 A 
ATOM     60  C   UNL     1     -12.923   6.288   4.407  1.00  0.00     0.010 A 
ATOM     61  C   UNL     1     -15.669   6.499   3.974  1.00  0.00     0.020 A 
ATOM     62  C   UNL     1     -13.824   5.832   5.379  1.00  0.00     0.020 A 
ATOM     63  C   UNL     1     -15.191   5.984   5.176  1.00  0.00     0.054 A 
BRANCH  63  64
ATOM     64  S   UNL     1     -16.364   5.600   6.503  1.00  0.00     0.124 S 
ATOM     65  O   UNL     1     -16.840   6.929   6.875  1.00  0.00    -0.237 OA
ATOM     66  O   UNL     1     -17.336   4.746   5.826  1.00  0.00    -0.237 OA
ATOM     67  O   UNL     1     -15.540   4.926   7.503  1.00  0.00    -0.744 OA
ENDBRANCH  63  64
ENDBRANCH  44  58
BRANCH  45  68
ATOM     68  C   UNL     1      -9.596  13.148   7.426  1.00  0.00    -0.014 A 
ATOM     69  C   UNL     1     -10.404  14.057   8.122  1.00  0.00     0.010 A 
ATOM     70  C   UNL     1      -8.586  12.466   8.138  1.00  0.00     0.010 A 
ATOM     71  C   UNL     1     -10.251  14.235   9.505  1.00  0.00     0.020 A 
ATOM     72  C   UNL     1      -8.427  12.639   9.516  1.00  0.00     0.020 A 
ATOM     73  C   UNL     1      -9.279  13.505  10.197  1.00  0.00     0.054 A 
BRANCH  73  74
ATOM     74  S   UNL     1      -9.227  13.597  12.011  1.00  0.00     0.124 S 
ATOM     75  O   UNL     1      -8.702  14.940  12.239  1.00  0.00    -0.237 OA
ATOM     76  O   UNL     1     -10.626  13.394  12.378  1.00  0.00    -0.237 OA
ATOM     77  O   UNL     1      -8.328  12.507  12.385  1.00  0.00    -0.744 OA
ENDBRANCH  73  74
ENDBRANCH  45  68
BRANCH  57  78
ATOM     78  C   UNL     1     -12.241  13.415   1.737  1.00  0.00    -0.014 A 
ATOM     79  C   UNL     1     -10.878  13.762   1.683  1.00  0.00     0.010 A 
ATOM     80  C   UNL     1     -13.139  14.103   0.904  1.00  0.00     0.010 A 
ATOM     81  C   UNL     1     -10.428  14.789   0.842  1.00  0.00     0.020 A 
ATOM     82  C   UNL     1     -12.696  15.114   0.047  1.00  0.00     0.020 A 
ATOM     83  C   UNL     1     -11.344  15.460   0.028  1.00  0.00     0.054 A 
BRANCH  83  84
ATOM     84  S   UNL     1     -10.750  16.759  -1.091  1.00  0.00     0.124 S 
ATOM     85  O   UNL     1     -10.400  17.836  -0.169  1.00  0.00    -0.237 OA
ATOM     86  O   UNL     1      -9.623  16.118  -1.766  1.00  0.00    -0.237 OA
ATOM     87  O   UNL     1     -11.902  17.030  -1.951  1.00  0.00    -0.744 OA
ENDBRANCH  83  84
ENDBRANCH  57  78
ENDBRANCH  31  32
ENDBRANCH  24  26
ENDBRANCH  23  24
ENDBRANCH  22  23
ENDBRANCH   1  22
TORSDOF 17
