REMARK SMILES O=C(Cn1nc(C(=O)OCCOC(=O)c2ccc(-c3c4nc(c(-c5ccc(S(=O)(=O)[O-])cc5)c5ccc([nH]5)c(-c5ccc(S(=O)(=O)[O-])cc5)c5nc(c(-c6ccc(S(=O)(=O)[O-])cc6)c6ccc3[nH]6)C=C5)C=C4)cc2)c2ccccc2c1=O)Nc1ccc2c(c1)C(=O)c1ccccc1C2=O
REMARK SMILES IDX 10 1 9 2 7 3 8 4 6 5 4 6 5 7 81 8 80 9 82 10 75 11 79 12
REMARK SMILES IDX 76 13 78 14 77 15 3 16 2 17 1 18 83 19 84 21 85 22 89 23
REMARK SMILES IDX 86 24 88 25 87 26 90 27 98 28 91 29 92 30 97 31 99 32 93 33
REMARK SMILES IDX 96 34 94 35 95 36 11 37 12 38 13 39 14 40 15 41 16 42 74 43
REMARK SMILES IDX 17 44 73 45 18 46 19 47 20 48 67 49 21 50 72 51 66 52 68 53
REMARK SMILES IDX 22 54 71 55 65 56 64 57 23 59 53 60 34 61 52 62 35 63 38 64
REMARK SMILES IDX 51 65 69 66 36 67 37 68 50 70 70 71 39 72 24 73 25 74 33 75
REMARK SMILES IDX 26 76 32 77 27 78 28 79 29 80 30 81 31 82 54 83 55 84 63 85
REMARK SMILES IDX 56 86 62 87 57 88 58 89 59 90 60 91 61 92 40 93 41 94 49 95
REMARK SMILES IDX 42 96 48 97 43 98 44 99 45 100 46 101 47 102
REMARK H PARENT 83 20 68 58 38 69
REMARK Flexibility Score: inf
ROOT
ATOM      1  C   UNL     1       2.373  -4.570   2.885  1.00  0.00     0.275 C 
ENDROOT
BRANCH   1   2
ATOM      2  O   UNL     1       3.124  -3.443   2.361  1.00  0.00    -0.457 OA
BRANCH   2   3
ATOM      3  C   UNL     1       3.424  -2.495   3.269  1.00  0.00     0.359 C 
ATOM      4  O   UNL     1       3.297  -2.575   4.480  1.00  0.00    -0.244 OA
BRANCH   3   5
ATOM      5  C   UNL     1       3.911  -1.179   2.647  1.00  0.00     0.176 A 
ATOM      6  N   UNL     1       3.461   0.736   1.407  1.00  0.00    -0.219 N 
ATOM      7  N   UNL     1       3.119  -0.558   1.812  1.00  0.00    -0.161 NA
ATOM      8  C   UNL     1       4.492   1.474   2.006  1.00  0.00     0.275 A 
ATOM      9  C   UNL     1       5.389   0.749   2.917  1.00  0.00     0.051 A 
ATOM     10  O   UNL     1       4.691   2.667   1.799  1.00  0.00    -0.267 OA
ATOM     11  C   UNL     1       5.166  -0.596   3.153  1.00  0.00     0.022 A 
ATOM     12  C   UNL     1       6.475   1.400   3.520  1.00  0.00     0.014 A 
ATOM     13  C   UNL     1       6.090  -1.317   3.907  1.00  0.00     0.011 A 
ATOM     14  C   UNL     1       7.360   0.686   4.328  1.00  0.00     0.001 A 
ATOM     15  C   UNL     1       7.182  -0.682   4.501  1.00  0.00     0.001 A 
BRANCH   6  16
ATOM     16  C   UNL     1       2.546   1.478   0.508  1.00  0.00     0.248 C 
BRANCH  16  17
ATOM     17  C   UNL     1       2.006   0.762  -0.741  1.00  0.00     0.246 C 
ATOM     18  O   UNL     1       1.525   1.374  -1.691  1.00  0.00    -0.273 OA
ATOM     19  N   UNL     1       1.961  -0.596  -0.578  1.00  0.00    -0.324 N 
ATOM     20  H   UNL     1       2.211  -0.909   0.322  1.00  0.00     0.169 HD
BRANCH  19  21
ATOM     21  C   UNL     1       1.620  -1.609  -1.472  1.00  0.00     0.042 A 
ATOM     22  C   UNL     1       1.487  -1.461  -2.857  1.00  0.00     0.027 A 
ATOM     23  C   UNL     1       1.559  -2.873  -0.898  1.00  0.00     0.039 A 
ATOM     24  C   UNL     1       1.424  -2.601  -3.682  1.00  0.00     0.015 A 
ATOM     25  C   UNL     1       1.527  -3.989  -1.715  1.00  0.00     0.036 A 
ATOM     26  C   UNL     1       1.516  -3.869  -3.101  1.00  0.00     0.034 A 
ATOM     27  C   UNL     1       1.820  -5.283  -1.101  1.00  0.00     0.194 C 
ATOM     28  C   UNL     1       1.865  -5.072  -3.901  1.00  0.00     0.194 C 
ATOM     29  O   UNL     1       1.379  -5.610  -0.008  1.00  0.00    -0.289 OA
ATOM     30  C   UNL     1       2.796  -6.086  -1.836  1.00  0.00     0.034 A 
ATOM     31  C   UNL     1       2.784  -6.033  -3.230  1.00  0.00     0.034 A 
ATOM     32  O   UNL     1       1.532  -5.194  -5.070  1.00  0.00    -0.289 OA
ATOM     33  C   UNL     1       3.824  -6.719  -1.144  1.00  0.00     0.013 A 
ATOM     34  C   UNL     1       3.764  -6.715  -3.948  1.00  0.00     0.013 A 
ATOM     35  C   UNL     1       4.846  -7.328  -1.858  1.00  0.00     0.001 A 
ATOM     36  C   UNL     1       4.801  -7.352  -3.254  1.00  0.00     0.001 A 
ENDBRANCH  19  21
ENDBRANCH  16  17
ENDBRANCH   6  16
ENDBRANCH   3   5
ENDBRANCH   2   3
ENDBRANCH   1   2
BRANCH   1  37
ATOM     37  C   UNL     1       3.152  -5.883   2.859  1.00  0.00     0.275 C 
BRANCH  37  38
ATOM     38  O   UNL     1       4.300  -5.775   3.707  1.00  0.00    -0.458 OA
BRANCH  38  39
ATOM     39  C   UNL     1       5.519  -5.892   3.130  1.00  0.00     0.338 C 
ATOM     40  O   UNL     1       5.770  -6.184   1.974  1.00  0.00    -0.246 OA
BRANCH  39  41
ATOM     41  C   UNL     1       6.534  -5.552   4.151  1.00  0.00     0.060 A 
ATOM     42  C   UNL     1       7.797  -6.140   4.130  1.00  0.00     0.016 A 
ATOM     43  C   UNL     1       6.238  -4.587   5.114  1.00  0.00     0.016 A 
ATOM     44  C   UNL     1       8.730  -5.802   5.121  1.00  0.00     0.010 A 
ATOM     45  C   UNL     1       7.219  -4.145   5.993  1.00  0.00     0.010 A 
ATOM     46  C   UNL     1       8.457  -4.791   6.063  1.00  0.00    -0.014 A 
BRANCH  46  47
ATOM     47  C   UNL     1       9.395  -4.451   7.175  1.00  0.00     0.031 A 
ATOM     48  C   UNL     1       8.893  -4.412   8.607  1.00  0.00     0.074 A 
ATOM     49  C   UNL     1      10.682  -4.137   6.921  1.00  0.00     0.049 A 
ATOM     50  N   UNL     1       9.516  -4.019   9.689  1.00  0.00    -0.248 NA
ATOM     51  C   UNL     1       7.489  -4.790   8.846  1.00  0.00     0.031 C 
ATOM     52  C   UNL     1      11.291  -4.043   5.593  1.00  0.00     0.029 A 
ATOM     53  N   UNL     1      11.723  -3.869   7.777  1.00  0.00    -0.354 N 
ATOM     54  C   UNL     1       8.558  -4.022  10.700  1.00  0.00     0.074 A 
ATOM     55  C   UNL     1       7.301  -4.382  10.090  1.00  0.00     0.031 C 
ATOM     56  C   UNL     1      12.613  -3.850   5.726  1.00  0.00     0.029 A 
ATOM     57  C   UNL     1      12.940  -3.755   7.146  1.00  0.00     0.049 A 
ATOM     58  H   UNL     1      11.609  -3.768   8.750  1.00  0.00     0.167 HD
ATOM     59  C   UNL     1       8.713  -3.804  12.027  1.00  0.00     0.031 A 
ATOM     60  C   UNL     1      14.184  -3.627   7.651  1.00  0.00     0.031 A 
ATOM     61  C   UNL     1       9.992  -3.612  12.653  1.00  0.00     0.049 A 
ATOM     62  C   UNL     1      14.367  -3.574   9.142  1.00  0.00     0.074 A 
ATOM     63  C   UNL     1      10.278  -3.486  14.000  1.00  0.00     0.029 A 
ATOM     64  N   UNL     1      11.203  -3.591  11.978  1.00  0.00    -0.354 N 
ATOM     65  N   UNL     1      13.449  -3.587  10.079  1.00  0.00    -0.248 NA
ATOM     66  C   UNL     1      15.745  -3.503   9.648  1.00  0.00     0.031 C 
ATOM     67  C   UNL     1      11.665  -3.385  14.141  1.00  0.00     0.029 A 
ATOM     68  C   UNL     1      12.241  -3.485  12.883  1.00  0.00     0.049 A 
ATOM     69  H   UNL     1      11.307  -3.645  11.001  1.00  0.00     0.167 HD
ATOM     70  C   UNL     1      14.137  -3.533  11.285  1.00  0.00     0.074 A 
ATOM     71  C   UNL     1      15.549  -3.513  10.962  1.00  0.00     0.031 C 
ATOM     72  C   UNL     1      13.641  -3.490  12.544  1.00  0.00     0.031 A 
BRANCH  59  73
ATOM     73  C   UNL     1       7.488  -3.838  12.908  1.00  0.00    -0.014 A 
ATOM     74  C   UNL     1       7.075  -2.675  13.585  1.00  0.00     0.010 A 
ATOM     75  C   UNL     1       6.782  -5.035  13.122  1.00  0.00     0.010 A 
ATOM     76  C   UNL     1       5.983  -2.709  14.457  1.00  0.00     0.020 A 
ATOM     77  C   UNL     1       5.666  -5.065  13.962  1.00  0.00     0.020 A 
ATOM     78  C   UNL     1       5.285  -3.905  14.640  1.00  0.00     0.054 A 
BRANCH  78  79
ATOM     79  S   UNL     1       3.848  -3.937  15.746  1.00  0.00     0.124 S 
ATOM     80  O   UNL     1       4.472  -4.091  17.056  1.00  0.00    -0.237 OA
ATOM     81  O   UNL     1       3.214  -2.644  15.495  1.00  0.00    -0.237 OA
ATOM     82  O   UNL     1       3.086  -5.092  15.275  1.00  0.00    -0.744 OA
ENDBRANCH  78  79
ENDBRANCH  59  73
BRANCH  60  83
ATOM     83  C   UNL     1      15.348  -3.662   6.724  1.00  0.00    -0.014 A 
ATOM     84  C   UNL     1      15.624  -2.585   5.864  1.00  0.00     0.010 A 
ATOM     85  C   UNL     1      16.127  -4.830   6.630  1.00  0.00     0.010 A 
ATOM     86  C   UNL     1      16.623  -2.694   4.891  1.00  0.00     0.020 A 
ATOM     87  C   UNL     1      17.143  -4.934   5.675  1.00  0.00     0.020 A 
ATOM     88  C   UNL     1      17.363  -3.876   4.791  1.00  0.00     0.054 A 
BRANCH  88  89
ATOM     89  S   UNL     1      18.610  -4.024   3.481  1.00  0.00     0.124 S 
ATOM     90  O   UNL     1      17.781  -4.311   2.314  1.00  0.00    -0.237 OA
ATOM     91  O   UNL     1      19.248  -2.711   3.494  1.00  0.00    -0.237 OA
ATOM     92  O   UNL     1      19.453  -5.127   3.937  1.00  0.00    -0.744 OA
ENDBRANCH  88  89
ENDBRANCH  60  83
BRANCH  72  93
ATOM     93  C   UNL     1      14.608  -3.424  13.693  1.00  0.00    -0.014 A 
ATOM     94  C   UNL     1      14.749  -4.532  14.548  1.00  0.00     0.010 A 
ATOM     95  C   UNL     1      15.240  -2.212  14.020  1.00  0.00     0.010 A 
ATOM     96  C   UNL     1      15.472  -4.417  15.737  1.00  0.00     0.020 A 
ATOM     97  C   UNL     1      15.981  -2.101  15.199  1.00  0.00     0.020 A 
ATOM     98  C   UNL     1      16.067  -3.196  16.063  1.00  0.00     0.054 A 
BRANCH  98  99
ATOM     99  S   UNL     1      16.947  -3.042  17.642  1.00  0.00     0.124 S 
ATOM    100  O   UNL     1      15.848  -2.885  18.590  1.00  0.00    -0.237 OA
ATOM    101  O   UNL     1      17.678  -4.304  17.728  1.00  0.00    -0.237 OA
ATOM    102  O   UNL     1      17.783  -1.859  17.452  1.00  0.00    -0.744 OA
ENDBRANCH  98  99
ENDBRANCH  72  93
ENDBRANCH  46  47
ENDBRANCH  39  41
ENDBRANCH  38  39
ENDBRANCH  37  38
ENDBRANCH   1  37
TORSDOF 17
