REMARK SMILES CCc1cc(OC(F)(F)F)cc2c1O[C@@H](C(F)(F)F)C(C(=O)OCCOC(=O)c1ccc(-c3c4nc(c(-c5ccc(S(=O)(=O)[O-])cc5)c5ccc([nH]5)c(-c5ccc(S(=O)(=O)[O-])cc5)c5nc(c(-c6ccc(S(=O)(=O)[O-])cc6)c6ccc3[nH]6)C=C5)C=C4)cc1)=C2
REMARK SMILES IDX 25 1 24 2 23 3 21 4 22 5 20 6 3 7 4 8 13 9 5 10 12 11 14 12
REMARK SMILES IDX 11 13 89 14 15 15 2 16 1 17 6 18 7 19 8 20 9 21 10 22 16 23
REMARK SMILES IDX 17 24 18 25 19 26 26 27 27 28 28 29 29 30 30 31 88 32 31 33
REMARK SMILES IDX 87 34 32 35 33 36 34 37 81 38 35 39 86 40 80 41 82 42 36 43
REMARK SMILES IDX 85 44 79 45 78 46 37 48 67 49 48 50 66 51 49 52 52 53 65 54
REMARK SMILES IDX 83 55 50 56 51 57 64 59 84 60 53 61 38 62 39 63 47 64 40 65
REMARK SMILES IDX 46 66 41 67 42 68 43 69 44 70 45 71 68 72 69 73 77 74 70 75
REMARK SMILES IDX 76 76 71 77 72 78 73 79 74 80 75 81 54 82 55 83 63 84 56 85
REMARK SMILES IDX 62 86 57 87 58 88 59 89 60 90 61 91
REMARK H PARENT 82 47 52 58
REMARK Flexibility Score: inf
ROOT
ATOM      1  C   UNL     1       6.139  -2.268   6.728  1.00  0.00     0.275 C 
ENDROOT
BRANCH   1   2
ATOM      2  C   UNL     1       4.648  -2.574   6.904  1.00  0.00     0.275 C 
BRANCH   2   3
ATOM      3  O   UNL     1       3.987  -2.782   5.638  1.00  0.00    -0.459 OA
BRANCH   3   4
ATOM      4  C   UNL     1       3.117  -1.808   5.263  1.00  0.00     0.338 C 
ATOM      5  O   UNL     1       2.846  -0.822   5.920  1.00  0.00    -0.246 OA
BRANCH   4   6
ATOM      6  C   UNL     1       2.545  -2.057   3.920  1.00  0.00     0.087 C 
ATOM      7  C   UNL     1       0.770  -2.440   0.151  1.00  0.00    -0.002 A 
ATOM      8  C   UNL     1       0.647  -3.722  -0.416  1.00  0.00     0.054 A 
ATOM      9  C   UNL     1       1.250  -2.353   1.463  1.00  0.00     0.131 A 
ATOM     10  C   UNL     1       1.012  -4.870   0.293  1.00  0.00     0.130 A 
ATOM     11  C   UNL     1       1.716  -3.481   2.156  1.00  0.00     0.021 A 
ATOM     12  O   UNL     1       1.154  -1.154   2.114  1.00  0.00    -0.475 OA
ATOM     13  C   UNL     1       1.590  -4.740   1.563  1.00  0.00     0.058 A 
ATOM     14  C   UNL     1       2.284  -3.310   3.499  1.00  0.00     0.027 C 
ATOM     15  C   UNL     1       2.251  -0.872   3.018  1.00  0.00     0.316 C 
BRANCH   7  16
ATOM     16  C   UNL     1       0.346  -1.260  -0.702  1.00  0.00     0.036 C 
ATOM     17  C   UNL     1       0.892   0.121  -0.354  1.00  0.00     0.009 C 
ENDBRANCH   7  16
BRANCH  10  18
ATOM     18  O   UNL     1       0.862  -6.157  -0.146  1.00  0.00    -0.406 OA
BRANCH  18  19
ATOM     19  C   UNL     1      -0.011  -6.368  -1.246  1.00  0.00     0.573 C 
ATOM     20  F   UNL     1      -1.212  -5.779  -1.052  1.00  0.00    -0.132 F 
ATOM     21  F   UNL     1       0.536  -5.910  -2.392  1.00  0.00    -0.132 F 
ATOM     22  F   UNL     1      -0.222  -7.697  -1.384  1.00  0.00    -0.132 F 
ENDBRANCH  18  19
ENDBRANCH  10  18
BRANCH  15  23
ATOM     23  C   UNL     1       1.977   0.512   3.639  1.00  0.00     0.430 C 
ATOM     24  F   UNL     1       3.066   1.020   4.255  1.00  0.00    -0.167 F 
ATOM     25  F   UNL     1       1.664   1.402   2.659  1.00  0.00    -0.167 F 
ATOM     26  F   UNL     1       0.943   0.497   4.505  1.00  0.00    -0.167 F 
ENDBRANCH  15  23
ENDBRANCH   4   6
ENDBRANCH   3   4
ENDBRANCH   2   3
ENDBRANCH   1   2
BRANCH   1  27
ATOM     27  O   UNL     1       6.360  -1.037   6.015  1.00  0.00    -0.458 OA
BRANCH  27  28
ATOM     28  C   UNL     1       6.508  -1.174   4.675  1.00  0.00     0.338 C 
ATOM     29  O   UNL     1       6.494  -2.220   4.044  1.00  0.00    -0.246 OA
BRANCH  28  30
ATOM     30  C   UNL     1       6.503   0.151   4.022  1.00  0.00     0.060 A 
ATOM     31  C   UNL     1       5.692   0.292   2.893  1.00  0.00     0.016 A 
ATOM     32  C   UNL     1       7.273   1.227   4.467  1.00  0.00     0.016 A 
ATOM     33  C   UNL     1       5.568   1.524   2.254  1.00  0.00     0.010 A 
ATOM     34  C   UNL     1       7.201   2.450   3.785  1.00  0.00     0.010 A 
ATOM     35  C   UNL     1       6.336   2.609   2.687  1.00  0.00    -0.014 A 
BRANCH  35  36
ATOM     36  C   UNL     1       6.329   3.866   1.902  1.00  0.00     0.031 A 
ATOM     37  C   UNL     1       7.305   4.017   0.770  1.00  0.00     0.074 A 
ATOM     38  C   UNL     1       5.446   4.846   2.170  1.00  0.00     0.049 A 
ATOM     39  N   UNL     1       7.533   5.053   0.007  1.00  0.00    -0.248 NA
ATOM     40  C   UNL     1       8.122   2.836   0.447  1.00  0.00     0.031 C 
ATOM     41  C   UNL     1       4.379   4.776   3.167  1.00  0.00     0.029 A 
ATOM     42  N   UNL     1       5.312   6.099   1.623  1.00  0.00    -0.354 N 
ATOM     43  C   UNL     1       8.521   4.653  -0.884  1.00  0.00     0.074 A 
ATOM     44  C   UNL     1       8.857   3.284  -0.560  1.00  0.00     0.031 C 
ATOM     45  C   UNL     1       3.713   5.945   3.176  1.00  0.00     0.029 A 
ATOM     46  C   UNL     1       4.334   6.861   2.220  1.00  0.00     0.049 A 
ATOM     47  H   UNL     1       5.864   6.422   0.874  1.00  0.00     0.167 HD
ATOM     48  C   UNL     1       9.102   5.367  -1.877  1.00  0.00     0.031 A 
ATOM     49  C   UNL     1       4.005   8.157   2.039  1.00  0.00     0.031 A 
ATOM     50  C   UNL     1       8.794   6.742  -2.165  1.00  0.00     0.049 A 
ATOM     51  C   UNL     1       4.767   8.974   1.022  1.00  0.00     0.074 A 
ATOM     52  C   UNL     1       9.359   7.566  -3.123  1.00  0.00     0.029 A 
ATOM     53  N   UNL     1       7.847   7.500  -1.493  1.00  0.00    -0.354 N 
ATOM     54  N   UNL     1       5.718   8.594   0.201  1.00  0.00    -0.248 NA
ATOM     55  C   UNL     1       4.413  10.398   0.907  1.00  0.00     0.031 C 
ATOM     56  C   UNL     1       8.797   8.838  -2.988  1.00  0.00     0.029 A 
ATOM     57  C   UNL     1       7.827   8.787  -2.000  1.00  0.00     0.049 A 
ATOM     58  H   UNL     1       7.274   7.170  -0.763  1.00  0.00     0.167 HD
ATOM     59  C   UNL     1       6.038   9.716  -0.558  1.00  0.00     0.074 A 
ATOM     60  C   UNL     1       5.184  10.790  -0.099  1.00  0.00     0.031 C 
ATOM     61  C   UNL     1       6.952   9.841  -1.552  1.00  0.00     0.031 A 
BRANCH  48  62
ATOM     62  C   UNL     1      10.173   4.688  -2.686  1.00  0.00    -0.014 A 
ATOM     63  C   UNL     1       9.860   3.675  -3.609  1.00  0.00     0.010 A 
ATOM     64  C   UNL     1      11.512   5.099  -2.546  1.00  0.00     0.010 A 
ATOM     65  C   UNL     1      10.872   3.062  -4.354  1.00  0.00     0.020 A 
ATOM     66  C   UNL     1      12.522   4.509  -3.310  1.00  0.00     0.020 A 
ATOM     67  C   UNL     1      12.196   3.484  -4.199  1.00  0.00     0.054 A 
BRANCH  67  68
ATOM     68  S   UNL     1      13.484   2.688  -5.198  1.00  0.00     0.124 S 
ATOM     69  O   UNL     1      13.547   1.356  -4.602  1.00  0.00    -0.237 OA
ATOM     70  O   UNL     1      12.923   2.746  -6.546  1.00  0.00    -0.237 OA
ATOM     71  O   UNL     1      14.661   3.524  -4.979  1.00  0.00    -0.744 OA
ENDBRANCH  67  68
ENDBRANCH  48  62
BRANCH  49  72
ATOM     72  C   UNL     1       2.937   8.790   2.867  1.00  0.00    -0.014 A 
ATOM     73  C   UNL     1       1.753   9.268   2.277  1.00  0.00     0.010 A 
ATOM     74  C   UNL     1       3.121   8.960   4.252  1.00  0.00     0.010 A 
ATOM     75  C   UNL     1       0.791   9.930   3.048  1.00  0.00     0.020 A 
ATOM     76  C   UNL     1       2.147   9.591   5.033  1.00  0.00     0.020 A 
ATOM     77  C   UNL     1       0.995  10.088   4.422  1.00  0.00     0.054 A 
BRANCH  77  78
ATOM     78  S   UNL     1      -0.274  10.934   5.405  1.00  0.00     0.124 S 
ATOM     79  O   UNL     1      -0.129  12.318   4.963  1.00  0.00    -0.237 OA
ATOM     80  O   UNL     1      -1.500  10.261   4.984  1.00  0.00    -0.237 OA
ATOM     81  O   UNL     1       0.130  10.673   6.785  1.00  0.00    -0.744 OA
ENDBRANCH  77  78
ENDBRANCH  49  72
BRANCH  61  82
ATOM     82  C   UNL     1       7.036  11.160  -2.279  1.00  0.00    -0.014 A 
ATOM     83  C   UNL     1       7.601  12.300  -1.683  1.00  0.00     0.010 A 
ATOM     84  C   UNL     1       6.633  11.222  -3.627  1.00  0.00     0.010 A 
ATOM     85  C   UNL     1       7.750  13.480  -2.418  1.00  0.00     0.020 A 
ATOM     86  C   UNL     1       6.808  12.389  -4.373  1.00  0.00     0.020 A 
ATOM     87  C   UNL     1       7.361  13.514  -3.762  1.00  0.00     0.054 A 
BRANCH  87  88
ATOM     88  S   UNL     1       7.643  15.032  -4.716  1.00  0.00     0.124 S 
ATOM     89  O   UNL     1       6.647  15.938  -4.150  1.00  0.00    -0.237 OA
ATOM     90  O   UNL     1       9.034  15.351  -4.404  1.00  0.00    -0.237 OA
ATOM     91  O   UNL     1       7.399  14.624  -6.098  1.00  0.00    -0.744 OA
ENDBRANCH  87  88
ENDBRANCH  61  82
ENDBRANCH  35  36
ENDBRANCH  28  30
ENDBRANCH  27  28
ENDBRANCH   1  27
TORSDOF 18
