REMARK SMILES Cc1cc(C)cc(N(C)S(=O)(=O)c2ccc(F)c(C(=O)OCCOC(=O)c3ccc(-c4c5nc(c(-c6ccc(S(=O)(=O)[O-])cc6)c6ccc([nH]6)c(-c6ccc(S(=O)(=O)[O-])cc6)c6nc(c(-c7ccc(S(=O)(=O)[O-])cc7)c7ccc4[nH]7)C=C6)C=C5)cc3)c2)c1
REMARK SMILES IDX 22 1 21 2 19 3 20 4 18 5 13 6 14 7 87 8 15 9 16 10 17 11
REMARK SMILES IDX 10 12 11 13 12 14 8 15 9 16 7 17 1 18 2 19 3 20 88 21 4 22
REMARK SMILES IDX 5 23 6 24 23 25 24 26 25 27 26 28 27 29 28 30 86 31 29 32
REMARK SMILES IDX 85 33 30 34 31 35 32 36 79 37 33 38 84 39 78 40 80 41 34 42
REMARK SMILES IDX 83 43 77 44 76 45 35 47 65 48 46 49 64 50 47 51 50 52 63 53
REMARK SMILES IDX 81 54 48 55 49 56 62 58 82 59 51 60 36 61 37 62 45 63 38 64
REMARK SMILES IDX 44 65 39 66 40 67 41 68 42 69 43 70 66 71 67 72 75 73 68 74
REMARK SMILES IDX 74 75 69 76 70 77 71 78 72 79 73 80 52 81 53 82 61 83 54 84
REMARK SMILES IDX 60 85 55 86 56 87 57 88 58 89 59 90
REMARK H PARENT 80 46 50 57
REMARK Flexibility Score: inf
ROOT
ATOM      1  C   UNL     1      -3.126  -9.833  -0.053  1.00  0.00     0.275 C 
ENDROOT
BRANCH   1   2
ATOM      2  O   UNL     1      -1.784  -9.346   0.151  1.00  0.00    -0.458 OA
BRANCH   2   3
ATOM      3  C   UNL     1      -1.437  -8.244  -0.552  1.00  0.00     0.341 C 
ATOM      4  O   UNL     1      -2.158  -7.606  -1.306  1.00  0.00    -0.246 OA
BRANCH   3   5
ATOM      5  C   UNL     1      -0.053  -7.815  -0.269  1.00  0.00     0.097 A 
ATOM      6  C   UNL     1       1.544  -6.000  -0.093  1.00  0.00     0.089 A 
ATOM      7  C   UNL     1       2.582  -6.940   0.007  1.00  0.00     0.025 A 
ATOM      8  C   UNL     1       0.231  -6.436  -0.219  1.00  0.00     0.041 A 
ATOM      9  C   UNL     1       2.300  -8.308  -0.029  1.00  0.00     0.041 A 
ATOM     10  C   UNL     1       0.984  -8.741  -0.175  1.00  0.00     0.137 A 
ATOM     11  F   UNL     1       0.755 -10.058  -0.280  1.00  0.00    -0.206 F 
BRANCH   6  12
ATOM     12  S   UNL     1       2.023  -4.279  -0.093  1.00  0.00     0.264 S 
ATOM     13  O   UNL     1       2.938  -4.156  -1.214  1.00  0.00    -0.201 OA
ATOM     14  O   UNL     1       2.472  -4.025   1.261  1.00  0.00    -0.201 OA
BRANCH  12  15
ATOM     15  N   UNL     1       0.652  -3.280  -0.424  1.00  0.00    -0.269 N 
ATOM     16  C   UNL     1      -0.015  -3.514  -1.739  1.00  0.00     0.164 C 
BRANCH  15  17
ATOM     17  C   UNL     1       0.855  -1.842  -0.148  1.00  0.00     0.052 A 
ATOM     18  C   UNL     1       3.607   0.822  -0.041  1.00  0.00     0.044 C 
ATOM     19  C   UNL     1       2.261   0.165  -0.029  1.00  0.00    -0.049 A 
ATOM     20  C   UNL     1       1.128   0.958   0.115  1.00  0.00     0.007 A 
ATOM     21  C   UNL     1       2.115  -1.222  -0.186  1.00  0.00     0.030 A 
ATOM     22  C   UNL     1      -0.138   0.378   0.129  1.00  0.00    -0.049 A 
ATOM     23  C   UNL     1      -1.332   1.273   0.216  1.00  0.00     0.044 C 
ATOM     24  C   UNL     1      -0.271  -1.016  -0.005  1.00  0.00     0.030 A 
ENDBRANCH  15  17
ENDBRANCH  12  15
ENDBRANCH   6  12
ENDBRANCH   3   5
ENDBRANCH   2   3
ENDBRANCH   1   2
BRANCH   1  25
ATOM     25  C   UNL     1      -4.031  -9.504   1.135  1.00  0.00     0.275 C 
BRANCH  25  26
ATOM     26  O   UNL     1      -4.361  -8.103   1.169  1.00  0.00    -0.458 OA
BRANCH  26  27
ATOM     27  C   UNL     1      -3.609  -7.358   2.010  1.00  0.00     0.338 C 
ATOM     28  O   UNL     1      -2.717  -7.743   2.746  1.00  0.00    -0.246 OA
BRANCH  27  29
ATOM     29  C   UNL     1      -3.927  -5.935   1.825  1.00  0.00     0.060 A 
ATOM     30  C   UNL     1      -3.181  -5.237   0.883  1.00  0.00     0.016 A 
ATOM     31  C   UNL     1      -4.821  -5.257   2.651  1.00  0.00     0.016 A 
ATOM     32  C   UNL     1      -3.248  -3.853   0.817  1.00  0.00     0.010 A 
ATOM     33  C   UNL     1      -4.950  -3.863   2.526  1.00  0.00     0.010 A 
ATOM     34  C   UNL     1      -4.140  -3.143   1.628  1.00  0.00    -0.014 A 
BRANCH  34  35
ATOM     35  C   UNL     1      -4.151  -1.653   1.564  1.00  0.00     0.031 A 
ATOM     36  C   UNL     1      -3.650  -0.854   2.744  1.00  0.00     0.074 A 
ATOM     37  C   UNL     1      -4.448  -1.026   0.404  1.00  0.00     0.049 A 
ATOM     38  N   UNL     1      -3.570   0.445   2.889  1.00  0.00    -0.248 NA
ATOM     39  C   UNL     1      -3.142  -1.614   3.898  1.00  0.00     0.031 C 
ATOM     40  C   UNL     1      -4.736  -1.698  -0.867  1.00  0.00     0.029 A 
ATOM     41  N   UNL     1      -4.458   0.308   0.073  1.00  0.00    -0.354 N 
ATOM     42  C   UNL     1      -3.034   0.656   4.156  1.00  0.00     0.074 A 
ATOM     43  C   UNL     1      -2.820  -0.646   4.746  1.00  0.00     0.031 C 
ATOM     44  C   UNL     1      -4.750  -0.786  -1.852  1.00  0.00     0.029 A 
ATOM     45  C   UNL     1      -4.582   0.545  -1.279  1.00  0.00     0.049 A 
ATOM     46  H   UNL     1      -4.384   1.028   0.741  1.00  0.00     0.167 HD
ATOM     47  C   UNL     1      -2.742   1.829   4.770  1.00  0.00     0.031 A 
ATOM     48  C   UNL     1      -4.543   1.698  -1.981  1.00  0.00     0.031 A 
ATOM     49  C   UNL     1      -2.881   3.122   4.153  1.00  0.00     0.049 A 
ATOM     50  C   UNL     1      -4.332   2.997  -1.246  1.00  0.00     0.074 A 
ATOM     51  C   UNL     1      -2.671   4.369   4.715  1.00  0.00     0.029 A 
ATOM     52  N   UNL     1      -3.238   3.334   2.831  1.00  0.00    -0.354 N 
ATOM     53  N   UNL     1      -3.993   3.189   0.007  1.00  0.00    -0.248 NA
ATOM     54  C   UNL     1      -4.503   4.237  -2.018  1.00  0.00     0.031 C 
ATOM     55  C   UNL     1      -2.951   5.338   3.746  1.00  0.00     0.029 A 
ATOM     56  C   UNL     1      -3.271   4.692   2.562  1.00  0.00     0.049 A 
ATOM     57  H   UNL     1      -3.438   2.625   2.179  1.00  0.00     0.167 HD
ATOM     58  C   UNL     1      -3.893   4.567   0.167  1.00  0.00     0.074 A 
ATOM     59  C   UNL     1      -4.186   5.161  -1.121  1.00  0.00     0.031 C 
ATOM     60  C   UNL     1      -3.585   5.276   1.281  1.00  0.00     0.031 A 
BRANCH  47  61
ATOM     61  C   UNL     1      -2.340   1.776   6.221  1.00  0.00    -0.014 A 
ATOM     62  C   UNL     1      -1.063   1.365   6.639  1.00  0.00     0.010 A 
ATOM     63  C   UNL     1      -3.278   2.185   7.188  1.00  0.00     0.010 A 
ATOM     64  C   UNL     1      -0.748   1.323   8.003  1.00  0.00     0.020 A 
ATOM     65  C   UNL     1      -2.959   2.169   8.547  1.00  0.00     0.020 A 
ATOM     66  C   UNL     1      -1.702   1.719   8.948  1.00  0.00     0.054 A 
BRANCH  66  67
ATOM     67  S   UNL     1      -1.276   1.653  10.711  1.00  0.00     0.124 S 
ATOM     68  O   UNL     1      -1.275   0.214  10.967  1.00  0.00    -0.237 OA
ATOM     69  O   UNL     1       0.033   2.299  10.751  1.00  0.00    -0.237 OA
ATOM     70  O   UNL     1      -2.354   2.397  11.357  1.00  0.00    -0.744 OA
ENDBRANCH  66  67
ENDBRANCH  47  61
BRANCH  48  71
ATOM     71  C   UNL     1      -4.700   1.685  -3.466  1.00  0.00    -0.014 A 
ATOM     72  C   UNL     1      -3.671   2.152  -4.306  1.00  0.00     0.010 A 
ATOM     73  C   UNL     1      -5.891   1.220  -4.052  1.00  0.00     0.010 A 
ATOM     74  C   UNL     1      -3.842   2.175  -5.695  1.00  0.00     0.020 A 
ATOM     75  C   UNL     1      -6.051   1.204  -5.439  1.00  0.00     0.020 A 
ATOM     76  C   UNL     1      -5.032   1.700  -6.253  1.00  0.00     0.054 A 
BRANCH  76  77
ATOM     77  S   UNL     1      -5.229   1.709  -8.056  1.00  0.00     0.124 S 
ATOM     78  O   UNL     1      -5.467   3.123  -8.326  1.00  0.00    -0.237 OA
ATOM     79  O   UNL     1      -3.947   1.181  -8.518  1.00  0.00    -0.237 OA
ATOM     80  O   UNL     1      -6.372   0.826  -8.278  1.00  0.00    -0.744 OA
ENDBRANCH  76  77
ENDBRANCH  48  71
BRANCH  60  81
ATOM     81  C   UNL     1      -3.567   6.779   1.180  1.00  0.00    -0.014 A 
ATOM     82  C   UNL     1      -4.766   7.505   1.063  1.00  0.00     0.010 A 
ATOM     83  C   UNL     1      -2.353   7.480   1.309  1.00  0.00     0.010 A 
ATOM     84  C   UNL     1      -4.751   8.903   1.069  1.00  0.00     0.020 A 
ATOM     85  C   UNL     1      -2.337   8.878   1.343  1.00  0.00     0.020 A 
ATOM     86  C   UNL     1      -3.537   9.581   1.218  1.00  0.00     0.054 A 
BRANCH  86  87
ATOM     87  S   UNL     1      -3.559  11.392   1.314  1.00  0.00     0.124 S 
ATOM     88  O   UNL     1      -3.847  11.768  -0.067  1.00  0.00    -0.237 OA
ATOM     89  O   UNL     1      -4.632  11.649   2.272  1.00  0.00    -0.237 OA
ATOM     90  O   UNL     1      -2.218  11.731   1.786  1.00  0.00    -0.744 OA
ENDBRANCH  86  87
ENDBRANCH  60  81
ENDBRANCH  34  35
ENDBRANCH  27  29
ENDBRANCH  26  27
ENDBRANCH  25  26
ENDBRANCH   1  25
TORSDOF 17
