REMARK SMILES C[C@H](C(=O)OCCOC(=O)c1ccc(-c2c3nc(c(-c4ccc(S(=O)(=O)[O-])cc4)c4ccc([nH]4)c(-c4ccc(S(=O)(=O)[O-])cc4)c4nc(c(-c5ccc(S(=O)(=O)[O-])cc5)c5ccc2[nH]5)C=C4)C=C3)cc1)c1ccc2c(c1)OCCO2
REMARK SMILES IDX 7 1 6 2 5 3 3 4 4 5 2 6 1 7 71 8 72 9 76 10 73 11 75 12
REMARK SMILES IDX 74 13 77 14 80 15 78 16 79 17 8 18 9 19 10 20 11 21 12 22
REMARK SMILES IDX 70 23 13 24 69 25 14 26 15 27 16 28 63 29 17 30 68 31 62 32
REMARK SMILES IDX 64 33 18 34 67 35 61 36 60 37 19 39 49 40 30 41 48 42 31 43
REMARK SMILES IDX 34 44 47 45 65 46 32 47 33 48 46 50 66 51 35 52 20 53 21 54
REMARK SMILES IDX 29 55 22 56 28 57 23 58 24 59 25 60 26 61 27 62 50 63 51 64
REMARK SMILES IDX 59 65 52 66 58 67 53 68 54 69 55 70 56 71 57 72 36 73 37 74
REMARK SMILES IDX 45 75 38 76 44 77 39 78 40 79 41 80 42 81 43 82
REMARK H PARENT 64 38 34 49
REMARK Flexibility Score: inf
ROOT
ATOM      1  C   UNL     1       3.842  -1.006  -0.674  1.00  0.00     0.275 C 
ENDROOT
BRANCH   1   2
ATOM      2  C   UNL     1       2.437  -1.475  -1.060  1.00  0.00     0.274 C 
BRANCH   2   3
ATOM      3  O   UNL     1       1.561  -0.359  -1.303  1.00  0.00    -0.462 OA
BRANCH   3   4
ATOM      4  C   UNL     1       0.913   0.091  -0.192  1.00  0.00     0.313 C 
ATOM      5  O   UNL     1       0.997  -0.476   0.895  1.00  0.00    -0.252 OA
BRANCH   4   6
ATOM      6  C   UNL     1       0.092   1.382  -0.414  1.00  0.00     0.126 C 
ATOM      7  C   UNL     1       0.380   1.965  -1.809  1.00  0.00     0.025 C 
BRANCH   6   8
ATOM      8  C   UNL     1      -1.402   1.171  -0.160  1.00  0.00    -0.030 A 
ATOM      9  C   UNL     1      -2.380   1.972  -0.777  1.00  0.00     0.009 A 
ATOM     10  C   UNL     1      -1.841   0.090   0.618  1.00  0.00     0.055 A 
ATOM     11  C   UNL     1      -3.704   1.538  -0.860  1.00  0.00     0.051 A 
ATOM     12  C   UNL     1      -3.117  -0.406   0.440  1.00  0.00     0.161 A 
ATOM     13  C   UNL     1      -4.024   0.287  -0.353  1.00  0.00     0.161 A 
ATOM     14  O   UNL     1      -3.343  -1.661   0.933  1.00  0.00    -0.486 OA
ATOM     15  O   UNL     1      -5.175  -0.322  -0.786  1.00  0.00    -0.486 OA
ATOM     16  C   UNL     1      -4.341  -2.378   0.201  1.00  0.00     0.271 C 
ATOM     17  C   UNL     1      -4.804  -1.679  -1.075  1.00  0.00     0.271 C 
ENDBRANCH   6   8
ENDBRANCH   4   6
ENDBRANCH   3   4
ENDBRANCH   2   3
ENDBRANCH   1   2
BRANCH   1  18
ATOM     18  O   UNL     1       3.797  -0.048   0.402  1.00  0.00    -0.458 OA
BRANCH  18  19
ATOM     19  C   UNL     1       4.126   1.224   0.069  1.00  0.00     0.338 C 
ATOM     20  O   UNL     1       4.543   1.605  -1.013  1.00  0.00    -0.246 OA
BRANCH  19  21
ATOM     21  C   UNL     1       3.885   2.157   1.192  1.00  0.00     0.060 A 
ATOM     22  C   UNL     1       2.711   2.110   1.942  1.00  0.00     0.016 A 
ATOM     23  C   UNL     1       4.790   3.196   1.406  1.00  0.00     0.016 A 
ATOM     24  C   UNL     1       2.381   3.149   2.810  1.00  0.00     0.010 A 
ATOM     25  C   UNL     1       4.518   4.169   2.374  1.00  0.00     0.010 A 
ATOM     26  C   UNL     1       3.294   4.177   3.066  1.00  0.00    -0.014 A 
BRANCH  26  27
ATOM     27  C   UNL     1       2.989   5.256   4.047  1.00  0.00     0.031 A 
ATOM     28  C   UNL     1       3.080   6.702   3.632  1.00  0.00     0.074 A 
ATOM     29  C   UNL     1       2.667   4.952   5.322  1.00  0.00     0.049 A 
ATOM     30  N   UNL     1       3.132   7.775   4.380  1.00  0.00    -0.248 NA
ATOM     31  C   UNL     1       3.140   6.976   2.187  1.00  0.00     0.031 C 
ATOM     32  C   UNL     1       2.485   3.601   5.860  1.00  0.00     0.029 A 
ATOM     33  N   UNL     1       2.445   5.768   6.405  1.00  0.00    -0.354 N 
ATOM     34  C   UNL     1       3.308   8.841   3.505  1.00  0.00     0.074 A 
ATOM     35  C   UNL     1       3.339   8.288   2.167  1.00  0.00     0.031 C 
ATOM     36  C   UNL     1       2.149   3.682   7.156  1.00  0.00     0.029 A 
ATOM     37  C   UNL     1       2.196   5.078   7.568  1.00  0.00     0.049 A 
ATOM     38  H   UNL     1       2.462   6.750   6.353  1.00  0.00     0.167 HD
ATOM     39  C   UNL     1       3.448  10.157   3.793  1.00  0.00     0.031 A 
ATOM     40  C   UNL     1       2.079   5.505   8.840  1.00  0.00     0.031 A 
ATOM     41  C   UNL     1       3.367  10.704   5.122  1.00  0.00     0.049 A 
ATOM     42  C   UNL     1       2.263   6.962   9.142  1.00  0.00     0.074 A 
ATOM     43  C   UNL     1       3.483  12.026   5.519  1.00  0.00     0.029 A 
ATOM     44  N   UNL     1       3.129   9.963   6.269  1.00  0.00    -0.354 N 
ATOM     45  N   UNL     1       2.512   7.948   8.313  1.00  0.00    -0.248 NA
ATOM     46  C   UNL     1       2.175   7.362  10.553  1.00  0.00     0.031 C 
ATOM     47  C   UNL     1       3.347  12.078   6.911  1.00  0.00     0.029 A 
ATOM     48  C   UNL     1       3.103  10.796   7.375  1.00  0.00     0.049 A 
ATOM     49  H   UNL     1       2.997   8.987   6.294  1.00  0.00     0.167 HD
ATOM     50  C   UNL     1       2.604   9.087   9.102  1.00  0.00     0.074 A 
ATOM     51  C   UNL     1       2.365   8.672  10.470  1.00  0.00     0.031 C 
ATOM     52  C   UNL     1       2.868  10.363   8.728  1.00  0.00     0.031 A 
BRANCH  39  53
ATOM     53  C   UNL     1       3.754  11.094   2.655  1.00  0.00    -0.014 A 
ATOM     54  C   UNL     1       2.770  11.474   1.727  1.00  0.00     0.010 A 
ATOM     55  C   UNL     1       5.050  11.632   2.539  1.00  0.00     0.010 A 
ATOM     56  C   UNL     1       3.086  12.348   0.681  1.00  0.00     0.020 A 
ATOM     57  C   UNL     1       5.364  12.523   1.510  1.00  0.00     0.020 A 
ATOM     58  C   UNL     1       4.383  12.861   0.575  1.00  0.00     0.054 A 
BRANCH  58  59
ATOM     59  S   UNL     1       4.766  14.007  -0.779  1.00  0.00     0.124 S 
ATOM     60  O   UNL     1       4.889  13.097  -1.915  1.00  0.00    -0.237 OA
ATOM     61  O   UNL     1       3.599  14.884  -0.802  1.00  0.00    -0.237 OA
ATOM     62  O   UNL     1       6.010  14.643  -0.353  1.00  0.00    -0.744 OA
ENDBRANCH  58  59
ENDBRANCH  39  53
BRANCH  40  63
ATOM     63  C   UNL     1       1.838   4.519   9.928  1.00  0.00    -0.014 A 
ATOM     64  C   UNL     1       0.587   4.450  10.562  1.00  0.00     0.010 A 
ATOM     65  C   UNL     1       2.850   3.616  10.306  1.00  0.00     0.010 A 
ATOM     66  C   UNL     1       0.350   3.496  11.556  1.00  0.00     0.020 A 
ATOM     67  C   UNL     1       2.608   2.644  11.279  1.00  0.00     0.020 A 
ATOM     68  C   UNL     1       1.361   2.596  11.905  1.00  0.00     0.054 A 
BRANCH  68  69
ATOM     69  S   UNL     1       1.013   1.314  13.142  1.00  0.00     0.124 S 
ATOM     70  O   UNL     1       1.147   2.055  14.392  1.00  0.00    -0.237 OA
ATOM     71  O   UNL     1      -0.343   0.895  12.796  1.00  0.00    -0.237 OA
ATOM     72  O   UNL     1       2.047   0.312  12.891  1.00  0.00    -0.744 OA
ENDBRANCH  68  69
ENDBRANCH  40  63
BRANCH  52  73
ATOM     73  C   UNL     1       2.881  11.402   9.812  1.00  0.00    -0.014 A 
ATOM     74  C   UNL     1       3.973  11.518  10.690  1.00  0.00     0.010 A 
ATOM     75  C   UNL     1       1.801  12.294   9.932  1.00  0.00     0.010 A 
ATOM     76  C   UNL     1       3.971  12.493  11.691  1.00  0.00     0.020 A 
ATOM     77  C   UNL     1       1.804  13.282  10.918  1.00  0.00     0.020 A 
ATOM     78  C   UNL     1       2.883  13.366  11.801  1.00  0.00     0.054 A 
BRANCH  78  79
ATOM     79  S   UNL     1       2.914  14.647  13.085  1.00  0.00     0.124 S 
ATOM     80  O   UNL     1       2.563  13.886  14.280  1.00  0.00    -0.237 OA
ATOM     81  O   UNL     1       4.292  15.130  13.028  1.00  0.00    -0.237 OA
ATOM     82  O   UNL     1       1.907  15.607  12.638  1.00  0.00    -0.744 OA
ENDBRANCH  78  79
ENDBRANCH  52  73
ENDBRANCH  26  27
ENDBRANCH  19  21
ENDBRANCH  18  19
ENDBRANCH   1  18
TORSDOF 15
