REMARK SMILES Cc1ccc(-c2c(C)sc(NC(=O)[C@H]3CC=CC[C@H]3C(=O)OCCOC(=O)c3ccc(-c4c5nc(c(-c6ccc(S(=O)(=O)[O-])cc6)c6ccc([nH]6)c(-c6ccc(S(=O)(=O)[O-])cc6)c6nc(c(-c7ccc(S(=O)(=O)[O-])cc7)c7ccc4[nH]7)C=C6)C=C5)cc3)c2C(N)=O)cc1
REMARK SMILES IDX 23 1 22 2 20 3 21 4 19 5 14 6 15 7 16 8 18 9 17 10 12 11
REMARK SMILES IDX 11 12 13 14 10 15 6 16 7 17 88 18 8 19 9 20 5 21 1 22 2 23
REMARK SMILES IDX 3 24 93 25 4 26 92 27 89 28 90 29 91 30 24 33 25 34 26 35
REMARK SMILES IDX 27 36 28 37 29 38 87 39 30 40 86 41 31 42 32 43 33 44 80 45
REMARK SMILES IDX 34 46 85 47 79 48 81 49 35 50 84 51 78 52 77 53 36 55 66 56
REMARK SMILES IDX 47 57 65 58 48 59 51 60 64 61 82 62 49 63 50 64 63 66 83 67
REMARK SMILES IDX 52 68 37 69 38 70 46 71 39 72 45 73 40 74 41 75 42 76 43 77
REMARK SMILES IDX 44 78 67 79 68 80 76 81 69 82 75 83 70 84 71 85 72 86 73 87
REMARK SMILES IDX 74 88 53 89 54 90 62 91 55 92 61 93 56 94 57 95 58 96 59 97
REMARK SMILES IDX 60 98
REMARK H PARENT 11 13 90 31 90 32 81 54 51 65
REMARK Flexibility Score: inf
ROOT
ATOM      1  C   UNL     1     -10.628  -3.585   1.776  1.00  0.00     0.274 C 
ENDROOT
BRANCH   1   2
ATOM      2  O   UNL     1      -9.382  -2.916   1.686  1.00  0.00    -0.462 OA
BRANCH   2   3
ATOM      3  C   UNL     1      -8.664  -3.299   0.590  1.00  0.00     0.310 C 
ATOM      4  O   UNL     1      -8.224  -4.432   0.493  1.00  0.00    -0.252 OA
BRANCH   3   5
ATOM      5  C   UNL     1      -8.835  -2.058  -0.484  1.00  0.00     0.116 C 
ATOM      6  C   UNL     1      -8.094  -0.520   0.523  1.00  0.00     0.097 C 
ATOM      7  C   UNL     1      -7.580   0.938  -0.442  1.00  0.00     0.041 C 
ATOM      8  C   UNL     1      -7.179   0.866  -2.167  1.00  0.00    -0.030 C 
ATOM      9  C   UNL     1      -8.641  -1.728  -2.675  1.00  0.00     0.043 C 
ATOM     10  C   UNL     1      -7.611  -0.125  -3.119  1.00  0.00    -0.030 C 
BRANCH   6  11
ATOM     11  C   UNL     1      -7.374  -0.721   1.867  1.00  0.00     0.229 C 
ATOM     12  N   UNL     1      -6.044  -0.704   2.134  1.00  0.00    -0.317 N 
ATOM     13  H   UNL     1      -5.832  -0.999   3.049  1.00  0.00     0.170 HD
ATOM     14  O   UNL     1      -8.063  -0.945   2.877  1.00  0.00    -0.274 OA
BRANCH  12  15
ATOM     15  C   UNL     1      -4.927  -0.367   1.408  1.00  0.00     0.109 A 
ATOM     16  C   UNL     1      -2.824  -0.121   0.458  1.00  0.00     0.010 A 
ATOM     17  C   UNL     1      -3.613   0.708  -0.323  1.00  0.00     0.012 A 
ATOM     18  C   UNL     1      -3.594  -0.748   1.541  1.00  0.00     0.082 A 
ATOM     19  C   UNL     1      -3.407   1.390  -1.634  1.00  0.00     0.057 C 
ATOM     20  S   UNL     1      -4.866   1.179   0.704  1.00  0.00    -0.122 S 
BRANCH  16  21
ATOM     21  C   UNL     1      -1.394  -0.134   0.235  1.00  0.00    -0.016 A 
ATOM     22  C   UNL     1       2.872  -0.057  -0.093  1.00  0.00     0.044 C 
ATOM     23  C   UNL     1       1.377  -0.067  -0.037  1.00  0.00    -0.051 A 
ATOM     24  C   UNL     1       0.682  -1.284  -0.109  1.00  0.00     0.004 A 
ATOM     25  C   UNL     1       0.673   1.125   0.140  1.00  0.00     0.004 A 
ATOM     26  C   UNL     1      -0.704  -1.319   0.013  1.00  0.00     0.009 A 
ATOM     27  C   UNL     1      -0.705   1.089   0.290  1.00  0.00     0.009 A 
ENDBRANCH  16  21
BRANCH  18  28
ATOM     28  C   UNL     1      -3.042  -1.585   2.605  1.00  0.00     0.252 C 
ATOM     29  N   UNL     1      -3.914  -2.311   3.368  1.00  0.00    -0.365 N 
ATOM     30  O   UNL     1      -1.847  -1.645   2.870  1.00  0.00    -0.269 OA
ATOM     31  H   UNL     1      -4.879  -2.280   3.177  1.00  0.00     0.159 HD
ATOM     32  H   UNL     1      -3.576  -2.865   4.109  1.00  0.00     0.159 HD
ENDBRANCH  18  28
ENDBRANCH  12  15
ENDBRANCH   6  11
ENDBRANCH   3   5
ENDBRANCH   2   3
ENDBRANCH   1   2
BRANCH   1  33
ATOM     33  C   UNL     1     -11.806  -3.020   0.911  1.00  0.00     0.275 C 
BRANCH  33  34
ATOM     34  O   UNL     1     -11.869  -1.589   0.498  1.00  0.00    -0.458 OA
BRANCH  34  35
ATOM     35  C   UNL     1     -11.680  -0.853  -0.670  1.00  0.00     0.338 C 
ATOM     36  O   UNL     1     -12.124   0.286  -0.756  1.00  0.00    -0.246 OA
BRANCH  35  37
ATOM     37  C   UNL     1     -10.604  -1.277  -1.627  1.00  0.00     0.060 A 
ATOM     38  C   UNL     1      -9.059  -0.463  -1.414  1.00  0.00     0.016 A 
ATOM     39  C   UNL     1     -10.594  -2.849  -1.896  1.00  0.00     0.016 A 
ATOM     40  C   UNL     1      -7.353  -1.466  -1.373  1.00  0.00     0.010 A 
ATOM     41  C   UNL     1      -9.245  -3.733  -1.873  1.00  0.00     0.010 A 
ATOM     42  C   UNL     1      -7.574  -3.218  -1.699  1.00  0.00    -0.014 A 
BRANCH  42  43
ATOM     43  C   UNL     1      -6.724  -4.388  -2.017  1.00  0.00     0.031 A 
ATOM     44  C   UNL     1      -5.356  -4.484  -1.496  1.00  0.00     0.074 A 
ATOM     45  C   UNL     1      -7.283  -5.415  -2.747  1.00  0.00     0.049 A 
ATOM     46  N   UNL     1      -4.364  -4.963  -2.170  1.00  0.00    -0.248 NA
ATOM     47  C   UNL     1      -4.955  -3.957  -0.190  1.00  0.00     0.031 C 
ATOM     48  C   UNL     1      -6.925  -6.831  -2.812  1.00  0.00     0.029 A 
ATOM     49  N   UNL     1      -8.414  -5.413  -3.579  1.00  0.00    -0.354 N 
ATOM     50  C   UNL     1      -3.377  -5.202  -1.239  1.00  0.00     0.074 A 
ATOM     51  C   UNL     1      -3.668  -4.323  -0.134  1.00  0.00     0.031 C 
ATOM     52  C   UNL     1      -7.620  -7.441  -3.804  1.00  0.00     0.029 A 
ATOM     53  C   UNL     1      -8.418  -6.437  -4.490  1.00  0.00     0.049 A 
ATOM     54  H   UNL     1      -9.133  -4.743  -3.514  1.00  0.00     0.167 HD
ATOM     55  C   UNL     1      -2.655  -6.358  -1.302  1.00  0.00     0.031 A 
ATOM     56  C   UNL     1      -8.558  -6.159  -5.819  1.00  0.00     0.031 A 
ATOM     57  C   UNL     1      -3.168  -7.225  -2.368  1.00  0.00     0.049 A 
ATOM     58  C   UNL     1      -7.242  -6.498  -6.449  1.00  0.00     0.074 A 
ATOM     59  C   UNL     1      -3.949  -8.369  -2.321  1.00  0.00     0.029 A 
ATOM     60  N   UNL     1      -3.195  -6.787  -3.686  1.00  0.00    -0.354 N 
ATOM     61  N   UNL     1      -6.131  -6.491  -5.766  1.00  0.00    -0.248 NA
ATOM     62  C   UNL     1      -7.075  -6.984  -7.810  1.00  0.00     0.031 C 
ATOM     63  C   UNL     1      -4.417  -8.636  -3.634  1.00  0.00     0.029 A 
ATOM     64  C   UNL     1      -3.940  -7.643  -4.474  1.00  0.00     0.049 A 
ATOM     65  H   UNL     1      -2.744  -5.976  -4.014  1.00  0.00     0.167 HD
ATOM     66  C   UNL     1      -5.170  -7.135  -6.481  1.00  0.00     0.074 A 
ATOM     67  C   UNL     1      -5.787  -7.370  -7.778  1.00  0.00     0.031 C 
ATOM     68  C   UNL     1      -3.975  -7.475  -5.922  1.00  0.00     0.031 A 
BRANCH  55  69
ATOM     69  C   UNL     1      -1.757  -6.888  -0.197  1.00  0.00    -0.014 A 
ATOM     70  C   UNL     1      -1.460  -8.269  -0.158  1.00  0.00     0.010 A 
ATOM     71  C   UNL     1      -1.149  -6.101   0.801  1.00  0.00     0.010 A 
ATOM     72  C   UNL     1      -0.656  -8.842   0.836  1.00  0.00     0.020 A 
ATOM     73  C   UNL     1      -0.355  -6.664   1.819  1.00  0.00     0.020 A 
ATOM     74  C   UNL     1      -0.108  -8.034   1.824  1.00  0.00     0.054 A 
BRANCH  74  75
ATOM     75  S   UNL     1       0.971  -8.795   3.065  1.00  0.00     0.124 S 
ATOM     76  O   UNL     1       0.099  -9.800   3.669  1.00  0.00    -0.237 OA
ATOM     77  O   UNL     1       2.062  -9.319   2.249  1.00  0.00    -0.237 OA
ATOM     78  O   UNL     1       1.330  -7.684   3.943  1.00  0.00    -0.744 OA
ENDBRANCH  74  75
ENDBRANCH  55  69
BRANCH  56  79
ATOM     79  C   UNL     1      -9.420  -4.960  -6.126  1.00  0.00    -0.014 A 
ATOM     80  C   UNL     1     -10.816  -5.104  -5.943  1.00  0.00     0.010 A 
ATOM     81  C   UNL     1      -8.901  -3.650  -6.166  1.00  0.00     0.010 A 
ATOM     82  C   UNL     1     -11.642  -3.996  -5.689  1.00  0.00     0.020 A 
ATOM     83  C   UNL     1      -9.733  -2.532  -5.927  1.00  0.00     0.020 A 
ATOM     84  C   UNL     1     -11.092  -2.716  -5.653  1.00  0.00     0.054 A 
BRANCH  84  85
ATOM     85  S   UNL     1     -12.139  -1.348  -5.034  1.00  0.00     0.124 S 
ATOM     86  O   UNL     1     -13.014  -1.087  -6.170  1.00  0.00    -0.237 OA
ATOM     87  O   UNL     1     -12.783  -1.961  -3.871  1.00  0.00    -0.237 OA
ATOM     88  O   UNL     1     -11.179  -0.295  -4.720  1.00  0.00    -0.744 OA
ENDBRANCH  84  85
ENDBRANCH  56  79
BRANCH  68  89
ATOM     89  C   UNL     1      -2.724  -7.777  -6.691  1.00  0.00    -0.014 A 
ATOM     90  C   UNL     1      -2.615  -7.643  -8.078  1.00  0.00     0.010 A 
ATOM     91  C   UNL     1      -1.538  -8.076  -5.976  1.00  0.00     0.010 A 
ATOM     92  C   UNL     1      -1.406  -7.863  -8.730  1.00  0.00     0.020 A 
ATOM     93  C   UNL     1      -0.308  -8.224  -6.608  1.00  0.00     0.020 A 
ATOM     94  C   UNL     1      -0.260  -8.145  -7.990  1.00  0.00     0.054 A 
BRANCH  94  95
ATOM     95  S   UNL     1       1.288  -8.371  -8.874  1.00  0.00     0.124 S 
ATOM     96  O   UNL     1       1.058  -9.645  -9.552  1.00  0.00    -0.237 OA
ATOM     97  O   UNL     1       1.326  -7.196  -9.742  1.00  0.00    -0.237 OA
ATOM     98  O   UNL     1       2.295  -8.396  -7.818  1.00  0.00    -0.744 OA
ENDBRANCH  94  95
ENDBRANCH  68  89
ENDBRANCH  42  43
ENDBRANCH  35  37
ENDBRANCH  34  35
ENDBRANCH  33  34
ENDBRANCH   1  33
TORSDOF 18
