REMARK SMILES O=C(OCCOC(=O)c1oc2cccc3c2c1CCC3)c1ccc(-c2c3nc(c(-c4ccc(S(=O)(=O)[O-])cc4)c4ccc([nH]4)c(-c4ccc(S(=O)(=O)[O-])cc4)c4nc(c(-c5ccc(S(=O)(=O)[O-])cc5)c5ccc2[nH]5)C=C4)C=C3)cc1
REMARK SMILES IDX 3 1 2 2 1 3 21 4 22 5 80 6 23 7 79 8 24 9 25 10 26 11 73 12
REMARK SMILES IDX 27 13 78 14 72 15 74 16 28 17 77 18 71 19 70 20 29 22 59 23
REMARK SMILES IDX 40 24 58 25 41 26 44 27 57 28 75 29 42 30 43 31 56 33 76 34
REMARK SMILES IDX 45 35 30 36 31 37 39 38 32 39 38 40 33 41 34 42 35 43 36 44
REMARK SMILES IDX 37 45 60 46 61 47 69 48 62 49 68 50 63 51 64 52 65 53 66 54
REMARK SMILES IDX 67 55 46 56 47 57 55 58 48 59 54 60 49 61 50 62 51 63 52 64
REMARK SMILES IDX 53 65 4 66 5 67 6 68 7 69 8 70 9 71 10 72 17 73 11 74 16 75
REMARK SMILES IDX 18 76 12 77 15 78 19 79 13 80 14 81 20 82
REMARK H PARENT 74 21 44 32
REMARK Flexibility Score: inf
ROOT
ATOM      1  O   UNL     1       3.469  -0.503   1.641  1.00  0.00    -0.458 OA
ENDROOT
BRANCH   1   2
ATOM      2  C   UNL     1       2.401  -0.109   0.909  1.00  0.00     0.338 C 
ATOM      3  O   UNL     1       1.429  -0.822   0.710  1.00  0.00    -0.246 OA
BRANCH   2   4
ATOM      4  C   UNL     1       2.455   1.323   0.514  1.00  0.00     0.060 A 
ATOM      5  C   UNL     1       3.635   2.067   0.595  1.00  0.00     0.016 A 
ATOM      6  C   UNL     1       1.278   1.939   0.059  1.00  0.00     0.016 A 
ATOM      7  C   UNL     1       3.639   3.408   0.247  1.00  0.00     0.010 A 
ATOM      8  C   UNL     1       1.274   3.295  -0.269  1.00  0.00     0.010 A 
ATOM      9  C   UNL     1       2.454   4.030  -0.155  1.00  0.00    -0.014 A 
BRANCH   9  10
ATOM     10  C   UNL     1       2.533   5.467  -0.385  1.00  0.00     0.031 A 
ATOM     11  C   UNL     1       3.274   5.944  -1.583  1.00  0.00     0.074 A 
ATOM     12  C   UNL     1       1.983   6.370   0.447  1.00  0.00     0.049 A 
ATOM     13  N   UNL     1       4.393   6.593  -1.629  1.00  0.00    -0.248 NA
ATOM     14  C   UNL     1       2.694   5.643  -2.897  1.00  0.00     0.031 C 
ATOM     15  C   UNL     1       0.989   6.144   1.496  1.00  0.00     0.029 A 
ATOM     16  N   UNL     1       2.162   7.722   0.459  1.00  0.00    -0.354 N 
ATOM     17  C   UNL     1       4.584   6.936  -2.966  1.00  0.00     0.074 A 
ATOM     18  C   UNL     1       3.557   6.249  -3.713  1.00  0.00     0.031 C 
ATOM     19  C   UNL     1       0.504   7.338   1.904  1.00  0.00     0.029 A 
ATOM     20  C   UNL     1       1.253   8.400   1.252  1.00  0.00     0.049 A 
ATOM     21  H   UNL     1       2.873   8.174  -0.049  1.00  0.00     0.167 HD
ATOM     22  C   UNL     1       5.463   7.895  -3.371  1.00  0.00     0.031 A 
ATOM     23  C   UNL     1       1.086   9.742   1.313  1.00  0.00     0.031 A 
ATOM     24  C   UNL     1       6.412   8.257  -2.357  1.00  0.00     0.049 A 
ATOM     25  C   UNL     1       2.346  10.379   0.861  1.00  0.00     0.074 A 
ATOM     26  C   UNL     1       7.407   7.602  -1.662  1.00  0.00     0.029 A 
ATOM     27  N   UNL     1       6.216   9.448  -1.702  1.00  0.00    -0.354 N 
ATOM     28  N   UNL     1       3.475  10.306   1.509  1.00  0.00    -0.248 NA
ATOM     29  C   UNL     1       2.449  10.866  -0.506  1.00  0.00     0.031 C 
ATOM     30  C   UNL     1       7.446   8.226  -0.380  1.00  0.00     0.029 A 
ATOM     31  C   UNL     1       6.468   9.224  -0.372  1.00  0.00     0.049 A 
ATOM     32  H   UNL     1       5.945  10.302  -2.110  1.00  0.00     0.167 HD
ATOM     33  C   UNL     1       4.458  10.367   0.535  1.00  0.00     0.074 A 
ATOM     34  C   UNL     1       3.775  10.849  -0.658  1.00  0.00     0.031 C 
ATOM     35  C   UNL     1       5.673   9.769   0.711  1.00  0.00     0.031 A 
BRANCH  22  36
ATOM     36  C   UNL     1       5.256   8.744  -4.600  1.00  0.00    -0.014 A 
ATOM     37  C   UNL     1       6.315   9.534  -5.092  1.00  0.00     0.010 A 
ATOM     38  C   UNL     1       3.970   8.992  -5.124  1.00  0.00     0.010 A 
ATOM     39  C   UNL     1       6.088  10.547  -6.035  1.00  0.00     0.020 A 
ATOM     40  C   UNL     1       3.740   9.970  -6.094  1.00  0.00     0.020 A 
ATOM     41  C   UNL     1       4.797  10.763  -6.522  1.00  0.00     0.054 A 
BRANCH  41  42
ATOM     42  S   UNL     1       4.496  12.153  -7.645  1.00  0.00     0.124 S 
ATOM     43  O   UNL     1       4.877  13.296  -6.820  1.00  0.00    -0.237 OA
ATOM     44  O   UNL     1       5.391  11.850  -8.759  1.00  0.00    -0.237 OA
ATOM     45  O   UNL     1       3.071  12.047  -7.949  1.00  0.00    -0.744 OA
ENDBRANCH  41  42
ENDBRANCH  22  36
BRANCH  23  46
ATOM     46  C   UNL     1      -0.199  10.473   1.433  1.00  0.00    -0.014 A 
ATOM     47  C   UNL     1      -0.218  11.867   1.625  1.00  0.00     0.010 A 
ATOM     48  C   UNL     1      -1.411   9.842   1.082  1.00  0.00     0.010 A 
ATOM     49  C   UNL     1      -1.389  12.608   1.399  1.00  0.00     0.020 A 
ATOM     50  C   UNL     1      -2.584  10.572   0.871  1.00  0.00     0.020 A 
ATOM     51  C   UNL     1      -2.558  11.957   0.996  1.00  0.00     0.054 A 
BRANCH  51  52
ATOM     52  S   UNL     1      -4.012  12.939   0.535  1.00  0.00     0.124 S 
ATOM     53  O   UNL     1      -4.295  13.678   1.762  1.00  0.00    -0.237 OA
ATOM     54  O   UNL     1      -3.506  13.734  -0.580  1.00  0.00    -0.237 OA
ATOM     55  O   UNL     1      -5.010  11.933   0.175  1.00  0.00    -0.744 OA
ENDBRANCH  51  52
ENDBRANCH  23  46
BRANCH  35  56
ATOM     56  C   UNL     1       6.067   9.344   2.106  1.00  0.00    -0.014 A 
ATOM     57  C   UNL     1       5.386   8.333   2.811  1.00  0.00     0.010 A 
ATOM     58  C   UNL     1       7.261   9.854   2.646  1.00  0.00     0.010 A 
ATOM     59  C   UNL     1       5.886   7.846   4.026  1.00  0.00     0.020 A 
ATOM     60  C   UNL     1       7.773   9.362   3.851  1.00  0.00     0.020 A 
ATOM     61  C   UNL     1       7.086   8.355   4.532  1.00  0.00     0.054 A 
BRANCH  61  62
ATOM     62  S   UNL     1       7.769   7.648   6.059  1.00  0.00     0.124 S 
ATOM     63  O   UNL     1       6.720   7.919   7.038  1.00  0.00    -0.237 OA
ATOM     64  O   UNL     1       7.950   6.242   5.704  1.00  0.00    -0.237 OA
ATOM     65  O   UNL     1       9.012   8.391   6.264  1.00  0.00    -0.744 OA
ENDBRANCH  61  62
ENDBRANCH  35  56
ENDBRANCH   9  10
ENDBRANCH   2   4
ENDBRANCH   1   2
BRANCH   1  66
ATOM     66  C   UNL     1       4.617  -1.062   0.966  1.00  0.00     0.275 C 
BRANCH  66  67
ATOM     67  C   UNL     1       4.341  -1.841  -0.317  1.00  0.00     0.275 C 
BRANCH  67  68
ATOM     68  O   UNL     1       3.906  -0.946  -1.352  1.00  0.00    -0.456 OA
BRANCH  68  69
ATOM     69  C   UNL     1       2.851  -1.377  -2.104  1.00  0.00     0.374 C 
ATOM     70  O   UNL     1       2.293  -2.459  -1.986  1.00  0.00    -0.242 OA
BRANCH  69  71
ATOM     71  C   UNL     1       2.619  -0.432  -3.158  1.00  0.00     0.216 A 
ATOM     72  O   UNL     1       1.690   0.579  -2.996  1.00  0.00    -0.449 OA
ATOM     73  C   UNL     1       3.167  -0.365  -4.420  1.00  0.00     0.014 A 
ATOM     74  C   UNL     1       1.648   1.279  -4.175  1.00  0.00     0.135 A 
ATOM     75  C   UNL     1       2.532   0.708  -5.058  1.00  0.00     0.028 A 
ATOM     76  C   UNL     1       4.188  -1.153  -5.157  1.00  0.00     0.041 C 
ATOM     77  C   UNL     1       0.872   2.378  -4.515  1.00  0.00     0.048 A 
ATOM     78  C   UNL     1       2.703   1.158  -6.366  1.00  0.00    -0.037 A 
ATOM     79  C   UNL     1       3.946  -1.031  -6.691  1.00  0.00     0.010 C 
ATOM     80  C   UNL     1       1.055   2.871  -5.825  1.00  0.00     0.004 A 
ATOM     81  C   UNL     1       1.954   2.277  -6.735  1.00  0.00     0.004 A 
ATOM     82  C   UNL     1       3.712   0.426  -7.210  1.00  0.00     0.036 C 
ENDBRANCH  69  71
ENDBRANCH  68  69
ENDBRANCH  67  68
ENDBRANCH  66  67
ENDBRANCH   1  66
TORSDOF 14
