REMARK SMILES Cc1ccc(S(=O)(=O)n2cc(C(=O)C(=O)NCC(=O)OCCOC(=O)c3ccc(-c4c5nc(c(-c6ccc(S(=O)(=O)[O-])cc6)c6ccc([nH]6)c(-c6ccc(S(=O)(=O)[O-])cc6)c6nc(c(-c7ccc(S(=O)(=O)[O-])cc7)c7ccc4[nH]7)C=C6)C=C5)cc3)c3ccccc32)cc1
REMARK SMILES IDX 21 1 20 2 18 3 19 4 17 5 16 6 14 7 15 8 12 10 13 11 11 12
REMARK SMILES IDX 9 13 10 14 91 15 86 16 90 17 87 18 89 19 88 20 6 21 7 22
REMARK SMILES IDX 8 23 5 24 1 25 2 26 3 27 93 28 4 29 92 30 22 31 23 32 24 33
REMARK SMILES IDX 25 34 26 35 27 36 85 37 28 38 84 39 29 40 30 41 31 42 78 43
REMARK SMILES IDX 32 44 83 45 77 46 79 47 33 48 82 49 76 50 75 51 34 53 64 54
REMARK SMILES IDX 45 55 63 56 46 57 49 58 62 59 80 60 47 61 48 62 61 64 81 65
REMARK SMILES IDX 50 66 35 67 36 68 44 69 37 70 43 71 38 72 39 73 40 74 41 75
REMARK SMILES IDX 42 76 65 77 66 78 74 79 67 80 73 81 68 82 69 83 70 84 71 85
REMARK SMILES IDX 72 86 51 87 52 88 60 89 53 90 59 91 54 92 55 93 56 94 57 95
REMARK SMILES IDX 58 96
REMARK H PARENT 16 9 79 52 49 63
REMARK Flexibility Score: inf
ROOT
ATOM      1  C   UNL     1     -11.613   3.976   2.145  1.00  0.00     0.274 C 
ENDROOT
BRANCH   1   2
ATOM      2  O   UNL     1     -10.211   3.701   2.217  1.00  0.00    -0.461 OA
BRANCH   2   3
ATOM      3  C   UNL     1      -9.505   4.159   1.155  1.00  0.00     0.325 C 
ATOM      4  O   UNL     1     -10.001   4.530   0.098  1.00  0.00    -0.250 OA
BRANCH   3   5
ATOM      5  C   UNL     1      -8.012   4.226   1.437  1.00  0.00     0.239 C 
BRANCH   5   6
ATOM      6  N   UNL     1      -7.506   3.667   2.676  1.00  0.00    -0.338 N 
ATOM      7  C   UNL     1      -6.158   3.548   2.943  1.00  0.00     0.292 C 
ATOM      8  O   UNL     1      -5.699   3.021   3.946  1.00  0.00    -0.265 OA
ATOM      9  H   UNL     1      -8.151   3.361   3.353  1.00  0.00     0.164 HD
BRANCH   7  10
ATOM     10  C   UNL     1      -5.213   4.096   1.862  1.00  0.00     0.252 C 
ATOM     11  O   UNL     1      -4.997   5.304   1.848  1.00  0.00    -0.283 OA
BRANCH  10  12
ATOM     12  C   UNL     1      -4.717   3.198   0.824  1.00  0.00     0.054 A 
ATOM     13  N   UNL     1      -4.072   1.350  -0.232  1.00  0.00    -0.240 N 
ATOM     14  C   UNL     1      -4.609   1.826   0.934  1.00  0.00     0.117 A 
ATOM     15  C   UNL     1      -3.864   2.368  -1.141  1.00  0.00     0.065 A 
ATOM     16  C   UNL     1      -4.260   3.548  -0.492  1.00  0.00     0.012 A 
ATOM     17  C   UNL     1      -3.328   2.384  -2.442  1.00  0.00     0.028 A 
ATOM     18  C   UNL     1      -4.143   4.772  -1.188  1.00  0.00     0.011 A 
ATOM     19  C   UNL     1      -3.207   3.614  -3.096  1.00  0.00     0.002 A 
ATOM     20  C   UNL     1      -3.615   4.792  -2.482  1.00  0.00     0.001 A 
BRANCH  13  21
ATOM     21  S   UNL     1      -3.447  -0.227  -0.382  1.00  0.00     0.268 S 
ATOM     22  O   UNL     1      -3.687  -0.637  -1.738  1.00  0.00    -0.201 OA
ATOM     23  O   UNL     1      -3.990  -0.971   0.754  1.00  0.00    -0.201 OA
BRANCH  21  24
ATOM     24  C   UNL     1      -1.693  -0.114  -0.138  1.00  0.00     0.088 A 
ATOM     25  C   UNL     1       2.600  -0.049   0.070  1.00  0.00     0.044 C 
ATOM     26  C   UNL     1       1.101  -0.070   0.036  1.00  0.00    -0.051 A 
ATOM     27  C   UNL     1       0.419  -1.289  -0.076  1.00  0.00     0.005 A 
ATOM     28  C   UNL     1       0.369   1.120   0.103  1.00  0.00     0.005 A 
ATOM     29  C   UNL     1      -0.973  -1.313  -0.167  1.00  0.00     0.022 A 
ATOM     30  C   UNL     1      -1.024   1.101   0.026  1.00  0.00     0.022 A 
ENDBRANCH  21  24
ENDBRANCH  13  21
ENDBRANCH  10  12
ENDBRANCH   7  10
ENDBRANCH   5   6
ENDBRANCH   3   5
ENDBRANCH   2   3
ENDBRANCH   1   2
BRANCH   1  31
ATOM     31  C   UNL     1     -12.226   4.022   3.554  1.00  0.00     0.275 C 
BRANCH  31  32
ATOM     32  O   UNL     1     -11.686   4.940   4.544  1.00  0.00    -0.458 OA
BRANCH  32  33
ATOM     33  C   UNL     1     -10.368   5.285   4.523  1.00  0.00     0.338 C 
ATOM     34  O   UNL     1      -9.460   4.535   4.853  1.00  0.00    -0.246 OA
BRANCH  33  35
ATOM     35  C   UNL     1     -10.177   6.525   3.717  1.00  0.00     0.060 A 
ATOM     36  C   UNL     1      -8.891   6.954   3.349  1.00  0.00     0.016 A 
ATOM     37  C   UNL     1     -11.286   6.985   3.023  1.00  0.00     0.016 A 
ATOM     38  C   UNL     1      -8.713   7.696   2.173  1.00  0.00     0.010 A 
ATOM     39  C   UNL     1     -11.087   7.488   1.769  1.00  0.00     0.010 A 
ATOM     40  C   UNL     1      -9.812   7.884   1.337  1.00  0.00    -0.014 A 
BRANCH  40  41
ATOM     41  C   UNL     1      -9.816   8.558   0.035  1.00  0.00     0.031 A 
ATOM     42  C   UNL     1      -8.991   8.127  -1.117  1.00  0.00     0.074 A 
ATOM     43  C   UNL     1     -10.726   9.558  -0.050  1.00  0.00     0.049 A 
ATOM     44  N   UNL     1      -8.792   8.845  -2.167  1.00  0.00    -0.248 NA
ATOM     45  C   UNL     1      -8.307   6.841  -1.211  1.00  0.00     0.031 C 
ATOM     46  C   UNL     1     -11.194  10.357  -1.167  1.00  0.00     0.029 A 
ATOM     47  N   UNL     1     -11.294  10.195   1.056  1.00  0.00    -0.354 N 
ATOM     48  C   UNL     1      -8.221   8.048  -3.142  1.00  0.00     0.074 A 
ATOM     49  C   UNL     1      -7.887   6.816  -2.483  1.00  0.00     0.031 C 
ATOM     50  C   UNL     1     -11.670  11.524  -0.681  1.00  0.00     0.029 A 
ATOM     51  C   UNL     1     -11.407  11.541   0.758  1.00  0.00     0.049 A 
ATOM     52  H   UNL     1     -11.565   9.763   1.897  1.00  0.00     0.167 HD
ATOM     53  C   UNL     1      -8.222   8.492  -4.430  1.00  0.00     0.031 A 
ATOM     54  C   UNL     1     -10.551  12.373   1.425  1.00  0.00     0.031 A 
ATOM     55  C   UNL     1      -8.676   9.877  -4.471  1.00  0.00     0.049 A 
ATOM     56  C   UNL     1      -9.575  12.966   0.440  1.00  0.00     0.074 A 
ATOM     57  C   UNL     1      -9.923  10.440  -4.678  1.00  0.00     0.029 A 
ATOM     58  N   UNL     1      -7.898  10.845  -3.843  1.00  0.00    -0.354 N 
ATOM     59  N   UNL     1      -9.110  12.345  -0.616  1.00  0.00    -0.248 NA
ATOM     60  C   UNL     1      -9.196  14.371   0.493  1.00  0.00     0.031 C 
ATOM     61  C   UNL     1      -9.934  11.699  -4.015  1.00  0.00     0.029 A 
ATOM     62  C   UNL     1      -8.689  11.904  -3.438  1.00  0.00     0.049 A 
ATOM     63  H   UNL     1      -6.925  10.784  -3.707  1.00  0.00     0.167 HD
ATOM     64  C   UNL     1      -8.518  13.267  -1.438  1.00  0.00     0.074 A 
ATOM     65  C   UNL     1      -8.557  14.510  -0.680  1.00  0.00     0.031 C 
ATOM     66  C   UNL     1      -8.105  13.024  -2.718  1.00  0.00     0.031 A 
BRANCH  53  67
ATOM     67  C   UNL     1      -8.085   7.613  -5.652  1.00  0.00    -0.014 A 
ATOM     68  C   UNL     1      -8.820   7.958  -6.809  1.00  0.00     0.010 A 
ATOM     69  C   UNL     1      -7.314   6.437  -5.734  1.00  0.00     0.010 A 
ATOM     70  C   UNL     1      -8.827   7.165  -7.964  1.00  0.00     0.020 A 
ATOM     71  C   UNL     1      -7.319   5.624  -6.888  1.00  0.00     0.020 A 
ATOM     72  C   UNL     1      -8.080   5.993  -7.996  1.00  0.00     0.054 A 
BRANCH  72  73
ATOM     73  S   UNL     1      -8.120   4.987  -9.506  1.00  0.00     0.124 S 
ATOM     74  O   UNL     1      -9.541   4.671  -9.639  1.00  0.00    -0.237 OA
ATOM     75  O   UNL     1      -7.586   5.904 -10.510  1.00  0.00    -0.237 OA
ATOM     76  O   UNL     1      -7.262   3.848  -9.189  1.00  0.00    -0.744 OA
ENDBRANCH  72  73
ENDBRANCH  53  67
BRANCH  54  77
ATOM     77  C   UNL     1     -10.277  11.938   2.849  1.00  0.00    -0.014 A 
ATOM     78  C   UNL     1     -11.401  11.791   3.705  1.00  0.00     0.010 A 
ATOM     79  C   UNL     1      -9.071  11.341   3.260  1.00  0.00     0.010 A 
ATOM     80  C   UNL     1     -11.366  10.964   4.837  1.00  0.00     0.020 A 
ATOM     81  C   UNL     1      -9.024  10.531   4.420  1.00  0.00     0.020 A 
ATOM     82  C   UNL     1     -10.183  10.311   5.172  1.00  0.00     0.054 A 
BRANCH  82  83
ATOM     83  S   UNL     1     -10.248   9.047   6.486  1.00  0.00     0.124 S 
ATOM     84  O   UNL     1     -10.373   9.858   7.693  1.00  0.00    -0.237 OA
ATOM     85  O   UNL     1     -11.440   8.278   6.125  1.00  0.00    -0.237 OA
ATOM     86  O   UNL     1      -8.987   8.327   6.340  1.00  0.00    -0.744 OA
ENDBRANCH  82  83
ENDBRANCH  54  77
BRANCH  66  87
ATOM     87  C   UNL     1      -7.170  13.928  -3.472  1.00  0.00    -0.014 A 
ATOM     88  C   UNL     1      -6.276  14.797  -2.829  1.00  0.00     0.010 A 
ATOM     89  C   UNL     1      -7.059  13.802  -4.876  1.00  0.00     0.010 A 
ATOM     90  C   UNL     1      -5.384  15.583  -3.558  1.00  0.00     0.020 A 
ATOM     91  C   UNL     1      -6.126  14.534  -5.608  1.00  0.00     0.020 A 
ATOM     92  C   UNL     1      -5.319  15.450  -4.944  1.00  0.00     0.054 A 
BRANCH  92  93
ATOM     93  S   UNL     1      -4.129  16.447  -5.864  1.00  0.00     0.124 S 
ATOM     94  O   UNL     1      -4.857  17.703  -6.024  1.00  0.00    -0.237 OA
ATOM     95  O   UNL     1      -2.981  16.498  -4.961  1.00  0.00    -0.237 OA
ATOM     96  O   UNL     1      -3.915  15.684  -7.090  1.00  0.00    -0.744 OA
ENDBRANCH  92  93
ENDBRANCH  66  87
ENDBRANCH  40  41
ENDBRANCH  33  35
ENDBRANCH  32  33
ENDBRANCH  31  32
ENDBRANCH   1  31
TORSDOF 19
