REMARK SMILES Cn1ccnc1[C@@H]1[C@@H](C(=O)OCCOC(=O)c2ccc(-c3c4nc(c(-c5ccc(S(=O)(=O)[O-])cc5)c5ccc([nH]5)c(-c5ccc(S(=O)(=O)[O-])cc5)c5nc(c(-c6ccc(S(=O)(=O)[O-])cc6)c6ccc3[nH]6)C=C5)C=C4)cc2)CC(=O)N1CCCOC1CCCCC1
REMARK SMILES IDX 12 1 11 2 9 3 10 4 8 5 7 6 80 7 77 8 78 9 79 10 6 11 1 12
REMARK SMILES IDX 2 13 3 14 4 15 5 16 81 17 82 18 83 19 84 20 85 21 86 22
REMARK SMILES IDX 90 23 87 24 89 25 88 26 13 27 14 28 15 29 16 30 17 31 18 32
REMARK SMILES IDX 76 33 19 34 75 35 20 36 21 37 22 38 69 39 23 40 74 41 68 42
REMARK SMILES IDX 70 43 24 44 73 45 67 46 66 47 25 49 55 50 36 51 54 52 37 53
REMARK SMILES IDX 40 54 53 55 71 56 38 57 39 58 52 60 72 61 41 62 26 63 27 64
REMARK SMILES IDX 35 65 28 66 34 67 29 68 30 69 31 70 32 71 33 72 56 73 57 74
REMARK SMILES IDX 65 75 58 76 64 77 59 78 60 79 61 80 62 81 63 82 42 83 43 84
REMARK SMILES IDX 51 85 44 86 50 87 45 88 46 89 47 90 48 91 49 92
REMARK H PARENT 70 48 40 59
REMARK Flexibility Score: inf
ROOT
ATOM      1  C   UNL     1      -1.224   5.411  -3.529  1.00  0.00     0.274 C 
ENDROOT
BRANCH   1   2
ATOM      2  O   UNL     1      -0.712   5.078  -2.227  1.00  0.00    -0.462 OA
BRANCH   2   3
ATOM      3  C   UNL     1      -0.046   3.904  -2.176  1.00  0.00     0.312 C 
ATOM      4  O   UNL     1       0.048   3.106  -3.102  1.00  0.00    -0.252 OA
BRANCH   3   5
ATOM      5  C   UNL     1       0.613   3.647  -0.859  1.00  0.00     0.139 C 
ATOM      6  C   UNL     1      -0.340   2.930   0.075  1.00  0.00     0.166 C 
ATOM      7  N   UNL     1       0.246   3.155   1.391  1.00  0.00    -0.331 N 
ATOM      8  C   UNL     1       1.145   4.814  -0.062  1.00  0.00     0.118 C 
ATOM      9  C   UNL     1       1.124   4.259   1.335  1.00  0.00     0.224 C 
ATOM     10  O   UNL     1       1.696   4.772   2.287  1.00  0.00    -0.275 OA
BRANCH   6  11
ATOM     11  C   UNL     1      -0.575   1.503  -0.369  1.00  0.00     0.132 A 
ATOM     12  C   UNL     1       1.775   0.590  -0.945  1.00  0.00     0.151 C 
ATOM     13  N   UNL     1       0.334   0.567  -0.847  1.00  0.00    -0.336 N 
ATOM     14  C   UNL     1      -0.378  -0.513  -1.315  1.00  0.00     0.107 A 
ATOM     15  C   UNL     1      -1.693  -0.196  -1.121  1.00  0.00     0.131 A 
ATOM     16  N   UNL     1      -1.806   1.037  -0.541  1.00  0.00    -0.239 NA
ENDBRANCH   6  11
BRANCH   7  17
ATOM     17  C   UNL     1      -0.349   2.916   2.711  1.00  0.00     0.122 C 
BRANCH  17  18
ATOM     18  C   UNL     1      -1.520   1.974   2.959  1.00  0.00     0.050 C 
BRANCH  18  19
ATOM     19  C   UNL     1      -1.428   0.473   2.703  1.00  0.00     0.162 C 
BRANCH  19  20
ATOM     20  O   UNL     1      -0.396  -0.216   3.403  1.00  0.00    -0.378 OA
BRANCH  20  21
ATOM     21  C   UNL     1       0.737  -0.575   2.596  1.00  0.00     0.118 C 
ATOM     22  C   UNL     1       1.822   0.472   2.822  1.00  0.00     0.032 C 
ATOM     23  C   UNL     1       1.207  -1.980   2.979  1.00  0.00     0.032 C 
ATOM     24  C   UNL     1       3.227   0.107   2.388  1.00  0.00     0.003 C 
ATOM     25  C   UNL     1       2.563  -2.304   2.356  1.00  0.00     0.003 C 
ATOM     26  C   UNL     1       3.616  -1.296   2.801  1.00  0.00     0.000 C 
ENDBRANCH  20  21
ENDBRANCH  19  20
ENDBRANCH  18  19
ENDBRANCH  17  18
ENDBRANCH   7  17
ENDBRANCH   3   5
ENDBRANCH   2   3
ENDBRANCH   1   2
BRANCH   1  27
ATOM     27  C   UNL     1      -0.214   6.232  -4.341  1.00  0.00     0.275 C 
BRANCH  27  28
ATOM     28  O   UNL     1       0.957   5.479  -4.726  1.00  0.00    -0.458 OA
BRANCH  28  29
ATOM     29  C   UNL     1       1.999   5.544  -3.861  1.00  0.00     0.338 C 
ATOM     30  O   UNL     1       2.032   6.158  -2.807  1.00  0.00    -0.246 OA
BRANCH  29  31
ATOM     31  C   UNL     1       3.079   4.627  -4.267  1.00  0.00     0.060 A 
ATOM     32  C   UNL     1       3.371   3.551  -3.425  1.00  0.00     0.016 A 
ATOM     33  C   UNL     1       3.878   4.874  -5.380  1.00  0.00     0.016 A 
ATOM     34  C   UNL     1       4.454   2.718  -3.676  1.00  0.00     0.010 A 
ATOM     35  C   UNL     1       4.965   4.029  -5.644  1.00  0.00     0.010 A 
ATOM     36  C   UNL     1       5.264   2.950  -4.790  1.00  0.00    -0.014 A 
BRANCH  36  37
ATOM     37  C   UNL     1       6.444   2.083  -5.022  1.00  0.00     0.031 A 
ATOM     38  C   UNL     1       7.827   2.636  -4.833  1.00  0.00     0.074 A 
ATOM     39  C   UNL     1       6.272   0.794  -5.373  1.00  0.00     0.049 A 
ATOM     40  N   UNL     1       8.981   2.082  -5.101  1.00  0.00    -0.248 NA
ATOM     41  C   UNL     1       7.925   3.991  -4.267  1.00  0.00     0.031 C 
ATOM     42  C   UNL     1       4.979   0.120  -5.516  1.00  0.00     0.029 A 
ATOM     43  N   UNL     1       7.189  -0.180  -5.678  1.00  0.00    -0.354 N 
ATOM     44  C   UNL     1       9.941   3.033  -4.777  1.00  0.00     0.074 A 
ATOM     45  C   UNL     1       9.234   4.200  -4.293  1.00  0.00     0.031 C 
ATOM     46  C   UNL     1       5.187  -1.154  -5.882  1.00  0.00     0.029 A 
ATOM     47  C   UNL     1       6.619  -1.369  -6.064  1.00  0.00     0.049 A 
ATOM     48  H   UNL     1       8.163  -0.040  -5.624  1.00  0.00     0.167 HD
ATOM     49  C   UNL     1      11.288   2.942  -4.884  1.00  0.00     0.031 A 
ATOM     50  C   UNL     1       7.180  -2.491  -6.557  1.00  0.00     0.031 A 
ATOM     51  C   UNL     1      11.981   1.773  -5.361  1.00  0.00     0.049 A 
ATOM     52  C   UNL     1       8.673  -2.543  -6.734  1.00  0.00     0.074 A 
ATOM     53  C   UNL     1      13.344   1.577  -5.499  1.00  0.00     0.029 A 
ATOM     54  N   UNL     1      11.365   0.603  -5.779  1.00  0.00    -0.354 N 
ATOM     55  N   UNL     1       9.568  -1.628  -6.446  1.00  0.00    -0.248 NA
ATOM     56  C   UNL     1       9.230  -3.774  -7.310  1.00  0.00     0.031 C 
ATOM     57  C   UNL     1      13.549   0.309  -6.052  1.00  0.00     0.029 A 
ATOM     58  C   UNL     1      12.317  -0.309  -6.202  1.00  0.00     0.049 A 
ATOM     59  H   UNL     1      10.393   0.444  -5.776  1.00  0.00     0.167 HD
ATOM     60  C   UNL     1      10.796  -2.179  -6.790  1.00  0.00     0.074 A 
ATOM     61  C   UNL     1      10.530  -3.513  -7.290  1.00  0.00     0.031 C 
ATOM     62  C   UNL     1      12.033  -1.631  -6.702  1.00  0.00     0.031 A 
BRANCH  49  63
ATOM     63  C   UNL     1      12.098   4.163  -4.535  1.00  0.00    -0.014 A 
ATOM     64  C   UNL     1      12.257   4.588  -3.205  1.00  0.00     0.010 A 
ATOM     65  C   UNL     1      12.735   4.882  -5.564  1.00  0.00     0.010 A 
ATOM     66  C   UNL     1      13.002   5.735  -2.914  1.00  0.00     0.020 A 
ATOM     67  C   UNL     1      13.502   6.013  -5.275  1.00  0.00     0.020 A 
ATOM     68  C   UNL     1      13.616   6.443  -3.952  1.00  0.00     0.054 A 
BRANCH  68  69
ATOM     69  S   UNL     1      14.585   7.922  -3.547  1.00  0.00     0.124 S 
ATOM     70  O   UNL     1      13.538   8.888  -3.222  1.00  0.00    -0.237 OA
ATOM     71  O   UNL     1      15.398   7.474  -2.419  1.00  0.00    -0.237 OA
ATOM     72  O   UNL     1      15.327   8.198  -4.775  1.00  0.00    -0.744 OA
ENDBRANCH  68  69
ENDBRANCH  49  63
BRANCH  50  73
ATOM     73  C   UNL     1       6.317  -3.632  -6.967  1.00  0.00    -0.014 A 
ATOM     74  C   UNL     1       6.323  -4.836  -6.243  1.00  0.00     0.010 A 
ATOM     75  C   UNL     1       5.464  -3.508  -8.081  1.00  0.00     0.010 A 
ATOM     76  C   UNL     1       5.497  -5.897  -6.628  1.00  0.00     0.020 A 
ATOM     77  C   UNL     1       4.617  -4.554  -8.451  1.00  0.00     0.020 A 
ATOM     78  C   UNL     1       4.646  -5.747  -7.727  1.00  0.00     0.054 A 
BRANCH  78  79
ATOM     79  S   UNL     1       3.534  -7.112  -8.167  1.00  0.00     0.124 S 
ATOM     80  O   UNL     1       4.453  -8.067  -8.777  1.00  0.00    -0.237 OA
ATOM     81  O   UNL     1       2.984  -7.500  -6.871  1.00  0.00    -0.237 OA
ATOM     82  O   UNL     1       2.577  -6.491  -9.080  1.00  0.00    -0.744 OA
ENDBRANCH  78  79
ENDBRANCH  50  73
BRANCH  62  83
ATOM     83  C   UNL     1      13.198  -2.483  -7.129  1.00  0.00    -0.014 A 
ATOM     84  C   UNL     1      13.446  -2.751  -8.487  1.00  0.00     0.010 A 
ATOM     85  C   UNL     1      14.086  -2.980  -6.157  1.00  0.00     0.010 A 
ATOM     86  C   UNL     1      14.546  -3.526  -8.864  1.00  0.00     0.020 A 
ATOM     87  C   UNL     1      15.202  -3.732  -6.532  1.00  0.00     0.020 A 
ATOM     88  C   UNL     1      15.417  -4.011  -7.883  1.00  0.00     0.054 A 
BRANCH  88  89
ATOM     89  S   UNL     1      16.863  -4.977  -8.400  1.00  0.00     0.124 S 
ATOM     90  O   UNL     1      16.260  -6.257  -8.761  1.00  0.00    -0.237 OA
ATOM     91  O   UNL     1      17.391  -4.194  -9.514  1.00  0.00    -0.237 OA
ATOM     92  O   UNL     1      17.708  -5.001  -7.208  1.00  0.00    -0.744 OA
ENDBRANCH  88  89
ENDBRANCH  62  83
ENDBRANCH  36  37
ENDBRANCH  29  31
ENDBRANCH  28  29
ENDBRANCH  27  28
ENDBRANCH   1  27
TORSDOF 20
