REMARK SMILES Cc1[nH]cnc1C[NH+]1CCC(Oc2cccc(F)c2)(C(=O)OCCOC(=O)c2ccc(-c3c4nc(c(-c5ccc(S(=O)(=O)[O-])cc5)c5ccc([nH]5)c(-c5ccc(S(=O)(=O)[O-])cc5)c5nc(c(-c6ccc(S(=O)(=O)[O-])cc6)c6ccc3[nH]6)C=C5)C=C4)cc2)CC1
REMARK SMILES IDX 24 1 23 2 22 3 20 4 21 5 11 6 8 7 9 8 89 9 10 11 88 12 7 13
REMARK SMILES IDX 6 14 1 15 2 16 3 17 4 18 5 20 12 21 13 22 14 23 19 24 15 25
REMARK SMILES IDX 17 26 16 27 18 28 25 29 26 30 27 31 28 32 29 33 87 34 30 35
REMARK SMILES IDX 86 36 31 37 32 38 33 39 80 40 34 41 85 42 79 43 81 44 35 45
REMARK SMILES IDX 84 46 78 47 77 48 36 50 66 51 47 52 65 53 48 54 51 55 64 56
REMARK SMILES IDX 82 57 49 58 50 59 63 61 83 62 52 63 37 64 38 65 46 66 39 67
REMARK SMILES IDX 45 68 40 69 41 70 42 71 43 72 44 73 67 74 68 75 76 76 69 77
REMARK SMILES IDX 75 78 70 79 71 80 72 81 73 82 74 83 53 84 54 85 62 86 55 87
REMARK SMILES IDX 61 88 56 89 57 90 58 91 59 92 60 93
REMARK H PARENT 8 10 3 19 81 49 51 60
REMARK Flexibility Score: inf
ROOT
ATOM      1  C   UNL     1      -2.673   0.678   4.519  1.00  0.00     0.275 C 
ENDROOT
BRANCH   1   2
ATOM      2  C   UNL     1      -2.387  -0.487   5.459  1.00  0.00     0.274 C 
BRANCH   2   3
ATOM      3  O   UNL     1      -1.523  -1.463   4.840  1.00  0.00    -0.459 OA
BRANCH   3   4
ATOM      4  C   UNL     1      -2.157  -2.546   4.304  1.00  0.00     0.351 C 
ATOM      5  O   UNL     1      -3.380  -2.652   4.240  1.00  0.00    -0.247 OA
BRANCH   4   6
ATOM      6  C   UNL     1      -1.200  -3.686   3.916  1.00  0.00     0.216 C 
ATOM      7  N   UNL     1       0.350  -3.334   1.482  1.00  0.00    -0.330 N 
ATOM      8  C   UNL     1       0.729  -2.557   2.660  1.00  0.00     0.267 C 
ATOM      9  C   UNL     1      -1.104  -3.426   1.378  1.00  0.00     0.267 C 
ATOM     10  H   UNL     1       0.728  -4.270   1.621  1.00  0.00     0.348 HD
ATOM     11  C   UNL     1       0.292  -3.309   3.916  1.00  0.00     0.122 C 
ATOM     12  C   UNL     1      -1.634  -4.257   2.545  1.00  0.00     0.122 C 
BRANCH   7  13
ATOM     13  C   UNL     1       0.970  -2.871   0.224  1.00  0.00     0.321 C 
BRANCH  13  14
ATOM     14  C   UNL     1       0.784  -1.414  -0.079  1.00  0.00     0.115 A 
ATOM     15  C   UNL     1       3.108  -0.320   0.463  1.00  0.00     0.066 C 
ATOM     16  C   UNL     1       1.698  -0.377   0.025  1.00  0.00     0.040 A 
ATOM     17  N   UNL     1       1.026   0.733  -0.418  1.00  0.00    -0.348 N 
ATOM     18  C   UNL     1      -0.215   0.336  -0.812  1.00  0.00     0.197 A 
ATOM     19  H   UNL     1       1.378   1.652  -0.445  1.00  0.00     0.167 HD
ATOM     20  N   UNL     1      -0.404  -0.945  -0.600  1.00  0.00    -0.236 NA
ENDBRANCH  13  14
ENDBRANCH   7  13
BRANCH   6  21
ATOM     21  O   UNL     1      -1.445  -4.531   5.088  1.00  0.00    -0.475 OA
BRANCH  21  22
ATOM     22  C   UNL     1      -1.521  -5.872   4.875  1.00  0.00     0.123 A 
ATOM     23  C   UNL     1      -0.371  -6.651   4.994  1.00  0.00     0.047 A 
ATOM     24  C   UNL     1      -2.760  -6.463   4.643  1.00  0.00     0.085 A 
ATOM     25  C   UNL     1      -0.447  -8.032   4.817  1.00  0.00     0.007 A 
ATOM     26  C   UNL     1      -2.824  -7.840   4.469  1.00  0.00     0.126 A 
ATOM     27  C   UNL     1      -1.679  -8.628   4.547  1.00  0.00     0.039 A 
ATOM     28  F   UNL     1      -4.005  -8.424   4.229  1.00  0.00    -0.207 F 
ENDBRANCH  21  22
ENDBRANCH   6  21
ENDBRANCH   4   6
ENDBRANCH   3   4
ENDBRANCH   2   3
ENDBRANCH   1   2
BRANCH   1  29
ATOM     29  O   UNL     1      -3.314   0.191   3.331  1.00  0.00    -0.458 OA
BRANCH  29  30
ATOM     30  C   UNL     1      -2.793   0.629   2.164  1.00  0.00     0.338 C 
ATOM     31  O   UNL     1      -1.906   1.466   2.036  1.00  0.00    -0.246 OA
BRANCH  30  32
ATOM     32  C   UNL     1      -3.455  -0.026   1.016  1.00  0.00     0.060 A 
ATOM     33  C   UNL     1      -3.861  -1.363   1.060  1.00  0.00     0.016 A 
ATOM     34  C   UNL     1      -3.554   0.689  -0.179  1.00  0.00     0.016 A 
ATOM     35  C   UNL     1      -4.230  -2.019  -0.115  1.00  0.00     0.010 A 
ATOM     36  C   UNL     1      -3.992   0.052  -1.340  1.00  0.00     0.010 A 
ATOM     37  C   UNL     1      -4.298  -1.317  -1.326  1.00  0.00    -0.014 A 
BRANCH  37  38
ATOM     38  C   UNL     1      -4.753  -1.972  -2.576  1.00  0.00     0.031 A 
ATOM     39  C   UNL     1      -3.835  -2.104  -3.760  1.00  0.00     0.074 A 
ATOM     40  C   UNL     1      -6.032  -2.381  -2.662  1.00  0.00     0.049 A 
ATOM     41  N   UNL     1      -4.129  -2.413  -4.998  1.00  0.00    -0.248 NA
ATOM     42  C   UNL     1      -2.405  -1.852  -3.528  1.00  0.00     0.031 C 
ATOM     43  C   UNL     1      -7.006  -2.342  -1.569  1.00  0.00     0.029 A 
ATOM     44  N   UNL     1      -6.740  -2.880  -3.724  1.00  0.00    -0.354 N 
ATOM     45  C   UNL     1      -2.929  -2.367  -5.699  1.00  0.00     0.074 A 
ATOM     46  C   UNL     1      -1.901  -1.997  -4.748  1.00  0.00     0.031 C 
ATOM     47  C   UNL     1      -8.187  -2.787  -2.019  1.00  0.00     0.029 A 
ATOM     48  C   UNL     1      -8.072  -3.064  -3.446  1.00  0.00     0.049 A 
ATOM     49  H   UNL     1      -6.335  -3.086  -4.598  1.00  0.00     0.167 HD
ATOM     50  C   UNL     1      -2.713  -2.608  -7.015  1.00  0.00     0.031 A 
ATOM     51  C   UNL     1      -9.107  -3.355  -4.255  1.00  0.00     0.031 A 
ATOM     52  C   UNL     1      -3.745  -2.987  -7.947  1.00  0.00     0.049 A 
ATOM     53  C   UNL     1      -8.862  -3.533  -5.720  1.00  0.00     0.074 A 
ATOM     54  C   UNL     1      -3.626  -3.278  -9.296  1.00  0.00     0.029 A 
ATOM     55  N   UNL     1      -5.087  -3.130  -7.626  1.00  0.00    -0.354 N 
ATOM     56  N   UNL     1      -7.731  -3.444  -6.378  1.00  0.00    -0.248 NA
ATOM     57  C   UNL     1     -10.031  -3.835  -6.554  1.00  0.00     0.031 C 
ATOM     58  C   UNL     1      -4.903  -3.555  -9.799  1.00  0.00     0.029 A 
ATOM     59  C   UNL     1      -5.811  -3.478  -8.755  1.00  0.00     0.049 A 
ATOM     60  H   UNL     1      -5.470  -3.003  -6.728  1.00  0.00     0.167 HD
ATOM     61  C   UNL     1      -8.050  -3.685  -7.707  1.00  0.00     0.074 A 
ATOM     62  C   UNL     1      -9.478  -3.935  -7.756  1.00  0.00     0.031 C 
ATOM     63  C   UNL     1      -7.234  -3.699  -8.788  1.00  0.00     0.031 A 
BRANCH  50  64
ATOM     64  C   UNL     1      -1.313  -2.439  -7.547  1.00  0.00    -0.014 A 
ATOM     65  C   UNL     1      -0.323  -3.410  -7.319  1.00  0.00     0.010 A 
ATOM     66  C   UNL     1      -1.010  -1.331  -8.359  1.00  0.00     0.010 A 
ATOM     67  C   UNL     1       0.952  -3.265  -7.878  1.00  0.00     0.020 A 
ATOM     68  C   UNL     1       0.257  -1.190  -8.934  1.00  0.00     0.020 A 
ATOM     69  C   UNL     1       1.235  -2.154  -8.680  1.00  0.00     0.054 A 
BRANCH  69  70
ATOM     70  S   UNL     1       2.882  -2.007  -9.430  1.00  0.00     0.124 S 
ATOM     71  O   UNL     1       3.692  -1.568  -8.296  1.00  0.00    -0.237 OA
ATOM     72  O   UNL     1       3.147  -3.365  -9.901  1.00  0.00    -0.237 OA
ATOM     73  O   UNL     1       2.696  -1.013 -10.484  1.00  0.00    -0.744 OA
ENDBRANCH  69  70
ENDBRANCH  50  64
BRANCH  51  74
ATOM     74  C   UNL     1     -10.472  -3.417  -3.674  1.00  0.00    -0.014 A 
ATOM     75  C   UNL     1     -11.088  -4.654  -3.431  1.00  0.00     0.010 A 
ATOM     76  C   UNL     1     -11.113  -2.233  -3.262  1.00  0.00     0.010 A 
ATOM     77  C   UNL     1     -12.317  -4.709  -2.768  1.00  0.00     0.020 A 
ATOM     78  C   UNL     1     -12.329  -2.285  -2.578  1.00  0.00     0.020 A 
ATOM     79  C   UNL     1     -12.925  -3.525  -2.337  1.00  0.00     0.054 A 
BRANCH  79  80
ATOM     80  S   UNL     1     -14.456  -3.618  -1.368  1.00  0.00     0.124 S 
ATOM     81  O   UNL     1     -15.466  -3.762  -2.411  1.00  0.00    -0.237 OA
ATOM     82  O   UNL     1     -14.238  -4.795  -0.531  1.00  0.00    -0.237 OA
ATOM     83  O   UNL     1     -14.476  -2.348  -0.644  1.00  0.00    -0.744 OA
ENDBRANCH  79  80
ENDBRANCH  51  74
BRANCH  63  84
ATOM     84  C   UNL     1      -7.873  -4.007 -10.111  1.00  0.00    -0.014 A 
ATOM     85  C   UNL     1      -8.611  -3.028 -10.799  1.00  0.00     0.010 A 
ATOM     86  C   UNL     1      -7.722  -5.284 -10.678  1.00  0.00     0.010 A 
ATOM     87  C   UNL     1      -9.219  -3.333 -12.019  1.00  0.00     0.020 A 
ATOM     88  C   UNL     1      -8.314  -5.587 -11.906  1.00  0.00     0.020 A 
ATOM     89  C   UNL     1      -9.073  -4.614 -12.561  1.00  0.00     0.054 A 
BRANCH  89  90
ATOM     90  S   UNL     1      -9.856  -4.988 -14.154  1.00  0.00     0.124 S 
ATOM     91  O   UNL     1     -11.244  -5.216 -13.763  1.00  0.00    -0.237 OA
ATOM     92  O   UNL     1      -9.613  -3.773 -14.929  1.00  0.00    -0.237 OA
ATOM     93  O   UNL     1      -9.136  -6.170 -14.622  1.00  0.00    -0.744 OA
ENDBRANCH  89  90
ENDBRANCH  63  84
ENDBRANCH  37  38
ENDBRANCH  30  32
ENDBRANCH  29  30
ENDBRANCH   1  29
TORSDOF 18
