REMARK SMILES Cc1cc(C(=O)OCCOC(=O)c2ccc(-c3c4nc(c(-c5ccc(S(=O)(=O)[O-])cc5)c5ccc([nH]5)c(-c5ccc(S(=O)(=O)[O-])cc5)c5nc(c(-c6ccc(S(=O)(=O)[O-])cc6)c6ccc3[nH]6)C=C5)C=C4)cc2)c2c(C)nn(-c3ccccc3)c2n1
REMARK SMILES IDX 9 1 8 2 7 3 5 4 6 5 4 6 1 7 2 8 3 9 85 10 84 11 73 12 77 13
REMARK SMILES IDX 74 14 76 15 75 16 78 17 79 18 83 19 80 20 82 21 81 22 10 23
REMARK SMILES IDX 11 24 12 25 13 26 14 27 72 28 15 29 71 30 16 31 17 32 18 33
REMARK SMILES IDX 65 34 19 35 70 36 64 37 66 38 20 39 69 40 63 41 62 42 21 44
REMARK SMILES IDX 51 45 32 46 50 47 33 48 36 49 49 50 67 51 34 52 35 53 48 55
REMARK SMILES IDX 68 56 37 57 22 58 23 59 31 60 24 61 30 62 25 63 26 64 27 65
REMARK SMILES IDX 28 66 29 67 52 68 53 69 61 70 54 71 60 72 55 73 56 74 57 75
REMARK SMILES IDX 58 76 59 77 38 78 39 79 47 80 40 81 46 82 41 83 42 84 43 85
REMARK SMILES IDX 44 86 45 87
REMARK H PARENT 66 43 36 54
REMARK Flexibility Score: inf
ROOT
ATOM      1  C   UNL     1       0.409  -5.134   4.606  1.00  0.00     0.275 C 
ENDROOT
BRANCH   1   2
ATOM      2  C   UNL     1      -0.693  -4.932   3.573  1.00  0.00     0.275 C 
BRANCH   2   3
ATOM      3  O   UNL     1      -0.563  -3.659   2.919  1.00  0.00    -0.458 OA
BRANCH   3   4
ATOM      4  C   UNL     1      -1.297  -2.640   3.453  1.00  0.00     0.339 C 
ATOM      5  O   UNL     1      -2.210  -2.758   4.235  1.00  0.00    -0.246 OA
BRANCH   4   6
ATOM      6  C   UNL     1      -0.784  -1.337   2.964  1.00  0.00     0.074 A 
ATOM      7  C   UNL     1       1.014   0.077  -0.057  1.00  0.00     0.067 C 
ATOM      8  C   UNL     1       0.260  -0.009   1.240  1.00  0.00     0.041 A 
ATOM      9  C   UNL     1      -0.151  -1.247   1.716  1.00  0.00     0.040 A 
ATOM     10  N   UNL     1       0.078   1.151   1.902  1.00  0.00    -0.233 NA
ATOM     11  C   UNL     1      -0.450   1.016   3.140  1.00  0.00     0.164 A 
ATOM     12  C   UNL     1      -0.876  -0.164   3.746  1.00  0.00     0.057 A 
ATOM     13  N   UNL     1      -0.610   2.021   4.076  1.00  0.00    -0.214 N 
ATOM     14  C   UNL     1      -1.261   0.244   5.059  1.00  0.00     0.070 A 
ATOM     15  N   UNL     1      -1.014   1.543   5.276  1.00  0.00    -0.171 NA
ATOM     16  C   UNL     1      -1.836  -0.534   6.186  1.00  0.00     0.069 C 
BRANCH  13  17
ATOM     17  C   UNL     1      -0.487   3.413   3.884  1.00  0.00     0.067 A 
ATOM     18  C   UNL     1      -1.161   4.030   2.824  1.00  0.00     0.028 A 
ATOM     19  C   UNL     1       0.248   4.171   4.803  1.00  0.00     0.028 A 
ATOM     20  C   UNL     1      -1.122   5.420   2.706  1.00  0.00     0.002 A 
ATOM     21  C   UNL     1       0.334   5.553   4.637  1.00  0.00     0.002 A 
ATOM     22  C   UNL     1      -0.366   6.178   3.603  1.00  0.00     0.000 A 
ENDBRANCH  13  17
ENDBRANCH   4   6
ENDBRANCH   3   4
ENDBRANCH   2   3
ENDBRANCH   1   2
BRANCH   1  23
ATOM     23  O   UNL     1       0.357  -4.148   5.638  1.00  0.00    -0.458 OA
BRANCH  23  24
ATOM     24  C   UNL     1       1.131  -3.061   5.410  1.00  0.00     0.338 C 
ATOM     25  O   UNL     1       1.601  -2.703   4.342  1.00  0.00    -0.246 OA
BRANCH  24  26
ATOM     26  C   UNL     1       1.498  -2.447   6.686  1.00  0.00     0.060 A 
ATOM     27  C   UNL     1       2.088  -1.179   6.658  1.00  0.00     0.016 A 
ATOM     28  C   UNL     1       1.496  -3.239   7.843  1.00  0.00     0.016 A 
ATOM     29  C   UNL     1       2.801  -0.759   7.763  1.00  0.00     0.010 A 
ATOM     30  C   UNL     1       2.237  -2.834   8.927  1.00  0.00     0.010 A 
ATOM     31  C   UNL     1       2.923  -1.625   8.854  1.00  0.00    -0.014 A 
BRANCH  31  32
ATOM     32  C   UNL     1       3.728  -1.206   9.980  1.00  0.00     0.031 A 
ATOM     33  C   UNL     1       2.978  -0.395  10.961  1.00  0.00     0.074 A 
ATOM     34  C   UNL     1       4.998  -1.615  10.151  1.00  0.00     0.049 A 
ATOM     35  N   UNL     1       3.027   0.885  11.118  1.00  0.00    -0.248 NA
ATOM     36  C   UNL     1       1.916  -1.059  11.737  1.00  0.00     0.031 C 
ATOM     37  C   UNL     1       5.712  -2.665   9.418  1.00  0.00     0.029 A 
ATOM     38  N   UNL     1       5.894  -1.234  11.098  1.00  0.00    -0.354 N 
ATOM     39  C   UNL     1       2.168   1.154  12.176  1.00  0.00     0.074 A 
ATOM     40  C   UNL     1       1.355  -0.021  12.356  1.00  0.00     0.031 C 
ATOM     41  C   UNL     1       6.844  -2.985  10.090  1.00  0.00     0.029 A 
ATOM     42  C   UNL     1       7.003  -2.064  11.203  1.00  0.00     0.049 A 
ATOM     43  H   UNL     1       5.769  -0.437  11.662  1.00  0.00     0.167 HD
ATOM     44  C   UNL     1       2.410   2.178  13.040  1.00  0.00     0.031 A 
ATOM     45  C   UNL     1       7.943  -2.013  12.181  1.00  0.00     0.031 A 
ATOM     46  C   UNL     1       3.439   3.055  12.549  1.00  0.00     0.049 A 
ATOM     47  C   UNL     1       7.909  -0.636  12.733  1.00  0.00     0.074 A 
ATOM     48  C   UNL     1       3.548   4.026  11.579  1.00  0.00     0.029 A 
ATOM     49  N   UNL     1       4.709   2.640  12.862  1.00  0.00    -0.354 N 
ATOM     50  N   UNL     1       8.198   0.424  12.028  1.00  0.00    -0.248 NA
ATOM     51  C   UNL     1       7.203  -0.378  13.983  1.00  0.00     0.031 C 
ATOM     52  C   UNL     1       4.914   4.014  11.164  1.00  0.00     0.029 A 
ATOM     53  C   UNL     1       5.606   3.067  11.918  1.00  0.00     0.049 A 
ATOM     54  H   UNL     1       4.944   2.109  13.657  1.00  0.00     0.167 HD
ATOM     55  C   UNL     1       7.362   1.409  12.521  1.00  0.00     0.074 A 
ATOM     56  C   UNL     1       6.907   0.914  13.814  1.00  0.00     0.031 C 
ATOM     57  C   UNL     1       6.874   2.393  11.712  1.00  0.00     0.031 A 
BRANCH  44  58
ATOM     58  C   UNL     1       2.099   2.083  14.514  1.00  0.00    -0.014 A 
ATOM     59  C   UNL     1       2.184   3.233  15.319  1.00  0.00     0.010 A 
ATOM     60  C   UNL     1       1.990   0.842  15.179  1.00  0.00     0.010 A 
ATOM     61  C   UNL     1       2.162   3.140  16.720  1.00  0.00     0.020 A 
ATOM     62  C   UNL     1       1.924   0.741  16.568  1.00  0.00     0.020 A 
ATOM     63  C   UNL     1       2.027   1.892  17.333  1.00  0.00     0.054 A 
BRANCH  63  64
ATOM     64  S   UNL     1       2.067   1.772  19.139  1.00  0.00     0.124 S 
ATOM     65  O   UNL     1       3.358   2.375  19.459  1.00  0.00    -0.237 OA
ATOM     66  O   UNL     1       0.891   2.549  19.522  1.00  0.00    -0.237 OA
ATOM     67  O   UNL     1       1.969   0.337  19.391  1.00  0.00    -0.744 OA
ENDBRANCH  63  64
ENDBRANCH  44  58
BRANCH  45  68
ATOM     68  C   UNL     1       8.546  -3.157  12.917  1.00  0.00    -0.014 A 
ATOM     69  C   UNL     1       9.568  -2.938  13.863  1.00  0.00     0.010 A 
ATOM     70  C   UNL     1       7.907  -4.413  12.927  1.00  0.00     0.010 A 
ATOM     71  C   UNL     1       9.864  -3.897  14.846  1.00  0.00     0.020 A 
ATOM     72  C   UNL     1       8.203  -5.378  13.898  1.00  0.00     0.020 A 
ATOM     73  C   UNL     1       9.153  -5.098  14.878  1.00  0.00     0.054 A 
BRANCH  73  74
ATOM     74  S   UNL     1       9.400  -6.245  16.267  1.00  0.00     0.124 S 
ATOM     75  O   UNL     1      10.825  -6.549  16.174  1.00  0.00    -0.237 OA
ATOM     76  O   UNL     1       9.000  -5.433  17.412  1.00  0.00    -0.237 OA
ATOM     77  O   UNL     1       8.509  -7.361  15.956  1.00  0.00    -0.744 OA
ENDBRANCH  73  74
ENDBRANCH  45  68
BRANCH  57  78
ATOM     78  C   UNL     1       7.629   2.700  10.448  1.00  0.00    -0.014 A 
ATOM     79  C   UNL     1       7.684   1.854   9.325  1.00  0.00     0.010 A 
ATOM     80  C   UNL     1       8.238   3.964  10.372  1.00  0.00     0.010 A 
ATOM     81  C   UNL     1       8.346   2.266   8.156  1.00  0.00     0.020 A 
ATOM     82  C   UNL     1       8.884   4.385   9.210  1.00  0.00     0.020 A 
ATOM     83  C   UNL     1       8.937   3.534   8.106  1.00  0.00     0.054 A 
BRANCH  83  84
ATOM     84  S   UNL     1       9.777   4.075   6.590  1.00  0.00     0.124 S 
ATOM     85  O   UNL     1      10.779   3.033   6.384  1.00  0.00    -0.237 OA
ATOM     86  O   UNL     1       8.688   4.103   5.616  1.00  0.00    -0.237 OA
ATOM     87  O   UNL     1      10.319   5.388   6.940  1.00  0.00    -0.744 OA
ENDBRANCH  83  84
ENDBRANCH  57  78
ENDBRANCH  31  32
ENDBRANCH  24  26
ENDBRANCH  23  24
ENDBRANCH   1  23
TORSDOF 15
