REMARK SMILES C[C@@H]1CCC[C@H](NC(=O)N(C)CC(=O)OCCOC(=O)c2ccc(-c3c4nc(c(-c5ccc(S(=O)(=O)[O-])cc5)c5ccc([nH]5)c(-c5ccc(S(=O)(=O)[O-])cc5)c5nc(c(-c6ccc(S(=O)(=O)[O-])cc6)c6ccc3[nH]6)C=C5)C=C4)cc2)C1
REMARK SMILES IDX 16 1 15 2 13 3 14 4 12 5 10 6 11 7 8 8 7 9 9 11 6 12 1 13
REMARK SMILES IDX 2 14 3 15 81 16 4 17 5 18 17 19 18 20 19 21 20 22 21 23
REMARK SMILES IDX 22 24 80 25 23 26 79 27 24 28 25 29 26 30 73 31 27 32 78 33
REMARK SMILES IDX 72 34 74 35 28 36 77 37 71 38 70 39 29 41 59 42 40 43 58 44
REMARK SMILES IDX 41 45 44 46 57 47 75 48 42 49 43 50 56 52 76 53 45 54 30 55
REMARK SMILES IDX 31 56 39 57 32 58 38 59 33 60 34 61 35 62 36 63 37 64 60 65
REMARK SMILES IDX 61 66 69 67 62 68 68 69 63 70 64 71 65 72 66 73 67 74 46 75
REMARK SMILES IDX 47 76 55 77 48 78 54 79 49 80 50 81 51 82 52 83 53 84
REMARK H PARENT 7 10 74 40 44 51
REMARK Flexibility Score: inf
ROOT
ATOM      1  C   UNL     1      -0.309  -6.385   3.351  1.00  0.00     0.274 C 
ENDROOT
BRANCH   1   2
ATOM      2  O   UNL     1      -1.100  -5.600   2.437  1.00  0.00    -0.461 OA
BRANCH   2   3
ATOM      3  C   UNL     1      -2.449  -5.785   2.511  1.00  0.00     0.325 C 
ATOM      4  O   UNL     1      -2.995  -6.667   3.167  1.00  0.00    -0.250 OA
BRANCH   3   5
ATOM      5  C   UNL     1      -3.239  -4.811   1.637  1.00  0.00     0.243 C 
BRANCH   5   6
ATOM      6  N   UNL     1      -2.457  -3.759   0.973  1.00  0.00    -0.317 N 
ATOM      7  C   UNL     1      -1.953  -4.100  -0.340  1.00  0.00     0.149 C 
BRANCH   6   8
ATOM      8  C   UNL     1      -2.244  -2.620   1.692  1.00  0.00     0.317 C 
ATOM      9  N   UNL     1      -1.716  -1.500   1.177  1.00  0.00    -0.335 N 
ATOM     10  H   UNL     1      -1.589  -0.804   1.861  1.00  0.00     0.165 HD
ATOM     11  O   UNL     1      -2.561  -2.551   2.882  1.00  0.00    -0.249 OA
BRANCH   9  12
ATOM     12  C   UNL     1      -1.282  -1.054  -0.139  1.00  0.00     0.084 C 
ATOM     13  C   UNL     1       1.164  -0.081   1.889  1.00  0.00     0.008 C 
ATOM     14  C   UNL     1       1.027   0.042   0.369  1.00  0.00    -0.012 C 
ATOM     15  C   UNL     1       0.426   1.393  -0.035  1.00  0.00     0.003 C 
ATOM     16  C   UNL     1       0.248  -1.125  -0.267  1.00  0.00     0.028 C 
ATOM     17  C   UNL     1      -1.072   1.476   0.238  1.00  0.00     0.002 C 
ATOM     18  C   UNL     1      -1.828   0.347  -0.454  1.00  0.00     0.025 C 
ENDBRANCH   9  12
ENDBRANCH   6   8
ENDBRANCH   5   6
ENDBRANCH   3   5
ENDBRANCH   2   3
ENDBRANCH   1   2
BRANCH   1  19
ATOM     19  C   UNL     1       0.086  -5.537   4.556  1.00  0.00     0.275 C 
BRANCH  19  20
ATOM     20  O   UNL     1      -1.104  -5.047   5.192  1.00  0.00    -0.458 OA
BRANCH  20  21
ATOM     21  C   UNL     1      -1.046  -3.770   5.631  1.00  0.00     0.338 C 
ATOM     22  O   UNL     1      -0.061  -3.040   5.638  1.00  0.00    -0.246 OA
BRANCH  21  23
ATOM     23  C   UNL     1      -2.347  -3.397   6.216  1.00  0.00     0.060 A 
ATOM     24  C   UNL     1      -3.541  -3.634   5.530  1.00  0.00     0.016 A 
ATOM     25  C   UNL     1      -2.368  -2.748   7.450  1.00  0.00     0.016 A 
ATOM     26  C   UNL     1      -4.749  -3.164   6.043  1.00  0.00     0.010 A 
ATOM     27  C   UNL     1      -3.587  -2.351   8.002  1.00  0.00     0.010 A 
ATOM     28  C   UNL     1      -4.787  -2.527   7.290  1.00  0.00    -0.014 A 
BRANCH  28  29
ATOM     29  C   UNL     1      -6.067  -2.015   7.845  1.00  0.00     0.031 A 
ATOM     30  C   UNL     1      -6.245  -0.539   8.090  1.00  0.00     0.074 A 
ATOM     31  C   UNL     1      -7.065  -2.869   8.144  1.00  0.00     0.049 A 
ATOM     32  N   UNL     1      -7.218   0.085   8.703  1.00  0.00    -0.248 NA
ATOM     33  C   UNL     1      -5.181   0.348   7.591  1.00  0.00     0.031 C 
ATOM     34  C   UNL     1      -7.040  -4.317   7.922  1.00  0.00     0.029 A 
ATOM     35  N   UNL     1      -8.297  -2.642   8.705  1.00  0.00    -0.354 N 
ATOM     36  C   UNL     1      -6.866   1.431   8.700  1.00  0.00     0.074 A 
ATOM     37  C   UNL     1      -5.583   1.530   8.038  1.00  0.00     0.031 C 
ATOM     38  C   UNL     1      -8.209  -4.843   8.320  1.00  0.00     0.029 A 
ATOM     39  C   UNL     1      -9.038  -3.786   8.888  1.00  0.00     0.049 A 
ATOM     40  H   UNL     1      -8.620  -1.746   8.953  1.00  0.00     0.167 HD
ATOM     41  C   UNL     1      -7.550   2.487   9.202  1.00  0.00     0.031 A 
ATOM     42  C   UNL     1     -10.235  -3.972   9.477  1.00  0.00     0.031 A 
ATOM     43  C   UNL     1      -8.837   2.388   9.840  1.00  0.00     0.049 A 
ATOM     44  C   UNL     1     -10.955  -2.791  10.065  1.00  0.00     0.074 A 
ATOM     45  C   UNL     1      -9.616   3.402  10.370  1.00  0.00     0.029 A 
ATOM     46  N   UNL     1      -9.539   1.206  10.027  1.00  0.00    -0.354 N 
ATOM     47  N   UNL     1     -10.595  -1.530  10.080  1.00  0.00    -0.248 NA
ATOM     48  C   UNL     1     -12.241  -3.061  10.722  1.00  0.00     0.031 C 
ATOM     49  C   UNL     1     -10.772   2.828  10.913  1.00  0.00     0.029 A 
ATOM     50  C   UNL     1     -10.735   1.464  10.677  1.00  0.00     0.049 A 
ATOM     51  H   UNL     1      -9.232   0.316   9.740  1.00  0.00     0.167 HD
ATOM     52  C   UNL     1     -11.617  -0.853  10.735  1.00  0.00     0.074 A 
ATOM     53  C   UNL     1     -12.617  -1.842  11.083  1.00  0.00     0.031 C 
ATOM     54  C   UNL     1     -11.717   0.468  11.023  1.00  0.00     0.031 A 
BRANCH  41  55
ATOM     55  C   UNL     1      -6.901   3.843   9.111  1.00  0.00    -0.014 A 
ATOM     56  C   UNL     1      -6.802   4.526   7.886  1.00  0.00     0.010 A 
ATOM     57  C   UNL     1      -6.411   4.457  10.278  1.00  0.00     0.010 A 
ATOM     58  C   UNL     1      -6.189   5.782   7.824  1.00  0.00     0.020 A 
ATOM     59  C   UNL     1      -5.820   5.723  10.224  1.00  0.00     0.020 A 
ATOM     60  C   UNL     1      -5.697   6.370   8.993  1.00  0.00     0.054 A 
BRANCH  60  61
ATOM     61  S   UNL     1      -4.923   8.007   8.889  1.00  0.00     0.124 S 
ATOM     62  O   UNL     1      -3.627   7.690   8.294  1.00  0.00    -0.237 OA
ATOM     63  O   UNL     1      -5.843   8.746   8.028  1.00  0.00    -0.237 OA
ATOM     64  O   UNL     1      -4.877   8.459  10.277  1.00  0.00    -0.744 OA
ENDBRANCH  60  61
ENDBRANCH  41  55
BRANCH  42  65
ATOM     65  C   UNL     1     -10.812  -5.340   9.564  1.00  0.00    -0.014 A 
ATOM     66  C   UNL     1     -11.931  -5.693   8.791  1.00  0.00     0.010 A 
ATOM     67  C   UNL     1     -10.230  -6.305  10.408  1.00  0.00     0.010 A 
ATOM     68  C   UNL     1     -12.464  -6.983   8.866  1.00  0.00     0.020 A 
ATOM     69  C   UNL     1     -10.744  -7.603  10.465  1.00  0.00     0.020 A 
ATOM     70  C   UNL     1     -11.865  -7.931   9.701  1.00  0.00     0.054 A 
BRANCH  70  71
ATOM     71  S   UNL     1     -12.535  -9.617   9.738  1.00  0.00     0.124 S 
ATOM     72  O   UNL     1     -13.730  -9.451  10.559  1.00  0.00    -0.237 OA
ATOM     73  O   UNL     1     -12.773  -9.897   8.324  1.00  0.00    -0.237 OA
ATOM     74  O   UNL     1     -11.460 -10.398  10.346  1.00  0.00    -0.744 OA
ENDBRANCH  70  71
ENDBRANCH  42  65
BRANCH  54  75
ATOM     75  C   UNL     1     -12.966   0.923  11.727  1.00  0.00    -0.014 A 
ATOM     76  C   UNL     1     -13.173   0.649  13.091  1.00  0.00     0.010 A 
ATOM     77  C   UNL     1     -13.931   1.664  11.021  1.00  0.00     0.010 A 
ATOM     78  C   UNL     1     -14.341   1.078  13.727  1.00  0.00     0.020 A 
ATOM     79  C   UNL     1     -15.088   2.115  11.659  1.00  0.00     0.020 A 
ATOM     80  C   UNL     1     -15.293   1.805  13.005  1.00  0.00     0.054 A 
BRANCH  80  81
ATOM     81  S   UNL     1     -16.789   2.378  13.858  1.00  0.00     0.124 S 
ATOM     82  O   UNL     1     -17.579   1.153  13.941  1.00  0.00    -0.237 OA
ATOM     83  O   UNL     1     -16.266   2.876  15.128  1.00  0.00    -0.237 OA
ATOM     84  O   UNL     1     -17.323   3.405  12.967  1.00  0.00    -0.744 OA
ENDBRANCH  80  81
ENDBRANCH  54  75
ENDBRANCH  28  29
ENDBRANCH  21  23
ENDBRANCH  20  21
ENDBRANCH  19  20
ENDBRANCH   1  19
TORSDOF 17
