REMARK SMILES C[C@H](NC(=O)c1c(C(=O)OCCOC(=O)c2ccc(-c3c4nc(c(-c5ccc(S(=O)(=O)[O-])cc5)c5ccc([nH]5)c(-c5ccc(S(=O)(=O)[O-])cc5)c5nc(c(-c6ccc(S(=O)(=O)[O-])cc6)c6ccc3[nH]6)C=C5)C=C4)cc2)cnn1C)[C@]12C[C@H]3C[C@H](C[C@H](C3)C1)C2
REMARK SMILES IDX 11 1 10 2 8 3 9 4 7 5 6 6 78 7 76 8 77 9 79 10 4 11 3 12
REMARK SMILES IDX 5 14 2 15 1 16 80 17 81 18 88 19 89 20 82 21 86 22 84 23
REMARK SMILES IDX 83 24 87 25 85 26 12 27 13 28 14 29 15 30 16 31 17 32 75 33
REMARK SMILES IDX 18 34 74 35 19 36 20 37 21 38 68 39 22 40 73 41 67 42 69 43
REMARK SMILES IDX 23 44 72 45 66 46 65 47 24 49 54 50 35 51 53 52 36 53 39 54
REMARK SMILES IDX 52 55 70 56 37 57 38 58 51 60 71 61 40 62 25 63 26 64 34 65
REMARK SMILES IDX 27 66 33 67 28 68 29 69 30 70 31 71 32 72 55 73 56 74 64 75
REMARK SMILES IDX 57 76 63 77 58 78 59 79 60 80 61 81 62 82 41 83 42 84 50 85
REMARK SMILES IDX 43 86 49 87 44 88 45 89 46 90 47 91 48 92
REMARK H PARENT 3 13 69 48 39 59
REMARK Flexibility Score: inf
ROOT
ATOM      1  C   UNL     1       5.495  -0.947  -2.133  1.00  0.00     0.275 C 
ENDROOT
BRANCH   1   2
ATOM      2  O   UNL     1       4.053  -0.979  -2.134  1.00  0.00    -0.458 OA
BRANCH   2   3
ATOM      3  C   UNL     1       3.495  -1.159  -3.365  1.00  0.00     0.342 C 
ATOM      4  O   UNL     1       4.143  -1.318  -4.392  1.00  0.00    -0.246 OA
BRANCH   3   5
ATOM      5  C   UNL     1       2.046  -1.185  -3.384  1.00  0.00     0.111 A 
ATOM      6  C   UNL     1       1.120  -0.578  -2.538  1.00  0.00     0.140 A 
ATOM      7  N   UNL     1      -0.053  -0.631  -3.257  1.00  0.00    -0.262 N 
ATOM      8  C   UNL     1       1.258  -1.783  -4.397  1.00  0.00     0.151 A 
ATOM      9  N   UNL     1      -0.038  -1.529  -4.255  1.00  0.00    -0.180 NA
ATOM     10  C   UNL     1      -1.185   0.264  -3.203  1.00  0.00     0.174 C 
BRANCH   6  11
ATOM     11  C   UNL     1       1.341   0.265  -1.402  1.00  0.00     0.270 C 
ATOM     12  N   UNL     1       0.963  -0.136  -0.147  1.00  0.00    -0.348 N 
ATOM     13  H   UNL     1       1.046   0.576   0.528  1.00  0.00     0.164 HD
ATOM     14  O   UNL     1       1.833   1.387  -1.514  1.00  0.00    -0.267 OA
BRANCH  12  15
ATOM     15  C   UNL     1       0.455  -1.409   0.413  1.00  0.00     0.085 C 
ATOM     16  C   UNL     1       1.210  -1.635   1.732  1.00  0.00     0.031 C 
BRANCH  15  17
ATOM     17  C   UNL     1      -1.121  -1.431   0.591  1.00  0.00    -0.009 C 
ATOM     18  C   UNL     1      -1.627  -2.216   1.846  1.00  0.00     0.012 C 
ATOM     19  C   UNL     1      -1.749  -2.163  -0.624  1.00  0.00     0.012 C 
ATOM     20  C   UNL     1      -1.709   0.004   0.704  1.00  0.00     0.012 C 
ATOM     21  C   UNL     1      -3.173  -2.236   1.917  1.00  0.00    -0.010 C 
ATOM     22  C   UNL     1      -3.282  -2.143  -0.585  1.00  0.00    -0.010 C 
ATOM     23  C   UNL     1      -3.243  -0.011   0.755  1.00  0.00    -0.010 C 
ATOM     24  C   UNL     1      -3.700  -0.794   1.991  1.00  0.00     0.007 C 
ATOM     25  C   UNL     1      -3.746  -2.907   0.660  1.00  0.00     0.007 C 
ATOM     26  C   UNL     1      -3.782  -0.692  -0.511  1.00  0.00     0.007 C 
ENDBRANCH  15  17
ENDBRANCH  12  15
ENDBRANCH   6  11
ENDBRANCH   3   5
ENDBRANCH   2   3
ENDBRANCH   1   2
BRANCH   1  27
ATOM     27  C   UNL     1       6.115  -2.309  -1.806  1.00  0.00     0.275 C 
BRANCH  27  28
ATOM     28  O   UNL     1       5.834  -3.292  -2.822  1.00  0.00    -0.458 OA
BRANCH  28  29
ATOM     29  C   UNL     1       4.856  -4.174  -2.513  1.00  0.00     0.338 C 
ATOM     30  O   UNL     1       4.213  -4.226  -1.476  1.00  0.00    -0.246 OA
BRANCH  29  31
ATOM     31  C   UNL     1       4.554  -5.034  -3.668  1.00  0.00     0.060 A 
ATOM     32  C   UNL     1       3.567  -4.601  -4.547  1.00  0.00     0.016 A 
ATOM     33  C   UNL     1       5.083  -6.315  -3.798  1.00  0.00     0.016 A 
ATOM     34  C   UNL     1       3.050  -5.451  -5.518  1.00  0.00     0.010 A 
ATOM     35  C   UNL     1       4.612  -7.152  -4.823  1.00  0.00     0.010 A 
ATOM     36  C   UNL     1       3.569  -6.740  -5.677  1.00  0.00    -0.014 A 
BRANCH  36  37
ATOM     37  C   UNL     1       2.978  -7.654  -6.695  1.00  0.00     0.031 A 
ATOM     38  C   UNL     1       2.343  -8.954  -6.267  1.00  0.00     0.074 A 
ATOM     39  C   UNL     1       2.973  -7.310  -8.001  1.00  0.00     0.049 A 
ATOM     40  N   UNL     1       1.905  -9.942  -7.006  1.00  0.00    -0.248 NA
ATOM     41  C   UNL     1       2.188  -9.178  -4.820  1.00  0.00     0.031 C 
ATOM     42  C   UNL     1       3.488  -6.053  -8.553  1.00  0.00     0.029 A 
ATOM     43  N   UNL     1       2.508  -7.984  -9.105  1.00  0.00    -0.354 N 
ATOM     44  C   UNL     1       1.483 -10.926  -6.117  1.00  0.00     0.074 A 
ATOM     45  C   UNL     1       1.712 -10.416  -4.784  1.00  0.00     0.031 C 
ATOM     46  C   UNL     1       3.280  -6.033  -9.878  1.00  0.00     0.029 A 
ATOM     47  C   UNL     1       2.703  -7.307 -10.289  1.00  0.00     0.049 A 
ATOM     48  H   UNL     1       2.076  -8.867  -9.055  1.00  0.00     0.167 HD
ATOM     49  C   UNL     1       0.959 -12.145  -6.391  1.00  0.00     0.031 A 
ATOM     50  C   UNL     1       2.488  -7.682 -11.565  1.00  0.00     0.031 A 
ATOM     51  C   UNL     1       0.682 -12.626  -7.720  1.00  0.00     0.049 A 
ATOM     52  C   UNL     1       1.954  -9.062 -11.840  1.00  0.00     0.074 A 
ATOM     53  C   UNL     1       0.121 -13.835  -8.095  1.00  0.00     0.029 A 
ATOM     54  N   UNL     1       0.935 -11.924  -8.888  1.00  0.00    -0.354 N 
ATOM     55  N   UNL     1       1.588  -9.989 -10.988  1.00  0.00    -0.248 NA
ATOM     56  C   UNL     1       1.817  -9.451 -13.251  1.00  0.00     0.031 C 
ATOM     57  C   UNL     1       0.086 -13.887  -9.491  1.00  0.00     0.029 A 
ATOM     58  C   UNL     1       0.567 -12.685  -9.985  1.00  0.00     0.049 A 
ATOM     59  H   UNL     1       1.318 -11.018  -8.931  1.00  0.00     0.167 HD
ATOM     60  C   UNL     1       1.153 -11.060 -11.760  1.00  0.00     0.074 A 
ATOM     61  C   UNL     1       1.284 -10.660 -13.145  1.00  0.00     0.031 C 
ATOM     62  C   UNL     1       0.691 -12.269 -11.358  1.00  0.00     0.031 A 
BRANCH  49  63
ATOM     63  C   UNL     1       0.689 -13.078  -5.239  1.00  0.00    -0.014 A 
ATOM     64  C   UNL     1      -0.394 -12.885  -4.364  1.00  0.00     0.010 A 
ATOM     65  C   UNL     1       1.494 -14.224  -5.088  1.00  0.00     0.010 A 
ATOM     66  C   UNL     1      -0.653 -13.810  -3.347  1.00  0.00     0.020 A 
ATOM     67  C   UNL     1       1.222 -15.163  -4.090  1.00  0.00     0.020 A 
ATOM     68  C   UNL     1       0.155 -14.945  -3.219  1.00  0.00     0.054 A 
BRANCH  68  69
ATOM     69  S   UNL     1      -0.239 -16.156  -1.926  1.00  0.00     0.124 S 
ATOM     70  O   UNL     1       0.163 -15.445  -0.714  1.00  0.00    -0.237 OA
ATOM     71  O   UNL     1      -1.678 -16.346  -2.093  1.00  0.00    -0.237 OA
ATOM     72  O   UNL     1       0.584 -17.313  -2.270  1.00  0.00    -0.744 OA
ENDBRANCH  68  69
ENDBRANCH  49  63
BRANCH  50  73
ATOM     73  C   UNL     1       2.839  -6.770 -12.691  1.00  0.00    -0.014 A 
ATOM     74  C   UNL     1       1.842  -6.255 -13.538  1.00  0.00     0.010 A 
ATOM     75  C   UNL     1       4.184  -6.437 -12.942  1.00  0.00     0.010 A 
ATOM     76  C   UNL     1       2.186  -5.455 -14.633  1.00  0.00     0.020 A 
ATOM     77  C   UNL     1       4.528  -5.610 -14.013  1.00  0.00     0.020 A 
ATOM     78  C   UNL     1       3.528  -5.141 -14.866  1.00  0.00     0.054 A 
BRANCH  78  79
ATOM     79  S   UNL     1       3.953  -4.092 -16.284  1.00  0.00     0.124 S 
ATOM     80  O   UNL     1       3.793  -5.016 -17.402  1.00  0.00    -0.237 OA
ATOM     81  O   UNL     1       2.961  -3.024 -16.198  1.00  0.00    -0.237 OA
ATOM     82  O   UNL     1       5.327  -3.680 -16.003  1.00  0.00    -0.744 OA
ENDBRANCH  78  79
ENDBRANCH  50  73
BRANCH  62  83
ATOM     83  C   UNL     1       0.242 -13.229 -12.426  1.00  0.00    -0.014 A 
ATOM     84  C   UNL     1       1.167 -13.882 -13.259  1.00  0.00     0.010 A 
ATOM     85  C   UNL     1      -1.129 -13.516 -12.565  1.00  0.00     0.010 A 
ATOM     86  C   UNL     1       0.726 -14.780 -14.235  1.00  0.00     0.020 A 
ATOM     87  C   UNL     1      -1.571 -14.435 -13.519  1.00  0.00     0.020 A 
ATOM     88  C   UNL     1      -0.641 -15.050 -14.358  1.00  0.00     0.054 A 
BRANCH  88  89
ATOM     89  S   UNL     1      -1.185 -16.251 -15.604  1.00  0.00     0.124 S 
ATOM     90  O   UNL     1      -1.022 -15.498 -16.844  1.00  0.00    -0.237 OA
ATOM     91  O   UNL     1      -0.250 -17.358 -15.413  1.00  0.00    -0.237 OA
ATOM     92  O   UNL     1      -2.567 -16.540 -15.227  1.00  0.00    -0.744 OA
ENDBRANCH  88  89
ENDBRANCH  62  83
ENDBRANCH  36  37
ENDBRANCH  29  31
ENDBRANCH  28  29
ENDBRANCH  27  28
ENDBRANCH   1  27
TORSDOF 17
