REMARK SMILES CC1(C)[C@@]2(C(=O)OCCOC(=O)c3ccc(-c4c5nc(c(-c6ccc(S(=O)(=O)[O-])cc6)c6ccc([nH]6)c(-c6ccc(S(=O)(=O)[O-])cc6)c6nc(c(-c7ccc(S(=O)(=O)[O-])cc7)c7ccc4[nH]7)C=C6)C=C5)cc3)CC[C@]1(C)/C(=N/NC(=O)c1ccc(Cl)cc1)C2
REMARK SMILES IDX 9 1 8 2 7 3 5 4 6 5 4 6 1 7 2 8 3 9 75 10 73 11 89 12 74 13
REMARK SMILES IDX 76 14 77 15 78 16 79 17 80 18 81 20 82 21 83 22 88 23 84 24
REMARK SMILES IDX 87 25 85 26 86 27 10 28 11 29 12 30 13 31 14 32 72 33 15 34
REMARK SMILES IDX 71 35 16 36 17 37 18 38 65 39 19 40 70 41 64 42 66 43 20 44
REMARK SMILES IDX 69 45 63 46 62 47 21 49 51 50 32 51 50 52 33 53 36 54 49 55
REMARK SMILES IDX 67 56 34 57 35 58 48 60 68 61 37 62 22 63 23 64 31 65 24 66
REMARK SMILES IDX 30 67 25 68 26 69 27 70 28 71 29 72 52 73 53 74 61 75 54 76
REMARK SMILES IDX 60 77 55 78 56 79 57 80 58 81 59 82 38 83 39 84 47 85 40 86
REMARK SMILES IDX 46 87 41 88 42 89 43 90 44 91 45 92
REMARK H PARENT 79 19 66 48 36 59
REMARK Flexibility Score: inf
ROOT
ATOM      1  C   UNL     1      -0.082   2.248  -4.564  1.00  0.00     0.275 C 
ENDROOT
BRANCH   1   2
ATOM      2  C   UNL     1      -1.070   1.362  -3.791  1.00  0.00     0.274 C 
BRANCH   2   3
ATOM      3  O   UNL     1      -1.132   1.637  -2.362  1.00  0.00    -0.462 OA
BRANCH   3   4
ATOM      4  C   UNL     1      -0.546   0.705  -1.552  1.00  0.00     0.313 C 
ATOM      5  O   UNL     1       0.101  -0.246  -1.977  1.00  0.00    -0.252 OA
BRANCH   4   6
ATOM      6  C   UNL     1      -0.858   0.879  -0.060  1.00  0.00     0.079 C 
ATOM      7  C   UNL     1       1.321  -0.272   0.831  1.00  0.00     0.013 C 
ATOM      8  C   UNL     1       0.363   0.936   0.915  1.00  0.00    -0.008 C 
ATOM      9  C   UNL     1       1.194   2.234   0.830  1.00  0.00     0.013 C 
ATOM     10  C   UNL     1      -0.549   0.935   2.179  1.00  0.00     0.014 C 
ATOM     11  C   UNL     1      -1.649  -0.360   0.463  1.00  0.00     0.021 C 
ATOM     12  C   UNL     1      -1.672   2.136   0.343  1.00  0.00     0.073 C 
ATOM     13  C   UNL     1      -1.460  -0.297   1.990  1.00  0.00     0.014 C 
ATOM     14  C   UNL     1       0.158   0.981   3.517  1.00  0.00     0.018 C 
ATOM     15  C   UNL     1      -1.473   2.134   1.833  1.00  0.00     0.046 C 
ATOM     16  N   UNL     1      -1.927   2.868   2.792  1.00  0.00    -0.181 NA
BRANCH  16  17
ATOM     17  N   UNL     1      -2.737   3.948   2.890  1.00  0.00    -0.243 N 
ATOM     18  C   UNL     1      -3.337   4.930   2.135  1.00  0.00     0.271 C 
ATOM     19  H   UNL     1      -2.983   4.077   3.835  1.00  0.00     0.194 HD
ATOM     20  O   UNL     1      -3.998   5.802   2.707  1.00  0.00    -0.267 OA
BRANCH  18  21
ATOM     21  C   UNL     1      -3.168   5.091   0.697  1.00  0.00     0.041 A 
ATOM     22  C   UNL     1      -2.503   6.237   0.247  1.00  0.00     0.015 A 
ATOM     23  C   UNL     1      -3.690   4.178  -0.211  1.00  0.00     0.015 A 
ATOM     24  C   UNL     1      -2.125   6.327  -1.086  1.00  0.00     0.021 A 
ATOM     25  C   UNL     1      -3.256   4.233  -1.538  1.00  0.00     0.021 A 
ATOM     26  C   UNL     1      -2.425   5.277  -1.946  1.00  0.00     0.041 A 
ATOM     27  Cl  UNL     1      -1.694   5.255  -3.493  1.00  0.00    -0.084 Cl
ENDBRANCH  18  21
ENDBRANCH  16  17
ENDBRANCH   4   6
ENDBRANCH   3   4
ENDBRANCH   2   3
ENDBRANCH   1   2
BRANCH   1  28
ATOM     28  O   UNL     1       1.173   2.245  -3.885  1.00  0.00    -0.458 OA
BRANCH  28  29
ATOM     29  C   UNL     1       1.925   3.366  -3.877  1.00  0.00     0.338 C 
ATOM     30  O   UNL     1       1.742   4.381  -4.545  1.00  0.00    -0.246 OA
BRANCH  29  31
ATOM     31  C   UNL     1       3.010   3.180  -2.879  1.00  0.00     0.060 A 
ATOM     32  C   UNL     1       2.962   2.088  -2.014  1.00  0.00     0.016 A 
ATOM     33  C   UNL     1       4.064   4.089  -2.753  1.00  0.00     0.016 A 
ATOM     34  C   UNL     1       3.909   1.928  -1.012  1.00  0.00     0.010 A 
ATOM     35  C   UNL     1       5.086   3.855  -1.810  1.00  0.00     0.010 A 
ATOM     36  C   UNL     1       5.028   2.758  -0.932  1.00  0.00    -0.014 A 
BRANCH  36  37
ATOM     37  C   UNL     1       6.124   2.419   0.027  1.00  0.00     0.031 A 
ATOM     38  C   UNL     1       6.674   3.449   0.978  1.00  0.00     0.074 A 
ATOM     39  C   UNL     1       6.638   1.167   0.056  1.00  0.00     0.049 A 
ATOM     40  N   UNL     1       7.780   3.416   1.678  1.00  0.00    -0.248 NA
ATOM     41  C   UNL     1       5.885   4.677   1.164  1.00  0.00     0.031 C 
ATOM     42  C   UNL     1       6.172   0.026  -0.741  1.00  0.00     0.029 A 
ATOM     43  N   UNL     1       7.672   0.637   0.794  1.00  0.00    -0.354 N 
ATOM     44  C   UNL     1       7.862   4.644   2.325  1.00  0.00     0.074 A 
ATOM     45  C   UNL     1       6.680   5.392   1.950  1.00  0.00     0.031 C 
ATOM     46  C   UNL     1       6.871  -1.067  -0.412  1.00  0.00     0.029 A 
ATOM     47  C   UNL     1       7.935  -0.682   0.502  1.00  0.00     0.049 A 
ATOM     48  H   UNL     1       8.175   1.152   1.466  1.00  0.00     0.167 HD
ATOM     49  C   UNL     1       8.842   5.106   3.140  1.00  0.00     0.031 A 
ATOM     50  C   UNL     1       8.958  -1.487   0.848  1.00  0.00     0.031 A 
ATOM     51  C   UNL     1       9.993   4.336   3.543  1.00  0.00     0.049 A 
ATOM     52  C   UNL     1      10.068  -0.934   1.688  1.00  0.00     0.074 A 
ATOM     53  C   UNL     1      11.042   4.720   4.363  1.00  0.00     0.029 A 
ATOM     54  N   UNL     1      10.241   3.022   3.173  1.00  0.00    -0.354 N 
ATOM     55  N   UNL     1      10.186   0.264   2.206  1.00  0.00    -0.248 NA
ATOM     56  C   UNL     1      11.195  -1.832   1.968  1.00  0.00     0.031 C 
ATOM     57  C   UNL     1      11.946   3.656   4.449  1.00  0.00     0.029 A 
ATOM     58  C   UNL     1      11.432   2.587   3.734  1.00  0.00     0.049 A 
ATOM     59  H   UNL     1       9.657   2.478   2.596  1.00  0.00     0.167 HD
ATOM     60  C   UNL     1      11.398   0.261   2.885  1.00  0.00     0.074 A 
ATOM     61  C   UNL     1      11.962  -1.065   2.730  1.00  0.00     0.031 C 
ATOM     62  C   UNL     1      11.989   1.268   3.572  1.00  0.00     0.031 A 
BRANCH  49  63
ATOM     63  C   UNL     1       8.756   6.539   3.604  1.00  0.00    -0.014 A 
ATOM     64  C   UNL     1       7.819   6.956   4.565  1.00  0.00     0.010 A 
ATOM     65  C   UNL     1       9.680   7.476   3.102  1.00  0.00     0.010 A 
ATOM     66  C   UNL     1       7.783   8.290   4.986  1.00  0.00     0.020 A 
ATOM     67  C   UNL     1       9.667   8.803   3.541  1.00  0.00     0.020 A 
ATOM     68  C   UNL     1       8.706   9.206   4.468  1.00  0.00     0.054 A 
BRANCH  68  69
ATOM     69  S   UNL     1       8.650  10.925   5.045  1.00  0.00     0.124 S 
ATOM     70  O   UNL     1       7.447  11.425   4.385  1.00  0.00    -0.237 OA
ATOM     71  O   UNL     1       8.554  10.774   6.495  1.00  0.00    -0.237 OA
ATOM     72  O   UNL     1       9.906  11.495   4.564  1.00  0.00    -0.744 OA
ENDBRANCH  68  69
ENDBRANCH  49  63
BRANCH  50  73
ATOM     73  C   UNL     1       9.020  -2.874   0.307  1.00  0.00    -0.014 A 
ATOM     74  C   UNL     1       8.865  -3.984   1.154  1.00  0.00     0.010 A 
ATOM     75  C   UNL     1       9.202  -3.088  -1.074  1.00  0.00     0.010 A 
ATOM     76  C   UNL     1       8.892  -5.281   0.630  1.00  0.00     0.020 A 
ATOM     77  C   UNL     1       9.192  -4.380  -1.605  1.00  0.00     0.020 A 
ATOM     78  C   UNL     1       9.047  -5.470  -0.747  1.00  0.00     0.054 A 
BRANCH  78  79
ATOM     79  S   UNL     1       9.001  -7.156  -1.413  1.00  0.00     0.124 S 
ATOM     80  O   UNL     1      10.309  -7.671  -1.024  1.00  0.00    -0.237 OA
ATOM     81  O   UNL     1       7.857  -7.740  -0.716  1.00  0.00    -0.237 OA
ATOM     82  O   UNL     1       8.807  -6.952  -2.847  1.00  0.00    -0.744 OA
ENDBRANCH  78  79
ENDBRANCH  50  73
BRANCH  62  83
ATOM     83  C   UNL     1      13.298   0.962   4.246  1.00  0.00    -0.014 A 
ATOM     84  C   UNL     1      14.482   0.800   3.505  1.00  0.00     0.010 A 
ATOM     85  C   UNL     1      13.347   0.861   5.648  1.00  0.00     0.010 A 
ATOM     86  C   UNL     1      15.685   0.507   4.153  1.00  0.00     0.020 A 
ATOM     87  C   UNL     1      14.552   0.596   6.302  1.00  0.00     0.020 A 
ATOM     88  C   UNL     1      15.712   0.406   5.548  1.00  0.00     0.054 A 
BRANCH  88  89
ATOM     89  S   UNL     1      17.292   0.058   6.369  1.00  0.00     0.124 S 
ATOM     90  O   UNL     1      17.489  -1.356   6.061  1.00  0.00    -0.237 OA
ATOM     91  O   UNL     1      18.209   0.980   5.704  1.00  0.00    -0.237 OA
ATOM     92  O   UNL     1      17.026   0.359   7.774  1.00  0.00    -0.744 OA
ENDBRANCH  88  89
ENDBRANCH  62  83
ENDBRANCH  36  37
ENDBRANCH  29  31
ENDBRANCH  28  29
ENDBRANCH   1  28
TORSDOF 16
