REMARK SMILES C[C@@H]1CN(C(=O)NC[C@@H]2CC[C@H](C(=O)OCCOC(=O)c3ccc(-c4c5nc(c(-c6ccc(S(=O)(=O)[O-])cc6)c6ccc([nH]6)c(-c6ccc(S(=O)(=O)[O-])cc6)c6nc(c(-c7ccc(S(=O)(=O)[O-])cc7)c7ccc4[nH]7)C=C6)C=C5)cc3)O2)CC(C)(C)O1
REMARK SMILES IDX 16 1 15 2 13 3 14 4 12 5 9 6 10 7 81 8 11 9 8 10 7 11 5 12
REMARK SMILES IDX 6 13 4 15 1 16 2 17 3 18 86 19 83 20 82 21 84 22 85 23 17 24
REMARK SMILES IDX 18 25 19 26 20 27 21 28 22 29 80 30 23 31 79 32 24 33 25 34
REMARK SMILES IDX 26 35 73 36 27 37 78 38 72 39 74 40 28 41 77 42 71 43 70 44
REMARK SMILES IDX 29 46 59 47 40 48 58 49 41 50 44 51 57 52 75 53 42 54 43 55
REMARK SMILES IDX 56 57 76 58 45 59 30 60 31 61 39 62 32 63 38 64 33 65 34 66
REMARK SMILES IDX 35 67 36 68 37 69 60 70 61 71 69 72 62 73 68 74 63 75 64 76
REMARK SMILES IDX 65 77 66 78 67 79 46 80 47 81 55 82 48 83 54 84 49 85 50 86
REMARK SMILES IDX 51 87 52 88 53 89
REMARK H PARENT 7 14 74 45 44 56
REMARK Flexibility Score: inf
ROOT
ATOM      1  C   UNL     1       1.481  -6.801  -3.571  1.00  0.00     0.274 C 
ENDROOT
BRANCH   1   2
ATOM      2  O   UNL     1       2.092  -6.420  -2.322  1.00  0.00    -0.460 OA
BRANCH   2   3
ATOM      3  C   UNL     1       1.505  -6.917  -1.194  1.00  0.00     0.335 C 
ATOM      4  O   UNL     1       0.509  -7.631  -1.191  1.00  0.00    -0.249 OA
BRANCH   3   5
ATOM      5  C   UNL     1       2.235  -6.488   0.093  1.00  0.00     0.228 C 
ATOM      6  C   UNL     1       2.910  -4.258   0.265  1.00  0.00     0.138 C 
ATOM      7  C   UNL     1       4.037  -5.036  -0.403  1.00  0.00     0.037 C 
ATOM      8  O   UNL     1       1.857  -5.192   0.558  1.00  0.00    -0.361 OA
ATOM      9  C   UNL     1       3.749  -6.465  -0.017  1.00  0.00     0.047 C 
BRANCH   6  10
ATOM     10  C   UNL     1       2.399  -3.083  -0.587  1.00  0.00     0.149 C 
BRANCH  10  11
ATOM     11  N   UNL     1       1.090  -3.305  -1.175  1.00  0.00    -0.335 N 
ATOM     12  C   UNL     1      -0.182  -3.009  -0.864  1.00  0.00     0.317 C 
ATOM     13  O   UNL     1      -1.009  -3.330  -1.726  1.00  0.00    -0.249 OA
ATOM     14  H   UNL     1       1.151  -3.802  -2.022  1.00  0.00     0.165 HD
BRANCH  12  15
ATOM     15  N   UNL     1      -0.554  -2.354   0.269  1.00  0.00    -0.319 N 
ATOM     16  C   UNL     1       1.252   0.235   0.523  1.00  0.00     0.040 C 
ATOM     17  C   UNL     1       0.276  -0.402   1.507  1.00  0.00     0.135 C 
ATOM     18  C   UNL     1       0.222  -1.940   1.430  1.00  0.00     0.153 C 
ATOM     19  O   UNL     1      -1.026   0.207   1.419  1.00  0.00    -0.369 OA
ATOM     20  C   UNL     1      -1.937  -0.312   0.422  1.00  0.00     0.081 C 
ATOM     21  C   UNL     1      -1.931  -1.860   0.367  1.00  0.00     0.156 C 
ATOM     22  C   UNL     1      -1.651   0.294  -0.959  1.00  0.00     0.044 C 
ATOM     23  C   UNL     1      -3.324   0.173   0.871  1.00  0.00     0.044 C 
ENDBRANCH  12  15
ENDBRANCH  10  11
ENDBRANCH   6  10
ENDBRANCH   3   5
ENDBRANCH   2   3
ENDBRANCH   1   2
BRANCH   1  24
ATOM     24  C   UNL     1       2.189  -7.994  -4.224  1.00  0.00     0.275 C 
BRANCH  24  25
ATOM     25  O   UNL     1       2.041  -9.194  -3.444  1.00  0.00    -0.458 OA
BRANCH  25  26
ATOM     26  C   UNL     1       3.098  -9.506  -2.661  1.00  0.00     0.338 C 
ATOM     27  O   UNL     1       4.166  -8.913  -2.594  1.00  0.00    -0.246 OA
BRANCH  26  28
ATOM     28  C   UNL     1       2.743 -10.604  -1.751  1.00  0.00     0.060 A 
ATOM     29  C   UNL     1       2.609 -10.304  -0.394  1.00  0.00     0.016 A 
ATOM     30  C   UNL     1       2.646 -11.922  -2.199  1.00  0.00     0.016 A 
ATOM     31  C   UNL     1       2.386 -11.319   0.529  1.00  0.00     0.010 A 
ATOM     32  C   UNL     1       2.422 -12.945  -1.269  1.00  0.00     0.010 A 
ATOM     33  C   UNL     1       2.310 -12.651   0.102  1.00  0.00    -0.014 A 
BRANCH  33  34
ATOM     34  C   UNL     1       2.189 -13.723   1.118  1.00  0.00     0.031 A 
ATOM     35  C   UNL     1       3.396 -14.540   1.487  1.00  0.00     0.074 A 
ATOM     36  C   UNL     1       1.021 -13.913   1.760  1.00  0.00     0.049 A 
ATOM     37  N   UNL     1       3.499 -15.514   2.354  1.00  0.00    -0.248 NA
ATOM     38  C   UNL     1       4.652 -14.215   0.793  1.00  0.00     0.031 C 
ATOM     39  C   UNL     1      -0.205 -13.147   1.528  1.00  0.00     0.029 A 
ATOM     40  N   UNL     1       0.681 -14.800   2.749  1.00  0.00    -0.354 N 
ATOM     41  C   UNL     1       4.823 -15.931   2.300  1.00  0.00     0.074 A 
ATOM     42  C   UNL     1       5.483 -15.113   1.304  1.00  0.00     0.031 C 
ATOM     43  C   UNL     1      -1.159 -13.589   2.364  1.00  0.00     0.029 A 
ATOM     44  C   UNL     1      -0.625 -14.690   3.162  1.00  0.00     0.049 A 
ATOM     45  H   UNL     1       1.313 -15.454   3.128  1.00  0.00     0.167 HD
ATOM     46  C   UNL     1       5.435 -16.905   3.014  1.00  0.00     0.031 A 
ATOM     47  C   UNL     1      -1.317 -15.404   4.070  1.00  0.00     0.031 A 
ATOM     48  C   UNL     1       4.780 -17.718   4.004  1.00  0.00     0.049 A 
ATOM     49  C   UNL     1      -0.629 -16.515   4.813  1.00  0.00     0.074 A 
ATOM     50  C   UNL     1       5.316 -18.732   4.779  1.00  0.00     0.029 A 
ATOM     51  N   UNL     1       3.444 -17.610   4.356  1.00  0.00    -0.354 N 
ATOM     52  N   UNL     1       0.622 -16.904   4.739  1.00  0.00    -0.248 NA
ATOM     53  C   UNL     1      -1.447 -17.286   5.759  1.00  0.00     0.031 C 
ATOM     54  C   UNL     1       4.293 -19.262   5.574  1.00  0.00     0.029 A 
ATOM     55  C   UNL     1       3.131 -18.550   5.323  1.00  0.00     0.049 A 
ATOM     56  H   UNL     1       2.810 -16.959   3.975  1.00  0.00     0.167 HD
ATOM     57  C   UNL     1       0.743 -17.960   5.635  1.00  0.00     0.074 A 
ATOM     58  C   UNL     1      -0.556 -18.135   6.254  1.00  0.00     0.031 C 
ATOM     59  C   UNL     1       1.830 -18.718   5.918  1.00  0.00     0.031 A 
BRANCH  46  60
ATOM     60  C   UNL     1       6.886 -17.168   2.716  1.00  0.00    -0.014 A 
ATOM     61  C   UNL     1       7.891 -16.295   3.167  1.00  0.00     0.010 A 
ATOM     62  C   UNL     1       7.247 -18.315   1.986  1.00  0.00     0.010 A 
ATOM     63  C   UNL     1       9.232 -16.544   2.858  1.00  0.00     0.020 A 
ATOM     64  C   UNL     1       8.588 -18.577   1.692  1.00  0.00     0.020 A 
ATOM     65  C   UNL     1       9.570 -17.679   2.114  1.00  0.00     0.054 A 
BRANCH  65  66
ATOM     66  S   UNL     1      11.316 -17.983   1.726  1.00  0.00     0.124 S 
ATOM     67  O   UNL     1      11.551 -17.038   0.638  1.00  0.00    -0.237 OA
ATOM     68  O   UNL     1      11.988 -17.669   2.985  1.00  0.00    -0.237 OA
ATOM     69  O   UNL     1      11.345 -19.393   1.344  1.00  0.00    -0.744 OA
ENDBRANCH  65  66
ENDBRANCH  46  60
BRANCH  47  70
ATOM     70  C   UNL     1      -2.755 -15.105   4.305  1.00  0.00    -0.014 A 
ATOM     71  C   UNL     1      -3.174 -14.487   5.495  1.00  0.00     0.010 A 
ATOM     72  C   UNL     1      -3.712 -15.430   3.327  1.00  0.00     0.010 A 
ATOM     73  C   UNL     1      -4.527 -14.207   5.707  1.00  0.00     0.020 A 
ATOM     74  C   UNL     1      -5.062 -15.131   3.525  1.00  0.00     0.020 A 
ATOM     75  C   UNL     1      -5.463 -14.530   4.720  1.00  0.00     0.054 A 
BRANCH  75  76
ATOM     76  S   UNL     1      -7.207 -14.106   4.985  1.00  0.00     0.124 S 
ATOM     77  O   UNL     1      -7.650 -15.182   5.866  1.00  0.00    -0.237 OA
ATOM     78  O   UNL     1      -7.126 -12.781   5.595  1.00  0.00    -0.237 OA
ATOM     79  O   UNL     1      -7.770 -14.127   3.636  1.00  0.00    -0.744 OA
ENDBRANCH  75  76
ENDBRANCH  47  70
BRANCH  59  80
ATOM     80  C   UNL     1       1.661 -19.801   6.948  1.00  0.00    -0.014 A 
ATOM     81  C   UNL     1       0.989 -20.995   6.636  1.00  0.00     0.010 A 
ATOM     82  C   UNL     1       2.213 -19.636   8.231  1.00  0.00     0.010 A 
ATOM     83  C   UNL     1       0.844 -21.996   7.600  1.00  0.00     0.020 A 
ATOM     84  C   UNL     1       2.087 -20.643   9.191  1.00  0.00     0.020 A 
ATOM     85  C   UNL     1       1.389 -21.811   8.874  1.00  0.00     0.054 A 
BRANCH  85  86
ATOM     86  S   UNL     1       1.220 -23.136  10.102  1.00  0.00     0.124 S 
ATOM     87  O   UNL     1      -0.151 -22.945  10.566  1.00  0.00    -0.237 OA
ATOM     88  O   UNL     1       1.455 -24.343   9.314  1.00  0.00    -0.237 OA
ATOM     89  O   UNL     1       2.259 -22.830  11.083  1.00  0.00    -0.744 OA
ENDBRANCH  85  86
ENDBRANCH  59  80
ENDBRANCH  33  34
ENDBRANCH  26  28
ENDBRANCH  25  26
ENDBRANCH  24  25
ENDBRANCH   1  24
TORSDOF 17
