REMARK SMILES O=C(OCCOC(=O)[C@@H]1[C@@H](C(=O)N2CCN(c3cccc(Cl)c3)CC2)[C@H]2CC[C@@H]1O2)c1ccc(-c2c3nc(c(-c4ccc(S(=O)(=O)[O-])cc4)c4ccc([nH]4)c(-c4ccc(S(=O)(=O)[O-])cc4)c4nc(c(-c5ccc(S(=O)(=O)[O-])cc5)c5ccc2[nH]5)C=C4)C=C3)cc1
REMARK SMILES IDX 4 1 3 2 2 3 1 4 31 5 32 6 90 7 33 8 89 9 34 10 35 11 36 12
REMARK SMILES IDX 83 13 37 14 88 15 82 16 84 17 38 18 87 19 81 20 80 21 39 23
REMARK SMILES IDX 69 24 50 25 68 26 51 27 54 28 67 29 85 30 52 31 53 32 66 34
REMARK SMILES IDX 86 35 55 36 40 37 41 38 49 39 42 40 48 41 43 42 44 43 45 44
REMARK SMILES IDX 46 45 47 46 70 47 71 48 79 49 72 50 78 51 73 52 74 53 75 54
REMARK SMILES IDX 76 55 77 56 56 57 57 58 65 59 58 60 64 61 59 62 60 63 61 64
REMARK SMILES IDX 62 65 63 66 5 67 6 68 7 69 8 70 9 71 10 72 29 73 26 74 28 75
REMARK SMILES IDX 30 76 27 77 11 78 12 79 13 80 14 81 25 82 15 83 24 84 16 85
REMARK SMILES IDX 17 86 18 87 23 88 19 89 21 90 20 91 22 92
REMARK H PARENT 84 22 54 33
REMARK Flexibility Score: inf
ROOT
ATOM      1  C   UNL     1       4.391  -1.179   0.698  1.00  0.00     0.275 C 
ENDROOT
BRANCH   1   2
ATOM      2  O   UNL     1       3.470  -0.165   1.114  1.00  0.00    -0.458 OA
BRANCH   2   3
ATOM      3  C   UNL     1       3.615   1.177   1.000  1.00  0.00     0.338 C 
ATOM      4  O   UNL     1       2.957   1.901   1.748  1.00  0.00    -0.246 OA
BRANCH   3   5
ATOM      5  C   UNL     1       4.349   1.821  -0.137  1.00  0.00     0.060 A 
ATOM      6  C   UNL     1       5.513   1.365  -0.771  1.00  0.00     0.016 A 
ATOM      7  C   UNL     1       3.759   2.996  -0.626  1.00  0.00     0.016 A 
ATOM      8  C   UNL     1       6.019   2.000  -1.922  1.00  0.00     0.010 A 
ATOM      9  C   UNL     1       4.221   3.590  -1.801  1.00  0.00     0.010 A 
ATOM     10  C   UNL     1       5.360   3.099  -2.468  1.00  0.00    -0.014 A 
BRANCH  10  11
ATOM     11  C   UNL     1       5.863   3.880  -3.631  1.00  0.00     0.031 A 
ATOM     12  C   UNL     1       6.198   5.316  -3.370  1.00  0.00     0.074 A 
ATOM     13  C   UNL     1       5.878   3.414  -4.897  1.00  0.00     0.049 A 
ATOM     14  N   UNL     1       6.380   6.293  -4.213  1.00  0.00    -0.248 NA
ATOM     15  C   UNL     1       6.307   5.703  -1.950  1.00  0.00     0.031 C 
ATOM     16  C   UNL     1       5.650   2.035  -5.306  1.00  0.00     0.029 A 
ATOM     17  N   UNL     1       5.997   4.086  -6.094  1.00  0.00    -0.354 N 
ATOM     18  C   UNL     1       6.652   7.398  -3.423  1.00  0.00     0.074 A 
ATOM     19  C   UNL     1       6.436   7.013  -2.048  1.00  0.00     0.031 C 
ATOM     20  C   UNL     1       5.464   1.987  -6.639  1.00  0.00     0.029 A 
ATOM     21  C   UNL     1       5.612   3.329  -7.183  1.00  0.00     0.049 A 
ATOM     22  H   UNL     1       6.324   5.012  -6.166  1.00  0.00     0.167 HD
ATOM     23  C   UNL     1       7.149   8.597  -3.797  1.00  0.00     0.031 A 
ATOM     24  C   UNL     1       5.378   3.683  -8.463  1.00  0.00     0.031 A 
ATOM     25  C   UNL     1       7.384   8.958  -5.161  1.00  0.00     0.049 A 
ATOM     26  C   UNL     1       5.753   5.077  -8.888  1.00  0.00     0.074 A 
ATOM     27  C   UNL     1       7.974  10.097  -5.668  1.00  0.00     0.029 A 
ATOM     28  N   UNL     1       7.025   8.165  -6.242  1.00  0.00    -0.354 N 
ATOM     29  N   UNL     1       6.148   6.080  -8.139  1.00  0.00    -0.248 NA
ATOM     30  C   UNL     1       5.746   5.367 -10.329  1.00  0.00     0.031 C 
ATOM     31  C   UNL     1       7.943  10.007  -7.065  1.00  0.00     0.029 A 
ATOM     32  C   UNL     1       7.366   8.795  -7.421  1.00  0.00     0.049 A 
ATOM     33  H   UNL     1       6.590   7.284  -6.178  1.00  0.00     0.167 HD
ATOM     34  C   UNL     1       6.547   7.076  -9.021  1.00  0.00     0.074 A 
ATOM     35  C   UNL     1       6.278   6.583 -10.357  1.00  0.00     0.031 C 
ATOM     36  C   UNL     1       7.133   8.265  -8.742  1.00  0.00     0.031 A 
BRANCH  23  37
ATOM     37  C   UNL     1       7.507   9.525  -2.674  1.00  0.00    -0.014 A 
ATOM     38  C   UNL     1       8.555   9.186  -1.792  1.00  0.00     0.010 A 
ATOM     39  C   UNL     1       6.709  10.645  -2.398  1.00  0.00     0.010 A 
ATOM     40  C   UNL     1       8.718   9.876  -0.592  1.00  0.00     0.020 A 
ATOM     41  C   UNL     1       6.895  11.362  -1.213  1.00  0.00     0.020 A 
ATOM     42  C   UNL     1       7.867  10.944  -0.299  1.00  0.00     0.054 A 
BRANCH  42  43
ATOM     43  S   UNL     1       8.027  11.757   1.313  1.00  0.00     0.124 S 
ATOM     44  O   UNL     1       7.341  10.811   2.192  1.00  0.00    -0.237 OA
ATOM     45  O   UNL     1       9.468  11.848   1.492  1.00  0.00    -0.237 OA
ATOM     46  O   UNL     1       7.341  13.037   1.120  1.00  0.00    -0.744 OA
ENDBRANCH  42  43
ENDBRANCH  23  37
BRANCH  24  47
ATOM     47  C   UNL     1       4.825   2.704  -9.444  1.00  0.00    -0.014 A 
ATOM     48  C   UNL     1       5.666   2.036 -10.351  1.00  0.00     0.010 A 
ATOM     49  C   UNL     1       3.443   2.438  -9.482  1.00  0.00     0.010 A 
ATOM     50  C   UNL     1       5.136   1.140 -11.289  1.00  0.00     0.020 A 
ATOM     51  C   UNL     1       2.909   1.532 -10.411  1.00  0.00     0.020 A 
ATOM     52  C   UNL     1       3.760   0.894 -11.315  1.00  0.00     0.054 A 
BRANCH  52  53
ATOM     53  S   UNL     1       3.111  -0.288 -12.534  1.00  0.00     0.124 S 
ATOM     54  O   UNL     1       3.387   0.391 -13.797  1.00  0.00    -0.237 OA
ATOM     55  O   UNL     1       3.914  -1.480 -12.273  1.00  0.00    -0.237 OA
ATOM     56  O   UNL     1       1.696  -0.406 -12.189  1.00  0.00    -0.744 OA
ENDBRANCH  52  53
ENDBRANCH  24  47
BRANCH  36  57
ATOM     57  C   UNL     1       7.645   9.087  -9.889  1.00  0.00    -0.014 A 
ATOM     58  C   UNL     1       6.787   9.886 -10.659  1.00  0.00     0.010 A 
ATOM     59  C   UNL     1       9.038   9.178 -10.077  1.00  0.00     0.010 A 
ATOM     60  C   UNL     1       7.319  10.788 -11.583  1.00  0.00     0.020 A 
ATOM     61  C   UNL     1       9.571  10.094 -10.982  1.00  0.00     0.020 A 
ATOM     62  C   UNL     1       8.707  10.899 -11.726  1.00  0.00     0.054 A 
BRANCH  62  63
ATOM     63  S   UNL     1       9.375  12.187 -12.815  1.00  0.00     0.124 S 
ATOM     64  O   UNL     1       9.147  11.614 -14.138  1.00  0.00    -0.237 OA
ATOM     65  O   UNL     1       8.553  13.348 -12.480  1.00  0.00    -0.237 OA
ATOM     66  O   UNL     1      10.775  12.289 -12.411  1.00  0.00    -0.744 OA
ENDBRANCH  62  63
ENDBRANCH  36  57
ENDBRANCH  10  11
ENDBRANCH   3   5
ENDBRANCH   2   3
ENDBRANCH   1   2
BRANCH   1  67
ATOM     67  C   UNL     1       4.028  -1.845  -0.631  1.00  0.00     0.274 C 
BRANCH  67  68
ATOM     68  O   UNL     1       3.449  -0.963  -1.607  1.00  0.00    -0.462 OA
BRANCH  68  69
ATOM     69  C   UNL     1       2.090  -0.962  -1.691  1.00  0.00     0.312 C 
ATOM     70  O   UNL     1       1.355  -1.592  -0.937  1.00  0.00    -0.252 OA
BRANCH  69  71
ATOM     71  C   UNL     1       1.526  -0.138  -2.850  1.00  0.00     0.143 C 
ATOM     72  C   UNL     1       2.022  -0.579  -4.230  1.00  0.00     0.124 C 
ATOM     73  C   UNL     1       2.035   1.282  -2.757  1.00  0.00     0.133 C 
ATOM     74  C   UNL     1       2.820   0.660  -4.663  1.00  0.00     0.132 C 
ATOM     75  C   UNL     1       1.313   2.221  -3.719  1.00  0.00     0.036 C 
ATOM     76  O   UNL     1       3.312   1.131  -3.395  1.00  0.00    -0.373 OA
ATOM     77  C   UNL     1       1.949   1.853  -5.055  1.00  0.00     0.035 C 
BRANCH  72  78
ATOM     78  C   UNL     1       1.188  -0.988  -5.440  1.00  0.00     0.229 C 
ATOM     79  O   UNL     1       1.704  -0.875  -6.558  1.00  0.00    -0.274 OA
ATOM     80  N   UNL     1       0.015  -1.684  -5.317  1.00  0.00    -0.339 N 
ATOM     81  C   UNL     1      -0.122  -2.875  -6.167  1.00  0.00     0.141 C 
ATOM     82  C   UNL     1      -0.879  -1.724  -4.172  1.00  0.00     0.141 C 
ATOM     83  C   UNL     1       0.297  -4.111  -5.330  1.00  0.00     0.138 C 
ATOM     84  C   UNL     1      -0.459  -2.885  -3.265  1.00  0.00     0.138 C 
ATOM     85  N   UNL     1      -0.438  -4.136  -4.039  1.00  0.00    -0.368 N 
BRANCH  85  86
ATOM     86  C   UNL     1      -1.441  -5.064  -3.855  1.00  0.00     0.038 A 
ATOM     87  C   UNL     1      -2.777  -4.688  -3.658  1.00  0.00     0.026 A 
ATOM     88  C   UNL     1      -1.123  -6.425  -3.824  1.00  0.00     0.046 A 
ATOM     89  C   UNL     1      -3.771  -5.639  -3.436  1.00  0.00     0.004 A 
ATOM     90  C   UNL     1      -2.111  -7.375  -3.582  1.00  0.00     0.043 A 
ATOM     91  C   UNL     1      -3.435  -6.988  -3.391  1.00  0.00     0.020 A 
ATOM     92  Cl  UNL     1      -1.688  -9.041  -3.495  1.00  0.00    -0.084 Cl
ENDBRANCH  85  86
ENDBRANCH  72  78
ENDBRANCH  69  71
ENDBRANCH  68  69
ENDBRANCH  67  68
ENDBRANCH   1  67
TORSDOF 16
