REMARK SMILES CC(C)(C[S@](=O)c1cccc(Cl)c1)C(=O)OCCOC(=O)c1ccc(-c2c3nc(c(-c4ccc(S(=O)(=O)[O-])cc4)c4ccc([nH]4)c(-c4ccc(S(=O)(=O)[O-])cc4)c4nc(c(-c5ccc(S(=O)(=O)[O-])cc5)c5ccc2[nH]5)C=C4)C=C3)cc1
REMARK SMILES IDX 17 1 16 2 14 3 15 4 2 5 1 6 3 7 4 8 5 9 6 10 7 11 8 12 13 13
REMARK SMILES IDX 9 14 11 15 10 16 12 17 18 18 19 19 20 20 21 21 22 22 23 23
REMARK SMILES IDX 81 24 24 25 80 26 25 27 26 28 27 29 74 30 28 31 79 32 73 33
REMARK SMILES IDX 75 34 29 35 78 36 72 37 71 38 30 40 60 41 41 42 59 43 42 44
REMARK SMILES IDX 45 45 58 46 76 47 43 48 44 49 57 51 77 52 46 53 31 54 32 55
REMARK SMILES IDX 40 56 33 57 39 58 34 59 35 60 36 61 37 62 38 63 61 64 62 65
REMARK SMILES IDX 70 66 63 67 69 68 64 69 65 70 66 71 67 72 68 73 47 74 48 75
REMARK SMILES IDX 56 76 49 77 55 78 50 79 51 80 52 81 53 82 54 83
REMARK H PARENT 75 39 45 50
REMARK Flexibility Score: inf
ROOT
ATOM      1  C   UNL     1      -3.484   1.712   5.447  1.00  0.00     0.274 C 
ENDROOT
BRANCH   1   2
ATOM      2  O   UNL     1      -3.737   1.165   4.134  1.00  0.00    -0.462 OA
BRANCH   2   3
ATOM      3  C   UNL     1      -4.207   2.043   3.201  1.00  0.00     0.312 C 
ATOM      4  O   UNL     1      -4.446   3.222   3.428  1.00  0.00    -0.252 OA
BRANCH   3   5
ATOM      5  C   UNL     1      -4.526   1.362   1.866  1.00  0.00     0.074 C 
ATOM      6  C   UNL     1      -4.346   2.361   0.708  1.00  0.00     0.024 C 
ATOM      7  C   UNL     1      -6.025   1.007   1.941  1.00  0.00     0.024 C 
BRANCH   5   8
ATOM      8  C   UNL     1      -3.733   0.058   1.634  1.00  0.00     0.128 C 
BRANCH   8   9
ATOM      9  S   UNL     1      -1.928   0.275   1.567  1.00  0.00     0.054 S 
ATOM     10  O   UNL     1      -1.596   0.953   0.270  1.00  0.00    -0.254 OA
BRANCH   9  11
ATOM     11  C   UNL     1      -1.332  -1.425   1.346  1.00  0.00     0.040 A 
ATOM     12  C   UNL     1      -2.060  -2.561   1.722  1.00  0.00     0.018 A 
ATOM     13  C   UNL     1      -0.039  -1.597   0.828  1.00  0.00     0.038 A 
ATOM     14  C   UNL     1      -1.513  -3.840   1.575  1.00  0.00     0.003 A 
ATOM     15  C   UNL     1       0.507  -2.873   0.695  1.00  0.00     0.042 A 
ATOM     16  C   UNL     1      -0.226  -3.997   1.066  1.00  0.00     0.020 A 
ATOM     17  Cl  UNL     1       2.104  -3.070   0.088  1.00  0.00    -0.084 Cl
ENDBRANCH   9  11
ENDBRANCH   8   9
ENDBRANCH   5   8
ENDBRANCH   3   5
ENDBRANCH   2   3
ENDBRANCH   1   2
BRANCH   1  18
ATOM     18  C   UNL     1      -1.998   2.005   5.633  1.00  0.00     0.275 C 
BRANCH  18  19
ATOM     19  O   UNL     1      -1.585   2.961   4.646  1.00  0.00    -0.458 OA
BRANCH  19  20
ATOM     20  C   UNL     1      -0.400   2.716   4.038  1.00  0.00     0.338 C 
ATOM     21  O   UNL     1       0.386   1.825   4.307  1.00  0.00    -0.246 OA
BRANCH  20  22
ATOM     22  C   UNL     1      -0.187   3.713   2.968  1.00  0.00     0.060 A 
ATOM     23  C   UNL     1      -1.240   4.096   2.136  1.00  0.00     0.016 A 
ATOM     24  C   UNL     1       1.092   4.221   2.747  1.00  0.00     0.016 A 
ATOM     25  C   UNL     1      -1.011   4.938   1.049  1.00  0.00     0.010 A 
ATOM     26  C   UNL     1       1.302   5.137   1.711  1.00  0.00     0.010 A 
ATOM     27  C   UNL     1       0.258   5.490   0.837  1.00  0.00    -0.014 A 
BRANCH  27  28
ATOM     28  C   UNL     1       0.506   6.420  -0.299  1.00  0.00     0.031 A 
ATOM     29  C   UNL     1       1.545   6.083  -1.336  1.00  0.00     0.074 A 
ATOM     30  C   UNL     1      -0.176   7.580  -0.395  1.00  0.00     0.049 A 
ATOM     31  N   UNL     1       2.069   6.848  -2.259  1.00  0.00    -0.248 NA
ATOM     32  C   UNL     1       2.076   4.710  -1.318  1.00  0.00     0.031 C 
ATOM     33  C   UNL     1      -1.244   8.019   0.507  1.00  0.00     0.029 A 
ATOM     34  N   UNL     1      -0.066   8.609  -1.299  1.00  0.00    -0.354 N 
ATOM     35  C   UNL     1       3.036   6.072  -2.889  1.00  0.00     0.074 A 
ATOM     36  C   UNL     1       3.022   4.775  -2.245  1.00  0.00     0.031 C 
ATOM     37  C   UNL     1      -1.708   9.209   0.095  1.00  0.00     0.029 A 
ATOM     38  C   UNL     1      -0.916   9.659  -1.044  1.00  0.00     0.049 A 
ATOM     39  H   UNL     1       0.562   8.595  -2.057  1.00  0.00     0.167 HD
ATOM     40  C   UNL     1       3.864   6.413  -3.905  1.00  0.00     0.031 A 
ATOM     41  C   UNL     1      -1.021  10.869  -1.625  1.00  0.00     0.031 A 
ATOM     42  C   UNL     1       3.842   7.688  -4.574  1.00  0.00     0.049 A 
ATOM     43  C   UNL     1      -0.080  11.234  -2.737  1.00  0.00     0.074 A 
ATOM     44  C   UNL     1       4.631   8.123  -5.625  1.00  0.00     0.029 A 
ATOM     45  N   UNL     1       2.973   8.725  -4.272  1.00  0.00    -0.354 N 
ATOM     46  N   UNL     1       0.872  10.514  -3.279  1.00  0.00    -0.248 NA
ATOM     47  C   UNL     1      -0.216  12.583  -3.304  1.00  0.00     0.031 C 
ATOM     48  C   UNL     1       4.262   9.437  -5.935  1.00  0.00     0.029 A 
ATOM     49  C   UNL     1       3.213   9.803  -5.107  1.00  0.00     0.049 A 
ATOM     50  H   UNL     1       2.286   8.699  -3.567  1.00  0.00     0.167 HD
ATOM     51  C   UNL     1       1.447  11.319  -4.253  1.00  0.00     0.074 A 
ATOM     52  C   UNL     1       0.722  12.574  -4.243  1.00  0.00     0.031 C 
ATOM     53  C   UNL     1       2.487  11.047  -5.079  1.00  0.00     0.031 A 
BRANCH  40  54
ATOM     54  C   UNL     1       4.901   5.406  -4.327  1.00  0.00    -0.014 A 
ATOM     55  C   UNL     1       4.558   4.260  -5.066  1.00  0.00     0.010 A 
ATOM     56  C   UNL     1       6.252   5.633  -4.004  1.00  0.00     0.010 A 
ATOM     57  C   UNL     1       5.543   3.341  -5.442  1.00  0.00     0.020 A 
ATOM     58  C   UNL     1       7.242   4.729  -4.398  1.00  0.00     0.020 A 
ATOM     59  C   UNL     1       6.878   3.579  -5.100  1.00  0.00     0.054 A 
BRANCH  59  60
ATOM     60  S   UNL     1       8.143   2.385  -5.617  1.00  0.00     0.124 S 
ATOM     61  O   UNL     1       7.948   1.304  -4.654  1.00  0.00    -0.237 OA
ATOM     62  O   UNL     1       7.757   2.078  -6.992  1.00  0.00    -0.237 OA
ATOM     63  O   UNL     1       9.395   3.124  -5.478  1.00  0.00    -0.744 OA
ENDBRANCH  59  60
ENDBRANCH  40  54
BRANCH  41  64
ATOM     64  C   UNL     1      -2.027  11.843  -1.123  1.00  0.00    -0.014 A 
ATOM     65  C   UNL     1      -3.169  12.147  -1.883  1.00  0.00     0.010 A 
ATOM     66  C   UNL     1      -1.864  12.446   0.139  1.00  0.00     0.010 A 
ATOM     67  C   UNL     1      -4.129  13.037  -1.392  1.00  0.00     0.020 A 
ATOM     68  C   UNL     1      -2.834  13.315   0.644  1.00  0.00     0.020 A 
ATOM     69  C   UNL     1      -3.958  13.612  -0.129  1.00  0.00     0.054 A 
BRANCH  69  70
ATOM     70  S   UNL     1      -5.252  14.702   0.527  1.00  0.00     0.124 S 
ATOM     71  O   UNL     1      -4.975  15.954  -0.170  1.00  0.00    -0.237 OA
ATOM     72  O   UNL     1      -6.479  14.015   0.132  1.00  0.00    -0.237 OA
ATOM     73  O   UNL     1      -4.990  14.712   1.965  1.00  0.00    -0.744 OA
ENDBRANCH  69  70
ENDBRANCH  41  64
BRANCH  53  74
ATOM     74  C   UNL     1       2.887  12.119  -6.054  1.00  0.00    -0.014 A 
ATOM     75  C   UNL     1       3.608  13.249  -5.632  1.00  0.00     0.010 A 
ATOM     76  C   UNL     1       2.570  11.973  -7.417  1.00  0.00     0.010 A 
ATOM     77  C   UNL     1       3.980  14.232  -6.552  1.00  0.00     0.020 A 
ATOM     78  C   UNL     1       2.958  12.944  -8.343  1.00  0.00     0.020 A 
ATOM     79  C   UNL     1       3.648  14.076  -7.902  1.00  0.00     0.054 A 
BRANCH  79  80
ATOM     80  S   UNL     1       4.171  15.346  -9.086  1.00  0.00     0.124 S 
ATOM     81  O   UNL     1       3.196  16.406  -8.844  1.00  0.00    -0.237 OA
ATOM     82  O   UNL     1       5.538  15.641  -8.664  1.00  0.00    -0.237 OA
ATOM     83  O   UNL     1       4.057  14.679 -10.382  1.00  0.00    -0.744 OA
ENDBRANCH  79  80
ENDBRANCH  53  74
ENDBRANCH  27  28
ENDBRANCH  20  22
ENDBRANCH  19  20
ENDBRANCH  18  19
ENDBRANCH   1  18
TORSDOF 17
