REMARK SMILES O=C(OCCOC(=O)C1CCN(C(=O)CSCc2ccccc2)CC1)c1ccc(-c2c3nc(c(-c4ccc(S(=O)(=O)[O-])cc4)c4ccc([nH]4)c(-c4ccc(S(=O)(=O)[O-])cc4)c4nc(c(-c5ccc(S(=O)(=O)[O-])cc5)c5ccc2[nH]5)C=C4)C=C3)cc1
REMARK SMILES IDX 5 1 4 2 3 3 2 4 1 5 26 6 27 7 85 8 28 9 84 10 29 11 30 12
REMARK SMILES IDX 31 13 78 14 32 15 83 16 77 17 79 18 33 19 82 20 76 21 75 22
REMARK SMILES IDX 34 24 64 25 45 26 63 27 46 28 49 29 62 30 80 31 47 32 48 33
REMARK SMILES IDX 61 35 81 36 50 37 35 38 36 39 44 40 37 41 43 42 38 43 39 44
REMARK SMILES IDX 40 45 41 46 42 47 65 48 66 49 74 50 67 51 73 52 68 53 69 54
REMARK SMILES IDX 70 55 71 56 72 57 51 58 52 59 60 60 53 61 59 62 54 63 55 64
REMARK SMILES IDX 56 65 57 66 58 67 6 68 7 69 8 70 9 71 10 72 25 73 11 74
REMARK SMILES IDX 24 75 12 76 13 77 14 78 15 79 16 80 17 81 18 82 19 83 23 84
REMARK SMILES IDX 20 85 22 86 21 87
REMARK H PARENT 79 23 49 34
REMARK Flexibility Score: inf
ROOT
ATOM      1  C   UNL     1       4.169  -0.687   1.871  1.00  0.00     0.274 C 
ENDROOT
BRANCH   1   2
ATOM      2  C   UNL     1       4.238   0.773   1.409  1.00  0.00     0.275 C 
BRANCH   2   3
ATOM      3  O   UNL     1       3.085   1.209   0.658  1.00  0.00    -0.458 OA
BRANCH   3   4
ATOM      4  C   UNL     1       2.761   1.174  -0.658  1.00  0.00     0.338 C 
ATOM      5  O   UNL     1       1.626   1.544  -0.962  1.00  0.00    -0.246 OA
BRANCH   4   6
ATOM      6  C   UNL     1       3.605   0.601  -1.773  1.00  0.00     0.060 A 
ATOM      7  C   UNL     1       4.911   0.121  -1.655  1.00  0.00     0.016 A 
ATOM      8  C   UNL     1       2.917   0.308  -2.982  1.00  0.00     0.016 A 
ATOM      9  C   UNL     1       5.409  -0.801  -2.594  1.00  0.00     0.010 A 
ATOM     10  C   UNL     1       3.419  -0.606  -3.928  1.00  0.00     0.010 A 
ATOM     11  C   UNL     1       4.631  -1.245  -3.686  1.00  0.00    -0.014 A 
BRANCH  11  12
ATOM     12  C   UNL     1       5.250  -2.232  -4.599  1.00  0.00     0.031 A 
ATOM     13  C   UNL     1       6.139  -1.676  -5.655  1.00  0.00     0.074 A 
ATOM     14  C   UNL     1       5.047  -3.573  -4.528  1.00  0.00     0.049 A 
ATOM     15  N   UNL     1       6.690  -2.287  -6.662  1.00  0.00    -0.248 NA
ATOM     16  C   UNL     1       6.276  -0.207  -5.672  1.00  0.00     0.031 C 
ATOM     17  C   UNL     1       3.455  -4.464  -3.920  1.00  0.00     0.029 A 
ATOM     18  N   UNL     1       6.146  -4.938  -5.122  1.00  0.00    -0.354 N 
ATOM     19  C   UNL     1       7.179  -1.276  -7.469  1.00  0.00     0.074 A 
ATOM     20  C   UNL     1       6.860  -0.016  -6.840  1.00  0.00     0.031 C 
ATOM     21  C   UNL     1       3.581  -6.118  -4.151  1.00  0.00     0.029 A 
ATOM     22  C   UNL     1       5.276  -6.574  -4.960  1.00  0.00     0.049 A 
ATOM     23  H   UNL     1       7.057  -4.816  -5.473  1.00  0.00     0.167 HD
ATOM     24  C   UNL     1       7.797  -1.389  -8.661  1.00  0.00     0.031 A 
ATOM     25  C   UNL     1       5.721  -7.784  -5.396  1.00  0.00     0.031 A 
ATOM     26  C   UNL     1       8.046  -2.643  -9.312  1.00  0.00     0.049 A 
ATOM     27  C   UNL     1       6.581  -7.672  -6.651  1.00  0.00     0.074 A 
ATOM     28  C   UNL     1       8.700  -2.842 -10.509  1.00  0.00     0.029 A 
ATOM     29  N   UNL     1       7.649  -3.897  -8.844  1.00  0.00    -0.354 N 
ATOM     30  N   UNL     1       6.951  -6.586  -7.309  1.00  0.00    -0.248 NA
ATOM     31  C   UNL     1       6.901  -8.918  -7.359  1.00  0.00     0.031 C 
ATOM     32  C   UNL     1       8.634  -4.200 -10.808  1.00  0.00     0.029 A 
ATOM     33  C   UNL     1       8.038  -4.874  -9.746  1.00  0.00     0.049 A 
ATOM     34  H   UNL     1       7.166  -4.062  -8.002  1.00  0.00     0.167 HD
ATOM     35  C   UNL     1       7.450  -7.013  -8.534  1.00  0.00     0.074 A 
ATOM     36  C   UNL     1       7.400  -8.463  -8.502  1.00  0.00     0.031 C 
ATOM     37  C   UNL     1       7.873  -6.306  -9.617  1.00  0.00     0.031 A 
BRANCH  24  38
ATOM     38  C   UNL     1       8.196  -0.104  -9.334  1.00  0.00    -0.014 A 
ATOM     39  C   UNL     1       9.189   0.724  -8.776  1.00  0.00     0.010 A 
ATOM     40  C   UNL     1       7.569   0.286 -10.530  1.00  0.00     0.010 A 
ATOM     41  C   UNL     1       9.533   1.927  -9.391  1.00  0.00     0.020 A 
ATOM     42  C   UNL     1       7.940   1.471 -11.171  1.00  0.00     0.020 A 
ATOM     43  C   UNL     1       8.916   2.285 -10.593  1.00  0.00     0.054 A 
BRANCH  43  44
ATOM     44  S   UNL     1       9.455   3.809 -11.411  1.00  0.00     0.124 S 
ATOM     45  O   UNL     1       8.956   4.836 -10.498  1.00  0.00    -0.237 OA
ATOM     46  O   UNL     1      10.907   3.651 -11.443  1.00  0.00    -0.237 OA
ATOM     47  O   UNL     1       8.794   3.759 -12.712  1.00  0.00    -0.744 OA
ENDBRANCH  43  44
ENDBRANCH  24  38
BRANCH  25  48
ATOM     48  C   UNL     1       5.138  -9.080  -4.891  1.00  0.00    -0.014 A 
ATOM     49  C   UNL     1       5.886 -10.235  -4.596  1.00  0.00     0.010 A 
ATOM     50  C   UNL     1       3.766  -9.191  -4.657  1.00  0.00     0.010 A 
ATOM     51  C   UNL     1       5.261 -11.425  -4.142  1.00  0.00     0.020 A 
ATOM     52  C   UNL     1       3.132 -10.321  -4.148  1.00  0.00     0.020 A 
ATOM     53  C   UNL     1       3.880 -11.454  -3.918  1.00  0.00     0.054 A 
BRANCH  53  54
ATOM     54  S   UNL     1       3.032 -12.968  -3.402  1.00  0.00     0.124 S 
ATOM     55  O   UNL     1       3.291 -13.863  -4.526  1.00  0.00    -0.237 OA
ATOM     56  O   UNL     1       3.708 -13.303  -2.153  1.00  0.00    -0.237 OA
ATOM     57  O   UNL     1       1.636 -12.555  -3.256  1.00  0.00    -0.744 OA
ENDBRANCH  53  54
ENDBRANCH  25  48
BRANCH  37  58
ATOM     58  C   UNL     1       8.311  -7.117 -10.812  1.00  0.00    -0.014 A 
ATOM     59  C   UNL     1       7.383  -7.658 -11.720  1.00  0.00     0.010 A 
ATOM     60  C   UNL     1       9.688  -7.245 -11.070  1.00  0.00     0.010 A 
ATOM     61  C   UNL     1       7.832  -8.336 -12.857  1.00  0.00     0.020 A 
ATOM     62  C   UNL     1      10.138  -7.893 -12.219  1.00  0.00     0.020 A 
ATOM     63  C   UNL     1       9.207  -8.447 -13.099  1.00  0.00     0.054 A 
BRANCH  63  64
ATOM     64  S   UNL     1       9.770  -9.302 -14.596  1.00  0.00     0.124 S 
ATOM     65  O   UNL     1       9.389 -10.684 -14.317  1.00  0.00    -0.237 OA
ATOM     66  O   UNL     1       9.007  -8.638 -15.649  1.00  0.00    -0.237 OA
ATOM     67  O   UNL     1      11.209  -9.049 -14.621  1.00  0.00    -0.744 OA
ENDBRANCH  63  64
ENDBRANCH  37  58
ENDBRANCH  11  12
ENDBRANCH   4   6
ENDBRANCH   3   4
ENDBRANCH   2   3
ENDBRANCH   1   2
BRANCH   1  68
ATOM     68  O   UNL     1       3.600  -1.515   0.860  1.00  0.00    -0.462 OA
BRANCH  68  69
ATOM     69  C   UNL     1       2.408  -2.157   1.052  1.00  0.00     0.309 C 
ATOM     70  O   UNL     1       1.771  -2.154   2.092  1.00  0.00    -0.252 OA
BRANCH  69  71
ATOM     71  C   UNL     1       1.939  -2.800  -0.258  1.00  0.00     0.103 C 
ATOM     72  C   UNL     1       1.543  -4.279  -0.234  1.00  0.00     0.037 C 
ATOM     73  C   UNL     1       3.006  -2.642  -1.314  1.00  0.00     0.037 C 
ATOM     74  C   UNL     1       2.748  -5.245  -0.164  1.00  0.00     0.120 C 
ATOM     75  C   UNL     1       4.208  -3.533  -1.083  1.00  0.00     0.120 C 
ATOM     76  N   UNL     1       3.775  -4.891  -1.155  1.00  0.00    -0.342 N 
ATOM     77  C   UNL     1       4.331  -5.827  -2.030  1.00  0.00     0.232 C 
ATOM     78  O   UNL     1       4.242  -7.031  -1.758  1.00  0.00    -0.274 OA
BRANCH  77  79
ATOM     79  C   UNL     1       5.197  -5.271  -3.520  1.00  0.00     0.169 C 
BRANCH  79  80
ATOM     80  S   UNL     1       4.173  -4.974  -5.958  1.00  0.00    -0.147 SA
BRANCH  80  81
ATOM     81  C   UNL     1       2.439  -5.587  -6.397  1.00  0.00     0.105 C 
BRANCH  81  82
ATOM     82  C   UNL     1       2.348  -6.995  -6.953  1.00  0.00    -0.038 A 
ATOM     83  C   UNL     1       1.247  -7.801  -6.613  1.00  0.00     0.004 A 
ATOM     84  C   UNL     1       3.345  -7.546  -7.772  1.00  0.00     0.004 A 
ATOM     85  C   UNL     1       1.230  -9.160  -6.945  1.00  0.00     0.000 A 
ATOM     86  C   UNL     1       3.337  -8.909  -8.085  1.00  0.00     0.000 A 
ATOM     87  C   UNL     1       2.297  -9.722  -7.643  1.00  0.00     0.000 A 
ENDBRANCH  81  82
ENDBRANCH  80  81
ENDBRANCH  79  80
ENDBRANCH  77  79
ENDBRANCH  69  71
ENDBRANCH  68  69
ENDBRANCH   1  68
TORSDOF 18
