REMARK SMILES C[NH2+][C@]1(C(=O)OCCOC(=O)c2ccc(-c3c4nc(c(-c5ccc(S(=O)(=O)[O-])cc5)c5ccc([nH]5)c(-c5ccc(S(=O)(=O)[O-])cc5)c5nc(c(-c6ccc(S(=O)(=O)[O-])cc6)c6ccc3[nH]6)C=C5)C=C4)cc2)CC[C@@H](OCCCc2ccccc2)C1
REMARK SMILES IDX 7 1 6 2 4 3 5 4 3 5 72 6 85 7 73 8 74 9 2 10 1 11 75 14
REMARK SMILES IDX 76 15 77 16 78 17 79 18 80 19 84 20 81 21 83 22 82 23 8 24
REMARK SMILES IDX 9 25 10 26 11 27 12 28 13 29 71 30 14 31 70 32 15 33 16 34
REMARK SMILES IDX 17 35 64 36 18 37 69 38 63 39 65 40 19 41 68 42 62 43 61 44
REMARK SMILES IDX 20 46 50 47 31 48 49 49 32 50 35 51 48 52 66 53 33 54 34 55
REMARK SMILES IDX 47 57 67 58 36 59 21 60 22 61 30 62 23 63 29 64 24 65 25 66
REMARK SMILES IDX 26 67 27 68 28 69 51 70 52 71 60 72 53 73 59 74 54 75 55 76
REMARK SMILES IDX 56 77 57 78 58 79 37 80 38 81 46 82 39 83 45 84 40 85 41 86
REMARK SMILES IDX 42 87 43 88 44 89
REMARK H PARENT 2 12 2 13 65 45 35 56
REMARK Flexibility Score: inf
ROOT
ATOM      1  C   UNL     1       2.715   0.301  -0.240  1.00  0.00     0.274 C 
ENDROOT
BRANCH   1   2
ATOM      2  O   UNL     1       1.030  -0.027  -0.089  1.00  0.00    -0.457 OA
BRANCH   2   3
ATOM      3  C   UNL     1      -0.438  -0.936   0.660  1.00  0.00     0.368 C 
ATOM      4  O   UNL     1      -0.405  -2.110   1.157  1.00  0.00    -0.245 OA
BRANCH   3   5
ATOM      5  C   UNL     1      -2.001  -0.264   1.035  1.00  0.00     0.196 C 
ATOM      6  C   UNL     1      -2.818   0.979   0.590  1.00  0.00     0.084 C 
ATOM      7  C   UNL     1      -2.899  -1.450   0.518  1.00  0.00     0.113 C 
ATOM      8  C   UNL     1      -4.232   0.521   0.247  1.00  0.00     0.039 C 
ATOM      9  C   UNL     1      -4.041  -0.880  -0.305  1.00  0.00     0.125 C 
BRANCH   5  10
ATOM     10  N   UNL     1      -1.987  -0.238   2.560  1.00  0.00    -0.334 N 
ATOM     11  C   UNL     1      -3.231  -0.318   3.301  1.00  0.00     0.331 C 
ATOM     12  H   UNL     1      -1.414  -1.026   2.862  1.00  0.00     0.347 HD
ATOM     13  H   UNL     1      -1.648   0.700   2.773  1.00  0.00     0.347 HD
ENDBRANCH   5  10
BRANCH   9  14
ATOM     14  O   UNL     1      -3.861  -0.686  -1.704  1.00  0.00    -0.378 OA
BRANCH  14  15
ATOM     15  C   UNL     1      -2.947  -1.459  -2.454  1.00  0.00     0.161 C 
BRANCH  15  16
ATOM     16  C   UNL     1      -2.087  -0.501  -3.281  1.00  0.00     0.033 C 
BRANCH  16  17
ATOM     17  C   UNL     1      -1.251   0.557  -2.537  1.00  0.00     0.038 C 
BRANCH  17  18
ATOM     18  C   UNL     1      -0.386   0.151  -1.366  1.00  0.00    -0.048 A 
ATOM     19  C   UNL     1       0.492  -1.422  -1.325  1.00  0.00     0.004 A 
ATOM     20  C   UNL     1      -0.248   1.313   0.022  1.00  0.00     0.004 A 
ATOM     21  C   UNL     1       1.481  -1.899   0.111  1.00  0.00     0.000 A 
ATOM     22  C   UNL     1       0.616   0.806   1.528  1.00  0.00     0.000 A 
ATOM     23  C   UNL     1       1.499  -0.809   1.586  1.00  0.00     0.000 A 
ENDBRANCH  17  18
ENDBRANCH  16  17
ENDBRANCH  15  16
ENDBRANCH  14  15
ENDBRANCH   9  14
ENDBRANCH   3   5
ENDBRANCH   2   3
ENDBRANCH   1   2
BRANCH   1  24
ATOM     24  C   UNL     1       3.362   1.334   0.791  1.00  0.00     0.275 C 
BRANCH  24  25
ATOM     25  O   UNL     1       3.191   1.065   2.226  1.00  0.00    -0.458 OA
BRANCH  25  26
ATOM     26  C   UNL     1       3.215   2.136   3.071  1.00  0.00     0.338 C 
ATOM     27  O   UNL     1       3.736   3.213   2.782  1.00  0.00    -0.246 OA
BRANCH  26  28
ATOM     28  C   UNL     1       2.398   1.977   4.345  1.00  0.00     0.060 A 
ATOM     29  C   UNL     1       1.411   1.001   4.531  1.00  0.00     0.016 A 
ATOM     30  C   UNL     1       2.479   2.969   5.328  1.00  0.00     0.016 A 
ATOM     31  C   UNL     1       0.431   1.105   5.532  1.00  0.00     0.010 A 
ATOM     32  C   UNL     1       1.590   2.986   6.426  1.00  0.00     0.010 A 
ATOM     33  C   UNL     1       0.527   2.071   6.532  1.00  0.00    -0.014 A 
BRANCH  33  34
ATOM     34  C   UNL     1      -0.403   2.108   7.708  1.00  0.00     0.031 A 
ATOM     35  C   UNL     1      -1.086   3.395   8.111  1.00  0.00     0.074 A 
ATOM     36  C   UNL     1      -0.575   1.017   8.488  1.00  0.00     0.049 A 
ATOM     37  N   UNL     1      -1.612   3.733   9.263  1.00  0.00    -0.248 NA
ATOM     38  C   UNL     1      -1.180   4.443   7.082  1.00  0.00     0.031 C 
ATOM     39  C   UNL     1      -0.072  -0.330   8.208  1.00  0.00     0.029 A 
ATOM     40  N   UNL     1      -1.193   0.882   9.713  1.00  0.00    -0.354 N 
ATOM     41  C   UNL     1      -2.036   5.052   9.122  1.00  0.00     0.074 A 
ATOM     42  C   UNL     1      -1.719   5.446   7.764  1.00  0.00     0.031 C 
ATOM     43  C   UNL     1      -0.377  -1.142   9.230  1.00  0.00     0.029 A 
ATOM     44  C   UNL     1      -1.005  -0.358  10.283  1.00  0.00     0.049 A 
ATOM     45  H   UNL     1      -1.715   1.601  10.138  1.00  0.00     0.167 HD
ATOM     46  C   UNL     1      -2.616   5.862  10.044  1.00  0.00     0.031 A 
ATOM     47  C   UNL     1      -1.229  -0.810  11.533  1.00  0.00     0.031 A 
ATOM     48  C   UNL     1      -2.946   5.455  11.389  1.00  0.00     0.049 A 
ATOM     49  C   UNL     1      -1.786   0.124  12.569  1.00  0.00     0.074 A 
ATOM     50  C   UNL     1      -3.540   6.200  12.395  1.00  0.00     0.029 A 
ATOM     51  N   UNL     1      -2.718   4.192  11.916  1.00  0.00    -0.354 N 
ATOM     52  N   UNL     1      -2.120   1.386  12.445  1.00  0.00    -0.248 NA
ATOM     53  C   UNL     1      -1.988  -0.426  13.917  1.00  0.00     0.031 C 
ATOM     54  C   UNL     1      -3.619   5.407  13.544  1.00  0.00     0.029 A 
ATOM     55  C   UNL     1      -3.138   4.145  13.236  1.00  0.00     0.049 A 
ATOM     56  H   UNL     1      -2.318   3.439  11.424  1.00  0.00     0.167 HD
ATOM     57  C   UNL     1      -2.598   1.772  13.692  1.00  0.00     0.074 A 
ATOM     58  C   UNL     1      -2.522   0.609  14.551  1.00  0.00     0.031 C 
ATOM     59  C   UNL     1      -3.061   2.984  14.087  1.00  0.00     0.031 A 
BRANCH  46  60
ATOM     60  C   UNL     1      -2.882   7.299   9.660  1.00  0.00    -0.014 A 
ATOM     61  C   UNL     1      -3.894   7.649   8.749  1.00  0.00     0.010 A 
ATOM     62  C   UNL     1      -2.138   8.325  10.275  1.00  0.00     0.010 A 
ATOM     63  C   UNL     1      -4.127   8.991   8.429  1.00  0.00     0.020 A 
ATOM     64  C   UNL     1      -2.386   9.670   9.980  1.00  0.00     0.020 A 
ATOM     65  C   UNL     1      -3.368   9.993   9.044  1.00  0.00     0.054 A 
BRANCH  65  66
ATOM     66  S   UNL     1      -3.700  11.726   8.617  1.00  0.00     0.124 S 
ATOM     67  O   UNL     1      -3.163  11.810   7.262  1.00  0.00    -0.237 OA
ATOM     68  O   UNL     1      -5.155  11.809   8.721  1.00  0.00    -0.237 OA
ATOM     69  O   UNL     1      -2.962  12.481   9.627  1.00  0.00    -0.744 OA
ENDBRANCH  65  66
ENDBRANCH  46  60
BRANCH  47  70
ATOM     70  C   UNL     1      -0.860  -2.210  11.890  1.00  0.00    -0.014 A 
ATOM     71  C   UNL     1      -1.856  -3.163  12.158  1.00  0.00     0.010 A 
ATOM     72  C   UNL     1       0.492  -2.603  11.937  1.00  0.00     0.010 A 
ATOM     73  C   UNL     1      -1.509  -4.480  12.474  1.00  0.00     0.020 A 
ATOM     74  C   UNL     1       0.842  -3.927  12.219  1.00  0.00     0.020 A 
ATOM     75  C   UNL     1      -0.163  -4.856  12.496  1.00  0.00     0.054 A 
BRANCH  75  76
ATOM     76  S   UNL     1       0.257  -6.587  12.840  1.00  0.00     0.124 S 
ATOM     77  O   UNL     1      -0.009  -6.685  14.272  1.00  0.00    -0.237 OA
ATOM     78  O   UNL     1      -0.667  -7.314  11.973  1.00  0.00    -0.237 OA
ATOM     79  O   UNL     1       1.664  -6.681  12.456  1.00  0.00    -0.744 OA
ENDBRANCH  75  76
ENDBRANCH  47  70
BRANCH  59  80
ATOM     80  C   UNL     1      -3.572   3.103  15.499  1.00  0.00    -0.014 A 
ATOM     81  C   UNL     1      -2.698   3.098  16.600  1.00  0.00     0.010 A 
ATOM     82  C   UNL     1      -4.953   3.261  15.722  1.00  0.00     0.010 A 
ATOM     83  C   UNL     1      -3.199   3.215  17.900  1.00  0.00     0.020 A 
ATOM     84  C   UNL     1      -5.454   3.408  17.018  1.00  0.00     0.020 A 
ATOM     85  C   UNL     1      -4.575   3.369  18.101  1.00  0.00     0.054 A 
BRANCH  85  86
ATOM     86  S   UNL     1      -5.196   3.560  19.795  1.00  0.00     0.124 S 
ATOM     87  O   UNL     1      -5.054   2.206  20.325  1.00  0.00    -0.237 OA
ATOM     88  O   UNL     1      -4.287   4.554  20.360  1.00  0.00    -0.237 OA
ATOM     89  O   UNL     1      -6.572   4.016  19.611  1.00  0.00    -0.744 OA
ENDBRANCH  85  86
ENDBRANCH  59  80
ENDBRANCH  33  34
ENDBRANCH  26  28
ENDBRANCH  25  26
ENDBRANCH  24  25
ENDBRANCH   1  24
TORSDOF 20
