REMARK SMILES C[C@@H](CC[NH+](C)C)NC(=O)Cn1cccc1C(=O)OCCOC(=O)c1ccc(-c2c3nc(c(-c4ccc(S(=O)(=O)[O-])cc4)c4ccc([nH]4)c(-c4ccc(S(=O)(=O)[O-])cc4)c4nc(c(-c5ccc(S(=O)(=O)[O-])cc5)c5ccc2[nH]5)C=C4)C=C3)cc1
REMARK SMILES IDX 19 1 17 2 18 3 16 4 12 5 13 6 14 7 15 8 11 9 9 10 8 11 10 13
REMARK SMILES IDX 2 14 1 15 3 16 4 17 5 18 6 19 7 20 20 22 21 23 22 24 23 25
REMARK SMILES IDX 24 26 25 27 26 28 84 29 27 30 83 31 28 32 29 33 30 34 77 35
REMARK SMILES IDX 31 36 82 37 76 38 78 39 32 40 81 41 75 42 74 43 33 45 63 46
REMARK SMILES IDX 44 47 62 48 45 49 48 50 61 51 79 52 46 53 47 54 60 56 80 57
REMARK SMILES IDX 49 58 34 59 35 60 43 61 36 62 42 63 37 64 38 65 39 66 40 67
REMARK SMILES IDX 41 68 64 69 65 70 73 71 66 72 72 73 67 74 68 75 69 76 70 77
REMARK SMILES IDX 71 78 50 79 51 80 59 81 52 82 58 83 53 84 54 85 55 86 56 87
REMARK SMILES IDX 57 88
REMARK H PARENT 8 12 5 21 78 44 48 55
REMARK Flexibility Score: inf
ROOT
ATOM      1  O   UNL     1       1.414  -3.973  -3.345  1.00  0.00    -0.457 OA
ENDROOT
BRANCH   1   2
ATOM      2  C   UNL     1       2.130  -2.818  -3.483  1.00  0.00     0.355 C 
ATOM      3  O   UNL     1       3.336  -2.777  -3.595  1.00  0.00    -0.244 OA
BRANCH   2   4
ATOM      4  C   UNL     1       1.252  -1.653  -3.564  1.00  0.00     0.128 A 
ATOM      5  N   UNL     1      -0.107  -1.528  -3.307  1.00  0.00    -0.333 N 
ATOM      6  C   UNL     1      -0.533  -0.269  -3.679  1.00  0.00     0.087 A 
ATOM      7  C   UNL     1       0.559   0.463  -4.073  1.00  0.00     0.020 A 
ATOM      8  C   UNL     1       1.675  -0.395  -3.990  1.00  0.00     0.035 A 
BRANCH   5   9
ATOM      9  C   UNL     1      -1.018  -2.519  -2.752  1.00  0.00     0.222 C 
BRANCH   9  10
ATOM     10  C   UNL     1      -1.786  -2.041  -1.534  1.00  0.00     0.240 C 
ATOM     11  N   UNL     1      -1.133  -1.742  -0.372  1.00  0.00    -0.352 N 
ATOM     12  H   UNL     1      -1.721  -1.567   0.398  1.00  0.00     0.163 HD
ATOM     13  O   UNL     1      -3.020  -2.004  -1.528  1.00  0.00    -0.273 OA
BRANCH  11  14
ATOM     14  C   UNL     1       0.294  -1.640  -0.087  1.00  0.00     0.084 C 
ATOM     15  C   UNL     1       0.839  -0.223  -0.278  1.00  0.00     0.031 C 
BRANCH  14  16
ATOM     16  C   UNL     1       0.614  -2.195   1.309  1.00  0.00     0.086 C 
BRANCH  16  17
ATOM     17  C   UNL     1       0.239  -1.344   2.540  1.00  0.00     0.263 C 
BRANCH  17  18
ATOM     18  N   UNL     1      -1.211  -1.215   2.774  1.00  0.00    -0.340 N 
ATOM     19  C   UNL     1      -1.493  -1.305   4.214  1.00  0.00     0.332 C 
ATOM     20  C   UNL     1      -1.758   0.063   2.296  1.00  0.00     0.332 C 
ATOM     21  H   UNL     1      -1.651  -1.972   2.252  1.00  0.00     0.347 HD
ENDBRANCH  17  18
ENDBRANCH  16  17
ENDBRANCH  14  16
ENDBRANCH  11  14
ENDBRANCH   9  10
ENDBRANCH   5   9
ENDBRANCH   2   4
ENDBRANCH   1   2
BRANCH   1  22
ATOM     22  C   UNL     1       2.096  -5.190  -3.690  1.00  0.00     0.275 C 
BRANCH  22  23
ATOM     23  C   UNL     1       1.752  -5.630  -5.112  1.00  0.00     0.275 C 
BRANCH  23  24
ATOM     24  O   UNL     1       2.128  -4.665  -6.099  1.00  0.00    -0.458 OA
BRANCH  24  25
ATOM     25  C   UNL     1       1.150  -3.769  -6.373  1.00  0.00     0.338 C 
ATOM     26  O   UNL     1       0.141  -3.553  -5.721  1.00  0.00    -0.246 OA
BRANCH  25  27
ATOM     27  C   UNL     1       1.354  -3.178  -7.691  1.00  0.00     0.060 A 
ATOM     28  C   UNL     1       1.008  -1.837  -7.883  1.00  0.00     0.016 A 
ATOM     29  C   UNL     1       1.614  -4.040  -8.762  1.00  0.00     0.016 A 
ATOM     30  C   UNL     1       0.861  -1.367  -9.176  1.00  0.00     0.010 A 
ATOM     31  C   UNL     1       1.422  -3.582 -10.052  1.00  0.00     0.010 A 
ATOM     32  C   UNL     1       1.032  -2.252 -10.250  1.00  0.00    -0.014 A 
BRANCH  32  33
ATOM     33  C   UNL     1       0.906  -1.734 -11.621  1.00  0.00     0.031 A 
ATOM     34  C   UNL     1       2.245  -1.208 -12.149  1.00  0.00     0.074 A 
ATOM     35  C   UNL     1      -0.350  -1.766 -12.162  1.00  0.00     0.049 A 
ATOM     36  N   UNL     1       2.478  -0.345 -13.087  1.00  0.00    -0.248 NA
ATOM     37  C   UNL     1       3.514  -1.641 -11.495  1.00  0.00     0.031 C 
ATOM     38  C   UNL     1      -1.548  -2.326 -11.487  1.00  0.00     0.029 A 
ATOM     39  N   UNL     1      -0.888  -1.345 -13.358  1.00  0.00    -0.354 N 
ATOM     40  C   UNL     1       3.878  -0.250 -13.243  1.00  0.00     0.074 A 
ATOM     41  C   UNL     1       4.465  -1.010 -12.185  1.00  0.00     0.031 C 
ATOM     42  C   UNL     1      -2.657  -2.141 -12.237  1.00  0.00     0.029 A 
ATOM     43  C   UNL     1      -2.298  -1.473 -13.472  1.00  0.00     0.049 A 
ATOM     44  H   UNL     1      -0.333  -0.981 -14.085  1.00  0.00     0.167 HD
ATOM     45  C   UNL     1       4.473   0.373 -14.300  1.00  0.00     0.031 A 
ATOM     46  C   UNL     1      -3.122  -1.030 -14.469  1.00  0.00     0.031 A 
ATOM     47  C   UNL     1       3.491   0.984 -15.129  1.00  0.00     0.049 A 
ATOM     48  C   UNL     1      -2.234  -0.482 -15.507  1.00  0.00     0.074 A 
ATOM     49  C   UNL     1       2.708   2.097 -14.972  1.00  0.00     0.029 A 
ATOM     50  N   UNL     1       2.980   0.209 -16.141  1.00  0.00    -0.354 N 
ATOM     51  N   UNL     1      -1.487  -1.183 -16.303  1.00  0.00    -0.248 NA
ATOM     52  C   UNL     1      -2.122   0.977 -15.633  1.00  0.00     0.031 C 
ATOM     53  C   UNL     1       1.485   1.727 -15.572  1.00  0.00     0.029 A 
ATOM     54  C   UNL     1       1.637   0.489 -16.207  1.00  0.00     0.049 A 
ATOM     55  H   UNL     1       3.478  -0.422 -16.708  1.00  0.00     0.167 HD
ATOM     56  C   UNL     1      -0.566  -0.261 -16.732  1.00  0.00     0.074 A 
ATOM     57  C   UNL     1      -1.175   1.040 -16.565  1.00  0.00     0.031 C 
ATOM     58  C   UNL     1       0.757  -0.556 -16.674  1.00  0.00     0.031 A 
BRANCH  45  59
ATOM     59  C   UNL     1       5.883   0.325 -14.812  1.00  0.00    -0.014 A 
ATOM     60  C   UNL     1       6.256   1.314 -15.758  1.00  0.00     0.010 A 
ATOM     61  C   UNL     1       6.715  -0.796 -14.680  1.00  0.00     0.010 A 
ATOM     62  C   UNL     1       7.323   1.125 -16.635  1.00  0.00     0.020 A 
ATOM     63  C   UNL     1       7.816  -0.974 -15.535  1.00  0.00     0.020 A 
ATOM     64  C   UNL     1       8.075  -0.041 -16.543  1.00  0.00     0.054 A 
BRANCH  64  65
ATOM     65  S   UNL     1       9.329  -0.350 -17.814  1.00  0.00     0.124 S 
ATOM     66  O   UNL     1       8.511  -0.642 -18.987  1.00  0.00    -0.237 OA
ATOM     67  O   UNL     1      10.055   0.917 -17.858  1.00  0.00    -0.237 OA
ATOM     68  O   UNL     1      10.091  -1.476 -17.279  1.00  0.00    -0.744 OA
ENDBRANCH  64  65
ENDBRANCH  45  59
BRANCH  46  69
ATOM     69  C   UNL     1      -4.603  -0.841 -14.715  1.00  0.00    -0.014 A 
ATOM     70  C   UNL     1      -5.644  -1.194 -13.848  1.00  0.00     0.010 A 
ATOM     71  C   UNL     1      -4.992  -0.108 -15.874  1.00  0.00     0.010 A 
ATOM     72  C   UNL     1      -6.959  -0.705 -14.050  1.00  0.00     0.020 A 
ATOM     73  C   UNL     1      -6.269   0.426 -16.057  1.00  0.00     0.020 A 
ATOM     74  C   UNL     1      -7.247   0.148 -15.122  1.00  0.00     0.054 A 
BRANCH  74  75
ATOM     75  S   UNL     1      -8.836   1.022 -15.231  1.00  0.00     0.124 S 
ATOM     76  O   UNL     1      -9.669   0.070 -15.958  1.00  0.00    -0.237 OA
ATOM     77  O   UNL     1      -9.190   1.231 -13.829  1.00  0.00    -0.237 OA
ATOM     78  O   UNL     1      -8.499   2.244 -15.961  1.00  0.00    -0.744 OA
ENDBRANCH  74  75
ENDBRANCH  46  69
BRANCH  58  79
ATOM     79  C   UNL     1       1.094  -2.039 -16.702  1.00  0.00    -0.014 A 
ATOM     80  C   UNL     1       0.779  -2.796 -17.844  1.00  0.00     0.010 A 
ATOM     81  C   UNL     1       1.645  -2.725 -15.600  1.00  0.00     0.010 A 
ATOM     82  C   UNL     1       1.005  -4.180 -17.889  1.00  0.00     0.020 A 
ATOM     83  C   UNL     1       1.877  -4.113 -15.635  1.00  0.00     0.020 A 
ATOM     84  C   UNL     1       1.556  -4.833 -16.785  1.00  0.00     0.054 A 
BRANCH  84  85
ATOM     85  S   UNL     1       1.833  -6.627 -16.882  1.00  0.00     0.124 S 
ATOM     86  O   UNL     1       0.495  -7.147 -17.152  1.00  0.00    -0.237 OA
ATOM     87  O   UNL     1       2.780  -6.741 -17.988  1.00  0.00    -0.237 OA
ATOM     88  O   UNL     1       2.372  -6.972 -15.567  1.00  0.00    -0.744 OA
ENDBRANCH  84  85
ENDBRANCH  58  79
ENDBRANCH  32  33
ENDBRANCH  25  27
ENDBRANCH  24  25
ENDBRANCH  23  24
ENDBRANCH  22  23
ENDBRANCH   1  22
TORSDOF 20
