REMARK SMILES C[C@@H](C(=O)OCCOC(=O)c1ccc(-c2c3nc(c(-c4ccc(S(=O)(=O)[O-])cc4)c4ccc([nH]4)c(-c4ccc(S(=O)(=O)[O-])cc4)c4nc(c(-c5ccc(S(=O)(=O)[O-])cc5)c5ccc2[nH]5)C=C4)C=C3)cc1)c1ccc2c3cc(Cl)ccc3n(C(=O)c3ccc(Cl)cc3)c2c1
REMARK SMILES IDX 6 1 5 2 3 3 4 4 2 5 1 6 71 7 72 8 93 9 73 10 92 11 74 12
REMARK SMILES IDX 82 13 75 14 81 15 76 16 80 17 77 18 79 19 78 20 83 21 84 22
REMARK SMILES IDX 85 23 86 24 91 25 87 26 90 27 88 28 89 29 7 30 8 31 9 32
REMARK SMILES IDX 10 33 11 34 12 35 70 36 13 37 69 38 14 39 15 40 16 41 63 42
REMARK SMILES IDX 17 43 68 44 62 45 64 46 18 47 67 48 61 49 60 50 19 52 49 53
REMARK SMILES IDX 30 54 48 55 31 56 34 57 47 58 65 59 32 60 33 61 46 63 66 64
REMARK SMILES IDX 35 65 20 66 21 67 29 68 22 69 28 70 23 71 24 72 25 73 26 74
REMARK SMILES IDX 27 75 50 76 51 77 59 78 52 79 58 80 53 81 54 82 55 83 56 84
REMARK SMILES IDX 57 85 36 86 37 87 45 88 38 89 44 90 39 91 40 92 41 93 42 94
REMARK SMILES IDX 43 95
REMARK H PARENT 64 51 34 62
REMARK Flexibility Score: inf
ROOT
ATOM      1  C   UNL     1       2.751  -1.288  -3.609  1.00  0.00     0.274 C 
ENDROOT
BRANCH   1   2
ATOM      2  O   UNL     1       2.469  -0.707  -2.324  1.00  0.00    -0.462 OA
BRANCH   2   3
ATOM      3  C   UNL     1       1.541   0.289  -2.319  1.00  0.00     0.313 C 
ATOM      4  O   UNL     1       0.992   0.715  -3.321  1.00  0.00    -0.252 OA
BRANCH   3   5
ATOM      5  C   UNL     1       1.276   0.841  -0.913  1.00  0.00     0.126 C 
ATOM      6  C   UNL     1       2.056   0.159   0.215  1.00  0.00     0.025 C 
BRANCH   5   7
ATOM      7  C   UNL     1      -0.223   0.846  -0.666  1.00  0.00    -0.032 A 
ATOM      8  C   UNL     1      -0.972   1.945  -1.100  1.00  0.00     0.005 A 
ATOM      9  C   UNL     1      -0.871  -0.280  -0.129  1.00  0.00     0.032 A 
ATOM     10  C   UNL     1      -2.362   1.920  -1.048  1.00  0.00     0.011 A 
ATOM     11  C   UNL     1      -2.272  -0.282  -0.036  1.00  0.00     0.057 A 
ATOM     12  C   UNL     1      -3.015   0.788  -0.522  1.00  0.00     0.008 A 
ATOM     13  N   UNL     1      -3.144  -1.280   0.435  1.00  0.00    -0.276 N 
ATOM     14  C   UNL     1      -4.380   0.457  -0.377  1.00  0.00     0.009 A 
ATOM     15  C   UNL     1      -4.453  -0.750   0.342  1.00  0.00     0.057 A 
ATOM     16  C   UNL     1      -5.550   1.139  -0.780  1.00  0.00     0.031 A 
ATOM     17  C   UNL     1      -5.705  -1.150   0.851  1.00  0.00     0.029 A 
ATOM     18  C   UNL     1      -6.788   0.658  -0.387  1.00  0.00     0.041 A 
ATOM     19  C   UNL     1      -6.864  -0.446   0.451  1.00  0.00     0.023 A 
ATOM     20  Cl  UNL     1      -8.211   1.474  -0.909  1.00  0.00    -0.084 Cl
BRANCH  13  21
ATOM     21  C   UNL     1      -2.653  -2.482   1.060  1.00  0.00     0.262 C 
ATOM     22  O   UNL     1      -1.803  -2.295   1.935  1.00  0.00    -0.268 OA
BRANCH  21  23
ATOM     23  C   UNL     1      -2.917  -3.935   0.737  1.00  0.00     0.040 A 
ATOM     24  C   UNL     1      -2.706  -4.916   1.716  1.00  0.00     0.015 A 
ATOM     25  C   UNL     1      -3.205  -4.408  -0.539  1.00  0.00     0.015 A 
ATOM     26  C   UNL     1      -2.931  -6.284   1.456  1.00  0.00     0.021 A 
ATOM     27  C   UNL     1      -3.529  -5.756  -0.797  1.00  0.00     0.021 A 
ATOM     28  C   UNL     1      -3.396  -6.694   0.213  1.00  0.00     0.041 A 
ATOM     29  Cl  UNL     1      -3.755  -8.348  -0.092  1.00  0.00    -0.084 Cl
ENDBRANCH  21  23
ENDBRANCH  13  21
ENDBRANCH   5   7
ENDBRANCH   3   5
ENDBRANCH   2   3
ENDBRANCH   1   2
BRANCH   1  30
ATOM     30  C   UNL     1       2.037  -2.630  -3.773  1.00  0.00     0.275 C 
BRANCH  30  31
ATOM     31  O   UNL     1       0.632  -2.466  -4.078  1.00  0.00    -0.458 OA
BRANCH  31  32
ATOM     32  C   UNL     1      -0.225  -2.809  -3.095  1.00  0.00     0.338 C 
ATOM     33  O   UNL     1       0.070  -3.189  -1.962  1.00  0.00    -0.246 OA
BRANCH  32  34
ATOM     34  C   UNL     1      -1.637  -2.663  -3.502  1.00  0.00     0.060 A 
ATOM     35  C   UNL     1      -2.263  -1.450  -3.250  1.00  0.00     0.016 A 
ATOM     36  C   UNL     1      -2.417  -3.779  -3.842  1.00  0.00     0.016 A 
ATOM     37  C   UNL     1      -3.662  -1.390  -3.204  1.00  0.00     0.010 A 
ATOM     38  C   UNL     1      -3.833  -3.696  -3.838  1.00  0.00     0.010 A 
ATOM     39  C   UNL     1      -4.480  -2.515  -3.444  1.00  0.00    -0.014 A 
BRANCH  39  40
ATOM     40  C   UNL     1      -5.975  -2.396  -3.290  1.00  0.00     0.031 A 
ATOM     41  C   UNL     1      -6.791  -3.063  -2.194  1.00  0.00     0.074 A 
ATOM     42  C   UNL     1      -6.621  -1.499  -4.047  1.00  0.00     0.049 A 
ATOM     43  N   UNL     1      -8.070  -3.296  -2.032  1.00  0.00    -0.248 NA
ATOM     44  C   UNL     1      -6.018  -3.500  -1.056  1.00  0.00     0.031 C 
ATOM     45  C   UNL     1      -6.005  -0.658  -5.072  1.00  0.00     0.029 A 
ATOM     46  N   UNL     1      -7.935  -1.129  -4.034  1.00  0.00    -0.354 N 
ATOM     47  C   UNL     1      -8.195  -3.979  -0.806  1.00  0.00     0.074 A 
ATOM     48  C   UNL     1      -6.867  -4.156  -0.285  1.00  0.00     0.031 C 
ATOM     49  C   UNL     1      -6.941   0.156  -5.574  1.00  0.00     0.029 A 
ATOM     50  C   UNL     1      -8.228  -0.186  -4.978  1.00  0.00     0.049 A 
ATOM     51  H   UNL     1      -8.600  -1.501  -3.410  1.00  0.00     0.167 HD
ATOM     52  C   UNL     1      -9.303  -4.329  -0.105  1.00  0.00     0.031 A 
ATOM     53  C   UNL     1      -9.417   0.294  -5.375  1.00  0.00     0.031 A 
ATOM     54  C   UNL     1     -10.622  -3.934  -0.502  1.00  0.00     0.049 A 
ATOM     55  C   UNL     1     -10.664  -0.185  -4.697  1.00  0.00     0.074 A 
ATOM     56  C   UNL     1     -11.842  -4.254   0.064  1.00  0.00     0.029 A 
ATOM     57  N   UNL     1     -10.872  -3.044  -1.533  1.00  0.00    -0.354 N 
ATOM     58  N   UNL     1     -10.791  -1.028  -3.700  1.00  0.00    -0.248 NA
ATOM     59  C   UNL     1     -11.928   0.346  -5.213  1.00  0.00     0.031 C 
ATOM     60  C   UNL     1     -12.834  -3.555  -0.634  1.00  0.00     0.029 A 
ATOM     61  C   UNL     1     -12.223  -2.787  -1.614  1.00  0.00     0.049 A 
ATOM     62  H   UNL     1     -10.185  -2.653  -2.121  1.00  0.00     0.167 HD
ATOM     63  C   UNL     1     -12.157  -1.129  -3.466  1.00  0.00     0.074 A 
ATOM     64  C   UNL     1     -12.807  -0.242  -4.412  1.00  0.00     0.031 C 
ATOM     65  C   UNL     1     -12.823  -1.892  -2.564  1.00  0.00     0.031 A 
BRANCH  52  66
ATOM     66  C   UNL     1      -9.151  -5.159   1.154  1.00  0.00    -0.014 A 
ATOM     67  C   UNL     1      -8.752  -4.599   2.383  1.00  0.00     0.010 A 
ATOM     68  C   UNL     1      -9.467  -6.531   1.113  1.00  0.00     0.010 A 
ATOM     69  C   UNL     1      -8.620  -5.404   3.526  1.00  0.00     0.020 A 
ATOM     70  C   UNL     1      -9.357  -7.333   2.256  1.00  0.00     0.020 A 
ATOM     71  C   UNL     1      -8.910  -6.770   3.451  1.00  0.00     0.054 A 
BRANCH  71  72
ATOM     72  S   UNL     1      -8.725  -7.800   4.939  1.00  0.00     0.124 S 
ATOM     73  O   UNL     1      -7.278  -7.989   4.993  1.00  0.00    -0.237 OA
ATOM     74  O   UNL     1      -9.286  -6.957   5.992  1.00  0.00    -0.237 OA
ATOM     75  O   UNL     1      -9.500  -8.999   4.628  1.00  0.00    -0.744 OA
ENDBRANCH  71  72
ENDBRANCH  52  66
BRANCH  53  76
ATOM     76  C   UNL     1      -9.435   1.199  -6.548  1.00  0.00    -0.014 A 
ATOM     77  C   UNL     1      -9.677   2.571  -6.398  1.00  0.00     0.010 A 
ATOM     78  C   UNL     1      -9.068   0.690  -7.810  1.00  0.00     0.010 A 
ATOM     79  C   UNL     1      -9.537   3.425  -7.494  1.00  0.00     0.020 A 
ATOM     80  C   UNL     1      -8.894   1.544  -8.896  1.00  0.00     0.020 A 
ATOM     81  C   UNL     1      -9.136   2.908  -8.732  1.00  0.00     0.054 A 
BRANCH  81  82
ATOM     82  S   UNL     1      -8.848   4.045 -10.114  1.00  0.00     0.124 S 
ATOM     83  O   UNL     1     -10.202   4.262 -10.611  1.00  0.00    -0.237 OA
ATOM     84  O   UNL     1      -8.220   5.191  -9.462  1.00  0.00    -0.237 OA
ATOM     85  O   UNL     1      -7.967   3.285 -10.999  1.00  0.00    -0.744 OA
ENDBRANCH  81  82
ENDBRANCH  53  76
BRANCH  65  86
ATOM     86  C   UNL     1     -14.316  -1.793  -2.560  1.00  0.00    -0.014 A 
ATOM     87  C   UNL     1     -15.069  -2.469  -3.534  1.00  0.00     0.010 A 
ATOM     88  C   UNL     1     -14.969  -1.077  -1.542  1.00  0.00     0.010 A 
ATOM     89  C   UNL     1     -16.461  -2.410  -3.505  1.00  0.00     0.020 A 
ATOM     90  C   UNL     1     -16.362  -1.033  -1.500  1.00  0.00     0.020 A 
ATOM     91  C   UNL     1     -17.099  -1.690  -2.489  1.00  0.00     0.054 A 
BRANCH  91  92
ATOM     92  S   UNL     1     -18.910  -1.668  -2.447  1.00  0.00     0.124 S 
ATOM     93  O   UNL     1     -19.224  -0.717  -3.510  1.00  0.00    -0.237 OA
ATOM     94  O   UNL     1     -19.256  -3.059  -2.726  1.00  0.00    -0.237 OA
ATOM     95  O   UNL     1     -19.218  -1.215  -1.092  1.00  0.00    -0.744 OA
ENDBRANCH  91  92
ENDBRANCH  65  86
ENDBRANCH  39  40
ENDBRANCH  32  34
ENDBRANCH  31  32
ENDBRANCH  30  31
ENDBRANCH   1  30
TORSDOF 17
