REMARK SMILES COc1ncccc1Cn1ccc(C(=O)OCCOC(=O)c2ccc(-c3c4nc(c(-c5ccc(S(=O)(=O)[O-])cc5)c5ccc([nH]5)c(-c5ccc(S(=O)(=O)[O-])cc5)c5nc(c(-c6ccc(S(=O)(=O)[O-])cc6)c6ccc3[nH]6)C=C5)C=C4)cc2)n1
REMARK SMILES IDX 17 1 16 2 14 3 15 4 13 5 10 6 11 7 82 8 12 9 9 10 8 11 3 12
REMARK SMILES IDX 4 13 5 14 7 15 6 16 2 17 1 18 18 19 19 20 20 21 21 22 22 23
REMARK SMILES IDX 23 24 81 25 24 26 80 27 25 28 26 29 27 30 74 31 28 32 79 33
REMARK SMILES IDX 73 34 75 35 29 36 78 37 72 38 71 39 30 41 60 42 41 43 59 44
REMARK SMILES IDX 42 45 45 46 58 47 76 48 43 49 44 50 57 52 77 53 46 54 31 55
REMARK SMILES IDX 32 56 40 57 33 58 39 59 34 60 35 61 36 62 37 63 38 64 61 65
REMARK SMILES IDX 62 66 70 67 63 68 69 69 64 70 65 71 66 72 67 73 68 74 47 75
REMARK SMILES IDX 48 76 56 77 49 78 55 79 50 80 51 81 52 82 53 83 54 84
REMARK H PARENT 75 40 45 51
REMARK Flexibility Score: inf
ROOT
ATOM      1  C   UNL     1       4.761   3.991  -4.631  1.00  0.00     0.275 C 
ENDROOT
BRANCH   1   2
ATOM      2  O   UNL     1       4.528   2.913  -3.739  1.00  0.00    -0.457 OA
BRANCH   2   3
ATOM      3  C   UNL     1       3.556   3.170  -2.837  1.00  0.00     0.358 C 
ATOM      4  O   UNL     1       3.059   4.273  -2.605  1.00  0.00    -0.244 OA
BRANCH   3   5
ATOM      5  C   UNL     1       3.021   1.963  -2.270  1.00  0.00     0.170 A 
ATOM      6  N   UNL     1       2.795   0.111  -1.262  1.00  0.00    -0.267 N 
ATOM      7  C   UNL     1       1.850   0.992  -0.851  1.00  0.00     0.110 A 
ATOM      8  N   UNL     1       3.672   0.795  -2.047  1.00  0.00    -0.165 NA
ATOM      9  C   UNL     1       1.726   1.919  -1.805  1.00  0.00     0.057 A 
BRANCH   6  10
ATOM     10  C   UNL     1       3.132  -1.268  -0.818  1.00  0.00     0.185 C 
BRANCH  10  11
ATOM     11  C   UNL     1       2.157  -2.378  -1.208  1.00  0.00     0.036 A 
ATOM     12  C   UNL     1       0.869  -2.600  -0.670  1.00  0.00     0.218 A 
ATOM     13  N   UNL     1      -0.015  -3.496  -1.147  1.00  0.00    -0.222 NA
ATOM     14  C   UNL     1       0.416  -4.351  -2.079  1.00  0.00     0.115 A 
ATOM     15  C   UNL     1       2.591  -3.370  -2.106  1.00  0.00     0.013 A 
ATOM     16  C   UNL     1       1.719  -4.375  -2.530  1.00  0.00     0.021 A 
BRANCH  12  17
ATOM     17  O   UNL     1       0.423  -2.131   0.542  1.00  0.00    -0.481 OA
ATOM     18  C   UNL     1       0.521  -0.759   0.527  1.00  0.00     0.280 C 
ENDBRANCH  12  17
ENDBRANCH  10  11
ENDBRANCH   6  10
ENDBRANCH   3   5
ENDBRANCH   2   3
ENDBRANCH   1   2
BRANCH   1  19
ATOM     19  C   UNL     1       3.735   4.066  -5.766  1.00  0.00     0.275 C 
BRANCH  19  20
ATOM     20  O   UNL     1       2.441   4.457  -5.307  1.00  0.00    -0.458 OA
BRANCH  20  21
ATOM     21  C   UNL     1       1.631   3.470  -4.869  1.00  0.00     0.338 C 
ATOM     22  O   UNL     1       1.868   2.277  -4.823  1.00  0.00    -0.246 OA
BRANCH  21  23
ATOM     23  C   UNL     1       0.393   4.149  -4.426  1.00  0.00     0.060 A 
ATOM     24  C   UNL     1      -0.453   3.431  -3.681  1.00  0.00     0.016 A 
ATOM     25  C   UNL     1      -0.266   4.811  -5.457  1.00  0.00     0.016 A 
ATOM     26  C   UNL     1      -1.621   2.969  -4.490  1.00  0.00     0.010 A 
ATOM     27  C   UNL     1      -1.633   4.566  -5.775  1.00  0.00     0.010 A 
ATOM     28  C   UNL     1      -2.115   3.250  -5.959  1.00  0.00    -0.014 A 
BRANCH  28  29
ATOM     29  C   UNL     1      -2.694   3.596  -7.737  1.00  0.00     0.031 A 
ATOM     30  C   UNL     1      -4.032   4.466  -6.550  1.00  0.00     0.074 A 
ATOM     31  C   UNL     1      -2.424   3.187  -9.432  1.00  0.00     0.049 A 
ATOM     32  N   UNL     1      -4.838   3.832  -5.658  1.00  0.00    -0.248 NA
ATOM     33  C   UNL     1      -4.101   5.911  -5.407  1.00  0.00     0.031 C 
ATOM     34  C   UNL     1      -1.324   2.622 -10.870  1.00  0.00     0.029 A 
ATOM     35  N   UNL     1      -3.302   3.082 -10.816  1.00  0.00    -0.354 N 
ATOM     36  C   UNL     1      -5.876   4.790  -5.301  1.00  0.00     0.074 A 
ATOM     37  C   UNL     1      -5.362   6.030  -4.924  1.00  0.00     0.031 C 
ATOM     38  C   UNL     1      -1.604   3.009 -12.275  1.00  0.00     0.029 A 
ATOM     39  C   UNL     1      -2.914   3.452 -12.225  1.00  0.00     0.049 A 
ATOM     40  H   UNL     1      -4.214   2.726 -10.710  1.00  0.00     0.167 HD
ATOM     41  C   UNL     1      -7.031   4.795  -5.989  1.00  0.00     0.031 A 
ATOM     42  C   UNL     1      -3.583   4.211 -13.175  1.00  0.00     0.031 A 
ATOM     43  C   UNL     1      -7.024   3.588  -6.722  1.00  0.00     0.049 A 
ATOM     44  C   UNL     1      -4.771   4.324 -12.293  1.00  0.00     0.074 A 
ATOM     45  C   UNL     1      -6.905   2.292  -6.275  1.00  0.00     0.029 A 
ATOM     46  N   UNL     1      -6.398   3.681  -7.925  1.00  0.00    -0.354 N 
ATOM     47  N   UNL     1      -5.496   3.270 -11.934  1.00  0.00    -0.248 NA
ATOM     48  C   UNL     1      -4.614   5.399 -11.307  1.00  0.00     0.031 C 
ATOM     49  C   UNL     1      -6.186   1.589  -7.258  1.00  0.00     0.029 A 
ATOM     50  C   UNL     1      -5.923   2.462  -8.301  1.00  0.00     0.049 A 
ATOM     51  H   UNL     1      -6.303   4.510  -8.449  1.00  0.00     0.167 HD
ATOM     52  C   UNL     1      -5.601   3.348 -10.529  1.00  0.00     0.074 A 
ATOM     53  C   UNL     1      -5.134   4.785 -10.235  1.00  0.00     0.031 C 
ATOM     54  C   UNL     1      -5.444   2.263  -9.629  1.00  0.00     0.031 A 
BRANCH  41  55
ATOM     55  C   UNL     1      -7.895   5.966  -6.319  1.00  0.00    -0.014 A 
ATOM     56  C   UNL     1      -9.229   5.604  -6.478  1.00  0.00     0.010 A 
ATOM     57  C   UNL     1      -7.508   7.291  -6.650  1.00  0.00     0.010 A 
ATOM     58  C   UNL     1     -10.145   6.476  -7.046  1.00  0.00     0.020 A 
ATOM     59  C   UNL     1      -8.453   8.209  -7.142  1.00  0.00     0.020 A 
ATOM     60  C   UNL     1      -9.771   7.789  -7.333  1.00  0.00     0.054 A 
BRANCH  60  61
ATOM     61  S   UNL     1     -11.071   8.951  -7.848  1.00  0.00     0.124 S 
ATOM     62  O   UNL     1     -11.554   8.361  -9.093  1.00  0.00    -0.237 OA
ATOM     63  O   UNL     1     -11.999   8.885  -6.721  1.00  0.00    -0.237 OA
ATOM     64  O   UNL     1     -10.365  10.222  -7.987  1.00  0.00    -0.744 OA
ENDBRANCH  60  61
ENDBRANCH  41  55
BRANCH  42  65
ATOM     65  C   UNL     1      -2.889   5.370 -13.974  1.00  0.00    -0.014 A 
ATOM     66  C   UNL     1      -3.252   5.920 -15.236  1.00  0.00     0.010 A 
ATOM     67  C   UNL     1      -1.842   6.065 -13.319  1.00  0.00     0.010 A 
ATOM     68  C   UNL     1      -2.644   7.115 -15.753  1.00  0.00     0.020 A 
ATOM     69  C   UNL     1      -1.285   7.278 -13.780  1.00  0.00     0.020 A 
ATOM     70  C   UNL     1      -1.722   7.829 -14.978  1.00  0.00     0.054 A 
BRANCH  70  71
ATOM     71  S   UNL     1      -1.213   9.527 -15.458  1.00  0.00     0.124 S 
ATOM     72  O   UNL     1      -0.539   9.316 -16.736  1.00  0.00    -0.237 OA
ATOM     73  O   UNL     1      -2.490  10.232 -15.532  1.00  0.00    -0.237 OA
ATOM     74  O   UNL     1      -0.341   9.953 -14.364  1.00  0.00    -0.744 OA
ENDBRANCH  70  71
ENDBRANCH  42  65
BRANCH  54  75
ATOM     75  C   UNL     1      -5.017   0.757  -9.943  1.00  0.00    -0.014 A 
ATOM     76  C   UNL     1      -3.698   0.211 -10.090  1.00  0.00     0.010 A 
ATOM     77  C   UNL     1      -6.029  -0.195  -9.978  1.00  0.00     0.010 A 
ATOM     78  C   UNL     1      -3.439  -1.090 -10.567  1.00  0.00     0.020 A 
ATOM     79  C   UNL     1      -5.779  -1.544 -10.301  1.00  0.00     0.020 A 
ATOM     80  C   UNL     1      -4.493  -1.984 -10.625  1.00  0.00     0.054 A 
BRANCH  80  81
ATOM     81  S   UNL     1      -4.150  -3.737 -10.974  1.00  0.00     0.124 S 
ATOM     82  O   UNL     1      -3.620  -3.701 -12.335  1.00  0.00    -0.237 OA
ATOM     83  O   UNL     1      -3.180  -4.088  -9.939  1.00  0.00    -0.237 OA
ATOM     84  O   UNL     1      -5.456  -4.377 -10.832  1.00  0.00    -0.744 OA
ENDBRANCH  80  81
ENDBRANCH  54  75
ENDBRANCH  28  29
ENDBRANCH  21  23
ENDBRANCH  20  21
ENDBRANCH  19  20
ENDBRANCH   1  19
TORSDOF 17
