REMARK SMILES Cc1nn(C)c(C)c1CN(C)C(=O)[C@@H]1CC=CC[C@@H]1C(=O)OCCOC(=O)c1ccc(-c2c3nc(c(-c4ccc(S(=O)(=O)[O-])cc4)c4ccc([nH]4)c(-c4ccc(S(=O)(=O)[O-])cc4)c4nc(c(-c5ccc(S(=O)(=O)[O-])cc5)c5ccc2[nH]5)C=C4)C=C3)cc1
REMARK SMILES IDX 23 1 22 2 20 3 21 4 19 5 14 6 15 7 16 8 18 9 17 10 12 11
REMARK SMILES IDX 13 12 10 13 11 14 9 15 8 16 1 17 2 18 3 19 4 20 6 21 5 22
REMARK SMILES IDX 7 23 24 24 25 25 26 26 27 27 28 28 29 29 87 30 30 31 86 32
REMARK SMILES IDX 31 33 32 34 33 35 80 36 34 37 85 38 79 39 81 40 35 41 84 42
REMARK SMILES IDX 78 43 77 44 36 46 66 47 47 48 65 49 48 50 51 51 64 52 82 53
REMARK SMILES IDX 49 54 50 55 63 57 83 58 52 59 37 60 38 61 46 62 39 63 45 64
REMARK SMILES IDX 40 65 41 66 42 67 43 68 44 69 67 70 68 71 76 72 69 73 75 74
REMARK SMILES IDX 70 75 71 76 72 77 73 78 74 79 53 80 54 81 62 82 55 83 61 84
REMARK SMILES IDX 56 85 57 86 58 87 59 88 60 89
REMARK H PARENT 81 45 51 56
REMARK Flexibility Score: inf
ROOT
ATOM      1  C   UNL     1       3.474   3.568   7.245  1.00  0.00     0.274 C 
ENDROOT
BRANCH   1   2
ATOM      2  O   UNL     1       3.145   3.045   5.935  1.00  0.00    -0.462 OA
BRANCH   2   3
ATOM      3  C   UNL     1       1.814   2.981   5.627  1.00  0.00     0.310 C 
ATOM      4  O   UNL     1       0.935   3.435   6.347  1.00  0.00    -0.252 OA
BRANCH   3   5
ATOM      5  C   UNL     1       1.589   2.148   4.356  1.00  0.00     0.115 C 
ATOM      6  C   UNL     1       0.428   2.613   3.446  1.00  0.00     0.097 C 
ATOM      7  C   UNL     1      -0.915   2.607   4.204  1.00  0.00     0.041 C 
ATOM      8  C   UNL     1      -1.105   1.332   4.985  1.00  0.00    -0.030 C 
ATOM      9  C   UNL     1       1.310   0.691   4.778  1.00  0.00     0.043 C 
ATOM     10  C   UNL     1      -0.113   0.457   5.217  1.00  0.00    -0.030 C 
BRANCH   6  11
ATOM     11  C   UNL     1       0.708   3.933   2.730  1.00  0.00     0.226 C 
ATOM     12  O   UNL     1      -0.066   4.876   2.847  1.00  0.00    -0.275 OA
BRANCH  11  13
ATOM     13  N   UNL     1       1.805   3.965   1.875  1.00  0.00    -0.341 N 
ATOM     14  C   UNL     1       1.970   2.909   0.898  1.00  0.00     0.147 C 
BRANCH  13  15
ATOM     15  C   UNL     1       2.635   5.175   1.733  1.00  0.00     0.158 C 
BRANCH  15  16
ATOM     16  C   UNL     1       1.896   6.403   1.343  1.00  0.00     0.015 A 
ATOM     17  C   UNL     1       3.096   8.245   2.811  1.00  0.00     0.069 C 
ATOM     18  C   UNL     1       2.076   7.718   1.871  1.00  0.00     0.065 A 
ATOM     19  N   UNL     1       1.174   8.570   1.379  1.00  0.00    -0.178 NA
ATOM     20  N   UNL     1       0.401   7.809   0.590  1.00  0.00    -0.272 N 
ATOM     21  C   UNL     1       0.928   6.568   0.363  1.00  0.00     0.040 A 
ATOM     22  C   UNL     1      -0.857   8.337   0.122  1.00  0.00     0.174 C 
ATOM     23  C   UNL     1       0.410   5.654  -0.677  1.00  0.00     0.067 C 
ENDBRANCH  15  16
ENDBRANCH  13  15
ENDBRANCH  11  13
ENDBRANCH   6  11
ENDBRANCH   3   5
ENDBRANCH   2   3
ENDBRANCH   1   2
BRANCH   1  24
ATOM     24  C   UNL     1       3.885   5.050   7.259  1.00  0.00     0.275 C 
BRANCH  24  25
ATOM     25  O   UNL     1       2.771   5.968   7.199  1.00  0.00    -0.458 OA
BRANCH  25  26
ATOM     26  C   UNL     1       2.389   6.230   5.930  1.00  0.00     0.338 C 
ATOM     27  O   UNL     1       2.906   5.735   4.939  1.00  0.00    -0.246 OA
BRANCH  26  28
ATOM     28  C   UNL     1       1.220   7.124   5.805  1.00  0.00     0.060 A 
ATOM     29  C   UNL     1       0.144   6.579   5.125  1.00  0.00     0.016 A 
ATOM     30  C   UNL     1       1.256   8.502   6.025  1.00  0.00     0.016 A 
ATOM     31  C   UNL     1      -0.797   7.397   4.511  1.00  0.00     0.010 A 
ATOM     32  C   UNL     1       0.233   9.326   5.493  1.00  0.00     0.010 A 
ATOM     33  C   UNL     1      -0.782   8.789   4.680  1.00  0.00    -0.014 A 
BRANCH  33  34
ATOM     34  C   UNL     1      -1.863   9.576   4.000  1.00  0.00     0.031 A 
ATOM     35  C   UNL     1      -1.586  10.540   2.865  1.00  0.00     0.074 A 
ATOM     36  C   UNL     1      -3.150   9.263   4.272  1.00  0.00     0.049 A 
ATOM     37  N   UNL     1      -2.428  11.017   1.974  1.00  0.00    -0.248 NA
ATOM     38  C   UNL     1      -0.203  10.989   2.664  1.00  0.00     0.031 C 
ATOM     39  C   UNL     1      -3.588   8.318   5.304  1.00  0.00     0.029 A 
ATOM     40  N   UNL     1      -4.323   9.667   3.679  1.00  0.00    -0.354 N 
ATOM     41  C   UNL     1      -1.652  11.692   1.034  1.00  0.00     0.074 A 
ATOM     42  C   UNL     1      -0.292  11.668   1.525  1.00  0.00     0.031 C 
ATOM     43  C   UNL     1      -4.921   8.188   5.247  1.00  0.00     0.029 A 
ATOM     44  C   UNL     1      -5.444   9.089   4.226  1.00  0.00     0.049 A 
ATOM     45  H   UNL     1      -4.356  10.309   2.933  1.00  0.00     0.167 HD
ATOM     46  C   UNL     1      -2.025  12.202  -0.167  1.00  0.00     0.031 A 
ATOM     47  C   UNL     1      -6.753   9.279   3.973  1.00  0.00     0.031 A 
ATOM     48  C   UNL     1      -3.390  12.345  -0.603  1.00  0.00     0.049 A 
ATOM     49  C   UNL     1      -7.158  10.206   2.865  1.00  0.00     0.074 A 
ATOM     50  C   UNL     1      -3.869  12.910  -1.774  1.00  0.00     0.029 A 
ATOM     51  N   UNL     1      -4.499  11.984   0.144  1.00  0.00    -0.354 N 
ATOM     52  N   UNL     1      -6.408  10.757   1.943  1.00  0.00    -0.248 NA
ATOM     53  C   UNL     1      -8.584  10.546   2.770  1.00  0.00     0.031 C 
ATOM     54  C   UNL     1      -5.267  12.972  -1.691  1.00  0.00     0.029 A 
ATOM     55  C   UNL     1      -5.659  12.393  -0.496  1.00  0.00     0.049 A 
ATOM     56  H   UNL     1      -4.468  11.507   1.005  1.00  0.00     0.167 HD
ATOM     57  C   UNL     1      -7.273  11.497   1.146  1.00  0.00     0.074 A 
ATOM     58  C   UNL     1      -8.604  11.312   1.688  1.00  0.00     0.031 C 
ATOM     59  C   UNL     1      -6.982  12.252   0.057  1.00  0.00     0.031 A 
BRANCH  46  60
ATOM     60  C   UNL     1      -0.941  12.626  -1.126  1.00  0.00    -0.014 A 
ATOM     61  C   UNL     1      -0.366  11.677  -1.994  1.00  0.00     0.010 A 
ATOM     62  C   UNL     1      -0.561  13.971  -1.250  1.00  0.00     0.010 A 
ATOM     63  C   UNL     1       0.594  12.052  -2.936  1.00  0.00     0.020 A 
ATOM     64  C   UNL     1       0.390  14.356  -2.205  1.00  0.00     0.020 A 
ATOM     65  C   UNL     1       0.971  13.392  -3.034  1.00  0.00     0.054 A 
BRANCH  65  66
ATOM     66  S   UNL     1       2.192  13.855  -4.295  1.00  0.00     0.124 S 
ATOM     67  O   UNL     1       3.419  13.264  -3.766  1.00  0.00    -0.237 OA
ATOM     68  O   UNL     1       1.663  13.226  -5.502  1.00  0.00    -0.237 OA
ATOM     69  O   UNL     1       2.156  15.316  -4.293  1.00  0.00    -0.744 OA
ENDBRANCH  65  66
ENDBRANCH  46  60
BRANCH  47  70
ATOM     70  C   UNL     1      -7.768   8.664   4.875  1.00  0.00    -0.014 A 
ATOM     71  C   UNL     1      -8.699   7.719   4.417  1.00  0.00     0.010 A 
ATOM     72  C   UNL     1      -7.792   9.045   6.232  1.00  0.00     0.010 A 
ATOM     73  C   UNL     1      -9.636   7.168   5.301  1.00  0.00     0.020 A 
ATOM     74  C   UNL     1      -8.700   8.475   7.122  1.00  0.00     0.020 A 
ATOM     75  C   UNL     1      -9.627   7.548   6.648  1.00  0.00     0.054 A 
BRANCH  75  76
ATOM     76  S   UNL     1     -10.807   6.788   7.797  1.00  0.00     0.124 S 
ATOM     77  O   UNL     1     -12.035   7.516   7.495  1.00  0.00    -0.237 OA
ATOM     78  O   UNL     1     -10.787   5.384   7.394  1.00  0.00    -0.237 OA
ATOM     79  O   UNL     1     -10.225   7.057   9.111  1.00  0.00    -0.744 OA
ENDBRANCH  75  76
ENDBRANCH  47  70
BRANCH  59  80
ATOM     80  C   UNL     1      -8.133  12.942  -0.622  1.00  0.00    -0.014 A 
ATOM     81  C   UNL     1      -8.774  14.039  -0.017  1.00  0.00     0.010 A 
ATOM     82  C   UNL     1      -8.589  12.488  -1.872  1.00  0.00     0.010 A 
ATOM     83  C   UNL     1      -9.881  14.637  -0.626  1.00  0.00     0.020 A 
ATOM     84  C   UNL     1      -9.678  13.101  -2.498  1.00  0.00     0.020 A 
ATOM     85  C   UNL     1     -10.332  14.157  -1.860  1.00  0.00     0.054 A 
BRANCH  85  86
ATOM     86  S   UNL     1     -11.770  14.945  -2.636  1.00  0.00     0.124 S 
ATOM     87  O   UNL     1     -12.878  14.358  -1.888  1.00  0.00    -0.237 OA
ATOM     88  O   UNL     1     -11.532  16.367  -2.394  1.00  0.00    -0.237 OA
ATOM     89  O   UNL     1     -11.675  14.535  -4.035  1.00  0.00    -0.744 OA
ENDBRANCH  85  86
ENDBRANCH  59  80
ENDBRANCH  33  34
ENDBRANCH  26  28
ENDBRANCH  25  26
ENDBRANCH  24  25
ENDBRANCH   1  24
TORSDOF 18
