REMARK SMILES O=C(Cn1cc(/C=C(/Cl)c2nnc(C(=O)Nc3ccc(Cl)cc3)s2)nn1)OCCOC(=O)c1ccc(-c2c3nc(c(-c4ccc(S(=O)(=O)[O-])cc4)c4ccc([nH]4)c(-c4ccc(S(=O)(=O)[O-])cc4)c4nc(c(-c5ccc(S(=O)(=O)[O-])cc5)c5ccc2[nH]5)C=C4)C=C3)cc1
REMARK SMILES IDX 28 1 27 2 2 3 1 4 3 5 4 6 5 7 26 8 6 9 25 10 7 11 8 12 9 13
REMARK SMILES IDX 10 14 11 15 24 16 12 17 13 18 14 19 15 20 16 21 17 23 18 24
REMARK SMILES IDX 23 25 19 26 22 27 20 28 21 29 29 30 30 31 31 32 32 33 33 34
REMARK SMILES IDX 34 35 92 36 35 37 91 38 36 39 37 40 38 41 85 42 39 43 90 44
REMARK SMILES IDX 84 45 86 46 40 47 89 48 83 49 82 50 41 52 71 53 52 54 70 55
REMARK SMILES IDX 53 56 56 57 69 58 87 59 54 60 55 61 68 63 88 64 57 65 42 66
REMARK SMILES IDX 43 67 51 68 44 69 50 70 45 71 46 72 47 73 48 74 49 75 72 76
REMARK SMILES IDX 73 77 81 78 74 79 80 80 75 81 76 82 77 83 78 84 79 85 58 86
REMARK SMILES IDX 59 87 67 88 60 89 66 90 61 91 62 92 63 93 64 94 65 95
REMARK H PARENT 16 22 86 51 56 62
REMARK Flexibility Score: inf
ROOT
ATOM      1  C   UNL     1       4.211  -1.195   0.719  1.00  0.00     0.274 C 
ENDROOT
BRANCH   1   2
ATOM      2  O   UNL     1       2.813  -0.849   0.862  1.00  0.00    -0.461 OA
BRANCH   2   3
ATOM      3  C   UNL     1       2.197   0.316   0.541  1.00  0.00     0.327 C 
ATOM      4  O   UNL     1       1.035   0.509   0.904  1.00  0.00    -0.250 OA
BRANCH   3   5
ATOM      5  C   UNL     1       2.912   1.373  -0.258  1.00  0.00     0.268 C 
BRANCH   5   6
ATOM      6  N   UNL     1       3.613   2.301   0.590  1.00  0.00    -0.241 N 
ATOM      7  C   UNL     1       3.575   3.668   0.640  1.00  0.00     0.139 A 
ATOM      8  N   UNL     1       4.571   1.816   1.385  1.00  0.00    -0.066 NA
ATOM      9  C   UNL     1       4.502   3.969   1.613  1.00  0.00     0.107 A 
ATOM     10  N   UNL     1       5.106   2.826   2.023  1.00  0.00    -0.131 NA
BRANCH   9  11
ATOM     11  C   UNL     1       4.861   5.222   2.190  1.00  0.00     0.055 C 
ATOM     12  C   UNL     1       5.808   5.431   3.134  1.00  0.00     0.081 C 
ATOM     13  Cl  UNL     1       6.118   7.030   3.716  1.00  0.00    -0.081 Cl
BRANCH  12  14
ATOM     14  C   UNL     1       6.637   4.379   3.626  1.00  0.00     0.159 A 
ATOM     15  N   UNL     1       6.338   3.400   4.464  1.00  0.00    -0.137 NA
ATOM     16  S   UNL     1       8.205   4.128   2.936  1.00  0.00    -0.086 S 
ATOM     17  N   UNL     1       7.109   2.265   4.218  1.00  0.00    -0.133 NA
ATOM     18  C   UNL     1       7.948   2.457   3.212  1.00  0.00     0.206 A 
BRANCH  18  19
ATOM     19  C   UNL     1       8.619   1.355   2.524  1.00  0.00     0.286 C 
ATOM     20  O   UNL     1       9.101   0.395   3.139  1.00  0.00    -0.266 OA
ATOM     21  N   UNL     1       8.585   1.197   1.132  1.00  0.00    -0.320 N 
ATOM     22  H   UNL     1       8.911   0.325   0.812  1.00  0.00     0.170 HD
BRANCH  21  23
ATOM     23  C   UNL     1       8.166   2.070   0.117  1.00  0.00     0.041 A 
ATOM     24  C   UNL     1       8.671   3.363   0.003  1.00  0.00     0.027 A 
ATOM     25  C   UNL     1       7.269   1.609  -0.850  1.00  0.00     0.027 A 
ATOM     26  C   UNL     1       8.115   4.267  -0.904  1.00  0.00     0.022 A 
ATOM     27  C   UNL     1       6.725   2.503  -1.780  1.00  0.00     0.022 A 
ATOM     28  C   UNL     1       7.112   3.841  -1.766  1.00  0.00     0.041 A 
ATOM     29  Cl  UNL     1       6.347   4.971  -2.810  1.00  0.00    -0.084 Cl
ENDBRANCH  21  23
ENDBRANCH  18  19
ENDBRANCH  12  14
ENDBRANCH   9  11
ENDBRANCH   5   6
ENDBRANCH   3   5
ENDBRANCH   2   3
ENDBRANCH   1   2
BRANCH   1  30
ATOM     30  C   UNL     1       4.486  -2.040  -0.511  1.00  0.00     0.275 C 
BRANCH  30  31
ATOM     31  O   UNL     1       4.339  -1.248  -1.683  1.00  0.00    -0.458 OA
BRANCH  31  32
ATOM     32  C   UNL     1       3.100  -1.223  -2.233  1.00  0.00     0.338 C 
ATOM     33  O   UNL     1       2.079  -1.662  -1.763  1.00  0.00    -0.246 OA
BRANCH  32  34
ATOM     34  C   UNL     1       3.218  -0.568  -3.543  1.00  0.00     0.060 A 
ATOM     35  C   UNL     1       2.061  -0.444  -4.317  1.00  0.00     0.016 A 
ATOM     36  C   UNL     1       4.488  -0.257  -4.050  1.00  0.00     0.016 A 
ATOM     37  C   UNL     1       2.204  -0.200  -5.667  1.00  0.00     0.010 A 
ATOM     38  C   UNL     1       4.630  -0.029  -5.391  1.00  0.00     0.010 A 
ATOM     39  C   UNL     1       3.495  -0.094  -6.192  1.00  0.00    -0.014 A 
BRANCH  39  40
ATOM     40  C   UNL     1       3.675  -0.012  -7.623  1.00  0.00     0.031 A 
ATOM     41  C   UNL     1       3.400   1.334  -8.171  1.00  0.00     0.074 A 
ATOM     42  C   UNL     1       4.204  -1.040  -8.316  1.00  0.00     0.049 A 
ATOM     43  N   UNL     1       2.436   1.681  -8.953  1.00  0.00    -0.248 NA
ATOM     44  C   UNL     1       4.185   2.466  -7.645  1.00  0.00     0.031 C 
ATOM     45  C   UNL     1       4.781  -2.287  -7.799  1.00  0.00     0.029 A 
ATOM     46  N   UNL     1       4.446  -1.131  -9.646  1.00  0.00    -0.354 N 
ATOM     47  C   UNL     1       2.628   3.035  -9.202  1.00  0.00     0.074 A 
ATOM     48  C   UNL     1       3.574   3.500  -8.221  1.00  0.00     0.031 C 
ATOM     49  C   UNL     1       5.513  -2.878  -8.774  1.00  0.00     0.029 A 
ATOM     50  C   UNL     1       5.339  -2.132 -10.009  1.00  0.00     0.049 A 
ATOM     51  H   UNL     1       4.021  -0.534 -10.304  1.00  0.00     0.167 HD
ATOM     52  C   UNL     1       2.203   3.612 -10.358  1.00  0.00     0.031 A 
ATOM     53  C   UNL     1       5.933  -2.282 -11.223  1.00  0.00     0.031 A 
ATOM     54  C   UNL     1       1.250   2.782 -11.047  1.00  0.00     0.049 A 
ATOM     55  C   UNL     1       5.123  -1.500 -12.195  1.00  0.00     0.074 A 
ATOM     56  C   UNL     1       0.003   2.282 -10.726  1.00  0.00     0.029 A 
ATOM     57  N   UNL     1       1.728   1.992 -12.067  1.00  0.00    -0.354 N 
ATOM     58  N   UNL     1       3.892  -1.802 -12.502  1.00  0.00    -0.248 NA
ATOM     59  C   UNL     1       5.503  -0.116 -12.434  1.00  0.00     0.031 C 
ATOM     60  C   UNL     1       0.006   0.947 -11.223  1.00  0.00     0.029 A 
ATOM     61  C   UNL     1       1.211   0.731 -11.896  1.00  0.00     0.049 A 
ATOM     62  H   UNL     1       2.331   2.278 -12.790  1.00  0.00     0.167 HD
ATOM     63  C   UNL     1       3.227  -0.584 -12.553  1.00  0.00     0.074 A 
ATOM     64  C   UNL     1       4.288   0.424 -12.583  1.00  0.00     0.031 C 
ATOM     65  C   UNL     1       1.893  -0.491 -12.276  1.00  0.00     0.031 A 
BRANCH  52  66
ATOM     66  C   UNL     1       2.948   4.734 -11.031  1.00  0.00    -0.014 A 
ATOM     67  C   UNL     1       2.384   5.354 -12.161  1.00  0.00     0.010 A 
ATOM     68  C   UNL     1       4.297   5.033 -10.742  1.00  0.00     0.010 A 
ATOM     69  C   UNL     1       3.145   6.204 -12.975  1.00  0.00     0.020 A 
ATOM     70  C   UNL     1       5.051   5.911 -11.519  1.00  0.00     0.020 A 
ATOM     71  C   UNL     1       4.476   6.473 -12.649  1.00  0.00     0.054 A 
BRANCH  71  72
ATOM     72  S   UNL     1       5.469   7.517 -13.741  1.00  0.00     0.124 S 
ATOM     73  O   UNL     1       5.540   6.706 -14.952  1.00  0.00    -0.237 OA
ATOM     74  O   UNL     1       4.656   8.727 -13.832  1.00  0.00    -0.237 OA
ATOM     75  O   UNL     1       6.728   7.672 -13.015  1.00  0.00    -0.744 OA
ENDBRANCH  71  72
ENDBRANCH  52  66
BRANCH  53  76
ATOM     76  C   UNL     1       7.324  -2.724 -11.516  1.00  0.00    -0.014 A 
ATOM     77  C   UNL     1       7.731  -3.047 -12.826  1.00  0.00     0.010 A 
ATOM     78  C   UNL     1       8.334  -2.547 -10.548  1.00  0.00     0.010 A 
ATOM     79  C   UNL     1       9.096  -3.127 -13.165  1.00  0.00     0.020 A 
ATOM     80  C   UNL     1       9.694  -2.628 -10.877  1.00  0.00     0.020 A 
ATOM     81  C   UNL     1      10.070  -2.894 -12.191  1.00  0.00     0.054 A 
BRANCH  81  82
ATOM     82  S   UNL     1      11.824  -2.814 -12.669  1.00  0.00     0.124 S 
ATOM     83  O   UNL     1      12.127  -4.207 -12.983  1.00  0.00    -0.237 OA
ATOM     84  O   UNL     1      11.802  -1.899 -13.808  1.00  0.00    -0.237 OA
ATOM     85  O   UNL     1      12.482  -2.291 -11.473  1.00  0.00    -0.744 OA
ENDBRANCH  81  82
ENDBRANCH  53  76
BRANCH  65  86
ATOM     86  C   UNL     1       1.093  -1.773 -12.149  1.00  0.00    -0.014 A 
ATOM     87  C   UNL     1       1.331  -2.764 -11.175  1.00  0.00     0.010 A 
ATOM     88  C   UNL     1      -0.047  -1.900 -12.961  1.00  0.00     0.010 A 
ATOM     89  C   UNL     1       0.464  -3.863 -11.040  1.00  0.00     0.020 A 
ATOM     90  C   UNL     1      -0.922  -2.979 -12.821  1.00  0.00     0.020 A 
ATOM     91  C   UNL     1      -0.657  -3.963 -11.868  1.00  0.00     0.054 A 
BRANCH  91  92
ATOM     92  S   UNL     1      -1.796  -5.365 -11.678  1.00  0.00     0.124 S 
ATOM     93  O   UNL     1      -0.990  -6.492 -12.136  1.00  0.00    -0.237 OA
ATOM     94  O   UNL     1      -2.098  -5.346 -10.248  1.00  0.00    -0.237 OA
ATOM     95  O   UNL     1      -2.923  -5.018 -12.544  1.00  0.00    -0.744 OA
ENDBRANCH  91  92
ENDBRANCH  65  86
ENDBRANCH  39  40
ENDBRANCH  32  34
ENDBRANCH  31  32
ENDBRANCH  30  31
ENDBRANCH   1  30
TORSDOF 19
