REMARK SMILES O=C(Nc1ccc(C(=O)OCCOC(=O)c2ccc(-c3c4nc(c(-c5ccc(S(=O)(=O)[O-])cc5)c5ccc([nH]5)c(-c5ccc(S(=O)(=O)[O-])cc5)c5nc(c(-c6ccc(S(=O)(=O)[O-])cc6)c6ccc3[nH]6)C=C5)C=C4)cc2)cc1)c1cc(F)cc(Br)c1
REMARK SMILES IDX 12 1 11 2 10 3 8 4 9 5 7 6 4 7 5 8 77 9 6 10 76 11 3 12 1 13
REMARK SMILES IDX 2 14 78 16 79 17 85 18 80 19 83 20 81 21 82 22 84 23 13 24
REMARK SMILES IDX 14 25 15 26 16 27 17 28 75 29 18 30 74 31 19 32 20 33 21 34
REMARK SMILES IDX 68 35 22 36 73 37 67 38 69 39 23 40 72 41 66 42 65 43 24 45
REMARK SMILES IDX 54 46 35 47 53 48 36 49 39 50 52 51 70 52 37 53 38 54 51 56
REMARK SMILES IDX 71 57 40 58 25 59 26 60 34 61 27 62 33 63 28 64 29 65 30 66
REMARK SMILES IDX 31 67 32 68 55 69 56 70 64 71 57 72 63 73 58 74 59 75 60 76
REMARK SMILES IDX 61 77 62 78 41 79 42 80 50 81 43 82 49 83 44 84 45 85 46 86
REMARK SMILES IDX 47 87 48 88
REMARK H PARENT 3 15 69 44 39 55
REMARK Flexibility Score: inf
ROOT
ATOM      1  C   UNL     1      11.254  -0.145   2.265  1.00  0.00     0.275 C 
ENDROOT
BRANCH   1   2
ATOM      2  C   UNL     1      10.575   0.512   1.061  1.00  0.00     0.275 C 
BRANCH   2   3
ATOM      3  O   UNL     1       9.145   0.586   1.236  1.00  0.00    -0.458 OA
BRANCH   3   4
ATOM      4  C   UNL     1       8.437  -0.377   0.596  1.00  0.00     0.338 C 
ATOM      5  O   UNL     1       8.889  -1.238  -0.137  1.00  0.00    -0.246 OA
BRANCH   4   6
ATOM      6  C   UNL     1       6.994  -0.300   0.922  1.00  0.00     0.060 A 
ATOM      7  C   UNL     1       4.205  -0.294   1.059  1.00  0.00     0.041 A 
ATOM      8  C   UNL     1       4.888  -1.491   1.206  1.00  0.00     0.027 A 
ATOM      9  C   UNL     1       4.917   0.914   1.006  1.00  0.00     0.027 A 
ATOM     10  C   UNL     1       6.273  -1.491   1.080  1.00  0.00     0.018 A 
ATOM     11  C   UNL     1       6.315   0.915   0.940  1.00  0.00     0.018 A 
BRANCH   7  12
ATOM     12  N   UNL     1       2.821  -0.385   0.841  1.00  0.00    -0.322 N 
ATOM     13  O   UNL     1       0.831   0.243  -0.066  1.00  0.00    -0.269 OA
ATOM     14  C   UNL     1       2.055   0.330  -0.056  1.00  0.00     0.255 C 
ATOM     15  H   UNL     1       2.339  -1.040   1.395  1.00  0.00     0.170 HD
BRANCH  14  16
ATOM     16  C   UNL     1       2.718   1.167  -1.081  1.00  0.00     0.044 A 
ATOM     17  C   UNL     1       3.734   0.651  -1.895  1.00  0.00     0.053 A 
ATOM     18  C   UNL     1       2.346   2.510  -1.171  1.00  0.00     0.029 A 
ATOM     19  C   UNL     1       4.432   1.516  -2.727  1.00  0.00     0.125 A 
ATOM     20  C   UNL     1       3.055   3.354  -2.023  1.00  0.00     0.021 A 
ATOM     21  F   UNL     1       5.455   1.050  -3.454  1.00  0.00    -0.207 F 
ATOM     22  C   UNL     1       4.111   2.867  -2.792  1.00  0.00     0.055 A 
ATOM     23  Br  UNL     1       2.608   5.188  -2.102  1.00  0.00    -0.051 Br
ENDBRANCH  14  16
ENDBRANCH   7  12
ENDBRANCH   4   6
ENDBRANCH   3   4
ENDBRANCH   2   3
ENDBRANCH   1   2
BRANCH   1  24
ATOM     24  O   UNL     1      10.962  -1.554   2.328  1.00  0.00    -0.458 OA
BRANCH  24  25
ATOM     25  C   UNL     1       9.982  -1.888   3.195  1.00  0.00     0.338 C 
ATOM     26  O   UNL     1       9.351  -1.136   3.923  1.00  0.00    -0.246 OA
BRANCH  25  27
ATOM     27  C   UNL     1       9.669  -3.320   3.105  1.00  0.00     0.060 A 
ATOM     28  C   UNL     1       8.808  -3.729   2.097  1.00  0.00     0.016 A 
ATOM     29  C   UNL     1      10.010  -4.200   4.126  1.00  0.00     0.016 A 
ATOM     30  C   UNL     1       8.132  -4.938   2.202  1.00  0.00     0.010 A 
ATOM     31  C   UNL     1       9.458  -5.489   4.132  1.00  0.00     0.010 A 
ATOM     32  C   UNL     1       8.465  -5.857   3.204  1.00  0.00    -0.014 A 
BRANCH  32  33
ATOM     33  C   UNL     1       7.772  -7.179   3.277  1.00  0.00     0.031 A 
ATOM     34  C   UNL     1       7.126  -7.638   4.564  1.00  0.00     0.074 A 
ATOM     35  C   UNL     1       7.711  -7.975   2.187  1.00  0.00     0.049 A 
ATOM     36  N   UNL     1       6.641  -8.815   4.871  1.00  0.00    -0.248 NA
ATOM     37  C   UNL     1       7.029  -6.652   5.653  1.00  0.00     0.031 C 
ATOM     38  C   UNL     1       8.241  -7.647   0.860  1.00  0.00     0.029 A 
ATOM     39  N   UNL     1       7.167  -9.225   2.017  1.00  0.00    -0.354 N 
ATOM     40  C   UNL     1       6.245  -8.730   6.203  1.00  0.00     0.074 A 
ATOM     41  C   UNL     1       6.557  -7.390   6.648  1.00  0.00     0.031 C 
ATOM     42  C   UNL     1       7.949  -8.637   0.006  1.00  0.00     0.029 A 
ATOM     43  C   UNL     1       7.324  -9.725   0.744  1.00  0.00     0.049 A 
ATOM     44  H   UNL     1       6.709  -9.717   2.736  1.00  0.00     0.167 HD
ATOM     45  C   UNL     1       5.678  -9.684   6.984  1.00  0.00     0.031 A 
ATOM     46  C   UNL     1       7.056 -10.939   0.227  1.00  0.00     0.031 A 
ATOM     47  C   UNL     1       5.343 -11.007   6.522  1.00  0.00     0.049 A 
ATOM     48  C   UNL     1       6.487 -11.998   1.124  1.00  0.00     0.074 A 
ATOM     49  C   UNL     1       4.750 -12.040   7.227  1.00  0.00     0.029 A 
ATOM     50  N   UNL     1       5.564 -11.479   5.236  1.00  0.00    -0.354 N 
ATOM     51  N   UNL     1       6.159 -11.913   2.391  1.00  0.00    -0.248 NA
ATOM     52  C   UNL     1       6.265 -13.320   0.527  1.00  0.00     0.031 C 
ATOM     53  C   UNL     1       4.671 -13.155   6.386  1.00  0.00     0.029 A 
ATOM     54  C   UNL     1       5.145 -12.796   5.135  1.00  0.00     0.049 A 
ATOM     55  H   UNL     1       5.961 -10.955   4.503  1.00  0.00     0.167 HD
ATOM     56  C   UNL     1       5.670 -13.166   2.738  1.00  0.00     0.074 A 
ATOM     57  C   UNL     1       5.728 -13.983   1.542  1.00  0.00     0.031 C 
ATOM     58  C   UNL     1       5.213 -13.599   3.939  1.00  0.00     0.031 A 
BRANCH  45  59
ATOM     59  C   UNL     1       5.434  -9.349   8.437  1.00  0.00    -0.014 A 
ATOM     60  C   UNL     1       4.464  -8.410   8.832  1.00  0.00     0.010 A 
ATOM     61  C   UNL     1       6.179 -10.013   9.431  1.00  0.00     0.010 A 
ATOM     62  C   UNL     1       4.284  -8.103  10.185  1.00  0.00     0.020 A 
ATOM     63  C   UNL     1       5.979  -9.734  10.786  1.00  0.00     0.020 A 
ATOM     64  C   UNL     1       5.046  -8.763  11.153  1.00  0.00     0.054 A 
BRANCH  64  65
ATOM     65  S   UNL     1       4.792  -8.343  12.900  1.00  0.00     0.124 S 
ATOM     66  O   UNL     1       5.379  -7.008  12.977  1.00  0.00    -0.237 OA
ATOM     67  O   UNL     1       3.338  -8.398  13.034  1.00  0.00    -0.237 OA
ATOM     68  O   UNL     1       5.521  -9.386  13.619  1.00  0.00    -0.744 OA
ENDBRANCH  64  65
ENDBRANCH  45  59
BRANCH  46  69
ATOM     69  C   UNL     1       7.373 -11.222  -1.201  1.00  0.00    -0.014 A 
ATOM     70  C   UNL     1       6.345 -11.435  -2.134  1.00  0.00     0.010 A 
ATOM     71  C   UNL     1       8.711 -11.239  -1.643  1.00  0.00     0.010 A 
ATOM     72  C   UNL     1       6.647 -11.664  -3.481  1.00  0.00     0.020 A 
ATOM     73  C   UNL     1       9.015 -11.431  -2.993  1.00  0.00     0.020 A 
ATOM     74  C   UNL     1       7.980 -11.651  -3.902  1.00  0.00     0.054 A 
BRANCH  74  75
ATOM     75  S   UNL     1       8.342 -11.880  -5.665  1.00  0.00     0.124 S 
ATOM     76  O   UNL     1       8.038 -13.295  -5.856  1.00  0.00    -0.237 OA
ATOM     77  O   UNL     1       7.418 -10.943  -6.299  1.00  0.00    -0.237 OA
ATOM     78  O   UNL     1       9.754 -11.522  -5.775  1.00  0.00    -0.744 OA
ENDBRANCH  74  75
ENDBRANCH  46  69
BRANCH  58  79
ATOM     79  C   UNL     1       4.696 -15.011   4.010  1.00  0.00    -0.014 A 
ATOM     80  C   UNL     1       5.565 -16.115   3.936  1.00  0.00     0.010 A 
ATOM     81  C   UNL     1       3.319 -15.233   4.196  1.00  0.00     0.010 A 
ATOM     82  C   UNL     1       5.060 -17.416   4.015  1.00  0.00     0.020 A 
ATOM     83  C   UNL     1       2.816 -16.531   4.308  1.00  0.00     0.020 A 
ATOM     84  C   UNL     1       3.689 -17.615   4.203  1.00  0.00     0.054 A 
BRANCH  84  85
ATOM     85  S   UNL     1       3.066 -19.312   4.347  1.00  0.00     0.124 S 
ATOM     86  O   UNL     1       3.195 -19.800   2.977  1.00  0.00    -0.237 OA
ATOM     87  O   UNL     1       3.983 -19.907   5.316  1.00  0.00    -0.237 OA
ATOM     88  O   UNL     1       1.695 -19.139   4.820  1.00  0.00    -0.744 OA
ENDBRANCH  84  85
ENDBRANCH  58  79
ENDBRANCH  32  33
ENDBRANCH  25  27
ENDBRANCH  24  25
ENDBRANCH   1  24
TORSDOF 16
