REMARK SMILES O=C(OCCOC(=O)c1cccn1CC(=O)N1CCc2ccccc2C1)c1ccc(-c2c3nc(c(-c4ccc(S(=O)(=O)[O-])cc4)c4ccc([nH]4)c(-c4ccc(S(=O)(=O)[O-])cc4)c4nc(c(-c5ccc(S(=O)(=O)[O-])cc5)c5ccc2[nH]5)C=C4)C=C3)cc1
REMARK SMILES IDX 4 1 3 2 2 3 1 4 27 5 28 6 86 7 29 8 85 9 30 10 31 11 32 12
REMARK SMILES IDX 79 13 33 14 84 15 78 16 80 17 34 18 83 19 77 20 76 21 35 23
REMARK SMILES IDX 65 24 46 25 64 26 47 27 50 28 63 29 81 30 48 31 49 32 62 34
REMARK SMILES IDX 82 35 51 36 36 37 37 38 45 39 38 40 44 41 39 42 40 43 41 44
REMARK SMILES IDX 42 45 43 46 66 47 67 48 75 49 68 50 74 51 69 52 70 53 71 54
REMARK SMILES IDX 72 55 73 56 52 57 53 58 61 59 54 60 60 61 55 62 56 63 57 64
REMARK SMILES IDX 58 65 59 66 5 67 6 68 7 69 8 70 9 71 10 72 13 73 11 74 12 75
REMARK SMILES IDX 14 76 15 77 16 78 17 79 18 80 26 81 19 82 25 83 20 84 24 85
REMARK SMILES IDX 21 86 23 87 22 88
REMARK H PARENT 80 22 50 33
REMARK Flexibility Score: inf
ROOT
ATOM      1  C   UNL     1       5.538  -0.982  -1.218  1.00  0.00     0.275 C 
ENDROOT
BRANCH   1   2
ATOM      2  O   UNL     1       5.584   0.239  -2.034  1.00  0.00    -0.458 OA
BRANCH   2   3
ATOM      3  C   UNL     1       4.508   1.024  -1.796  1.00  0.00     0.338 C 
ATOM      4  O   UNL     1       3.576   0.585  -1.142  1.00  0.00    -0.246 OA
BRANCH   3   5
ATOM      5  C   UNL     1       4.388   2.479  -2.024  1.00  0.00     0.060 A 
ATOM      6  C   UNL     1       5.398   3.383  -1.788  1.00  0.00     0.016 A 
ATOM      7  C   UNL     1       3.065   2.949  -1.956  1.00  0.00     0.016 A 
ATOM      8  C   UNL     1       5.039   4.669  -1.319  1.00  0.00     0.010 A 
ATOM      9  C   UNL     1       2.713   4.155  -1.355  1.00  0.00     0.010 A 
ATOM     10  C   UNL     1       3.705   5.029  -0.970  1.00  0.00    -0.014 A 
BRANCH  10  11
ATOM     11  C   UNL     1       3.373   6.471  -0.738  1.00  0.00     0.031 A 
ATOM     12  C   UNL     1       3.395   7.091  -2.086  1.00  0.00     0.074 A 
ATOM     13  C   UNL     1       3.336   7.147   0.441  1.00  0.00     0.049 A 
ATOM     14  N   UNL     1       4.371   7.699  -2.671  1.00  0.00    -0.248 NA
ATOM     15  C   UNL     1       2.307   6.673  -3.002  1.00  0.00     0.031 C 
ATOM     16  C   UNL     1       2.704   6.734   1.696  1.00  0.00     0.029 A 
ATOM     17  N   UNL     1       3.883   8.364   0.803  1.00  0.00    -0.354 N 
ATOM     18  C   UNL     1       3.942   7.848  -3.987  1.00  0.00     0.074 A 
ATOM     19  C   UNL     1       2.849   6.940  -4.188  1.00  0.00     0.031 C 
ATOM     20  C   UNL     1       3.084   7.544   2.719  1.00  0.00     0.029 A 
ATOM     21  C   UNL     1       3.983   8.564   2.210  1.00  0.00     0.049 A 
ATOM     22  H   UNL     1       4.179   9.035   0.145  1.00  0.00     0.167 HD
ATOM     23  C   UNL     1       4.276   8.916  -4.747  1.00  0.00     0.031 A 
ATOM     24  C   UNL     1       4.793   9.444   2.878  1.00  0.00     0.031 A 
ATOM     25  C   UNL     1       4.997   9.876  -3.977  1.00  0.00     0.049 A 
ATOM     26  C   UNL     1       5.156  10.440   1.861  1.00  0.00     0.074 A 
ATOM     27  C   UNL     1       6.306  10.060  -3.629  1.00  0.00     0.029 A 
ATOM     28  N   UNL     1       4.216  10.725  -3.221  1.00  0.00    -0.354 N 
ATOM     29  N   UNL     1       4.317  11.304   1.381  1.00  0.00    -0.248 NA
ATOM     30  C   UNL     1       6.522  10.512   1.331  1.00  0.00     0.031 C 
ATOM     31  C   UNL     1       6.272  10.884  -2.479  1.00  0.00     0.029 A 
ATOM     32  C   UNL     1       4.942  11.141  -2.133  1.00  0.00     0.049 A 
ATOM     33  H   UNL     1       3.291  10.989  -3.428  1.00  0.00     0.167 HD
ATOM     34  C   UNL     1       4.916  11.672   0.208  1.00  0.00     0.074 A 
ATOM     35  C   UNL     1       6.333  11.471   0.426  1.00  0.00     0.031 C 
ATOM     36  C   UNL     1       4.212  11.566  -0.953  1.00  0.00     0.031 A 
BRANCH  23  37
ATOM     37  C   UNL     1       3.665   9.354  -6.034  1.00  0.00    -0.014 A 
ATOM     38  C   UNL     1       4.413  10.268  -6.801  1.00  0.00     0.010 A 
ATOM     39  C   UNL     1       2.320   9.139  -6.374  1.00  0.00     0.010 A 
ATOM     40  C   UNL     1       3.811  11.022  -7.803  1.00  0.00     0.020 A 
ATOM     41  C   UNL     1       1.721   9.857  -7.410  1.00  0.00     0.020 A 
ATOM     42  C   UNL     1       2.460  10.827  -8.082  1.00  0.00     0.054 A 
BRANCH  42  43
ATOM     43  S   UNL     1       1.667  11.917  -9.283  1.00  0.00     0.124 S 
ATOM     44  O   UNL     1       1.609  13.180  -8.554  1.00  0.00    -0.237 OA
ATOM     45  O   UNL     1       2.602  11.879 -10.405  1.00  0.00    -0.237 OA
ATOM     46  O   UNL     1       0.380  11.272  -9.533  1.00  0.00    -0.744 OA
ENDBRANCH  42  43
ENDBRANCH  23  37
BRANCH  24  47
ATOM     47  C   UNL     1       5.384   9.718   4.248  1.00  0.00    -0.014 A 
ATOM     48  C   UNL     1       5.437   8.825   5.327  1.00  0.00     0.010 A 
ATOM     49  C   UNL     1       6.171  10.902   4.395  1.00  0.00     0.010 A 
ATOM     50  C   UNL     1       6.316   9.056   6.424  1.00  0.00     0.020 A 
ATOM     51  C   UNL     1       7.082  11.110   5.434  1.00  0.00     0.020 A 
ATOM     52  C   UNL     1       7.165  10.172   6.446  1.00  0.00     0.054 A 
BRANCH  52  53
ATOM     53  S   UNL     1       8.479  10.366   7.692  1.00  0.00     0.124 S 
ATOM     54  O   UNL     1       7.833  11.193   8.705  1.00  0.00    -0.237 OA
ATOM     55  O   UNL     1       8.768   8.990   8.089  1.00  0.00    -0.237 OA
ATOM     56  O   UNL     1       9.554  11.020   6.945  1.00  0.00    -0.744 OA
ENDBRANCH  52  53
ENDBRANCH  24  47
BRANCH  36  57
ATOM     57  C   UNL     1       2.689  11.462  -0.740  1.00  0.00    -0.014 A 
ATOM     58  C   UNL     1       1.992  12.498  -0.087  1.00  0.00     0.010 A 
ATOM     59  C   UNL     1       1.960  10.283  -1.005  1.00  0.00     0.010 A 
ATOM     60  C   UNL     1       0.645  12.360   0.295  1.00  0.00     0.020 A 
ATOM     61  C   UNL     1       0.609  10.133  -0.632  1.00  0.00     0.020 A 
ATOM     62  C   UNL     1      -0.044  11.178   0.018  1.00  0.00     0.054 A 
BRANCH  62  63
ATOM     63  S   UNL     1      -1.777  11.020   0.551  1.00  0.00     0.124 S 
ATOM     64  O   UNL     1      -1.720  11.367   1.969  1.00  0.00    -0.237 OA
ATOM     65  O   UNL     1      -2.455  11.994  -0.300  1.00  0.00    -0.237 OA
ATOM     66  O   UNL     1      -2.107   9.623   0.273  1.00  0.00    -0.744 OA
ENDBRANCH  62  63
ENDBRANCH  36  57
ENDBRANCH  10  11
ENDBRANCH   3   5
ENDBRANCH   2   3
ENDBRANCH   1   2
BRANCH   1  67
ATOM     67  C   UNL     1       4.587  -2.156  -1.606  1.00  0.00     0.275 C 
BRANCH  67  68
ATOM     68  O   UNL     1       3.301  -1.772  -2.119  1.00  0.00    -0.457 OA
BRANCH  68  69
ATOM     69  C   UNL     1       2.287  -1.598  -1.186  1.00  0.00     0.355 C 
ATOM     70  O   UNL     1       2.253  -2.087  -0.108  1.00  0.00    -0.244 OA
BRANCH  69  71
ATOM     71  C   UNL     1       1.381  -0.572  -1.726  1.00  0.00     0.128 A 
ATOM     72  C   UNL     1       1.074  -0.349  -3.061  1.00  0.00     0.035 A 
ATOM     73  N   UNL     1       0.904   0.536  -0.997  1.00  0.00    -0.333 N 
ATOM     74  C   UNL     1       0.275   0.807  -3.145  1.00  0.00     0.020 A 
ATOM     75  C   UNL     1       0.108   1.280  -1.856  1.00  0.00     0.087 A 
BRANCH  73  76
ATOM     76  C   UNL     1       1.185   0.835   0.448  1.00  0.00     0.222 C 
BRANCH  76  77
ATOM     77  C   UNL     1       1.823   2.184   0.942  1.00  0.00     0.242 C 
ATOM     78  O   UNL     1       1.092   3.188   0.937  1.00  0.00    -0.273 OA
BRANCH  77  79
ATOM     79  N   UNL     1       3.111   2.262   1.550  1.00  0.00    -0.336 N 
ATOM     80  C   UNL     1       4.089   1.192   1.626  1.00  0.00     0.124 C 
ATOM     81  C   UNL     1       3.512   3.451   2.352  1.00  0.00     0.155 C 
ATOM     82  C   UNL     1       5.583   1.627   1.590  1.00  0.00     0.057 C 
ATOM     83  C   UNL     1       4.922   3.952   2.064  1.00  0.00    -0.025 A 
ATOM     84  C   UNL     1       5.866   3.099   1.508  1.00  0.00    -0.041 A 
ATOM     85  C   UNL     1       5.350   5.252   2.357  1.00  0.00     0.006 A 
ATOM     86  C   UNL     1       7.085   3.617   1.013  1.00  0.00     0.004 A 
ATOM     87  C   UNL     1       6.522   5.796   1.821  1.00  0.00     0.000 A 
ATOM     88  C   UNL     1       7.375   4.982   1.098  1.00  0.00     0.000 A 
ENDBRANCH  77  79
ENDBRANCH  76  77
ENDBRANCH  73  76
ENDBRANCH  69  71
ENDBRANCH  68  69
ENDBRANCH  67  68
ENDBRANCH   1  67
TORSDOF 17
