REMARK SMILES Nc1ccc(C(=O)N2Cc3nc[nH]c3C[C@H]2C(=O)OCCOC(=O)c2ccc(-c3c4nc(c(-c5ccc(S(=O)(=O)[O-])cc5)c5ccc([nH]5)c(-c5ccc(S(=O)(=O)[O-])cc5)c5nc(c(-c6ccc(S(=O)(=O)[O-])cc6)c6ccc3[nH]6)C=C5)C=C4)cc2)cc1
REMARK SMILES IDX 20 1 19 2 17 3 18 4 16 5 8 6 9 7 10 8 15 9 11 10 14 11 12 12
REMARK SMILES IDX 13 13 6 15 7 16 5 17 2 18 3 19 86 20 4 21 85 22 1 23 21 26
REMARK SMILES IDX 22 27 23 28 24 29 25 30 26 31 84 32 27 33 83 34 28 35 29 36
REMARK SMILES IDX 30 37 77 38 31 39 82 40 76 41 78 42 32 43 81 44 75 45 74 46
REMARK SMILES IDX 33 48 63 49 44 50 62 51 45 52 48 53 61 54 79 55 46 56 47 57
REMARK SMILES IDX 60 59 80 60 49 61 34 62 35 63 43 64 36 65 42 66 37 67 38 68
REMARK SMILES IDX 39 69 40 70 41 71 64 72 65 73 73 74 66 75 72 76 67 77 68 78
REMARK SMILES IDX 69 79 70 80 71 81 50 82 51 83 59 84 52 85 58 86 53 87 54 88
REMARK SMILES IDX 55 89 56 90 57 91
REMARK H PARENT 13 14 1 24 1 25 78 47 48 58
REMARK Flexibility Score: inf
ROOT
ATOM      1  C   UNL     1      -2.910   5.562  -0.135  1.00  0.00     0.274 C 
ENDROOT
BRANCH   1   2
ATOM      2  O   UNL     1      -3.450   4.227  -0.211  1.00  0.00    -0.461 OA
BRANCH   2   3
ATOM      3  C   UNL     1      -3.285   3.567  -1.393  1.00  0.00     0.329 C 
ATOM      4  O   UNL     1      -2.823   4.089  -2.407  1.00  0.00    -0.250 OA
BRANCH   3   5
ATOM      5  C   UNL     1      -3.882   2.141  -1.408  1.00  0.00     0.201 C 
ATOM      6  N   UNL     1      -4.066   1.405  -0.119  1.00  0.00    -0.318 N 
ATOM      7  C   UNL     1      -5.083   1.871   0.845  1.00  0.00     0.179 C 
ATOM      8  C   UNL     1      -6.171   2.612   0.137  1.00  0.00     0.081 A 
ATOM      9  C   UNL     1      -5.224   2.260  -2.185  1.00  0.00     0.093 C 
ATOM     10  N   UNL     1      -7.167   3.329   0.749  1.00  0.00    -0.240 NA
ATOM     11  C   UNL     1      -6.229   2.788  -1.228  1.00  0.00     0.042 A 
ATOM     12  C   UNL     1      -7.806   3.931  -0.232  1.00  0.00     0.197 A 
ATOM     13  N   UNL     1      -7.271   3.630  -1.458  1.00  0.00    -0.348 N 
ATOM     14  H   UNL     1      -7.581   3.959  -2.333  1.00  0.00     0.167 HD
BRANCH   6  15
ATOM     15  C   UNL     1      -3.770   0.045  -0.130  1.00  0.00     0.254 C 
ATOM     16  O   UNL     1      -4.414  -0.756  -0.802  1.00  0.00    -0.269 OA
BRANCH  15  17
ATOM     17  C   UNL     1      -2.533  -0.375   0.602  1.00  0.00     0.040 A 
ATOM     18  C   UNL     1      -0.058  -1.093   1.762  1.00  0.00     0.031 A 
ATOM     19  C   UNL     1      -0.718  -1.967   0.897  1.00  0.00     0.026 A 
ATOM     20  C   UNL     1      -0.684   0.107   2.098  1.00  0.00     0.026 A 
ATOM     21  C   UNL     1      -1.945  -1.613   0.314  1.00  0.00     0.016 A 
ATOM     22  C   UNL     1      -1.909   0.464   1.525  1.00  0.00     0.016 A 
BRANCH  18  23
ATOM     23  N   UNL     1       1.163  -1.423   2.315  1.00  0.00    -0.399 N 
ATOM     24  H   UNL     1       1.599  -2.271   2.074  1.00  0.00     0.156 HD
ATOM     25  H   UNL     1       1.596  -0.809   2.951  1.00  0.00     0.156 HD
ENDBRANCH  18  23
ENDBRANCH  15  17
ENDBRANCH   6  15
ENDBRANCH   3   5
ENDBRANCH   2   3
ENDBRANCH   1   2
BRANCH   1  26
ATOM     26  C   UNL     1      -1.638   5.649   0.720  1.00  0.00     0.275 C 
BRANCH  26  27
ATOM     27  O   UNL     1      -0.441   5.155   0.097  1.00  0.00    -0.458 OA
BRANCH  27  28
ATOM     28  C   UNL     1      -0.377   3.808   0.093  1.00  0.00     0.338 C 
ATOM     29  O   UNL     1      -1.306   3.040   0.249  1.00  0.00    -0.246 OA
BRANCH  28  30
ATOM     30  C   UNL     1       0.979   3.271   0.128  1.00  0.00     0.060 A 
ATOM     31  C   UNL     1       1.085   1.929  -0.241  1.00  0.00     0.016 A 
ATOM     32  C   UNL     1       1.978   3.915   0.864  1.00  0.00     0.016 A 
ATOM     33  C   UNL     1       2.115   1.182   0.279  1.00  0.00     0.010 A 
ATOM     34  C   UNL     1       3.034   3.161   1.356  1.00  0.00     0.010 A 
ATOM     35  C   UNL     1       3.057   1.783   1.127  1.00  0.00    -0.014 A 
BRANCH  35  36
ATOM     36  C   UNL     1       4.158   0.928   1.578  1.00  0.00     0.031 A 
ATOM     37  C   UNL     1       4.855   0.275   0.439  1.00  0.00     0.074 A 
ATOM     38  C   UNL     1       4.564   0.804   2.858  1.00  0.00     0.049 A 
ATOM     39  N   UNL     1       5.043  -0.988   0.237  1.00  0.00    -0.248 NA
ATOM     40  C   UNL     1       5.217   1.133  -0.708  1.00  0.00     0.031 C 
ATOM     41  C   UNL     1       4.040   1.539   4.012  1.00  0.00     0.029 A 
ATOM     42  N   UNL     1       5.604   0.088   3.395  1.00  0.00    -0.354 N 
ATOM     43  C   UNL     1       5.763  -1.055  -0.951  1.00  0.00     0.074 A 
ATOM     44  C   UNL     1       5.649   0.232  -1.585  1.00  0.00     0.031 C 
ATOM     45  C   UNL     1       4.905   1.426   5.042  1.00  0.00     0.029 A 
ATOM     46  C   UNL     1       5.984   0.529   4.662  1.00  0.00     0.049 A 
ATOM     47  H   UNL     1       6.039  -0.664   2.931  1.00  0.00     0.167 HD
ATOM     48  C   UNL     1       6.702  -2.017  -1.142  1.00  0.00     0.031 A 
ATOM     49  C   UNL     1       7.126   0.245   5.339  1.00  0.00     0.031 A 
ATOM     50  C   UNL     1       6.485  -3.161  -0.304  1.00  0.00     0.049 A 
ATOM     51  C   UNL     1       7.726  -0.973   4.756  1.00  0.00     0.074 A 
ATOM     52  C   UNL     1       5.595  -4.209  -0.256  1.00  0.00     0.029 A 
ATOM     53  N   UNL     1       7.128  -3.108   0.904  1.00  0.00    -0.354 N 
ATOM     54  N   UNL     1       7.236  -2.166   4.924  1.00  0.00    -0.248 NA
ATOM     55  C   UNL     1       8.757  -0.855   3.731  1.00  0.00     0.031 C 
ATOM     56  C   UNL     1       5.616  -4.689   1.085  1.00  0.00     0.029 A 
ATOM     57  C   UNL     1       6.536  -3.939   1.815  1.00  0.00     0.049 A 
ATOM     58  H   UNL     1       7.913  -2.545   1.092  1.00  0.00     0.167 HD
ATOM     59  C   UNL     1       7.579  -2.841   3.770  1.00  0.00     0.074 A 
ATOM     60  C   UNL     1       8.644  -2.058   3.163  1.00  0.00     0.031 C 
ATOM     61  C   UNL     1       6.741  -3.773   3.239  1.00  0.00     0.031 A 
BRANCH  48  62
ATOM     62  C   UNL     1       8.084  -1.666  -1.657  1.00  0.00    -0.014 A 
ATOM     63  C   UNL     1       9.023  -2.696  -1.853  1.00  0.00     0.010 A 
ATOM     64  C   UNL     1       8.580  -0.342  -1.663  1.00  0.00     0.010 A 
ATOM     65  C   UNL     1      10.388  -2.412  -2.010  1.00  0.00     0.020 A 
ATOM     66  C   UNL     1       9.927  -0.046  -1.859  1.00  0.00     0.020 A 
ATOM     67  C   UNL     1      10.829  -1.087  -2.006  1.00  0.00     0.054 A 
BRANCH  67  68
ATOM     68  S   UNL     1      12.596  -0.725  -2.137  1.00  0.00     0.124 S 
ATOM     69  O   UNL     1      13.106  -1.259  -0.879  1.00  0.00    -0.237 OA
ATOM     70  O   UNL     1      12.971  -1.461  -3.342  1.00  0.00    -0.237 OA
ATOM     71  O   UNL     1      12.637   0.730  -2.265  1.00  0.00    -0.744 OA
ENDBRANCH  67  68
ENDBRANCH  48  62
BRANCH  49  72
ATOM     72  C   UNL     1       7.851   1.028   6.374  1.00  0.00    -0.014 A 
ATOM     73  C   UNL     1       8.902   0.437   7.106  1.00  0.00     0.010 A 
ATOM     74  C   UNL     1       7.709   2.426   6.452  1.00  0.00     0.010 A 
ATOM     75  C   UNL     1       9.831   1.222   7.807  1.00  0.00     0.020 A 
ATOM     76  C   UNL     1       8.620   3.215   7.165  1.00  0.00     0.020 A 
ATOM     77  C   UNL     1       9.699   2.611   7.808  1.00  0.00     0.054 A 
BRANCH  77  78
ATOM     78  S   UNL     1      11.024   3.631   8.519  1.00  0.00     0.124 S 
ATOM     79  O   UNL     1      10.856   3.409   9.951  1.00  0.00    -0.237 OA
ATOM     80  O   UNL     1      12.225   3.051   7.925  1.00  0.00    -0.237 OA
ATOM     81  O   UNL     1      10.701   4.981   8.058  1.00  0.00    -0.744 OA
ENDBRANCH  77  78
ENDBRANCH  49  72
BRANCH  61  82
ATOM     82  C   UNL     1       5.882  -4.564   4.184  1.00  0.00    -0.014 A 
ATOM     83  C   UNL     1       4.928  -4.015   5.059  1.00  0.00     0.010 A 
ATOM     84  C   UNL     1       6.040  -5.962   4.147  1.00  0.00     0.010 A 
ATOM     85  C   UNL     1       4.176  -4.847   5.901  1.00  0.00     0.020 A 
ATOM     86  C   UNL     1       5.279  -6.795   4.964  1.00  0.00     0.020 A 
ATOM     87  C   UNL     1       4.361  -6.233   5.849  1.00  0.00     0.054 A 
BRANCH  87  88
ATOM     88  S   UNL     1       3.378  -7.307   6.928  1.00  0.00     0.124 S 
ATOM     89  O   UNL     1       3.908  -6.994   8.252  1.00  0.00    -0.237 OA
ATOM     90  O   UNL     1       2.012  -6.858   6.673  1.00  0.00    -0.237 OA
ATOM     91  O   UNL     1       3.679  -8.654   6.445  1.00  0.00    -0.744 OA
ENDBRANCH  87  88
ENDBRANCH  61  82
ENDBRANCH  35  36
ENDBRANCH  28  30
ENDBRANCH  27  28
ENDBRANCH  26  27
ENDBRANCH   1  26
TORSDOF 17
