REMARK SMILES O=Cc1[nH]nc2cc(C(=O)OCCOC(=O)c3ccc(-c4c5nc(c(-c6ccc(S(=O)(=O)[O-])cc6)c6ccc([nH]6)c(-c6ccc(S(=O)(=O)[O-])cc6)c6nc(c(-c7ccc(S(=O)(=O)[O-])cc7)c7ccc4[nH]7)C=C6)C=C5)cc3)ccc12
REMARK SMILES IDX 13 1 12 2 11 3 9 4 10 5 8 6 3 7 4 8 79 9 5 10 6 12 78 13
REMARK SMILES IDX 7 14 77 15 2 16 1 17 14 18 15 19 16 20 17 21 18 22 76 23
REMARK SMILES IDX 19 24 75 25 20 26 21 27 22 28 69 29 23 30 74 31 68 32 70 33
REMARK SMILES IDX 24 34 73 35 67 36 66 37 25 39 55 40 36 41 54 42 37 43 40 44
REMARK SMILES IDX 53 45 71 46 38 47 39 48 52 50 72 51 41 52 26 53 27 54 35 55
REMARK SMILES IDX 28 56 34 57 29 58 30 59 31 60 32 61 33 62 56 63 57 64 65 65
REMARK SMILES IDX 58 66 64 67 59 68 60 69 61 70 62 71 63 72 42 73 43 74 51 75
REMARK SMILES IDX 44 76 50 77 45 78 46 79 47 80 48 81 49 82
REMARK H PARENT 4 11 70 38 40 49
REMARK Flexibility Score: inf
ROOT
ATOM      1  C   UNL     1       3.022   3.221  -8.617  1.00  0.00     0.275 C 
ENDROOT
BRANCH   1   2
ATOM      2  C   UNL     1       1.733   2.570  -8.115  1.00  0.00     0.275 C 
BRANCH   2   3
ATOM      3  O   UNL     1       1.790   2.290  -6.699  1.00  0.00    -0.458 OA
BRANCH   3   4
ATOM      4  C   UNL     1       2.000   0.988  -6.374  1.00  0.00     0.338 C 
ATOM      5  O   UNL     1       2.135   0.063  -7.150  1.00  0.00    -0.246 OA
BRANCH   4   6
ATOM      6  C   UNL     1       2.138   0.818  -4.904  1.00  0.00     0.062 A 
ATOM      7  C   UNL     1       2.595   0.012  -0.931  1.00  0.00     0.105 A 
ATOM      8  N   UNL     1       3.700  -0.785  -1.093  1.00  0.00    -0.274 N 
ATOM      9  C   UNL     1       2.302   0.439  -2.205  1.00  0.00     0.030 A 
ATOM     10  N   UNL     1       4.066  -0.984  -2.366  1.00  0.00    -0.175 NA
ATOM     11  H   UNL     1       4.185  -1.181  -0.333  1.00  0.00     0.190 HD
ATOM     12  C   UNL     1       3.215  -0.242  -3.085  1.00  0.00     0.094 A 
ATOM     13  C   UNL     1       1.288   1.316  -2.595  1.00  0.00     0.013 A 
ATOM     14  C   UNL     1       3.124  -0.097  -4.472  1.00  0.00     0.046 A 
ATOM     15  C   UNL     1       1.258   1.498  -4.000  1.00  0.00     0.016 A 
BRANCH   7  16
ATOM     16  C   UNL     1       1.971   0.247   0.340  1.00  0.00     0.280 C 
ATOM     17  O   UNL     1       0.933   0.875   0.520  1.00  0.00    -0.296 OA
ENDBRANCH   7  16
ENDBRANCH   4   6
ENDBRANCH   3   4
ENDBRANCH   2   3
ENDBRANCH   1   2
BRANCH   1  18
ATOM     18  O   UNL     1       4.122   2.299  -8.524  1.00  0.00    -0.458 OA
BRANCH  18  19
ATOM     19  C   UNL     1       5.058   2.607  -7.598  1.00  0.00     0.338 C 
ATOM     20  O   UNL     1       5.091   3.592  -6.878  1.00  0.00    -0.246 OA
BRANCH  19  21
ATOM     21  C   UNL     1       6.052   1.528  -7.501  1.00  0.00     0.060 A 
ATOM     22  C   UNL     1       5.657   0.321  -6.939  1.00  0.00     0.016 A 
ATOM     23  C   UNL     1       7.397   1.760  -7.773  1.00  0.00     0.016 A 
ATOM     24  C   UNL     1       6.609  -0.595  -6.503  1.00  0.00     0.010 A 
ATOM     25  C   UNL     1       8.342   0.770  -7.468  1.00  0.00     0.010 A 
ATOM     26  C   UNL     1       7.970  -0.400  -6.778  1.00  0.00    -0.014 A 
BRANCH  26  27
ATOM     27  C   UNL     1       8.989  -1.402  -6.332  1.00  0.00     0.031 A 
ATOM     28  C   UNL     1      10.186  -0.973  -5.513  1.00  0.00     0.074 A 
ATOM     29  C   UNL     1       8.854  -2.706  -6.656  1.00  0.00     0.049 A 
ATOM     30  N   UNL     1      11.256  -1.656  -5.190  1.00  0.00    -0.248 NA
ATOM     31  C   UNL     1      10.191   0.411  -5.012  1.00  0.00     0.031 C 
ATOM     32  C   UNL     1       7.740  -3.284  -7.413  1.00  0.00     0.029 A 
ATOM     33  N   UNL     1       9.661  -3.788  -6.389  1.00  0.00    -0.354 N 
ATOM     34  C   UNL     1      12.091  -0.767  -4.517  1.00  0.00     0.074 A 
ATOM     35  C   UNL     1      11.402   0.505  -4.480  1.00  0.00     0.031 C 
ATOM     36  C   UNL     1       7.908  -4.610  -7.508  1.00  0.00     0.029 A 
ATOM     37  C   UNL     1       9.193  -4.967  -6.920  1.00  0.00     0.049 A 
ATOM     38  H   UNL     1      10.493  -3.724  -5.867  1.00  0.00     0.167 HD
ATOM     39  C   UNL     1      13.319  -0.989  -3.986  1.00  0.00     0.031 A 
ATOM     40  C   UNL     1       9.746  -6.194  -6.988  1.00  0.00     0.031 A 
ATOM     41  C   UNL     1      13.979  -2.270  -3.980  1.00  0.00     0.049 A 
ATOM     42  C   UNL     1      11.111  -6.416  -6.408  1.00  0.00     0.074 A 
ATOM     43  C   UNL     1      15.203  -2.604  -3.425  1.00  0.00     0.029 A 
ATOM     44  N   UNL     1      13.470  -3.429  -4.546  1.00  0.00    -0.354 N 
ATOM     45  N   UNL     1      11.894  -5.557  -5.800  1.00  0.00    -0.248 NA
ATOM     46  C   UNL     1      11.674  -7.766  -6.533  1.00  0.00     0.031 C 
ATOM     47  C   UNL     1      15.460  -3.950  -3.707  1.00  0.00     0.029 A 
ATOM     48  C   UNL     1      14.367  -4.473  -4.380  1.00  0.00     0.049 A 
ATOM     49  H   UNL     1      12.599  -3.501  -5.000  1.00  0.00     0.167 HD
ATOM     50  C   UNL     1      13.041  -6.266  -5.463  1.00  0.00     0.074 A 
ATOM     51  C   UNL     1      12.838  -7.628  -5.912  1.00  0.00     0.031 C 
ATOM     52  C   UNL     1      14.162  -5.823  -4.842  1.00  0.00     0.031 A 
BRANCH  39  53
ATOM     53  C   UNL     1      14.063   0.196  -3.418  1.00  0.00    -0.014 A 
ATOM     54  C   UNL     1      13.661   0.831  -2.229  1.00  0.00     0.010 A 
ATOM     55  C   UNL     1      15.213   0.665  -4.082  1.00  0.00     0.010 A 
ATOM     56  C   UNL     1      14.361   1.943  -1.747  1.00  0.00     0.020 A 
ATOM     57  C   UNL     1      15.934   1.756  -3.588  1.00  0.00     0.020 A 
ATOM     58  C   UNL     1      15.489   2.403  -2.435  1.00  0.00     0.054 A 
BRANCH  58  59
ATOM     59  S   UNL     1      16.377   3.849  -1.791  1.00  0.00     0.124 S 
ATOM     60  O   UNL     1      15.462   4.937  -2.124  1.00  0.00    -0.237 OA
ATOM     61  O   UNL     1      16.498   3.544  -0.368  1.00  0.00    -0.237 OA
ATOM     62  O   UNL     1      17.635   3.844  -2.534  1.00  0.00    -0.744 OA
ENDBRANCH  58  59
ENDBRANCH  39  53
BRANCH  40  63
ATOM     63  C   UNL     1       9.018  -7.285  -7.696  1.00  0.00    -0.014 A 
ATOM     64  C   UNL     1       8.464  -8.363  -6.986  1.00  0.00     0.010 A 
ATOM     65  C   UNL     1       8.822  -7.212  -9.089  1.00  0.00     0.010 A 
ATOM     66  C   UNL     1       7.723  -9.344  -7.654  1.00  0.00     0.020 A 
ATOM     67  C   UNL     1       8.055  -8.170  -9.755  1.00  0.00     0.020 A 
ATOM     68  C   UNL     1       7.515  -9.235  -9.033  1.00  0.00     0.054 A 
BRANCH  68  69
ATOM     69  S   UNL     1       6.473 -10.467  -9.864  1.00  0.00     0.124 S 
ATOM     70  O   UNL     1       7.352 -11.631  -9.902  1.00  0.00    -0.237 OA
ATOM     71  O   UNL     1       5.326 -10.569  -8.965  1.00  0.00    -0.237 OA
ATOM     72  O   UNL     1       6.186  -9.855 -11.159  1.00  0.00    -0.744 OA
ENDBRANCH  68  69
ENDBRANCH  40  63
BRANCH  52  73
ATOM     73  C   UNL     1      15.249  -6.832  -4.585  1.00  0.00    -0.014 A 
ATOM     74  C   UNL     1      16.042  -7.333  -5.632  1.00  0.00     0.010 A 
ATOM     75  C   UNL     1      15.507  -7.253  -3.268  1.00  0.00     0.010 A 
ATOM     76  C   UNL     1      17.052  -8.264  -5.371  1.00  0.00     0.020 A 
ATOM     77  C   UNL     1      16.533  -8.162  -2.999  1.00  0.00     0.020 A 
ATOM     78  C   UNL     1      17.290  -8.673  -4.055  1.00  0.00     0.054 A 
BRANCH  78  79
ATOM     79  S   UNL     1      18.629  -9.854  -3.736  1.00  0.00     0.124 S 
ATOM     80  O   UNL     1      18.060 -11.102  -4.239  1.00  0.00    -0.237 OA
ATOM     81  O   UNL     1      19.733  -9.306  -4.519  1.00  0.00    -0.237 OA
ATOM     82  O   UNL     1      18.809  -9.791  -2.287  1.00  0.00    -0.744 OA
ENDBRANCH  78  79
ENDBRANCH  52  73
ENDBRANCH  26  27
ENDBRANCH  19  21
ENDBRANCH  18  19
ENDBRANCH   1  18
TORSDOF 15
