REMARK SMILES CC[C@@H]1CCC[C@@](C[C@@H]2CSc3ccccc32)(C(=O)OCCOC(=O)c2ccc(-c3c4nc(c(-c5ccc(S(=O)(=O)[O-])cc5)c5ccc([nH]5)c(-c5ccc(S(=O)(=O)[O-])cc5)c5nc(c(-c6ccc(S(=O)(=O)[O-])cc6)c6ccc3[nH]6)C=C5)C=C4)cc2)C1
REMARK SMILES IDX 22 1 21 2 20 3 18 4 19 5 7 6 3 7 4 8 86 9 5 10 6 11 2 12
REMARK SMILES IDX 1 13 8 14 9 15 10 16 17 17 11 18 12 19 16 20 13 21 15 22
REMARK SMILES IDX 14 23 23 24 24 25 25 26 26 27 27 28 85 29 28 30 84 31 29 32
REMARK SMILES IDX 30 33 31 34 78 35 32 36 83 37 77 38 79 39 33 40 82 41 76 42
REMARK SMILES IDX 75 43 34 45 64 46 45 47 63 48 46 49 49 50 62 51 80 52 47 53
REMARK SMILES IDX 48 54 61 56 81 57 50 58 35 59 36 60 44 61 37 62 43 63 38 64
REMARK SMILES IDX 39 65 40 66 41 67 42 68 65 69 66 70 74 71 67 72 73 73 68 74
REMARK SMILES IDX 69 75 70 76 71 77 72 78 51 79 52 80 60 81 53 82 59 83 54 84
REMARK SMILES IDX 55 85 56 86 57 87 58 88
REMARK H PARENT 79 44 49 55
REMARK Flexibility Score: inf
ROOT
ATOM      1  C   UNL     1       1.654 -11.142   2.852  1.00  0.00     0.275 C 
ENDROOT
BRANCH   1   2
ATOM      2  C   UNL     1       1.282  -9.706   2.507  1.00  0.00     0.274 C 
BRANCH   2   3
ATOM      3  O   UNL     1       2.180  -8.776   3.159  1.00  0.00    -0.462 OA
BRANCH   3   4
ATOM      4  C   UNL     1       1.637  -7.857   4.000  1.00  0.00     0.312 C 
ATOM      5  O   UNL     1       0.457  -7.851   4.336  1.00  0.00    -0.252 OA
BRANCH   4   6
ATOM      6  C   UNL     1       2.617  -6.730   4.385  1.00  0.00     0.069 C 
ATOM      7  C   UNL     1       3.177  -7.446   6.852  1.00  0.00    -0.010 C 
ATOM      8  C   UNL     1       4.633  -7.676   6.445  1.00  0.00     0.003 C 
ATOM      9  C   UNL     1       2.490  -6.436   5.921  1.00  0.00     0.022 C 
ATOM     10  C   UNL     1       4.729  -8.094   4.989  1.00  0.00     0.001 C 
ATOM     11  C   UNL     1       4.092  -7.054   4.069  1.00  0.00     0.019 C 
BRANCH   7  12
ATOM     12  C   UNL     1       3.118  -7.073   8.350  1.00  0.00     0.000 C 
ATOM     13  C   UNL     1       1.808  -6.462   8.825  1.00  0.00     0.004 C 
ENDBRANCH   7  12
BRANCH   6  14
ATOM     14  C   UNL     1       2.096  -5.424   3.671  1.00  0.00     0.028 C 
BRANCH  14  15
ATOM     15  C   UNL     1       2.208  -5.180   2.145  1.00  0.00     0.032 C 
ATOM     16  C   UNL     1       1.379  -6.112   1.240  1.00  0.00     0.083 C 
ATOM     17  C   UNL     1       3.619  -5.151   1.623  1.00  0.00    -0.030 A 
ATOM     18  S   UNL     1       2.516  -7.091   0.211  1.00  0.00    -0.125 SA
ATOM     19  C   UNL     1       3.918  -6.132   0.679  1.00  0.00     0.011 A 
ATOM     20  C   UNL     1       4.616  -4.289   2.077  1.00  0.00     0.005 A 
ATOM     21  C   UNL     1       5.219  -6.327   0.239  1.00  0.00     0.015 A 
ATOM     22  C   UNL     1       5.926  -4.472   1.634  1.00  0.00     0.000 A 
ATOM     23  C   UNL     1       6.229  -5.498   0.732  1.00  0.00     0.001 A 
ENDBRANCH  14  15
ENDBRANCH   6  14
ENDBRANCH   4   6
ENDBRANCH   3   4
ENDBRANCH   2   3
ENDBRANCH   1   2
BRANCH   1  24
ATOM     24  O   UNL     1       1.238 -11.368   4.203  1.00  0.00    -0.458 OA
BRANCH  24  25
ATOM     25  C   UNL     1       2.169 -11.850   5.054  1.00  0.00     0.338 C 
ATOM     26  O   UNL     1       3.255 -12.323   4.781  1.00  0.00    -0.246 OA
BRANCH  25  27
ATOM     27  C   UNL     1       1.656 -11.648   6.421  1.00  0.00     0.060 A 
ATOM     28  C   UNL     1       1.807 -12.635   7.389  1.00  0.00     0.016 A 
ATOM     29  C   UNL     1       1.097 -10.417   6.760  1.00  0.00     0.016 A 
ATOM     30  C   UNL     1       1.380 -12.378   8.697  1.00  0.00     0.010 A 
ATOM     31  C   UNL     1       0.792 -10.128   8.085  1.00  0.00     0.010 A 
ATOM     32  C   UNL     1       0.908 -11.104   9.075  1.00  0.00    -0.014 A 
BRANCH  32  33
ATOM     33  C   UNL     1       0.586 -10.785  10.496  1.00  0.00     0.031 A 
ATOM     34  C   UNL     1      -0.753 -10.215  10.904  1.00  0.00     0.074 A 
ATOM     35  C   UNL     1       1.538 -10.961  11.437  1.00  0.00     0.049 A 
ATOM     36  N   UNL     1      -1.208  -9.979  12.110  1.00  0.00    -0.248 NA
ATOM     37  C   UNL     1      -1.682  -9.809   9.837  1.00  0.00     0.031 C 
ATOM     38  C   UNL     1       2.926 -11.349  11.173  1.00  0.00     0.029 A 
ATOM     39  N   UNL     1       1.477 -10.872  12.807  1.00  0.00    -0.354 N 
ATOM     40  C   UNL     1      -2.449  -9.375  11.941  1.00  0.00     0.074 A 
ATOM     41  C   UNL     1      -2.645  -9.208  10.521  1.00  0.00     0.031 C 
ATOM     42  C   UNL     1       3.552 -11.568  12.339  1.00  0.00     0.029 A 
ATOM     43  C   UNL     1       2.622 -11.311  13.434  1.00  0.00     0.049 A 
ATOM     44  H   UNL     1       0.693 -10.527  13.293  1.00  0.00     0.167 HD
ATOM     45  C   UNL     1      -3.369  -9.038  12.877  1.00  0.00     0.031 A 
ATOM     46  C   UNL     1       2.883 -11.537  14.737  1.00  0.00     0.031 A 
ATOM     47  C   UNL     1      -3.201  -9.281  14.284  1.00  0.00     0.049 A 
ATOM     48  C   UNL     1       1.800 -11.314  15.752  1.00  0.00     0.074 A 
ATOM     49  C   UNL     1      -4.116  -9.085  15.304  1.00  0.00     0.029 A 
ATOM     50  N   UNL     1      -2.056  -9.800  14.866  1.00  0.00    -0.354 N 
ATOM     51  N   UNL     1       0.587 -10.852  15.565  1.00  0.00    -0.248 NA
ATOM     52  C   UNL     1       2.104 -11.667  17.145  1.00  0.00     0.031 C 
ATOM     53  C   UNL     1      -3.514  -9.461  16.507  1.00  0.00     0.029 A 
ATOM     54  C   UNL     1      -2.242  -9.936  16.230  1.00  0.00     0.049 A 
ATOM     55  H   UNL     1      -1.232 -10.036  14.381  1.00  0.00     0.167 HD
ATOM     56  C   UNL     1      -0.023 -10.874  16.813  1.00  0.00     0.074 A 
ATOM     57  C   UNL     1       0.947 -11.410  17.745  1.00  0.00     0.031 C 
ATOM     58  C   UNL     1      -1.275 -10.481  17.149  1.00  0.00     0.031 A 
BRANCH  45  59
ATOM     59  C   UNL     1      -4.672  -8.436  12.412  1.00  0.00    -0.014 A 
ATOM     60  C   UNL     1      -5.021  -7.125  12.784  1.00  0.00     0.010 A 
ATOM     61  C   UNL     1      -5.596  -9.204  11.679  1.00  0.00     0.010 A 
ATOM     62  C   UNL     1      -6.269  -6.595  12.439  1.00  0.00     0.020 A 
ATOM     63  C   UNL     1      -6.831  -8.667  11.303  1.00  0.00     0.020 A 
ATOM     64  C   UNL     1      -7.167  -7.373  11.703  1.00  0.00     0.054 A 
BRANCH  64  65
ATOM     65  S   UNL     1      -8.778  -6.674  11.244  1.00  0.00     0.124 S 
ATOM     66  O   UNL     1      -9.556  -6.868  12.463  1.00  0.00    -0.237 OA
ATOM     67  O   UNL     1      -8.450  -5.289  10.916  1.00  0.00    -0.237 OA
ATOM     68  O   UNL     1      -9.187  -7.491  10.103  1.00  0.00    -0.744 OA
ENDBRANCH  64  65
ENDBRANCH  45  59
BRANCH  46  69
ATOM     69  C   UNL     1       4.193 -12.136  15.109  1.00  0.00    -0.014 A 
ATOM     70  C   UNL     1       5.375 -11.378  15.056  1.00  0.00     0.010 A 
ATOM     71  C   UNL     1       4.272 -13.510  15.402  1.00  0.00     0.010 A 
ATOM     72  C   UNL     1       6.618 -11.992  15.242  1.00  0.00     0.020 A 
ATOM     73  C   UNL     1       5.511 -14.123  15.610  1.00  0.00     0.020 A 
ATOM     74  C   UNL     1       6.678 -13.365  15.499  1.00  0.00     0.054 A 
BRANCH  74  75
ATOM     75  S   UNL     1       8.302 -14.156  15.668  1.00  0.00     0.124 S 
ATOM     76  O   UNL     1       8.728 -14.263  14.275  1.00  0.00    -0.237 OA
ATOM     77  O   UNL     1       9.043 -13.197  16.482  1.00  0.00    -0.237 OA
ATOM     78  O   UNL     1       7.997 -15.423  16.327  1.00  0.00    -0.744 OA
ENDBRANCH  74  75
ENDBRANCH  46  69
BRANCH  58  79
ATOM     79  C   UNL     1      -1.703 -10.610  18.584  1.00  0.00    -0.014 A 
ATOM     80  C   UNL     1      -2.684 -11.556  18.934  1.00  0.00     0.010 A 
ATOM     81  C   UNL     1      -1.253  -9.695  19.551  1.00  0.00     0.010 A 
ATOM     82  C   UNL     1      -3.237 -11.562  20.216  1.00  0.00     0.020 A 
ATOM     83  C   UNL     1      -1.788  -9.712  20.842  1.00  0.00     0.020 A 
ATOM     84  C   UNL     1      -2.796 -10.627  21.157  1.00  0.00     0.054 A 
BRANCH  84  85
ATOM     85  S   UNL     1      -3.561 -10.611  22.802  1.00  0.00     0.124 S 
ATOM     86  O   UNL     1      -4.816  -9.910  22.550  1.00  0.00    -0.237 OA
ATOM     87  O   UNL     1      -3.686 -12.033  23.115  1.00  0.00    -0.237 OA
ATOM     88  O   UNL     1      -2.592  -9.886  23.621  1.00  0.00    -0.744 OA
ENDBRANCH  84  85
ENDBRANCH  58  79
ENDBRANCH  32  33
ENDBRANCH  25  27
ENDBRANCH  24  25
ENDBRANCH   1  24
TORSDOF 17
