REMARK SMILES O=C(OCCOC(=O)c1ccc(-c2c3nc(c(-c4ccc(S(=O)(=O)[O-])cc4)c4ccc([nH]4)c(-c4ccc(S(=O)(=O)[O-])cc4)c4nc(c(-c5ccc(S(=O)(=O)[O-])cc5)c5ccc2[nH]5)C=C4)C=C3)cc1)c1ccc(N[C@H]2OC[C@@H](O)[C@@H](O)[C@H]2O)cc1
REMARK SMILES IDX 4 1 3 2 2 3 1 4 69 5 70 6 84 7 71 8 83 9 72 10 73 11 74 13
REMARK SMILES IDX 75 14 81 15 76 16 79 17 77 18 82 19 80 21 78 23 5 25 6 26
REMARK SMILES IDX 7 27 8 28 9 29 10 30 68 31 11 32 67 33 12 34 13 35 14 36
REMARK SMILES IDX 61 37 15 38 66 39 60 40 62 41 16 42 65 43 59 44 58 45 17 47
REMARK SMILES IDX 47 48 28 49 46 50 29 51 32 52 45 53 63 54 30 55 31 56 44 58
REMARK SMILES IDX 64 59 33 60 18 61 19 62 27 63 20 64 26 65 21 66 22 67 23 68
REMARK SMILES IDX 24 69 25 70 48 71 49 72 57 73 50 74 56 75 51 76 52 77 53 78
REMARK SMILES IDX 54 79 55 80 34 81 35 82 43 83 36 84 42 85 37 86 38 87 39 88
REMARK SMILES IDX 40 89 41 90
REMARK H PARENT 73 12 82 20 80 22 78 24 62 46 32 57
REMARK Flexibility Score: inf
ROOT
ATOM      1  C   UNL     1       0.954   2.554   8.719  1.00  0.00     0.275 C 
ENDROOT
BRANCH   1   2
ATOM      2  O   UNL     1       1.723   2.269   9.900  1.00  0.00    -0.458 OA
BRANCH   2   3
ATOM      3  C   UNL     1       2.885   1.590  10.048  1.00  0.00     0.338 C 
ATOM      4  O   UNL     1       3.184   1.206  11.179  1.00  0.00    -0.246 OA
BRANCH   3   5
ATOM      5  C   UNL     1       3.890   1.363   8.952  1.00  0.00     0.060 A 
ATOM      6  C   UNL     1       3.675   1.463   7.579  1.00  0.00     0.018 A 
ATOM      7  C   UNL     1       5.196   1.048   9.363  1.00  0.00     0.018 A 
ATOM      8  C   UNL     1       4.731   1.354   6.661  1.00  0.00     0.026 A 
ATOM      9  C   UNL     1       6.240   0.901   8.437  1.00  0.00     0.026 A 
ATOM     10  C   UNL     1       6.035   1.091   7.070  1.00  0.00     0.036 A 
BRANCH  10  11
ATOM     11  N   UNL     1       7.118   1.080   6.214  1.00  0.00    -0.358 N 
ATOM     12  H   UNL     1       8.007   0.907   6.602  1.00  0.00     0.163 HD
BRANCH  11  13
ATOM     13  C   UNL     1       7.039   1.305   4.782  1.00  0.00     0.244 C 
ATOM     14  O   UNL     1       6.602   2.645   4.538  1.00  0.00    -0.353 OA
ATOM     15  C   UNL     1       8.438   1.117   4.153  1.00  0.00     0.195 C 
ATOM     16  C   UNL     1       6.438   2.935   3.143  1.00  0.00     0.197 C 
ATOM     17  C   UNL     1       8.311   1.339   2.641  1.00  0.00     0.178 C 
ATOM     18  C   UNL     1       7.730   2.730   2.345  1.00  0.00     0.171 C 
BRANCH  15  19
ATOM     19  O   UNL     1       9.371   2.088   4.684  1.00  0.00    -0.386 OA
ATOM     20  H   UNL     1       9.053   2.983   4.487  1.00  0.00     0.211 HD
ENDBRANCH  15  19
BRANCH  17  21
ATOM     21  O   UNL     1       9.582   1.183   2.009  1.00  0.00    -0.387 OA
ATOM     22  H   UNL     1      10.201   1.844   2.357  1.00  0.00     0.211 HD
ENDBRANCH  17  21
BRANCH  18  23
ATOM     23  O   UNL     1       8.672   3.757   2.679  1.00  0.00    -0.388 OA
ATOM     24  H   UNL     1       8.874   3.715   3.626  1.00  0.00     0.211 HD
ENDBRANCH  18  23
ENDBRANCH  11  13
ENDBRANCH  10  11
ENDBRANCH   3   5
ENDBRANCH   2   3
ENDBRANCH   1   2
BRANCH   1  25
ATOM     25  C   UNL     1       1.240   3.938   8.125  1.00  0.00     0.275 C 
BRANCH  25  26
ATOM     26  O   UNL     1       2.646   4.192   7.968  1.00  0.00    -0.458 OA
BRANCH  26  27
ATOM     27  C   UNL     1       3.222   4.868   8.997  1.00  0.00     0.338 C 
ATOM     28  O   UNL     1       2.632   5.354   9.949  1.00  0.00    -0.246 OA
BRANCH  27  29
ATOM     29  C   UNL     1       4.703   4.851   8.889  1.00  0.00     0.060 A 
ATOM     30  C   UNL     1       5.437   4.865  10.081  1.00  0.00     0.016 A 
ATOM     31  C   UNL     1       5.378   4.840   7.663  1.00  0.00     0.016 A 
ATOM     32  C   UNL     1       6.834   4.909  10.052  1.00  0.00     0.010 A 
ATOM     33  C   UNL     1       6.781   4.870   7.636  1.00  0.00     0.010 A 
ATOM     34  C   UNL     1       7.521   4.936   8.830  1.00  0.00    -0.014 A 
BRANCH  34  35
ATOM     35  C   UNL     1       8.998   5.127   8.821  1.00  0.00     0.031 A 
ATOM     36  C   UNL     1       9.575   6.481   8.500  1.00  0.00     0.074 A 
ATOM     37  C   UNL     1       9.834   4.125   9.153  1.00  0.00     0.049 A 
ATOM     38  N   UNL     1      10.822   6.877   8.549  1.00  0.00    -0.248 NA
ATOM     39  C   UNL     1       8.626   7.524   8.080  1.00  0.00     0.031 C 
ATOM     40  C   UNL     1       9.426   2.771   9.518  1.00  0.00     0.029 A 
ATOM     41  N   UNL     1      11.205   4.093   9.246  1.00  0.00    -0.354 N 
ATOM     42  C   UNL     1      10.806   8.222   8.200  1.00  0.00     0.074 A 
ATOM     43  C   UNL     1       9.433   8.556   7.880  1.00  0.00     0.031 C 
ATOM     44  C   UNL     1      10.520   2.034   9.778  1.00  0.00     0.029 A 
ATOM     45  C   UNL     1      11.709   2.866   9.608  1.00  0.00     0.049 A 
ATOM     46  H   UNL     1      11.774   4.877   9.068  1.00  0.00     0.167 HD
ATOM     47  C   UNL     1      11.828   9.110   8.176  1.00  0.00     0.031 A 
ATOM     48  C   UNL     1      12.980   2.457   9.798  1.00  0.00     0.031 A 
ATOM     49  C   UNL     1      13.202   8.791   8.462  1.00  0.00     0.049 A 
ATOM     50  C   UNL     1      14.113   3.444   9.682  1.00  0.00     0.074 A 
ATOM     51  C   UNL     1      14.298   9.638   8.467  1.00  0.00     0.029 A 
ATOM     52  N   UNL     1      13.674   7.529   8.782  1.00  0.00    -0.354 N 
ATOM     53  N   UNL     1      14.066   4.728   9.418  1.00  0.00    -0.248 NA
ATOM     54  C   UNL     1      15.470   2.929   9.920  1.00  0.00     0.031 C 
ATOM     55  C   UNL     1      15.440   8.878   8.742  1.00  0.00     0.029 A 
ATOM     56  C   UNL     1      15.048   7.569   8.963  1.00  0.00     0.049 A 
ATOM     57  H   UNL     1      13.117   6.722   8.868  1.00  0.00     0.167 HD
ATOM     58  C   UNL     1      15.381   5.179   9.498  1.00  0.00     0.074 A 
ATOM     59  C   UNL     1      16.198   4.035   9.843  1.00  0.00     0.031 C 
ATOM     60  C   UNL     1      15.863   6.432   9.308  1.00  0.00     0.031 A 
BRANCH  47  61
ATOM     61  C   UNL     1      11.489  10.534   7.826  1.00  0.00    -0.014 A 
ATOM     62  C   UNL     1      10.800  11.351   8.740  1.00  0.00     0.010 A 
ATOM     63  C   UNL     1      11.897  11.074   6.593  1.00  0.00     0.010 A 
ATOM     64  C   UNL     1      10.490  12.672   8.413  1.00  0.00     0.020 A 
ATOM     65  C   UNL     1      11.611  12.403   6.273  1.00  0.00     0.020 A 
ATOM     66  C   UNL     1      10.894  13.189   7.178  1.00  0.00     0.054 A 
BRANCH  66  67
ATOM     67  S   UNL     1      10.493  14.914   6.787  1.00  0.00     0.124 S 
ATOM     68  O   UNL     1       9.058  14.836   6.523  1.00  0.00    -0.237 OA
ATOM     69  O   UNL     1      10.869  15.617   8.011  1.00  0.00    -0.237 OA
ATOM     70  O   UNL     1      11.325  15.208   5.623  1.00  0.00    -0.744 OA
ENDBRANCH  66  67
ENDBRANCH  47  61
BRANCH  48  71
ATOM     71  C   UNL     1      13.264   1.034  10.128  1.00  0.00    -0.014 A 
ATOM     72  C   UNL     1      13.728   0.667  11.404  1.00  0.00     0.010 A 
ATOM     73  C   UNL     1      13.113   0.042   9.143  1.00  0.00     0.010 A 
ATOM     74  C   UNL     1      14.068  -0.661  11.678  1.00  0.00     0.020 A 
ATOM     75  C   UNL     1      13.428  -1.290   9.420  1.00  0.00     0.020 A 
ATOM     76  C   UNL     1      13.921  -1.631  10.681  1.00  0.00     0.054 A 
BRANCH  76  77
ATOM     77  S   UNL     1      14.352  -3.353  11.059  1.00  0.00     0.124 S 
ATOM     78  O   UNL     1      15.810  -3.314  11.024  1.00  0.00    -0.237 OA
ATOM     79  O   UNL     1      13.753  -3.547  12.377  1.00  0.00    -0.237 OA
ATOM     80  O   UNL     1      13.718  -4.105   9.978  1.00  0.00    -0.744 OA
ENDBRANCH  76  77
ENDBRANCH  48  71
BRANCH  60  81
ATOM     81  C   UNL     1      17.342   6.651   9.506  1.00  0.00    -0.014 A 
ATOM     82  C   UNL     1      18.286   6.152   8.591  1.00  0.00     0.010 A 
ATOM     83  C   UNL     1      17.792   7.405  10.606  1.00  0.00     0.010 A 
ATOM     84  C   UNL     1      19.653   6.371   8.792  1.00  0.00     0.020 A 
ATOM     85  C   UNL     1      19.155   7.649  10.796  1.00  0.00     0.020 A 
ATOM     86  C   UNL     1      20.079   7.115   9.896  1.00  0.00     0.054 A 
BRANCH  86  87
ATOM     87  S   UNL     1      21.855   7.414  10.119  1.00  0.00     0.124 S 
ATOM     88  O   UNL     1      22.324   6.118  10.601  1.00  0.00    -0.237 OA
ATOM     89  O   UNL     1      22.292   7.780   8.774  1.00  0.00    -0.237 OA
ATOM     90  O   UNL     1      21.905   8.498  11.098  1.00  0.00    -0.744 OA
ENDBRANCH  86  87
ENDBRANCH  60  81
ENDBRANCH  34  35
ENDBRANCH  27  29
ENDBRANCH  26  27
ENDBRANCH  25  26
ENDBRANCH   1  25
TORSDOF 19
