REMARK SMILES O=C(OCCOC(=O)C1CCN(S(=O)(=O)c2ccc3nc(O)sc3c2)CC1)c1ccc(-c2c3nc(c(-c4ccc(S(=O)(=O)[O-])cc4)c4ccc([nH]4)c(-c4ccc(S(=O)(=O)[O-])cc4)c4nc(c(-c5ccc(S(=O)(=O)[O-])cc5)c5ccc2[nH]5)C=C4)C=C3)cc1
REMARK SMILES IDX 4 1 3 2 2 3 1 4 28 5 29 6 87 7 30 8 86 9 31 10 32 11 33 12
REMARK SMILES IDX 80 13 34 14 85 15 79 16 81 17 35 18 84 19 78 20 77 21 36 23
REMARK SMILES IDX 66 24 47 25 65 26 48 27 51 28 64 29 82 30 49 31 50 32 63 34
REMARK SMILES IDX 83 35 52 36 37 37 38 38 46 39 39 40 45 41 40 42 41 43 42 44
REMARK SMILES IDX 43 45 44 46 67 47 68 48 76 49 69 50 75 51 70 52 71 53 72 54
REMARK SMILES IDX 73 55 74 56 53 57 54 58 62 59 55 60 61 61 56 62 57 63 58 64
REMARK SMILES IDX 59 65 60 66 5 67 6 68 7 69 8 70 9 71 10 72 27 73 11 74 26 75
REMARK SMILES IDX 12 76 13 77 14 78 15 79 16 80 17 81 25 82 18 83 24 84 19 85
REMARK SMILES IDX 23 86 20 87 21 88 22 89
REMARK H PARENT 81 22 51 33 22 90
REMARK Flexibility Score: inf
ROOT
ATOM      1  C   UNL     1       4.272  -1.245  -1.038  1.00  0.00     0.275 C 
ENDROOT
BRANCH   1   2
ATOM      2  O   UNL     1       4.369  -0.501   0.193  1.00  0.00    -0.458 OA
BRANCH   2   3
ATOM      3  C   UNL     1       4.686   0.805   0.383  1.00  0.00     0.338 C 
ATOM      4  O   UNL     1       4.724   1.210   1.548  1.00  0.00    -0.246 OA
BRANCH   3   5
ATOM      5  C   UNL     1       4.789   1.827  -0.725  1.00  0.00     0.060 A 
ATOM      6  C   UNL     1       4.585   3.142  -0.316  1.00  0.00     0.016 A 
ATOM      7  C   UNL     1       4.865   1.608  -2.108  1.00  0.00     0.016 A 
ATOM      8  C   UNL     1       4.185   4.111  -1.233  1.00  0.00     0.010 A 
ATOM      9  C   UNL     1       4.403   2.579  -3.029  1.00  0.00     0.010 A 
ATOM     10  C   UNL     1       3.947   3.812  -2.574  1.00  0.00    -0.014 A 
BRANCH  10  11
ATOM     11  C   UNL     1       3.507   4.984  -3.374  1.00  0.00     0.031 A 
ATOM     12  C   UNL     1       4.733   5.653  -3.866  1.00  0.00     0.074 A 
ATOM     13  C   UNL     1       2.423   5.180  -4.159  1.00  0.00     0.049 A 
ATOM     14  N   UNL     1       5.328   5.134  -4.894  1.00  0.00    -0.248 NA
ATOM     15  C   UNL     1       5.579   6.501  -3.030  1.00  0.00     0.031 C 
ATOM     16  C   UNL     1       1.678   4.159  -4.893  1.00  0.00     0.029 A 
ATOM     17  N   UNL     1       1.851   6.374  -4.573  1.00  0.00    -0.354 N 
ATOM     18  C   UNL     1       6.658   5.434  -4.761  1.00  0.00     0.074 A 
ATOM     19  C   UNL     1       6.772   6.311  -3.614  1.00  0.00     0.031 C 
ATOM     20  C   UNL     1       0.853   4.766  -5.773  1.00  0.00     0.029 A 
ATOM     21  C   UNL     1       0.930   6.220  -5.612  1.00  0.00     0.049 A 
ATOM     22  H   UNL     1       2.073   7.246  -4.173  1.00  0.00     0.167 HD
ATOM     23  C   UNL     1       7.580   4.884  -5.585  1.00  0.00     0.031 A 
ATOM     24  C   UNL     1       0.743   7.121  -6.625  1.00  0.00     0.031 A 
ATOM     25  C   UNL     1       7.054   4.054  -6.631  1.00  0.00     0.049 A 
ATOM     26  C   UNL     1       1.964   6.847  -7.473  1.00  0.00     0.074 A 
ATOM     27  C   UNL     1       7.014   2.718  -6.961  1.00  0.00     0.029 A 
ATOM     28  N   UNL     1       6.315   4.680  -7.607  1.00  0.00    -0.354 N 
ATOM     29  N   UNL     1       2.135   5.825  -8.275  1.00  0.00    -0.248 NA
ATOM     30  C   UNL     1       3.200   7.522  -7.082  1.00  0.00     0.031 C 
ATOM     31  C   UNL     1       5.926   2.580  -7.883  1.00  0.00     0.029 A 
ATOM     32  C   UNL     1       5.327   3.832  -8.032  1.00  0.00     0.049 A 
ATOM     33  H   UNL     1       6.470   5.591  -7.946  1.00  0.00     0.167 HD
ATOM     34  C   UNL     1       3.496   5.514  -8.180  1.00  0.00     0.074 A 
ATOM     35  C   UNL     1       4.093   6.619  -7.459  1.00  0.00     0.031 C 
ATOM     36  C   UNL     1       4.031   4.299  -8.503  1.00  0.00     0.031 A 
BRANCH  23  37
ATOM     37  C   UNL     1       8.974   5.330  -5.565  1.00  0.00    -0.014 A 
ATOM     38  C   UNL     1       9.934   4.856  -4.663  1.00  0.00     0.010 A 
ATOM     39  C   UNL     1       9.330   6.259  -6.555  1.00  0.00     0.010 A 
ATOM     40  C   UNL     1      11.254   5.303  -4.774  1.00  0.00     0.020 A 
ATOM     41  C   UNL     1      10.637   6.702  -6.670  1.00  0.00     0.020 A 
ATOM     42  C   UNL     1      11.594   6.218  -5.781  1.00  0.00     0.054 A 
BRANCH  42  43
ATOM     43  S   UNL     1      13.313   6.759  -5.945  1.00  0.00     0.124 S 
ATOM     44  O   UNL     1      13.531   7.461  -4.683  1.00  0.00    -0.237 OA
ATOM     45  O   UNL     1      14.024   5.493  -6.096  1.00  0.00    -0.237 OA
ATOM     46  O   UNL     1      13.296   7.608  -7.134  1.00  0.00    -0.744 OA
ENDBRANCH  42  43
ENDBRANCH  23  37
BRANCH  24  47
ATOM     47  C   UNL     1       0.289   8.491  -6.203  1.00  0.00    -0.014 A 
ATOM     48  C   UNL     1       1.020   9.685  -6.316  1.00  0.00     0.010 A 
ATOM     49  C   UNL     1      -0.971   8.571  -5.567  1.00  0.00     0.010 A 
ATOM     50  C   UNL     1       0.633  10.841  -5.620  1.00  0.00     0.020 A 
ATOM     51  C   UNL     1      -1.389   9.733  -4.905  1.00  0.00     0.020 A 
ATOM     52  C   UNL     1      -0.543  10.837  -4.872  1.00  0.00     0.054 A 
BRANCH  52  53
ATOM     53  S   UNL     1      -0.895  12.245  -3.785  1.00  0.00     0.124 S 
ATOM     54  O   UNL     1       0.188  12.145  -2.810  1.00  0.00    -0.237 OA
ATOM     55  O   UNL     1      -0.818  13.381  -4.698  1.00  0.00    -0.237 OA
ATOM     56  O   UNL     1      -2.229  11.955  -3.264  1.00  0.00    -0.744 OA
ENDBRANCH  52  53
ENDBRANCH  24  47
BRANCH  36  57
ATOM     57  C   UNL     1       3.179   3.345  -9.288  1.00  0.00    -0.014 A 
ATOM     58  C   UNL     1       2.874   2.063  -8.792  1.00  0.00     0.010 A 
ATOM     59  C   UNL     1       2.890   3.643 -10.628  1.00  0.00     0.010 A 
ATOM     60  C   UNL     1       2.440   1.056  -9.658  1.00  0.00     0.020 A 
ATOM     61  C   UNL     1       2.436   2.646 -11.494  1.00  0.00     0.020 A 
ATOM     62  C   UNL     1       2.270   1.345 -11.014  1.00  0.00     0.054 A 
BRANCH  62  63
ATOM     63  S   UNL     1       1.955  -0.024 -12.161  1.00  0.00     0.124 S 
ATOM     64  O   UNL     1       3.167  -0.828 -12.020  1.00  0.00    -0.237 OA
ATOM     65  O   UNL     1       0.739  -0.623 -11.618  1.00  0.00    -0.237 OA
ATOM     66  O   UNL     1       1.797   0.633 -13.457  1.00  0.00    -0.744 OA
ENDBRANCH  62  63
ENDBRANCH  36  57
ENDBRANCH  10  11
ENDBRANCH   3   5
ENDBRANCH   2   3
ENDBRANCH   1   2
BRANCH   1  67
ATOM     67  C   UNL     1       2.986  -0.985  -1.849  1.00  0.00     0.274 C 
BRANCH  67  68
ATOM     68  O   UNL     1       2.512   0.330  -1.540  1.00  0.00    -0.462 OA
BRANCH  68  69
ATOM     69  C   UNL     1       1.219   0.725  -1.661  1.00  0.00     0.309 C 
ATOM     70  O   UNL     1       0.312   0.063  -2.130  1.00  0.00    -0.252 OA
BRANCH  69  71
ATOM     71  C   UNL     1       1.118   2.079  -0.974  1.00  0.00     0.102 C 
ATOM     72  C   UNL     1       0.457   3.236  -1.680  1.00  0.00     0.032 C 
ATOM     73  C   UNL     1       0.488   1.982   0.392  1.00  0.00     0.032 C 
ATOM     74  C   UNL     1       0.720   4.560  -0.936  1.00  0.00     0.103 C 
ATOM     75  C   UNL     1       1.011   3.150   1.202  1.00  0.00     0.103 C 
ATOM     76  N   UNL     1       0.816   4.484   0.570  1.00  0.00    -0.198 NA
BRANCH  76  77
ATOM     77  S   UNL     1       1.817   5.750   1.238  1.00  0.00     0.243 S 
ATOM     78  O   UNL     1       3.201   5.366   1.199  1.00  0.00    -0.207 OA
ATOM     79  O   UNL     1       1.384   7.010   0.659  1.00  0.00    -0.207 OA
BRANCH  77  80
ATOM     80  C   UNL     1       1.417   5.765   2.963  1.00  0.00     0.084 A 
ATOM     81  C   UNL     1       1.905   4.734   3.773  1.00  0.00     0.024 A 
ATOM     82  C   UNL     1       0.696   6.835   3.488  1.00  0.00     0.043 A 
ATOM     83  C   UNL     1       1.521   4.655   5.109  1.00  0.00     0.031 A 
ATOM     84  C   UNL     1       0.338   6.750   4.838  1.00  0.00     0.059 A 
ATOM     85  C   UNL     1       0.698   5.662   5.644  1.00  0.00     0.085 A 
ATOM     86  S   UNL     1      -0.585   7.857   5.781  1.00  0.00    -0.077 S 
ATOM     87  N   UNL     1       0.182   5.678   6.927  1.00  0.00    -0.203 NA
ATOM     88  C   UNL     1      -0.525   6.765   7.074  1.00  0.00     0.271 A 
BRANCH  88  89
ATOM     89  O   UNL     1      -1.171   6.949   8.208  1.00  0.00    -0.486 OA
ATOM     90  H   UNL     1      -1.104   6.314   8.893  1.00  0.00     0.296 HD
ENDBRANCH  88  89
ENDBRANCH  77  80
ENDBRANCH  76  77
ENDBRANCH  69  71
ENDBRANCH  68  69
ENDBRANCH  67  68
ENDBRANCH   1  67
TORSDOF 17
