REMARK SMILES CC(C)c1nc(N(C)C[C@@H]2CC[N@@H+](C)C2)sc1C(=O)OCCOC(=O)c1ccc(-c2c3nc(c(-c4ccc(S(=O)(=O)[O-])cc4)c4ccc([nH]4)c(-c4ccc(S(=O)(=O)[O-])cc4)c4nc(c(-c5ccc(S(=O)(=O)[O-])cc5)c5ccc2[nH]5)C=C4)C=C3)cc1
REMARK SMILES IDX 21 1 20 2 18 3 19 4 17 5 4 6 5 7 6 8 16 9 2 10 1 11 3 12
REMARK SMILES IDX 7 13 8 14 9 15 10 16 11 17 15 18 12 19 13 20 14 21 22 23
REMARK SMILES IDX 23 24 24 25 25 26 26 27 27 28 85 29 28 30 84 31 29 32 30 33
REMARK SMILES IDX 31 34 78 35 32 36 83 37 77 38 79 39 33 40 82 41 76 42 75 43
REMARK SMILES IDX 34 45 64 46 45 47 63 48 46 49 49 50 62 51 80 52 47 53 48 54
REMARK SMILES IDX 61 56 81 57 50 58 35 59 36 60 44 61 37 62 43 63 38 64 39 65
REMARK SMILES IDX 40 66 41 67 42 68 65 69 66 70 74 71 67 72 73 73 68 74 69 75
REMARK SMILES IDX 70 76 71 77 72 78 51 79 52 80 60 81 53 82 59 83 54 84 55 85
REMARK SMILES IDX 56 86 57 87 58 88
REMARK H PARENT 13 22 79 44 49 55
REMARK Flexibility Score: inf
ROOT
ATOM      1  C   UNL     1       0.402   3.556  -1.197  1.00  0.00     0.275 C 
ENDROOT
BRANCH   1   2
ATOM      2  O   UNL     1      -0.021   2.177  -1.205  1.00  0.00    -0.458 OA
BRANCH   2   3
ATOM      3  C   UNL     1      -1.113   1.865  -0.445  1.00  0.00     0.350 C 
ATOM      4  O   UNL     1      -1.726   2.686   0.226  1.00  0.00    -0.245 OA
BRANCH   3   5
ATOM      5  C   UNL     1      -1.468   0.470  -0.603  1.00  0.00     0.137 A 
ATOM      6  C   UNL     1      -0.748  -0.646  -1.000  1.00  0.00     0.071 A 
ATOM      7  N   UNL     1      -1.523  -1.793  -1.166  1.00  0.00    -0.224 NA
ATOM      8  C   UNL     1      -2.801  -1.554  -0.963  1.00  0.00     0.186 A 
ATOM      9  S   UNL     1      -3.064  -0.025  -0.205  1.00  0.00    -0.089 S 
BRANCH   6  10
ATOM     10  C   UNL     1       0.739  -0.741  -1.251  1.00  0.00     0.034 C 
ATOM     11  C   UNL     1       1.523  -0.520   0.048  1.00  0.00     0.014 C 
ATOM     12  C   UNL     1       1.155  -2.080  -1.870  1.00  0.00     0.014 C 
ENDBRANCH   6  10
BRANCH   8  13
ATOM     13  N   UNL     1      -3.807  -2.418  -1.282  1.00  0.00    -0.351 N 
ATOM     14  C   UNL     1      -5.210  -2.025  -1.241  1.00  0.00     0.146 C 
BRANCH  13  15
ATOM     15  C   UNL     1      -3.521  -3.834  -1.514  1.00  0.00     0.128 C 
BRANCH  15  16
ATOM     16  C   UNL     1      -2.766  -4.120  -2.820  1.00  0.00     0.069 C 
ATOM     17  C   UNL     1      -3.455  -3.560  -4.074  1.00  0.00     0.072 C 
ATOM     18  C   UNL     1      -2.684  -5.631  -3.076  1.00  0.00     0.267 C 
ATOM     19  C   UNL     1      -3.627  -4.754  -5.000  1.00  0.00     0.262 C 
ATOM     20  N   UNL     1      -3.742  -5.869  -4.059  1.00  0.00    -0.337 N 
ATOM     21  C   UNL     1      -3.627  -7.162  -4.714  1.00  0.00     0.332 C 
ATOM     22  H   UNL     1      -4.662  -5.905  -3.619  1.00  0.00     0.347 HD
ENDBRANCH  15  16
ENDBRANCH  13  15
ENDBRANCH   8  13
ENDBRANCH   3   5
ENDBRANCH   2   3
ENDBRANCH   1   2
BRANCH   1  23
ATOM     23  C   UNL     1       0.035   4.275  -2.499  1.00  0.00     0.275 C 
BRANCH  23  24
ATOM     24  O   UNL     1      -1.387   4.456  -2.616  1.00  0.00    -0.458 OA
BRANCH  24  25
ATOM     25  C   UNL     1      -2.018   3.543  -3.392  1.00  0.00     0.338 C 
ATOM     26  O   UNL     1      -1.506   2.630  -4.018  1.00  0.00    -0.246 OA
BRANCH  25  27
ATOM     27  C   UNL     1      -3.473   3.694  -3.240  1.00  0.00     0.060 A 
ATOM     28  C   UNL     1      -4.132   2.717  -2.498  1.00  0.00     0.016 A 
ATOM     29  C   UNL     1      -4.195   4.705  -3.870  1.00  0.00     0.016 A 
ATOM     30  C   UNL     1      -5.516   2.728  -2.378  1.00  0.00     0.010 A 
ATOM     31  C   UNL     1      -5.592   4.724  -3.744  1.00  0.00     0.010 A 
ATOM     32  C   UNL     1      -6.263   3.729  -3.007  1.00  0.00    -0.014 A 
BRANCH  32  33
ATOM     33  C   UNL     1      -7.746   3.680  -2.938  1.00  0.00     0.031 A 
ATOM     34  C   UNL     1      -8.540   3.343  -4.170  1.00  0.00     0.074 A 
ATOM     35  C   UNL     1      -8.376   3.885  -1.765  1.00  0.00     0.049 A 
ATOM     36  N   UNL     1      -9.837   3.330  -4.339  1.00  0.00    -0.248 NA
ATOM     37  C   UNL     1      -7.773   2.972  -5.371  1.00  0.00     0.031 C 
ATOM     38  C   UNL     1      -7.717   4.148  -0.484  1.00  0.00     0.029 A 
ATOM     39  N   UNL     1      -9.714   3.894  -1.458  1.00  0.00    -0.354 N 
ATOM     40  C   UNL     1     -10.042   2.988  -5.671  1.00  0.00     0.074 A 
ATOM     41  C   UNL     1      -8.736   2.808  -6.267  1.00  0.00     0.031 C 
ATOM     42  C   UNL     1      -8.651   4.275   0.472  1.00  0.00     0.029 A 
ATOM     43  C   UNL     1      -9.974   4.167  -0.135  1.00  0.00     0.049 A 
ATOM     44  H   UNL     1     -10.421   3.722  -2.121  1.00  0.00     0.167 HD
ATOM     45  C   UNL     1     -11.214   2.841  -6.336  1.00  0.00     0.031 A 
ATOM     46  C   UNL     1     -11.144   4.342   0.510  1.00  0.00     0.031 A 
ATOM     47  C   UNL     1     -12.510   3.004  -5.732  1.00  0.00     0.049 A 
ATOM     48  C   UNL     1     -12.430   4.236  -0.264  1.00  0.00     0.074 A 
ATOM     49  C   UNL     1     -13.756   2.873  -6.320  1.00  0.00     0.029 A 
ATOM     50  N   UNL     1     -12.729   3.328  -4.401  1.00  0.00    -0.354 N 
ATOM     51  N   UNL     1     -12.606   3.943  -1.531  1.00  0.00    -0.248 NA
ATOM     52  C   UNL     1     -13.673   4.491   0.475  1.00  0.00     0.031 C 
ATOM     53  C   UNL     1     -14.727   3.166  -5.357  1.00  0.00     0.029 A 
ATOM     54  C   UNL     1     -14.088   3.423  -4.154  1.00  0.00     0.049 A 
ATOM     55  H   UNL     1     -12.022   3.470  -3.731  1.00  0.00     0.167 HD
ATOM     56  C   UNL     1     -13.981   3.960  -1.735  1.00  0.00     0.074 A 
ATOM     57  C   UNL     1     -14.590   4.275  -0.459  1.00  0.00     0.031 C 
ATOM     58  C   UNL     1     -14.677   3.737  -2.877  1.00  0.00     0.031 A 
BRANCH  45  59
ATOM     59  C   UNL     1     -11.146   2.537  -7.809  1.00  0.00    -0.014 A 
ATOM     60  C   UNL     1     -10.759   1.271  -8.283  1.00  0.00     0.010 A 
ATOM     61  C   UNL     1     -11.514   3.531  -8.735  1.00  0.00     0.010 A 
ATOM     62  C   UNL     1     -10.705   1.017  -9.657  1.00  0.00     0.020 A 
ATOM     63  C   UNL     1     -11.485   3.273 -10.109  1.00  0.00     0.020 A 
ATOM     64  C   UNL     1     -11.064   2.022 -10.561  1.00  0.00     0.054 A 
BRANCH  64  65
ATOM     65  S   UNL     1     -11.002   1.661 -12.338  1.00  0.00     0.124 S 
ATOM     66  O   UNL     1      -9.564   1.660 -12.595  1.00  0.00    -0.237 OA
ATOM     67  O   UNL     1     -11.656   0.358 -12.425  1.00  0.00    -0.237 OA
ATOM     68  O   UNL     1     -11.741   2.767 -12.943  1.00  0.00    -0.744 OA
ENDBRANCH  64  65
ENDBRANCH  45  59
BRANCH  46  69
ATOM     69  C   UNL     1     -11.152   4.681   1.961  1.00  0.00    -0.014 A 
ATOM     70  C   UNL     1     -11.637   3.765   2.911  1.00  0.00     0.010 A 
ATOM     71  C   UNL     1     -10.669   5.928   2.399  1.00  0.00     0.010 A 
ATOM     72  C   UNL     1     -11.652   4.096   4.270  1.00  0.00     0.020 A 
ATOM     73  C   UNL     1     -10.655   6.251   3.759  1.00  0.00     0.020 A 
ATOM     74  C   UNL     1     -11.159   5.337   4.685  1.00  0.00     0.054 A 
BRANCH  74  75
ATOM     75  S   UNL     1     -11.141   5.728   6.457  1.00  0.00     0.124 S 
ATOM     76  O   UNL     1     -12.548   6.011   6.720  1.00  0.00    -0.237 OA
ATOM     77  O   UNL     1     -10.621   4.497   7.048  1.00  0.00    -0.237 OA
ATOM     78  O   UNL     1     -10.243   6.878   6.544  1.00  0.00    -0.744 OA
ENDBRANCH  74  75
ENDBRANCH  46  69
BRANCH  58  79
ATOM     79  C   UNL     1     -16.179   3.791  -2.792  1.00  0.00    -0.014 A 
ATOM     80  C   UNL     1     -16.858   5.014  -2.660  1.00  0.00     0.010 A 
ATOM     81  C   UNL     1     -16.921   2.600  -2.899  1.00  0.00     0.010 A 
ATOM     82  C   UNL     1     -18.255   5.043  -2.605  1.00  0.00     0.020 A 
ATOM     83  C   UNL     1     -18.318   2.628  -2.870  1.00  0.00     0.020 A 
ATOM     84  C   UNL     1     -18.975   3.849  -2.709  1.00  0.00     0.054 A 
BRANCH  84  85
ATOM     85  S   UNL     1     -20.788   3.916  -2.679  1.00  0.00     0.124 S 
ATOM     86  O   UNL     1     -21.059   4.158  -1.264  1.00  0.00    -0.237 OA
ATOM     87  O   UNL     1     -21.084   5.030  -3.575  1.00  0.00    -0.237 OA
ATOM     88  O   UNL     1     -21.191   2.602  -3.175  1.00  0.00    -0.744 OA
ENDBRANCH  84  85
ENDBRANCH  58  79
ENDBRANCH  32  33
ENDBRANCH  25  27
ENDBRANCH  24  25
ENDBRANCH  23  24
ENDBRANCH   1  23
TORSDOF 18
