REMARK SMILES Cc1ccc(-c2nc(NC(=O)[C@H]3[C@@H](C(=O)OCCOC(=O)c4ccc(-c5c6nc(c(-c7ccc(S(=O)(=O)[O-])cc7)c7ccc([nH]7)c(-c7ccc(S(=O)(=O)[O-])cc7)c7nc(c(-c8ccc(S(=O)(=O)[O-])cc8)c8ccc5[nH]8)C=C7)C=C6)cc4)[C@@H]4CC[C@H]3O4)sc2C)cc1
REMARK SMILES IDX 17 1 16 2 14 3 15 4 13 5 12 6 85 7 82 8 84 9 86 10 83 11
REMARK SMILES IDX 10 12 9 13 11 15 8 16 6 17 7 18 88 19 87 20 89 21 5 22 1 23
REMARK SMILES IDX 2 24 3 25 91 26 4 27 90 28 18 29 19 30 20 31 21 32 22 33
REMARK SMILES IDX 23 34 81 35 24 36 80 37 25 38 26 39 27 40 74 41 28 42 79 43
REMARK SMILES IDX 73 44 75 45 29 46 78 47 72 48 71 49 30 51 60 52 41 53 59 54
REMARK SMILES IDX 42 55 45 56 58 57 76 58 43 59 44 60 57 62 77 63 46 64 31 65
REMARK SMILES IDX 32 66 40 67 33 68 39 69 34 70 35 71 36 72 37 73 38 74 61 75
REMARK SMILES IDX 62 76 70 77 63 78 69 79 64 80 65 81 66 82 67 83 68 84 47 85
REMARK SMILES IDX 48 86 56 87 49 88 55 89 50 90 51 91 52 92 53 93 54 94
REMARK H PARENT 9 14 75 50 45 61
REMARK Flexibility Score: inf
ROOT
ATOM      1  C   UNL     1      -5.077   1.152  -2.229  1.00  0.00     0.274 C 
ENDROOT
BRANCH   1   2
ATOM      2  O   UNL     1      -4.952   0.284  -0.692  1.00  0.00    -0.462 OA
BRANCH   2   3
ATOM      3  C   UNL     1      -5.719   0.061   0.566  1.00  0.00     0.312 C 
ATOM      4  O   UNL     1      -5.426   0.590   1.589  1.00  0.00    -0.252 OA
BRANCH   3   5
ATOM      5  C   UNL     1      -6.891  -1.136   0.565  1.00  0.00     0.143 C 
ATOM      6  C   UNL     1      -7.042  -1.579  -0.838  1.00  0.00     0.124 C 
ATOM      7  C   UNL     1      -8.472  -1.995  -1.077  1.00  0.00     0.132 C 
ATOM      8  C   UNL     1      -8.460  -1.079   0.902  1.00  0.00     0.133 C 
ATOM      9  C   UNL     1      -8.892  -3.154  -0.192  1.00  0.00     0.035 C 
ATOM     10  O   UNL     1      -9.103  -0.889  -0.415  1.00  0.00    -0.373 OA
ATOM     11  C   UNL     1      -9.188  -2.417   1.113  1.00  0.00     0.036 C 
BRANCH   6  12
ATOM     12  C   UNL     1      -6.862  -0.384  -1.705  1.00  0.00     0.232 C 
ATOM     13  N   UNL     1      -7.131   0.986  -1.058  1.00  0.00    -0.302 N 
ATOM     14  H   UNL     1      -7.929   0.874  -0.493  1.00  0.00     0.172 HD
ATOM     15  O   UNL     1      -6.515  -0.736  -2.833  1.00  0.00    -0.274 OA
BRANCH  13  16
ATOM     16  C   UNL     1      -6.684   2.492  -0.904  1.00  0.00     0.190 A 
ATOM     17  C   UNL     1      -6.603   4.592  -0.022  1.00  0.00     0.086 A 
ATOM     18  N   UNL     1      -6.115   3.221   0.079  1.00  0.00    -0.220 NA
ATOM     19  C   UNL     1      -7.766   4.606  -0.770  1.00  0.00     0.031 A 
ATOM     20  S   UNL     1      -7.311   3.658  -2.054  1.00  0.00    -0.101 S 
ATOM     21  C   UNL     1      -8.971   5.410  -0.968  1.00  0.00     0.059 C 
BRANCH  17  22
ATOM     22  C   UNL     1      -6.106   5.909   0.453  1.00  0.00     0.001 A 
ATOM     23  C   UNL     1      -6.223  10.050   1.784  1.00  0.00     0.044 C 
ATOM     24  C   UNL     1      -6.004   8.640   1.306  1.00  0.00    -0.051 A 
ATOM     25  C   UNL     1      -6.282   8.337  -0.018  1.00  0.00     0.004 A 
ATOM     26  C   UNL     1      -5.630   7.584   2.158  1.00  0.00     0.004 A 
ATOM     27  C   UNL     1      -6.288   7.005  -0.436  1.00  0.00     0.010 A 
ATOM     28  C   UNL     1      -5.689   6.223   1.741  1.00  0.00     0.010 A 
ENDBRANCH  17  22
ENDBRANCH  13  16
ENDBRANCH   6  12
ENDBRANCH   3   5
ENDBRANCH   2   3
ENDBRANCH   1   2
BRANCH   1  29
ATOM     29  C   UNL     1      -6.574   1.453  -3.376  1.00  0.00     0.275 C 
BRANCH  29  30
ATOM     30  O   UNL     1      -8.356   1.422  -2.993  1.00  0.00    -0.458 OA
BRANCH  30  31
ATOM     31  C   UNL     1      -9.692   1.616  -2.299  1.00  0.00     0.338 C 
ATOM     32  O   UNL     1     -10.683   1.242  -2.928  1.00  0.00    -0.246 OA
BRANCH  31  33
ATOM     33  C   UNL     1     -10.008   2.117  -0.750  1.00  0.00     0.060 A 
ATOM     34  C   UNL     1     -11.110   2.736  -0.137  1.00  0.00     0.016 A 
ATOM     35  C   UNL     1      -9.143   1.809   0.253  1.00  0.00     0.016 A 
ATOM     36  C   UNL     1     -11.080   3.195   1.287  1.00  0.00     0.010 A 
ATOM     37  C   UNL     1      -8.962   2.368   1.489  1.00  0.00     0.010 A 
ATOM     38  C   UNL     1      -9.924   3.082   2.085  1.00  0.00    -0.014 A 
BRANCH  38  39
ATOM     39  C   UNL     1      -9.351   3.766   3.277  1.00  0.00     0.031 A 
ATOM     40  C   UNL     1      -8.618   3.065   4.404  1.00  0.00     0.074 A 
ATOM     41  C   UNL     1      -9.007   5.046   3.018  1.00  0.00     0.049 A 
ATOM     42  N   UNL     1      -8.826   3.243   5.675  1.00  0.00    -0.248 NA
ATOM     43  C   UNL     1      -7.516   2.106   4.180  1.00  0.00     0.031 C 
ATOM     44  C   UNL     1      -8.226   6.032   3.736  1.00  0.00     0.029 A 
ATOM     45  N   UNL     1      -9.397   5.750   1.884  1.00  0.00    -0.354 N 
ATOM     46  C   UNL     1      -7.705   2.720   6.326  1.00  0.00     0.074 A 
ATOM     47  C   UNL     1      -7.107   1.793   5.408  1.00  0.00     0.031 C 
ATOM     48  C   UNL     1      -8.557   7.258   3.265  1.00  0.00     0.029 A 
ATOM     49  C   UNL     1      -9.528   7.102   2.178  1.00  0.00     0.049 A 
ATOM     50  H   UNL     1      -9.557   5.348   1.000  1.00  0.00     0.167 HD
ATOM     51  C   UNL     1      -7.000   3.408   7.283  1.00  0.00     0.031 A 
ATOM     52  C   UNL     1     -10.796   7.595   2.122  1.00  0.00     0.031 A 
ATOM     53  C   UNL     1      -7.408   4.826   7.293  1.00  0.00     0.049 A 
ATOM     54  C   UNL     1     -11.300   7.593   3.554  1.00  0.00     0.074 A 
ATOM     55  C   UNL     1      -6.733   6.015   7.068  1.00  0.00     0.029 A 
ATOM     56  N   UNL     1      -8.767   5.158   7.236  1.00  0.00    -0.354 N 
ATOM     57  N   UNL     1     -10.819   6.797   4.485  1.00  0.00    -0.248 NA
ATOM     58  C   UNL     1     -12.122   8.653   4.118  1.00  0.00     0.031 C 
ATOM     59  C   UNL     1      -7.702   7.032   6.791  1.00  0.00     0.029 A 
ATOM     60  C   UNL     1      -8.973   6.466   6.830  1.00  0.00     0.049 A 
ATOM     61  H   UNL     1      -9.494   4.532   7.458  1.00  0.00     0.167 HD
ATOM     62  C   UNL     1     -11.003   7.365   5.713  1.00  0.00     0.074 A 
ATOM     63  C   UNL     1     -11.913   8.473   5.437  1.00  0.00     0.031 C 
ATOM     64  C   UNL     1     -10.323   7.043   6.861  1.00  0.00     0.031 A 
BRANCH  51  65
ATOM     65  C   UNL     1      -5.699   2.839   7.905  1.00  0.00    -0.014 A 
ATOM     66  C   UNL     1      -4.738   3.658   8.532  1.00  0.00     0.010 A 
ATOM     67  C   UNL     1      -5.407   1.449   7.947  1.00  0.00     0.010 A 
ATOM     68  C   UNL     1      -3.543   3.142   9.092  1.00  0.00     0.020 A 
ATOM     69  C   UNL     1      -4.198   0.923   8.453  1.00  0.00     0.020 A 
ATOM     70  C   UNL     1      -3.272   1.775   9.038  1.00  0.00     0.054 A 
BRANCH  70  71
ATOM     71  S   UNL     1      -1.750   1.118   9.792  1.00  0.00     0.124 S 
ATOM     72  O   UNL     1      -0.703   1.913   9.156  1.00  0.00    -0.237 OA
ATOM     73  O   UNL     1      -1.965   1.383  11.212  1.00  0.00    -0.237 OA
ATOM     74  O   UNL     1      -1.757  -0.296   9.420  1.00  0.00    -0.744 OA
ENDBRANCH  70  71
ENDBRANCH  51  65
BRANCH  52  75
ATOM     75  C   UNL     1     -11.431   7.467   0.743  1.00  0.00    -0.014 A 
ATOM     76  C   UNL     1     -10.822   8.242  -0.285  1.00  0.00     0.010 A 
ATOM     77  C   UNL     1     -12.255   6.413   0.295  1.00  0.00     0.010 A 
ATOM     78  C   UNL     1     -10.899   7.907  -1.658  1.00  0.00     0.020 A 
ATOM     79  C   UNL     1     -12.335   6.062  -1.091  1.00  0.00     0.020 A 
ATOM     80  C   UNL     1     -11.616   6.783  -2.056  1.00  0.00     0.054 A 
BRANCH  80  81
ATOM     81  S   UNL     1     -11.243   6.049  -3.719  1.00  0.00     0.124 S 
ATOM     82  O   UNL     1     -12.167   6.752  -4.599  1.00  0.00    -0.237 OA
ATOM     83  O   UNL     1      -9.830   6.380  -3.915  1.00  0.00    -0.237 OA
ATOM     84  O   UNL     1     -11.510   4.629  -3.509  1.00  0.00    -0.744 OA
ENDBRANCH  80  81
ENDBRANCH  52  75
BRANCH  64  85
ATOM     85  C   UNL     1     -10.888   7.284   8.238  1.00  0.00    -0.014 A 
ATOM     86  C   UNL     1     -12.244   7.541   8.470  1.00  0.00     0.010 A 
ATOM     87  C   UNL     1     -10.076   7.003   9.367  1.00  0.00     0.010 A 
ATOM     88  C   UNL     1     -12.758   7.551   9.767  1.00  0.00     0.020 A 
ATOM     89  C   UNL     1     -10.593   6.937  10.654  1.00  0.00     0.020 A 
ATOM     90  C   UNL     1     -11.932   7.234  10.846  1.00  0.00     0.054 A 
BRANCH  90  91
ATOM     91  S   UNL     1     -12.643   7.139  12.498  1.00  0.00     0.124 S 
ATOM     92  O   UNL     1     -12.654   8.545  12.894  1.00  0.00    -0.237 OA
ATOM     93  O   UNL     1     -13.955   6.545  12.250  1.00  0.00    -0.237 OA
ATOM     94  O   UNL     1     -11.709   6.287  13.229  1.00  0.00    -0.744 OA
ENDBRANCH  90  91
ENDBRANCH  64  85
ENDBRANCH  38  39
ENDBRANCH  31  33
ENDBRANCH  30  31
ENDBRANCH  29  30
ENDBRANCH   1  29
TORSDOF 17
