REMARK SMILES C[C@H]1CCC[C@H](C)N1C(=O)C[N@@H+](CC(=O)OCCOC(=O)c1ccc(-c2c3nc(c(-c4ccc(S(=O)(=O)[O-])cc4)c4ccc([nH]4)c(-c4ccc(S(=O)(=O)[O-])cc4)c4nc(c(-c5ccc(S(=O)(=O)[O-])cc5)c5ccc2[nH]5)C=C4)C=C3)cc1)C(C)(C)C
REMARK SMILES IDX 17 1 16 2 14 3 15 4 13 5 12 6 11 8 9 9 1 10 2 11 3 12 8 13
REMARK SMILES IDX 4 14 6 15 5 16 7 17 10 18 82 19 83 20 84 21 85 22 18 23
REMARK SMILES IDX 19 24 20 25 21 26 22 27 23 28 81 29 24 30 80 31 25 32 26 33
REMARK SMILES IDX 27 34 74 35 28 36 79 37 73 38 75 39 29 40 78 41 72 42 71 43
REMARK SMILES IDX 30 45 60 46 41 47 59 48 42 49 45 50 58 51 76 52 43 53 44 54
REMARK SMILES IDX 57 56 77 57 46 58 31 59 32 60 40 61 33 62 39 63 34 64 35 65
REMARK SMILES IDX 36 66 37 67 38 68 61 69 62 70 70 71 63 72 69 73 64 74 65 75
REMARK SMILES IDX 66 76 67 77 68 78 47 79 48 80 56 81 49 82 55 83 50 84 51 85
REMARK SMILES IDX 52 86 53 87 54 88
REMARK H PARENT 12 7 75 44 45 55
REMARK Flexibility Score: inf
ROOT
ATOM      1  C   UNL     1      -6.095   2.219  -3.020  1.00  0.00     0.274 C 
ENDROOT
BRANCH   1   2
ATOM      2  O   UNL     1      -4.708   1.819  -3.008  1.00  0.00    -0.458 OA
BRANCH   2   3
ATOM      3  C   UNL     1      -4.487   0.487  -2.940  1.00  0.00     0.361 C 
ATOM      4  O   UNL     1      -5.389  -0.343  -2.827  1.00  0.00    -0.245 OA
BRANCH   3   5
ATOM      5  C   UNL     1      -3.036   0.028  -2.988  1.00  0.00     0.387 C 
BRANCH   5   6
ATOM      6  N   UNL     1      -1.902   0.991  -3.022  1.00  0.00    -0.314 N 
ATOM      7  H   UNL     1      -1.052   0.428  -2.989  1.00  0.00     0.349 HD
BRANCH   6   8
ATOM      8  C   UNL     1      -1.863   1.804  -1.795  1.00  0.00     0.364 C 
BRANCH   8   9
ATOM      9  C   UNL     1      -0.483   2.316  -1.377  1.00  0.00     0.278 C 
ATOM     10  C   UNL     1      -0.480  -0.835  -0.861  1.00  0.00     0.031 C 
ATOM     11  C   UNL     1       0.757   0.042  -0.944  1.00  0.00     0.082 C 
ATOM     12  C   UNL     1       1.772  -0.632  -1.888  1.00  0.00     0.025 C 
ATOM     13  N   UNL     1       0.642   1.497  -1.240  1.00  0.00    -0.332 N 
ATOM     14  C   UNL     1       3.124   0.071  -1.877  1.00  0.00     0.004 C 
ATOM     15  C   UNL     1       1.934   2.222  -1.205  1.00  0.00     0.082 C 
ATOM     16  C   UNL     1       2.971   1.564  -2.127  1.00  0.00     0.025 C 
ATOM     17  C   UNL     1       2.450   2.403   0.225  1.00  0.00     0.031 C 
ATOM     18  O   UNL     1      -0.392   3.536  -1.159  1.00  0.00    -0.268 OA
ENDBRANCH   8   9
ENDBRANCH   6   8
BRANCH   6  19
ATOM     19  C   UNL     1      -1.517   1.603  -4.325  1.00  0.00     0.090 C 
ATOM     20  C   UNL     1      -2.211   2.941  -4.646  1.00  0.00     0.078 C 
ATOM     21  C   UNL     1       0.004   1.883  -4.380  1.00  0.00     0.078 C 
ATOM     22  C   UNL     1      -1.744   0.620  -5.499  1.00  0.00     0.078 C 
ENDBRANCH   6  19
ENDBRANCH   5   6
ENDBRANCH   3   5
ENDBRANCH   2   3
ENDBRANCH   1   2
BRANCH   1  23
ATOM     23  C   UNL     1      -6.616   2.421  -4.443  1.00  0.00     0.275 C 
BRANCH  23  24
ATOM     24  O   UNL     1      -6.434   1.230  -5.229  1.00  0.00    -0.458 OA
BRANCH  24  25
ATOM     25  C   UNL     1      -5.493   1.330  -6.192  1.00  0.00     0.338 C 
ATOM     26  O   UNL     1      -4.832   2.321  -6.476  1.00  0.00    -0.246 OA
BRANCH  25  27
ATOM     27  C   UNL     1      -5.339   0.070  -6.931  1.00  0.00     0.060 A 
ATOM     28  C   UNL     1      -4.922  -1.101  -6.292  1.00  0.00     0.016 A 
ATOM     29  C   UNL     1      -5.443   0.119  -8.323  1.00  0.00     0.016 A 
ATOM     30  C   UNL     1      -4.539  -2.203  -7.056  1.00  0.00     0.010 A 
ATOM     31  C   UNL     1      -5.133  -1.008  -9.079  1.00  0.00     0.010 A 
ATOM     32  C   UNL     1      -4.659  -2.171  -8.454  1.00  0.00    -0.014 A 
BRANCH  32  33
ATOM     33  C   UNL     1      -4.401  -3.380  -9.271  1.00  0.00     0.031 A 
ATOM     34  C   UNL     1      -3.269  -3.432 -10.257  1.00  0.00     0.074 A 
ATOM     35  C   UNL     1      -5.264  -4.407  -9.166  1.00  0.00     0.049 A 
ATOM     36  N   UNL     1      -3.015  -4.337 -11.167  1.00  0.00    -0.248 NA
ATOM     37  C   UNL     1      -2.300  -2.324 -10.224  1.00  0.00     0.031 C 
ATOM     38  C   UNL     1      -6.400  -4.462  -8.241  1.00  0.00     0.029 A 
ATOM     39  N   UNL     1      -5.337  -5.590  -9.854  1.00  0.00    -0.354 N 
ATOM     40  C   UNL     1      -1.877  -3.901 -11.835  1.00  0.00     0.074 A 
ATOM     41  C   UNL     1      -1.485  -2.648 -11.222  1.00  0.00     0.031 C 
ATOM     42  C   UNL     1      -7.053  -5.619  -8.415  1.00  0.00     0.029 A 
ATOM     43  C   UNL     1      -6.423  -6.354  -9.505  1.00  0.00     0.049 A 
ATOM     44  H   UNL     1      -4.676  -5.864 -10.531  1.00  0.00     0.167 HD
ATOM     45  C   UNL     1      -1.230  -4.490 -12.870  1.00  0.00     0.031 A 
ATOM     46  C   UNL     1      -6.894  -7.499 -10.030  1.00  0.00     0.031 A 
ATOM     47  C   UNL     1      -1.635  -5.734 -13.473  1.00  0.00     0.049 A 
ATOM     48  C   UNL     1      -6.180  -8.113 -11.193  1.00  0.00     0.074 A 
ATOM     49  C   UNL     1      -1.037  -6.423 -14.516  1.00  0.00     0.029 A 
ATOM     50  N   UNL     1      -2.743  -6.476 -13.091  1.00  0.00    -0.354 N 
ATOM     51  N   UNL     1      -5.112  -7.680 -11.818  1.00  0.00    -0.248 NA
ATOM     52  C   UNL     1      -6.740  -9.359 -11.728  1.00  0.00     0.031 C 
ATOM     53  C   UNL     1      -1.805  -7.563 -14.786  1.00  0.00     0.029 A 
ATOM     54  C   UNL     1      -2.859  -7.603 -13.888  1.00  0.00     0.049 A 
ATOM     55  H   UNL     1      -3.357  -6.236 -12.359  1.00  0.00     0.167 HD
ATOM     56  C   UNL     1      -4.872  -8.600 -12.828  1.00  0.00     0.074 A 
ATOM     57  C   UNL     1      -5.892  -9.624 -12.714  1.00  0.00     0.031 C 
ATOM     58  C   UNL     1      -3.897  -8.594 -13.770  1.00  0.00     0.031 A 
BRANCH  45  59
ATOM     59  C   UNL     1      -0.033  -3.781 -13.445  1.00  0.00    -0.014 A 
ATOM     60  C   UNL     1       1.215  -3.818 -12.798  1.00  0.00     0.010 A 
ATOM     61  C   UNL     1      -0.142  -3.126 -14.685  1.00  0.00     0.010 A 
ATOM     62  C   UNL     1       2.327  -3.190 -13.370  1.00  0.00     0.020 A 
ATOM     63  C   UNL     1       0.971  -2.510 -15.267  1.00  0.00     0.020 A 
ATOM     64  C   UNL     1       2.196  -2.534 -14.599  1.00  0.00     0.054 A 
BRANCH  64  65
ATOM     65  S   UNL     1       3.659  -1.753 -15.339  1.00  0.00     0.124 S 
ATOM     66  O   UNL     1       3.761  -0.517 -14.566  1.00  0.00    -0.237 OA
ATOM     67  O   UNL     1       4.712  -2.735 -15.093  1.00  0.00    -0.237 OA
ATOM     68  O   UNL     1       3.287  -1.582 -16.741  1.00  0.00    -0.744 OA
ENDBRANCH  64  65
ENDBRANCH  45  59
BRANCH  46  69
ATOM     69  C   UNL     1      -8.133  -8.092  -9.469  1.00  0.00    -0.014 A 
ATOM     70  C   UNL     1      -8.065  -9.204  -8.615  1.00  0.00     0.010 A 
ATOM     71  C   UNL     1      -9.379  -7.483  -9.712  1.00  0.00     0.010 A 
ATOM     72  C   UNL     1      -9.222  -9.692  -8.002  1.00  0.00     0.020 A 
ATOM     73  C   UNL     1     -10.533  -7.955  -9.084  1.00  0.00     0.020 A 
ATOM     74  C   UNL     1     -10.447  -9.060  -8.235  1.00  0.00     0.054 A 
BRANCH  74  75
ATOM     75  S   UNL     1     -11.922  -9.632  -7.346  1.00  0.00     0.124 S 
ATOM     76  O   UNL     1     -12.369 -10.739  -8.185  1.00  0.00    -0.237 OA
ATOM     77  O   UNL     1     -11.389 -10.005  -6.038  1.00  0.00    -0.237 OA
ATOM     78  O   UNL     1     -12.789  -8.456  -7.341  1.00  0.00    -0.744 OA
ENDBRANCH  74  75
ENDBRANCH  46  69
BRANCH  58  79
ATOM     79  C   UNL     1      -3.904  -9.734 -14.746  1.00  0.00    -0.014 A 
ATOM     80  C   UNL     1      -4.815  -9.753 -15.817  1.00  0.00     0.010 A 
ATOM     81  C   UNL     1      -2.992 -10.792 -14.593  1.00  0.00     0.010 A 
ATOM     82  C   UNL     1      -4.837 -10.834 -16.702  1.00  0.00     0.020 A 
ATOM     83  C   UNL     1      -3.000 -11.866 -15.486  1.00  0.00     0.020 A 
ATOM     84  C   UNL     1      -3.935 -11.888 -16.524  1.00  0.00     0.054 A 
BRANCH  84  85
ATOM     85  S   UNL     1      -3.967 -13.278 -17.689  1.00  0.00     0.124 S 
ATOM     86  O   UNL     1      -5.077 -14.076 -17.176  1.00  0.00    -0.237 OA
ATOM     87  O   UNL     1      -4.205 -12.623 -18.973  1.00  0.00    -0.237 OA
ATOM     88  O   UNL     1      -2.644 -13.880 -17.541  1.00  0.00    -0.744 OA
ENDBRANCH  84  85
ENDBRANCH  58  79
ENDBRANCH  32  33
ENDBRANCH  25  27
ENDBRANCH  24  25
ENDBRANCH  23  24
ENDBRANCH   1  23
TORSDOF 18
