REMARK SMILES COc1ccc(CCN2C(=O)C[C@@H](C(=O)OCCOC(=O)c3ccc(-c4c5nc(c(-c6ccc(S(=O)(=O)[O-])cc6)c6ccc([nH]6)c(-c6ccc(S(=O)(=O)[O-])cc6)c6nc(c(-c7ccc(S(=O)(=O)[O-])cc7)c7ccc4[nH]7)C=C6)C=C5)cc3)S/C2=[NH+]\c2ccc(F)cc2)cc1OC
REMARK SMILES IDX 17 1 16 2 14 3 15 4 13 5 9 6 10 7 83 8 11 9 12 10 82 11
REMARK SMILES IDX 84 12 8 14 7 15 6 16 3 17 4 18 93 19 5 20 92 21 2 22 1 23
REMARK SMILES IDX 94 24 95 25 85 26 86 27 91 28 87 29 90 30 88 31 89 32 18 33
REMARK SMILES IDX 19 34 20 35 21 36 22 37 23 38 81 39 24 40 80 41 25 42 26 43
REMARK SMILES IDX 27 44 74 45 28 46 79 47 73 48 75 49 29 50 78 51 72 52 71 53
REMARK SMILES IDX 30 55 60 56 41 57 59 58 42 59 45 60 58 61 76 62 43 63 44 64
REMARK SMILES IDX 57 66 77 67 46 68 31 69 32 70 40 71 33 72 39 73 34 74 35 75
REMARK SMILES IDX 36 76 37 77 38 78 61 79 62 80 70 81 63 82 69 83 64 84 65 85
REMARK SMILES IDX 66 86 67 87 68 88 47 89 48 90 56 91 49 92 55 93 50 94 51 95
REMARK SMILES IDX 52 96 53 97 54 98
REMARK H PARENT 84 13 75 54 45 65
REMARK Flexibility Score: inf
ROOT
ATOM      1  C   UNL     1      -3.494  -0.396   3.206  1.00  0.00     0.274 C 
ENDROOT
BRANCH   1   2
ATOM      2  O   UNL     1      -2.570  -0.770   4.249  1.00  0.00    -0.461 OA
BRANCH   2   3
ATOM      3  C   UNL     1      -2.630  -0.045   5.407  1.00  0.00     0.320 C 
ATOM      4  O   UNL     1      -3.288   0.977   5.552  1.00  0.00    -0.251 OA
BRANCH   3   5
ATOM      5  C   UNL     1      -1.728  -0.609   6.503  1.00  0.00     0.180 C 
ATOM      6  N   UNL     1       0.724  -2.215   6.912  1.00  0.00    -0.191 N 
ATOM      7  C   UNL     1       0.736  -0.830   6.978  1.00  0.00     0.311 C 
ATOM      8  C   UNL     1      -0.393  -3.030   7.064  1.00  0.00     0.319 C 
ATOM      9  O   UNL     1       1.635  -0.195   7.532  1.00  0.00    -0.247 OA
ATOM     10  C   UNL     1      -0.342  -0.103   6.244  1.00  0.00     0.155 C 
ATOM     11  S   UNL     1      -1.937  -2.392   6.605  1.00  0.00    -0.022 SA
ATOM     12  N   UNL     1      -0.228  -4.257   7.460  1.00  0.00    -0.235 N 
ATOM     13  H   UNL     1       0.682  -4.586   7.644  1.00  0.00     0.313 HD
BRANCH   6  14
ATOM     14  C   UNL     1       2.036  -2.857   6.799  1.00  0.00     0.251 C 
BRANCH  14  15
ATOM     15  C   UNL     1       2.208  -3.560   5.431  1.00  0.00     0.082 C 
BRANCH  15  16
ATOM     16  C   UNL     1       1.981  -2.666   4.226  1.00  0.00    -0.040 A 
ATOM     17  C   UNL     1       1.526  -0.919   2.044  1.00  0.00     0.160 A 
ATOM     18  C   UNL     1       0.462  -1.575   2.666  1.00  0.00     0.051 A 
ATOM     19  C   UNL     1       2.833  -1.168   2.493  1.00  0.00     0.160 A 
ATOM     20  C   UNL     1       0.692  -2.467   3.718  1.00  0.00     0.008 A 
ATOM     21  C   UNL     1       3.046  -2.007   3.600  1.00  0.00     0.054 A 
BRANCH  17  22
ATOM     22  O   UNL     1       1.337   0.016   1.062  1.00  0.00    -0.493 OA
ATOM     23  C   UNL     1       0.236  -0.203   0.188  1.00  0.00     0.278 C 
ENDBRANCH  17  22
BRANCH  19  24
ATOM     24  O   UNL     1       3.986  -0.648   1.958  1.00  0.00    -0.493 OA
ATOM     25  C   UNL     1       3.967  -0.417   0.552  1.00  0.00     0.278 C 
ENDBRANCH  19  24
ENDBRANCH  15  16
ENDBRANCH  14  15
ENDBRANCH   6  14
BRANCH  12  26
ATOM     26  C   UNL     1      -1.321  -5.124   7.632  1.00  0.00     0.125 A 
ATOM     27  C   UNL     1      -2.029  -5.156   8.842  1.00  0.00     0.055 A 
ATOM     28  C   UNL     1      -1.694  -5.991   6.599  1.00  0.00     0.055 A 
ATOM     29  C   UNL     1      -3.127  -6.008   8.998  1.00  0.00     0.043 A 
ATOM     30  C   UNL     1      -2.790  -6.843   6.753  1.00  0.00     0.043 A 
ATOM     31  C   UNL     1      -3.500  -6.838   7.948  1.00  0.00     0.123 A 
ATOM     32  F   UNL     1      -4.555  -7.650   8.089  1.00  0.00    -0.207 F 
ENDBRANCH  12  26
ENDBRANCH   3   5
ENDBRANCH   2   3
ENDBRANCH   1   2
BRANCH   1  33
ATOM     33  C   UNL     1      -4.687  -1.347   3.200  1.00  0.00     0.275 C 
BRANCH  33  34
ATOM     34  O   UNL     1      -5.354  -1.255   4.468  1.00  0.00    -0.458 OA
BRANCH  34  35
ATOM     35  C   UNL     1      -5.663  -2.428   5.061  1.00  0.00     0.338 C 
ATOM     36  O   UNL     1      -5.535  -3.552   4.599  1.00  0.00    -0.246 OA
BRANCH  35  37
ATOM     37  C   UNL     1      -6.196  -2.143   6.401  1.00  0.00     0.060 A 
ATOM     38  C   UNL     1      -5.366  -1.562   7.360  1.00  0.00     0.016 A 
ATOM     39  C   UNL     1      -7.498  -2.509   6.728  1.00  0.00     0.016 A 
ATOM     40  C   UNL     1      -5.801  -1.404   8.668  1.00  0.00     0.010 A 
ATOM     41  C   UNL     1      -7.965  -2.273   8.023  1.00  0.00     0.010 A 
ATOM     42  C   UNL     1      -7.112  -1.744   9.009  1.00  0.00    -0.014 A 
BRANCH  42  43
ATOM     43  C   UNL     1      -7.576  -1.592  10.409  1.00  0.00     0.031 A 
ATOM     44  C   UNL     1      -7.951  -2.814  11.198  1.00  0.00     0.074 A 
ATOM     45  C   UNL     1      -7.641  -0.370  10.973  1.00  0.00     0.049 A 
ATOM     46  N   UNL     1      -8.535  -2.894  12.364  1.00  0.00    -0.248 NA
ATOM     47  C   UNL     1      -7.633  -4.117  10.591  1.00  0.00     0.031 C 
ATOM     48  C   UNL     1      -7.229   0.885  10.336  1.00  0.00     0.029 A 
ATOM     49  N   UNL     1      -8.075   0.017  12.215  1.00  0.00    -0.354 N 
ATOM     50  C   UNL     1      -8.701  -4.252  12.609  1.00  0.00     0.074 A 
ATOM     51  C   UNL     1      -8.155  -4.959  11.471  1.00  0.00     0.031 C 
ATOM     52  C   UNL     1      -7.409   1.896  11.200  1.00  0.00     0.029 A 
ATOM     53  C   UNL     1      -8.020   1.376  12.418  1.00  0.00     0.049 A 
ATOM     54  H   UNL     1      -8.395  -0.618  12.896  1.00  0.00     0.167 HD
ATOM     55  C   UNL     1      -9.264  -4.850  13.685  1.00  0.00     0.031 A 
ATOM     56  C   UNL     1      -8.452   2.123  13.452  1.00  0.00     0.031 A 
ATOM     57  C   UNL     1      -9.785  -4.135  14.819  1.00  0.00     0.049 A 
ATOM     58  C   UNL     1      -9.128   1.441  14.608  1.00  0.00     0.074 A 
ATOM     59  C   UNL     1     -10.391  -4.643  15.955  1.00  0.00     0.029 A 
ATOM     60  N   UNL     1      -9.747  -2.756  14.968  1.00  0.00    -0.354 N 
ATOM     61  N   UNL     1      -9.341   0.160  14.796  1.00  0.00    -0.248 NA
ATOM     62  C   UNL     1      -9.633   2.304  15.683  1.00  0.00     0.031 C 
ATOM     63  C   UNL     1     -10.752  -3.567  16.774  1.00  0.00     0.029 A 
ATOM     64  C   UNL     1     -10.328  -2.394  16.171  1.00  0.00     0.049 A 
ATOM     65  H   UNL     1      -9.364  -2.128  14.313  1.00  0.00     0.167 HD
ATOM     66  C   UNL     1      -9.994   0.062  16.018  1.00  0.00     0.074 A 
ATOM     67  C   UNL     1     -10.125   1.411  16.532  1.00  0.00     0.031 C 
ATOM     68  C   UNL     1     -10.447  -1.044  16.659  1.00  0.00     0.031 A 
BRANCH  55  69
ATOM     69  C   UNL     1      -9.389  -6.349  13.658  1.00  0.00    -0.014 A 
ATOM     70  C   UNL     1      -8.271  -7.181  13.842  1.00  0.00     0.010 A 
ATOM     71  C   UNL     1     -10.655  -6.933  13.469  1.00  0.00     0.010 A 
ATOM     72  C   UNL     1      -8.411  -8.571  13.802  1.00  0.00     0.020 A 
ATOM     73  C   UNL     1     -10.803  -8.322  13.451  1.00  0.00     0.020 A 
ATOM     74  C   UNL     1      -9.677  -9.133  13.602  1.00  0.00     0.054 A 
BRANCH  74  75
ATOM     75  S   UNL     1      -9.838 -10.940  13.578  1.00  0.00     0.124 S 
ATOM     76  O   UNL     1      -9.302 -11.273  12.260  1.00  0.00    -0.237 OA
ATOM     77  O   UNL     1      -9.016 -11.353  14.712  1.00  0.00    -0.237 OA
ATOM     78  O   UNL     1     -11.273 -11.162  13.741  1.00  0.00    -0.744 OA
ENDBRANCH  74  75
ENDBRANCH  55  69
BRANCH  56  79
ATOM     79  C   UNL     1      -8.298   3.603  13.416  1.00  0.00    -0.014 A 
ATOM     80  C   UNL     1      -7.385   4.245  14.269  1.00  0.00     0.010 A 
ATOM     81  C   UNL     1      -9.052   4.376  12.514  1.00  0.00     0.010 A 
ATOM     82  C   UNL     1      -7.234   5.635  14.227  1.00  0.00     0.020 A 
ATOM     83  C   UNL     1      -8.885   5.761  12.450  1.00  0.00     0.020 A 
ATOM     84  C   UNL     1      -7.984   6.384  13.315  1.00  0.00     0.054 A 
BRANCH  84  85
ATOM     85  S   UNL     1      -7.730   8.179  13.233  1.00  0.00     0.124 S 
ATOM     86  O   UNL     1      -8.457   8.642  14.410  1.00  0.00    -0.237 OA
ATOM     87  O   UNL     1      -6.275   8.298  13.298  1.00  0.00    -0.237 OA
ATOM     88  O   UNL     1      -8.319   8.547  11.947  1.00  0.00    -0.744 OA
ENDBRANCH  84  85
ENDBRANCH  56  79
BRANCH  68  89
ATOM     89  C   UNL     1     -11.094  -0.841  18.000  1.00  0.00    -0.014 A 
ATOM     90  C   UNL     1     -12.398  -0.327  18.106  1.00  0.00     0.010 A 
ATOM     91  C   UNL     1     -10.403  -1.218  19.166  1.00  0.00     0.010 A 
ATOM     92  C   UNL     1     -12.990  -0.166  19.361  1.00  0.00     0.020 A 
ATOM     93  C   UNL     1     -11.001  -1.080  20.420  1.00  0.00     0.020 A 
ATOM     94  C   UNL     1     -12.287  -0.542  20.510  1.00  0.00     0.054 A 
BRANCH  94  95
ATOM     95  S   UNL     1     -13.091  -0.365  22.126  1.00  0.00     0.124 S 
ATOM     96  O   UNL     1     -12.977   1.071  22.365  1.00  0.00    -0.237 OA
ATOM     97  O   UNL     1     -14.443  -0.855  21.870  1.00  0.00    -0.237 OA
ATOM     98  O   UNL     1     -12.286  -1.209  23.006  1.00  0.00    -0.744 OA
ENDBRANCH  94  95
ENDBRANCH  68  89
ENDBRANCH  42  43
ENDBRANCH  35  37
ENDBRANCH  34  35
ENDBRANCH  33  34
ENDBRANCH   1  33
TORSDOF 20
