REMARK SMILES O=C(OCCOC(=O)c1ccc2c(c1)[C@@H]1C=CC[C@@H]1[C@H](c1ccncc1)N2)c1ccc(-c2c3nc(c(-c4ccc(S(=O)(=O)[O-])cc4)c4ccc([nH]4)c(-c4ccc(S(=O)(=O)[O-])cc4)c4nc(c(-c5ccc(S(=O)(=O)[O-])cc5)c5ccc2[nH]5)C=C4)C=C3)cc1
REMARK SMILES IDX 4 1 3 2 2 3 1 4 28 5 29 6 87 7 30 8 86 9 31 10 32 11 33 12
REMARK SMILES IDX 80 13 34 14 85 15 79 16 81 17 35 18 84 19 78 20 77 21 36 23
REMARK SMILES IDX 66 24 47 25 65 26 48 27 51 28 64 29 82 30 49 31 50 32 63 34
REMARK SMILES IDX 83 35 52 36 37 37 38 38 46 39 39 40 45 41 40 42 41 43 42 44
REMARK SMILES IDX 43 45 44 46 67 47 68 48 76 49 69 50 75 51 70 52 71 53 72 54
REMARK SMILES IDX 73 55 74 56 53 57 54 58 62 59 55 60 61 61 56 62 57 63 58 64
REMARK SMILES IDX 59 65 60 66 5 67 6 68 7 69 8 70 9 71 10 72 14 73 11 74 13 75
REMARK SMILES IDX 12 76 15 77 27 78 16 79 19 80 20 81 17 83 18 84 21 85 22 86
REMARK SMILES IDX 26 87 23 88 25 89 24 90
REMARK H PARENT 81 22 51 33 27 82
REMARK Flexibility Score: inf
ROOT
ATOM      1  C   UNL     1       3.914  -0.568  -1.446  1.00  0.00     0.275 C 
ENDROOT
BRANCH   1   2
ATOM      2  O   UNL     1       2.806  -0.915  -0.596  1.00  0.00    -0.458 OA
BRANCH   2   3
ATOM      3  C   UNL     1       2.608  -0.669   0.721  1.00  0.00     0.338 C 
ATOM      4  O   UNL     1       1.615  -1.139   1.273  1.00  0.00    -0.246 OA
BRANCH   3   5
ATOM      5  C   UNL     1       3.477   0.254   1.512  1.00  0.00     0.060 A 
ATOM      6  C   UNL     1       4.846   0.434   1.310  1.00  0.00     0.016 A 
ATOM      7  C   UNL     1       2.859   0.984   2.543  1.00  0.00     0.016 A 
ATOM      8  C   UNL     1       5.564   1.374   2.044  1.00  0.00     0.010 A 
ATOM      9  C   UNL     1       3.573   1.935   3.281  1.00  0.00     0.010 A 
ATOM     10  C   UNL     1       4.940   2.125   3.038  1.00  0.00    -0.014 A 
BRANCH  10  11
ATOM     11  C   UNL     1       5.791   2.912   3.960  1.00  0.00     0.031 A 
ATOM     12  C   UNL     1       6.027   2.349   5.332  1.00  0.00     0.074 A 
ATOM     13  C   UNL     1       6.459   4.010   3.551  1.00  0.00     0.049 A 
ATOM     14  N   UNL     1       6.739   2.844   6.306  1.00  0.00    -0.248 NA
ATOM     15  C   UNL     1       5.447   1.024   5.622  1.00  0.00     0.031 C 
ATOM     16  C   UNL     1       6.465   4.549   2.189  1.00  0.00     0.029 A 
ATOM     17  N   UNL     1       7.220   4.911   4.260  1.00  0.00    -0.354 N 
ATOM     18  C   UNL     1       6.776   1.852   7.276  1.00  0.00     0.074 A 
ATOM     19  C   UNL     1       5.916   0.780   6.835  1.00  0.00     0.031 C 
ATOM     20  C   UNL     1       7.072   5.752   2.193  1.00  0.00     0.029 A 
ATOM     21  C   UNL     1       7.455   6.077   3.558  1.00  0.00     0.049 A 
ATOM     22  H   UNL     1       7.560   4.743   5.168  1.00  0.00     0.167 HD
ATOM     23  C   UNL     1       7.527   1.815   8.399  1.00  0.00     0.031 A 
ATOM     24  C   UNL     1       7.802   7.298   4.013  1.00  0.00     0.031 A 
ATOM     25  C   UNL     1       8.338   2.917   8.833  1.00  0.00     0.049 A 
ATOM     26  C   UNL     1       8.268   7.398   5.433  1.00  0.00     0.074 A 
ATOM     27  C   UNL     1       9.169   3.003   9.933  1.00  0.00     0.029 A 
ATOM     28  N   UNL     1       8.389   4.147   8.191  1.00  0.00    -0.354 N 
ATOM     29  N   UNL     1       8.313   6.457   6.345  1.00  0.00    -0.248 NA
ATOM     30  C   UNL     1       8.819   8.689   5.855  1.00  0.00     0.031 C 
ATOM     31  C   UNL     1       9.666   4.310   9.995  1.00  0.00     0.029 A 
ATOM     32  C   UNL     1       9.202   5.015   8.894  1.00  0.00     0.049 A 
ATOM     33  H   UNL     1       7.915   4.368   7.356  1.00  0.00     0.167 HD
ATOM     34  C   UNL     1       9.023   7.001   7.404  1.00  0.00     0.074 A 
ATOM     35  C   UNL     1       9.305   8.380   7.050  1.00  0.00     0.031 C 
ATOM     36  C   UNL     1       9.473   6.382   8.524  1.00  0.00     0.031 A 
BRANCH  23  37
ATOM     37  C   UNL     1       7.489   0.549   9.208  1.00  0.00    -0.014 A 
ATOM     38  C   UNL     1       8.059  -0.641   8.715  1.00  0.00     0.010 A 
ATOM     39  C   UNL     1       6.871   0.541  10.469  1.00  0.00     0.010 A 
ATOM     40  C   UNL     1       7.972  -1.826   9.450  1.00  0.00     0.020 A 
ATOM     41  C   UNL     1       6.804  -0.637  11.218  1.00  0.00     0.020 A 
ATOM     42  C   UNL     1       7.340  -1.817  10.696  1.00  0.00     0.054 A 
BRANCH  42  43
ATOM     43  S   UNL     1       7.243  -3.366  11.633  1.00  0.00     0.124 S 
ATOM     44  O   UNL     1       6.271  -4.130  10.855  1.00  0.00    -0.237 OA
ATOM     45  O   UNL     1       8.617  -3.859  11.578  1.00  0.00    -0.237 OA
ATOM     46  O   UNL     1       6.789  -2.944  12.956  1.00  0.00    -0.744 OA
ENDBRANCH  42  43
ENDBRANCH  23  37
BRANCH  24  47
ATOM     47  C   UNL     1       7.655   8.522   3.174  1.00  0.00    -0.014 A 
ATOM     48  C   UNL     1       8.732   9.073   2.465  1.00  0.00     0.010 A 
ATOM     49  C   UNL     1       6.413   9.187   3.132  1.00  0.00     0.010 A 
ATOM     50  C   UNL     1       8.565  10.253   1.724  1.00  0.00     0.020 A 
ATOM     51  C   UNL     1       6.231  10.346   2.372  1.00  0.00     0.020 A 
ATOM     52  C   UNL     1       7.313  10.879   1.677  1.00  0.00     0.054 A 
BRANCH  52  53
ATOM     53  S   UNL     1       7.106  12.381   0.678  1.00  0.00     0.124 S 
ATOM     54  O   UNL     1       7.818  13.377   1.473  1.00  0.00    -0.237 OA
ATOM     55  O   UNL     1       7.738  12.008  -0.585  1.00  0.00    -0.237 OA
ATOM     56  O   UNL     1       5.656  12.553   0.613  1.00  0.00    -0.744 OA
ENDBRANCH  52  53
ENDBRANCH  24  47
BRANCH  36  57
ATOM     57  C   UNL     1      10.440   7.152   9.373  1.00  0.00    -0.014 A 
ATOM     58  C   UNL     1      10.041   8.238  10.168  1.00  0.00     0.010 A 
ATOM     59  C   UNL     1      11.789   6.747   9.378  1.00  0.00     0.010 A 
ATOM     60  C   UNL     1      10.987   8.932  10.924  1.00  0.00     0.020 A 
ATOM     61  C   UNL     1      12.728   7.413  10.160  1.00  0.00     0.020 A 
ATOM     62  C   UNL     1      12.324   8.515  10.915  1.00  0.00     0.054 A 
BRANCH  62  63
ATOM     63  S   UNL     1      13.526   9.408  11.934  1.00  0.00     0.124 S 
ATOM     64  O   UNL     1      13.714  10.638  11.171  1.00  0.00    -0.237 OA
ATOM     65  O   UNL     1      12.820   9.556  13.205  1.00  0.00    -0.237 OA
ATOM     66  O   UNL     1      14.681   8.514  11.970  1.00  0.00    -0.744 OA
ENDBRANCH  62  63
ENDBRANCH  36  57
ENDBRANCH  10  11
ENDBRANCH   3   5
ENDBRANCH   2   3
ENDBRANCH   1   2
BRANCH   1  67
ATOM     67  C   UNL     1       3.945   0.876  -1.966  1.00  0.00     0.275 C 
BRANCH  67  68
ATOM     68  O   UNL     1       3.507   1.871  -1.024  1.00  0.00    -0.458 OA
BRANCH  68  69
ATOM     69  C   UNL     1       2.184   2.166  -1.093  1.00  0.00     0.338 C 
ATOM     70  O   UNL     1       1.382   1.681  -1.880  1.00  0.00    -0.246 OA
BRANCH  69  71
ATOM     71  C   UNL     1       1.764   3.078  -0.005  1.00  0.00     0.060 A 
ATOM     72  C   UNL     1       0.664   2.697   0.768  1.00  0.00     0.018 A 
ATOM     73  C   UNL     1       2.365   4.318   0.220  1.00  0.00     0.022 A 
ATOM     74  C   UNL     1       0.164   3.549   1.759  1.00  0.00     0.027 A 
ATOM     75  C   UNL     1       1.828   5.201   1.193  1.00  0.00    -0.017 A 
ATOM     76  C   UNL     1       0.699   4.827   1.950  1.00  0.00     0.038 A 
ATOM     77  C   UNL     1       2.442   6.571   1.391  1.00  0.00     0.049 C 
ATOM     78  N   UNL     1       0.122   5.681   2.892  1.00  0.00    -0.378 N 
ATOM     79  C   UNL     1       3.874   6.513   1.809  1.00  0.00    -0.023 C 
ATOM     80  C   UNL     1       1.874   7.350   2.582  1.00  0.00     0.031 C 
ATOM     81  C   UNL     1       0.388   7.113   2.790  1.00  0.00     0.114 C 
ATOM     82  H   UNL     1      -0.451   5.326   3.608  1.00  0.00     0.161 HD
ATOM     83  C   UNL     1       4.016   6.682   3.129  1.00  0.00    -0.030 C 
ATOM     84  C   UNL     1       2.731   6.968   3.798  1.00  0.00     0.034 C 
BRANCH  81  85
ATOM     85  C   UNL     1      -0.058   7.935   3.995  1.00  0.00    -0.022 A 
ATOM     86  C   UNL     1      -0.003   9.338   3.896  1.00  0.00     0.026 A 
ATOM     87  C   UNL     1      -0.351   7.389   5.247  1.00  0.00     0.026 A 
ATOM     88  C   UNL     1      -0.208  10.112   5.027  1.00  0.00     0.111 A 
ATOM     89  C   UNL     1      -0.566   8.249   6.317  1.00  0.00     0.111 A 
ATOM     90  N   UNL     1      -0.508   9.597   6.234  1.00  0.00    -0.265 NA
ENDBRANCH  81  85
ENDBRANCH  69  71
ENDBRANCH  68  69
ENDBRANCH  67  68
ENDBRANCH   1  67
TORSDOF 15
