REMARK SMILES O=C(OCCOC(=O)c1ccc(S(=O)(=O)NC[C@H]2CCS(=O)(=O)C2)cc1)c1ccc(-c2c3nc(c(-c4ccc(S(=O)(=O)[O-])cc4)c4ccc([nH]4)c(-c4ccc(S(=O)(=O)[O-])cc4)c4nc(c(-c5ccc(S(=O)(=O)[O-])cc5)c5ccc2[nH]5)C=C4)C=C3)cc1
REMARK SMILES IDX 5 1 4 2 3 3 2 4 1 5 27 6 28 7 86 8 29 9 85 10 30 11 31 12
REMARK SMILES IDX 32 13 79 14 33 15 84 16 78 17 80 18 34 19 83 20 77 21 76 22
REMARK SMILES IDX 35 24 65 25 46 26 64 27 47 28 50 29 63 30 81 31 48 32 49 33
REMARK SMILES IDX 62 35 82 36 51 37 36 38 37 39 45 40 38 41 44 42 39 43 40 44
REMARK SMILES IDX 41 45 42 46 43 47 66 48 67 49 75 50 68 51 74 52 69 53 70 54
REMARK SMILES IDX 71 55 72 56 73 57 52 58 53 59 61 60 54 61 60 62 55 63 56 64
REMARK SMILES IDX 57 65 58 66 59 67 6 68 7 69 8 70 9 71 10 72 26 73 11 74
REMARK SMILES IDX 25 75 12 76 13 77 14 78 15 79 16 80 17 82 18 83 19 84 24 85
REMARK SMILES IDX 20 86 21 87 22 88 23 89
REMARK H PARENT 80 23 50 34 16 81
REMARK Flexibility Score: inf
ROOT
ATOM      1  C   UNL     1       0.828   4.457   1.036  1.00  0.00     0.275 C 
ENDROOT
BRANCH   1   2
ATOM      2  C   UNL     1       2.040   3.936   1.816  1.00  0.00     0.275 C 
BRANCH   2   3
ATOM      3  O   UNL     1       3.281   4.033   1.101  1.00  0.00    -0.458 OA
BRANCH   3   4
ATOM      4  C   UNL     1       3.862   3.163   0.244  1.00  0.00     0.338 C 
ATOM      5  O   UNL     1       5.010   3.409  -0.128  1.00  0.00    -0.246 OA
BRANCH   4   6
ATOM      6  C   UNL     1       3.166   1.984  -0.381  1.00  0.00     0.060 A 
ATOM      7  C   UNL     1       1.987   1.361   0.052  1.00  0.00     0.016 A 
ATOM      8  C   UNL     1       3.760   1.482  -1.549  1.00  0.00     0.016 A 
ATOM      9  C   UNL     1       1.377   0.332  -0.680  1.00  0.00     0.010 A 
ATOM     10  C   UNL     1       3.157   0.458  -2.282  1.00  0.00     0.010 A 
ATOM     11  C   UNL     1       1.953  -0.126  -1.858  1.00  0.00    -0.014 A 
BRANCH  11  12
ATOM     12  C   UNL     1       1.467  -1.351  -2.537  1.00  0.00     0.031 A 
ATOM     13  C   UNL     1       2.344  -2.564  -2.431  1.00  0.00     0.074 A 
ATOM     14  C   UNL     1       0.320  -1.400  -3.244  1.00  0.00     0.049 A 
ATOM     15  N   UNL     1       2.239  -3.716  -3.031  1.00  0.00    -0.248 NA
ATOM     16  C   UNL     1       3.477  -2.468  -1.491  1.00  0.00     0.031 C 
ATOM     17  C   UNL     1      -0.704  -0.361  -3.296  1.00  0.00     0.029 A 
ATOM     18  N   UNL     1      -0.154  -2.355  -4.111  1.00  0.00    -0.354 N 
ATOM     19  C   UNL     1       3.287  -4.481  -2.535  1.00  0.00     0.074 A 
ATOM     20  C   UNL     1       4.060  -3.642  -1.651  1.00  0.00     0.031 C 
ATOM     21  C   UNL     1      -1.599  -0.657  -4.257  1.00  0.00     0.029 A 
ATOM     22  C   UNL     1      -1.242  -1.940  -4.849  1.00  0.00     0.049 A 
ATOM     23  H   UNL     1       0.246  -3.251  -4.197  1.00  0.00     0.167 HD
ATOM     24  C   UNL     1       3.554  -5.785  -2.764  1.00  0.00     0.031 A 
ATOM     25  C   UNL     1      -1.855  -2.523  -5.898  1.00  0.00     0.031 A 
ATOM     26  C   UNL     1       2.796  -6.587  -3.678  1.00  0.00     0.049 A 
ATOM     27  C   UNL     1      -1.423  -3.898  -6.301  1.00  0.00     0.074 A 
ATOM     28  C   UNL     1       2.945  -7.924  -3.983  1.00  0.00     0.029 A 
ATOM     29  N   UNL     1       1.755  -6.103  -4.459  1.00  0.00    -0.354 N 
ATOM     30  N   UNL     1      -0.444  -4.618  -5.811  1.00  0.00    -0.248 NA
ATOM     31  C   UNL     1      -2.208  -4.561  -7.349  1.00  0.00     0.031 C 
ATOM     32  C   UNL     1       2.036  -8.233  -5.000  1.00  0.00     0.029 A 
ATOM     33  C   UNL     1       1.271  -7.107  -5.273  1.00  0.00     0.049 A 
ATOM     34  H   UNL     1       1.413  -5.180  -4.437  1.00  0.00     0.167 HD
ATOM     35  C   UNL     1      -0.540  -5.852  -6.435  1.00  0.00     0.074 A 
ATOM     36  C   UNL     1      -1.641  -5.760  -7.377  1.00  0.00     0.031 C 
ATOM     37  C   UNL     1       0.183  -6.975  -6.209  1.00  0.00     0.031 A 
BRANCH  24  38
ATOM     38  C   UNL     1       4.733  -6.369  -2.037  1.00  0.00    -0.014 A 
ATOM     39  C   UNL     1       4.732  -6.500  -0.634  1.00  0.00     0.010 A 
ATOM     40  C   UNL     1       5.886  -6.724  -2.756  1.00  0.00     0.010 A 
ATOM     41  C   UNL     1       5.888  -6.897   0.041  1.00  0.00     0.020 A 
ATOM     42  C   UNL     1       7.034  -7.156  -2.088  1.00  0.00     0.020 A 
ATOM     43  C   UNL     1       7.036  -7.211  -0.692  1.00  0.00     0.054 A 
BRANCH  43  44
ATOM     44  S   UNL     1       8.536  -7.685   0.208  1.00  0.00     0.124 S 
ATOM     45  O   UNL     1       8.964  -6.408   0.774  1.00  0.00    -0.237 OA
ATOM     46  O   UNL     1       8.035  -8.660   1.173  1.00  0.00    -0.237 OA
ATOM     47  O   UNL     1       9.406  -8.231  -0.830  1.00  0.00    -0.744 OA
ENDBRANCH  43  44
ENDBRANCH  24  38
BRANCH  25  48
ATOM     48  C   UNL     1      -2.916  -1.805  -6.651  1.00  0.00    -0.014 A 
ATOM     49  C   UNL     1      -4.266  -1.867  -6.269  1.00  0.00     0.010 A 
ATOM     50  C   UNL     1      -2.555  -1.016  -7.756  1.00  0.00     0.010 A 
ATOM     51  C   UNL     1      -5.226  -1.097  -6.936  1.00  0.00     0.020 A 
ATOM     52  C   UNL     1      -3.506  -0.231  -8.413  1.00  0.00     0.020 A 
ATOM     53  C   UNL     1      -4.835  -0.265  -7.989  1.00  0.00     0.054 A 
BRANCH  53  54
ATOM     54  S   UNL     1      -6.035   0.882  -8.726  1.00  0.00     0.124 S 
ATOM     55  O   UNL     1      -6.660   0.051  -9.748  1.00  0.00    -0.237 OA
ATOM     56  O   UNL     1      -6.877   1.238  -7.587  1.00  0.00    -0.237 OA
ATOM     57  O   UNL     1      -5.182   1.962  -9.217  1.00  0.00    -0.744 OA
ENDBRANCH  53  54
ENDBRANCH  25  48
BRANCH  37  58
ATOM     58  C   UNL     1      -0.231  -8.218  -6.937  1.00  0.00    -0.014 A 
ATOM     59  C   UNL     1       0.078  -8.411  -8.292  1.00  0.00     0.010 A 
ATOM     60  C   UNL     1      -0.834  -9.256  -6.203  1.00  0.00     0.010 A 
ATOM     61  C   UNL     1      -0.204  -9.634  -8.901  1.00  0.00     0.020 A 
ATOM     62  C   UNL     1      -1.089 -10.488  -6.801  1.00  0.00     0.020 A 
ATOM     63  C   UNL     1      -0.771 -10.669  -8.148  1.00  0.00     0.054 A 
BRANCH  63  64
ATOM     64  S   UNL     1      -1.017 -12.283  -8.932  1.00  0.00     0.124 S 
ATOM     65  O   UNL     1      -2.141 -12.017  -9.825  1.00  0.00    -0.237 OA
ATOM     66  O   UNL     1       0.267 -12.516  -9.588  1.00  0.00    -0.237 OA
ATOM     67  O   UNL     1      -1.308 -13.173  -7.810  1.00  0.00    -0.744 OA
ENDBRANCH  63  64
ENDBRANCH  37  58
ENDBRANCH  11  12
ENDBRANCH   4   6
ENDBRANCH   3   4
ENDBRANCH   2   3
ENDBRANCH   1   2
BRANCH   1  68
ATOM     68  O   UNL     1       0.791   4.008  -0.328  1.00  0.00    -0.458 OA
BRANCH  68  69
ATOM     69  C   UNL     1       1.347   4.845  -1.248  1.00  0.00     0.338 C 
ATOM     70  O   UNL     1       1.776   5.966  -1.046  1.00  0.00    -0.246 OA
BRANCH  69  71
ATOM     71  C   UNL     1       1.505   4.111  -2.526  1.00  0.00     0.060 A 
ATOM     72  C   UNL     1       2.717   4.213  -3.224  1.00  0.00     0.017 A 
ATOM     73  C   UNL     1       0.508   3.252  -2.988  1.00  0.00     0.017 A 
ATOM     74  C   UNL     1       2.959   3.400  -4.340  1.00  0.00     0.022 A 
ATOM     75  C   UNL     1       0.753   2.451  -4.105  1.00  0.00     0.022 A 
ATOM     76  C   UNL     1       1.982   2.494  -4.762  1.00  0.00     0.082 A 
BRANCH  76  77
ATOM     77  S   UNL     1       2.368   1.374  -6.095  1.00  0.00     0.240 S 
ATOM     78  O   UNL     1       3.050   2.145  -7.103  1.00  0.00    -0.207 OA
ATOM     79  O   UNL     1       2.988   0.208  -5.499  1.00  0.00    -0.207 OA
BRANCH  77  80
ATOM     80  N   UNL     1       0.902   0.844  -6.723  1.00  0.00    -0.211 NA
ATOM     81  H   UNL     1       0.483   0.262  -5.998  1.00  0.00     0.141 HD
BRANCH  80  82
ATOM     82  C   UNL     1      -0.155   1.746  -7.173  1.00  0.00     0.103 C 
BRANCH  82  83
ATOM     83  C   UNL     1       0.218   2.536  -8.409  1.00  0.00     0.020 C 
ATOM     84  C   UNL     1      -0.075   1.825  -9.735  1.00  0.00     0.022 C 
ATOM     85  C   UNL     1      -0.581   3.836  -8.480  1.00  0.00     0.142 C 
ATOM     86  C   UNL     1       0.172   2.863 -10.833  1.00  0.00     0.137 C 
ATOM     87  S   UNL     1      -0.198   4.459 -10.102  1.00  0.00     0.150 S 
ATOM     88  O   UNL     1       1.031   5.223 -10.008  1.00  0.00    -0.229 OA
ATOM     89  O   UNL     1      -1.392   5.016 -10.698  1.00  0.00    -0.229 OA
ENDBRANCH  82  83
ENDBRANCH  80  82
ENDBRANCH  77  80
ENDBRANCH  76  77
ENDBRANCH  69  71
ENDBRANCH  68  69
ENDBRANCH   1  68
TORSDOF 18
