REMARK SMILES CN(C)S(=O)(=O)c1ccc(-n2c(CCC(=O)OCCOC(=O)c3ccc(-c4c5nc(c(-c6ccc(S(=O)(=O)[O-])cc6)c6ccc([nH]6)c(-c6ccc(S(=O)(=O)[O-])cc6)c6nc(c(-c7ccc(S(=O)(=O)[O-])cc7)c7ccc4[nH]7)C=C6)C=C5)cc3)ccc2-c2ccc(F)cc2)cc1
REMARK SMILES IDX 18 1 17 2 15 3 16 4 14 5 13 6 12 7 11 8 85 9 83 10 84 11
REMARK SMILES IDX 10 12 7 13 8 14 94 15 9 16 93 17 4 18 5 19 6 20 2 21 1 22
REMARK SMILES IDX 3 23 86 24 87 25 92 26 88 27 91 28 89 29 90 30 19 31 20 32
REMARK SMILES IDX 21 33 22 34 23 35 24 36 82 37 25 38 81 39 26 40 27 41 28 42
REMARK SMILES IDX 75 43 29 44 80 45 74 46 76 47 30 48 79 49 73 50 72 51 31 53
REMARK SMILES IDX 61 54 42 55 60 56 43 57 46 58 59 59 77 60 44 61 45 62 58 64
REMARK SMILES IDX 78 65 47 66 32 67 33 68 41 69 34 70 40 71 35 72 36 73 37 74
REMARK SMILES IDX 38 75 39 76 62 77 63 78 71 79 64 80 70 81 65 82 66 83 67 84
REMARK SMILES IDX 68 85 69 86 48 87 49 88 57 89 50 90 56 91 51 92 52 93 53 94
REMARK SMILES IDX 54 95 55 96
REMARK H PARENT 76 52 46 63
REMARK Flexibility Score: inf
ROOT
ATOM      1  C   UNL     1      -1.618  -1.002   6.133  1.00  0.00     0.274 C 
ENDROOT
BRANCH   1   2
ATOM      2  O   UNL     1      -1.642  -0.783   7.574  1.00  0.00    -0.462 OA
BRANCH   2   3
ATOM      3  C   UNL     1      -1.329  -1.852   8.359  1.00  0.00     0.306 C 
ATOM      4  O   UNL     1      -1.532  -3.015   8.025  1.00  0.00    -0.252 OA
BRANCH   3   5
ATOM      5  C   UNL     1      -0.658  -1.498   9.688  1.00  0.00     0.129 C 
BRANCH   5   6
ATOM      6  C   UNL     1       0.466  -0.448   9.738  1.00  0.00     0.066 C 
BRANCH   6   7
ATOM      7  C   UNL     1      -0.019   0.927   9.452  1.00  0.00     0.024 A 
ATOM      8  N   UNL     1      -0.189   1.478   8.187  1.00  0.00    -0.314 N 
ATOM      9  C   UNL     1      -0.999   2.617   8.354  1.00  0.00     0.053 A 
ATOM     10  C   UNL     1      -0.376   1.883  10.386  1.00  0.00     0.024 A 
ATOM     11  C   UNL     1      -0.989   2.942   9.699  1.00  0.00     0.029 A 
BRANCH   8  12
ATOM     12  C   UNL     1       0.226   0.939   6.927  1.00  0.00     0.046 A 
ATOM     13  C   UNL     1       1.021  -0.254   3.608  1.00  0.00     0.082 A 
ATOM     14  C   UNL     1       0.577   1.459   3.860  1.00  0.00     0.024 A 
ATOM     15  C   UNL     1       1.095  -1.397   4.988  1.00  0.00     0.024 A 
ATOM     16  C   UNL     1       0.193   2.072   5.503  1.00  0.00     0.028 A 
ATOM     17  C   UNL     1       0.769  -0.797   6.665  1.00  0.00     0.028 A 
BRANCH  13  18
ATOM     18  S   UNL     1       1.245  -0.882   1.975  1.00  0.00     0.242 S 
ATOM     19  O   UNL     1       0.422  -2.070   1.874  1.00  0.00    -0.207 OA
ATOM     20  O   UNL     1       2.667  -0.911   1.733  1.00  0.00    -0.207 OA
BRANCH  18  21
ATOM     21  N   UNL     1       0.537   0.311   0.963  1.00  0.00    -0.204 NA
ATOM     22  C   UNL     1       0.999   0.217  -0.445  1.00  0.00     0.124 C 
ATOM     23  C   UNL     1      -0.937   0.422   1.036  1.00  0.00     0.124 C 
ENDBRANCH  18  21
ENDBRANCH  13  18
ENDBRANCH   8  12
BRANCH   9  24
ATOM     24  C   UNL     1      -1.872   3.226   7.343  1.00  0.00    -0.001 A 
ATOM     25  C   UNL     1      -1.686   4.552   6.926  1.00  0.00     0.013 A 
ATOM     26  C   UNL     1      -2.938   2.484   6.809  1.00  0.00     0.013 A 
ATOM     27  C   UNL     1      -2.522   5.104   5.950  1.00  0.00     0.040 A 
ATOM     28  C   UNL     1      -3.771   3.035   5.836  1.00  0.00     0.040 A 
ATOM     29  C   UNL     1      -3.553   4.340   5.413  1.00  0.00     0.123 A 
ATOM     30  F   UNL     1      -4.353   4.870   4.479  1.00  0.00    -0.207 F 
ENDBRANCH   9  24
ENDBRANCH   6   7
ENDBRANCH   5   6
ENDBRANCH   3   5
ENDBRANCH   2   3
ENDBRANCH   1   2
BRANCH   1  31
ATOM     31  C   UNL     1      -0.661   0.031   5.181  1.00  0.00     0.275 C 
BRANCH  31  32
ATOM     32  O   UNL     1       1.291   0.470   5.381  1.00  0.00    -0.458 OA
BRANCH  32  33
ATOM     33  C   UNL     1       2.451   1.085   5.924  1.00  0.00     0.338 C 
ATOM     34  O   UNL     1       2.526   1.989   6.753  1.00  0.00    -0.246 OA
BRANCH  33  35
ATOM     35  C   UNL     1       3.691   0.420   5.569  1.00  0.00     0.060 A 
ATOM     36  C   UNL     1       4.476  -0.002   6.654  1.00  0.00     0.016 A 
ATOM     37  C   UNL     1       4.206   0.659   4.300  1.00  0.00     0.016 A 
ATOM     38  C   UNL     1       5.841  -0.022   6.501  1.00  0.00     0.010 A 
ATOM     39  C   UNL     1       5.571   0.635   4.147  1.00  0.00     0.010 A 
ATOM     40  C   UNL     1       6.370   0.370   5.267  1.00  0.00    -0.014 A 
BRANCH  40  41
ATOM     41  C   UNL     1       7.822   0.502   5.150  1.00  0.00     0.031 A 
ATOM     42  C   UNL     1       8.466  -0.842   4.803  1.00  0.00     0.074 A 
ATOM     43  C   UNL     1       8.291   1.760   5.410  1.00  0.00     0.049 A 
ATOM     44  N   UNL     1       9.676  -1.267   4.998  1.00  0.00    -0.248 NA
ATOM     45  C   UNL     1       7.605  -1.910   4.213  1.00  0.00     0.031 C 
ATOM     46  C   UNL     1       7.455   2.948   5.740  1.00  0.00     0.029 A 
ATOM     47  N   UNL     1       9.547   2.308   5.459  1.00  0.00    -0.354 N 
ATOM     48  C   UNL     1       9.762  -2.553   4.424  1.00  0.00     0.074 A 
ATOM     49  C   UNL     1       8.439  -2.933   4.038  1.00  0.00     0.031 C 
ATOM     50  C   UNL     1       8.223   4.025   6.019  1.00  0.00     0.029 A 
ATOM     51  C   UNL     1       9.616   3.655   5.897  1.00  0.00     0.049 A 
ATOM     52  H   UNL     1      10.350   1.798   5.206  1.00  0.00     0.167 HD
ATOM     53  C   UNL     1      10.938  -3.197   4.187  1.00  0.00     0.031 A 
ATOM     54  C   UNL     1      10.732   4.381   6.210  1.00  0.00     0.031 A 
ATOM     55  C   UNL     1      12.044  -2.441   4.666  1.00  0.00     0.049 A 
ATOM     56  C   UNL     1      11.848   3.453   5.963  1.00  0.00     0.074 A 
ATOM     57  C   UNL     1      12.760  -2.370   5.831  1.00  0.00     0.029 A 
ATOM     58  N   UNL     1      12.497  -1.456   3.829  1.00  0.00    -0.354 N 
ATOM     59  N   UNL     1      12.291   3.095   4.800  1.00  0.00    -0.248 NA
ATOM     60  C   UNL     1      12.395   2.732   7.112  1.00  0.00     0.031 C 
ATOM     61  C   UNL     1      13.462  -1.139   5.764  1.00  0.00     0.029 A 
ATOM     62  C   UNL     1      13.034  -0.468   4.619  1.00  0.00     0.049 A 
ATOM     63  H   UNL     1      12.448  -1.455   2.846  1.00  0.00     0.167 HD
ATOM     64  C   UNL     1      12.926   1.899   5.045  1.00  0.00     0.074 A 
ATOM     65  C   UNL     1      13.149   1.841   6.477  1.00  0.00     0.031 C 
ATOM     66  C   UNL     1      12.887   0.885   4.144  1.00  0.00     0.031 A 
BRANCH  53  67
ATOM     67  C   UNL     1      11.246  -4.386   3.312  1.00  0.00    -0.014 A 
ATOM     68  C   UNL     1      12.499  -5.015   3.514  1.00  0.00     0.010 A 
ATOM     69  C   UNL     1      10.563  -4.674   2.119  1.00  0.00     0.010 A 
ATOM     70  C   UNL     1      13.115  -5.769   2.515  1.00  0.00     0.020 A 
ATOM     71  C   UNL     1      11.160  -5.470   1.123  1.00  0.00     0.020 A 
ATOM     72  C   UNL     1      12.456  -5.960   1.307  1.00  0.00     0.054 A 
BRANCH  72  73
ATOM     73  S   UNL     1      13.359  -6.781  -0.035  1.00  0.00     0.124 S 
ATOM     74  O   UNL     1      14.322  -5.758  -0.430  1.00  0.00    -0.237 OA
ATOM     75  O   UNL     1      13.929  -7.949   0.635  1.00  0.00    -0.237 OA
ATOM     76  O   UNL     1      12.319  -7.083  -1.015  1.00  0.00    -0.744 OA
ENDBRANCH  72  73
ENDBRANCH  53  67
BRANCH  54  77
ATOM     77  C   UNL     1      11.075   5.689   6.881  1.00  0.00    -0.014 A 
ATOM     78  C   UNL     1      10.196   6.741   7.169  1.00  0.00     0.010 A 
ATOM     79  C   UNL     1      12.410   5.860   7.347  1.00  0.00     0.010 A 
ATOM     80  C   UNL     1      10.597   7.824   7.994  1.00  0.00     0.020 A 
ATOM     81  C   UNL     1      12.808   6.899   8.191  1.00  0.00     0.020 A 
ATOM     82  C   UNL     1      11.887   7.870   8.535  1.00  0.00     0.054 A 
BRANCH  82  83
ATOM     83  S   UNL     1      12.345   9.107   9.786  1.00  0.00     0.124 S 
ATOM     84  O   UNL     1      12.744  10.249   8.970  1.00  0.00    -0.237 OA
ATOM     85  O   UNL     1      11.110   9.274  10.547  1.00  0.00    -0.237 OA
ATOM     86  O   UNL     1      13.430   8.458  10.523  1.00  0.00    -0.744 OA
ENDBRANCH  82  83
ENDBRANCH  54  77
BRANCH  66  87
ATOM     87  C   UNL     1      12.244   1.246   2.808  1.00  0.00    -0.014 A 
ATOM     88  C   UNL     1      12.947   1.989   1.852  1.00  0.00     0.010 A 
ATOM     89  C   UNL     1      10.899   0.915   2.518  1.00  0.00     0.010 A 
ATOM     90  C   UNL     1      12.337   2.373   0.645  1.00  0.00     0.020 A 
ATOM     91  C   UNL     1      10.281   1.288   1.314  1.00  0.00     0.020 A 
ATOM     92  C   UNL     1      11.010   2.017   0.379  1.00  0.00     0.054 A 
BRANCH  92  93
ATOM     93  S   UNL     1      10.253   2.536  -1.190  1.00  0.00     0.124 S 
ATOM     94  O   UNL     1      10.408   3.989  -1.159  1.00  0.00    -0.237 OA
ATOM     95  O   UNL     1      11.072   1.842  -2.179  1.00  0.00    -0.237 OA
ATOM     96  O   UNL     1       8.872   2.065  -1.091  1.00  0.00    -0.744 OA
ENDBRANCH  92  93
ENDBRANCH  66  87
ENDBRANCH  40  41
ENDBRANCH  33  35
ENDBRANCH  32  33
ENDBRANCH  31  32
ENDBRANCH   1  31
TORSDOF 20
