REMARK SMILES Cc1c(-c2nn(-c3ccccc3)cc2/C=N/O)nnn1-c1ccc(C(=O)OCCOC(=O)c2ccc(-c3c4nc(c(-c5ccc(S(=O)(=O)[O-])cc5)c5ccc([nH]5)c(-c5ccc(S(=O)(=O)[O-])cc5)c5nc(c(-c6ccc(S(=O)(=O)[O-])cc6)c6ccc3[nH]6)C=C5)C=C4)cc2)cc1
REMARK SMILES IDX 28 1 27 2 25 3 26 4 24 5 21 6 22 7 94 8 23 9 93 10 20 11
REMARK SMILES IDX 1 12 2 13 3 14 18 15 19 16 4 17 5 18 14 19 6 20 13 21 15 22
REMARK SMILES IDX 16 23 17 24 7 26 8 27 12 28 9 29 11 30 10 31 29 32 30 33
REMARK SMILES IDX 31 34 32 35 33 36 34 37 92 38 35 39 91 40 36 41 37 42 38 43
REMARK SMILES IDX 85 44 39 45 90 46 84 47 86 48 40 49 89 50 83 51 82 52 41 54
REMARK SMILES IDX 71 55 52 56 70 57 53 58 56 59 69 60 87 61 54 62 55 63 68 65
REMARK SMILES IDX 88 66 57 67 42 68 43 69 51 70 44 71 50 72 45 73 46 74 47 75
REMARK SMILES IDX 48 76 49 77 72 78 73 79 81 80 74 81 80 82 75 83 76 84 77 85
REMARK SMILES IDX 78 86 79 87 58 88 59 89 67 90 60 91 66 92 61 93 62 94 63 95
REMARK SMILES IDX 64 96 65 97
REMARK H PARENT 17 25 86 53 56 64
REMARK Flexibility Score: inf
ROOT
ATOM      1  C   UNL     1       2.955   4.785  -5.663  1.00  0.00     0.275 C 
ENDROOT
BRANCH   1   2
ATOM      2  O   UNL     1       2.381   4.175  -4.495  1.00  0.00    -0.458 OA
BRANCH   2   3
ATOM      3  C   UNL     1       3.227   3.996  -3.447  1.00  0.00     0.338 C 
ATOM      4  O   UNL     1       4.440   4.147  -3.461  1.00  0.00    -0.246 OA
BRANCH   3   5
ATOM      5  C   UNL     1       2.472   3.639  -2.221  1.00  0.00     0.060 A 
ATOM      6  C   UNL     1       1.251   2.728   0.106  1.00  0.00     0.067 A 
ATOM      7  C   UNL     1       2.428   3.472   0.205  1.00  0.00     0.029 A 
ATOM      8  C   UNL     1       0.619   2.545  -1.132  1.00  0.00     0.029 A 
ATOM      9  C   UNL     1       3.053   3.900  -0.969  1.00  0.00     0.018 A 
ATOM     10  C   UNL     1       1.222   3.017  -2.295  1.00  0.00     0.018 A 
BRANCH   6  11
ATOM     11  N   UNL     1       0.761   2.048   1.240  1.00  0.00    -0.217 N 
ATOM     12  C   UNL     1       0.733  -0.302   0.277  1.00  0.00     0.069 C 
ATOM     13  C   UNL     1       0.447   0.704   1.328  1.00  0.00     0.071 A 
ATOM     14  C   UNL     1      -0.010   0.572   2.622  1.00  0.00     0.137 A 
ATOM     15  N   UNL     1       0.130   1.751   3.294  1.00  0.00    -0.128 NA
ATOM     16  N   UNL     1       0.684   2.627   2.460  1.00  0.00    -0.061 NA
BRANCH  14  17
ATOM     17  C   UNL     1      -0.466  -0.645   3.283  1.00  0.00     0.124 A 
ATOM     18  N   UNL     1       0.371  -1.656   3.551  1.00  0.00    -0.165 NA
ATOM     19  C   UNL     1      -1.804  -0.946   3.628  1.00  0.00     0.044 A 
ATOM     20  N   UNL     1      -0.429  -2.652   3.982  1.00  0.00    -0.240 N 
ATOM     21  C   UNL     1      -1.749  -2.268   4.028  1.00  0.00     0.125 A 
BRANCH  19  22
ATOM     22  C   UNL     1      -3.003  -0.148   3.591  1.00  0.00     0.166 C 
ATOM     23  N   UNL     1      -2.987   1.022   3.046  1.00  0.00    -0.097 NA
BRANCH  23  24
ATOM     24  O   UNL     1      -4.251   1.611   3.173  1.00  0.00    -0.411 OA
ATOM     25  H   UNL     1      -4.405   2.468   2.826  1.00  0.00     0.330 HD
ENDBRANCH  23  24
ENDBRANCH  19  22
BRANCH  20  26
ATOM     26  C   UNL     1       0.107  -3.923   4.298  1.00  0.00     0.065 A 
ATOM     27  C   UNL     1       1.400  -4.003   4.833  1.00  0.00     0.028 A 
ATOM     28  C   UNL     1      -0.635  -5.088   4.068  1.00  0.00     0.028 A 
ATOM     29  C   UNL     1       1.935  -5.247   5.168  1.00  0.00     0.002 A 
ATOM     30  C   UNL     1      -0.070  -6.332   4.358  1.00  0.00     0.002 A 
ATOM     31  C   UNL     1       1.206  -6.410   4.920  1.00  0.00     0.000 A 
ENDBRANCH  20  26
ENDBRANCH  14  17
ENDBRANCH   6  11
ENDBRANCH   3   5
ENDBRANCH   2   3
ENDBRANCH   1   2
BRANCH   1  32
ATOM     32  C   UNL     1       2.869   6.304  -5.596  1.00  0.00     0.275 C 
BRANCH  32  33
ATOM     33  O   UNL     1       3.745   6.832  -4.603  1.00  0.00    -0.458 OA
BRANCH  33  34
ATOM     34  C   UNL     1       3.172   7.037  -3.395  1.00  0.00     0.338 C 
ATOM     35  O   UNL     1       2.120   6.576  -2.987  1.00  0.00    -0.246 OA
BRANCH  34  36
ATOM     36  C   UNL     1       3.894   8.104  -2.700  1.00  0.00     0.060 A 
ATOM     37  C   UNL     1       3.530   8.371  -1.376  1.00  0.00     0.016 A 
ATOM     38  C   UNL     1       4.669   8.995  -3.455  1.00  0.00     0.016 A 
ATOM     39  C   UNL     1       3.804   9.620  -0.859  1.00  0.00     0.010 A 
ATOM     40  C   UNL     1       4.922  10.243  -2.946  1.00  0.00     0.010 A 
ATOM     41  C   UNL     1       4.423  10.562  -1.684  1.00  0.00    -0.014 A 
BRANCH  41  42
ATOM     42  C   UNL     1       4.620  11.904  -1.181  1.00  0.00     0.031 A 
ATOM     43  C   UNL     1       5.712  12.016  -0.189  1.00  0.00     0.074 A 
ATOM     44  C   UNL     1       3.981  12.954  -1.728  1.00  0.00     0.049 A 
ATOM     45  N   UNL     1       5.633  12.435   1.028  1.00  0.00    -0.248 NA
ATOM     46  C   UNL     1       7.027  11.458  -0.551  1.00  0.00     0.031 C 
ATOM     47  C   UNL     1       3.105  12.958  -2.905  1.00  0.00     0.029 A 
ATOM     48  N   UNL     1       4.114  14.275  -1.439  1.00  0.00    -0.354 N 
ATOM     49  C   UNL     1       6.928  12.375   1.531  1.00  0.00     0.074 A 
ATOM     50  C   UNL     1       7.700  11.609   0.588  1.00  0.00     0.031 C 
ATOM     51  C   UNL     1       3.010  14.222  -3.375  1.00  0.00     0.029 A 
ATOM     52  C   UNL     1       3.723  15.115  -2.475  1.00  0.00     0.049 A 
ATOM     53  H   UNL     1       4.455  14.606  -0.577  1.00  0.00     0.167 HD
ATOM     54  C   UNL     1       7.332  13.158   2.568  1.00  0.00     0.031 A 
ATOM     55  C   UNL     1       4.064  16.420  -2.627  1.00  0.00     0.031 A 
ATOM     56  C   UNL     1       6.218  13.739   3.267  1.00  0.00     0.049 A 
ATOM     57  C   UNL     1       4.519  16.914  -1.300  1.00  0.00     0.074 A 
ATOM     58  C   UNL     1       5.134  13.222   3.948  1.00  0.00     0.029 A 
ATOM     59  N   UNL     1       5.902  15.047   2.975  1.00  0.00    -0.354 N 
ATOM     60  N   UNL     1       3.725  17.039  -0.273  1.00  0.00    -0.248 NA
ATOM     61  C   UNL     1       5.937  16.821  -0.973  1.00  0.00     0.031 C 
ATOM     62  C   UNL     1       4.049  14.082   3.616  1.00  0.00     0.029 A 
ATOM     63  C   UNL     1       4.541  15.111   2.810  1.00  0.00     0.049 A 
ATOM     64  H   UNL     1       6.535  15.797   2.898  1.00  0.00     0.167 HD
ATOM     65  C   UNL     1       4.470  16.597   0.812  1.00  0.00     0.074 A 
ATOM     66  C   UNL     1       5.853  16.583   0.341  1.00  0.00     0.031 C 
ATOM     67  C   UNL     1       3.871  16.008   1.891  1.00  0.00     0.031 A 
BRANCH  54  68
ATOM     68  C   UNL     1       8.730  13.699   2.692  1.00  0.00    -0.014 A 
ATOM     69  C   UNL     1       9.079  14.423   3.848  1.00  0.00     0.010 A 
ATOM     70  C   UNL     1       9.619  13.764   1.597  1.00  0.00     0.010 A 
ATOM     71  C   UNL     1      10.221  15.233   3.875  1.00  0.00     0.020 A 
ATOM     72  C   UNL     1      10.782  14.531   1.631  1.00  0.00     0.020 A 
ATOM     73  C   UNL     1      11.054  15.295   2.757  1.00  0.00     0.054 A 
BRANCH  73  74
ATOM     74  S   UNL     1      12.448  16.446   2.750  1.00  0.00     0.124 S 
ATOM     75  O   UNL     1      11.768  17.738   2.756  1.00  0.00    -0.237 OA
ATOM     76  O   UNL     1      13.150  16.091   3.980  1.00  0.00    -0.237 OA
ATOM     77  O   UNL     1      13.157  16.117   1.515  1.00  0.00    -0.744 OA
ENDBRANCH  73  74
ENDBRANCH  54  68
BRANCH  55  78
ATOM     78  C   UNL     1       4.319  17.142  -3.902  1.00  0.00    -0.014 A 
ATOM     79  C   UNL     1       4.485  18.539  -3.932  1.00  0.00     0.010 A 
ATOM     80  C   UNL     1       4.650  16.426  -5.072  1.00  0.00     0.010 A 
ATOM     81  C   UNL     1       5.016  19.183  -5.065  1.00  0.00     0.020 A 
ATOM     82  C   UNL     1       5.165  17.059  -6.209  1.00  0.00     0.020 A 
ATOM     83  C   UNL     1       5.371  18.434  -6.191  1.00  0.00     0.054 A 
BRANCH  83  84
ATOM     84  S   UNL     1       6.227  19.237  -7.578  1.00  0.00     0.124 S 
ATOM     85  O   UNL     1       5.167  20.041  -8.177  1.00  0.00    -0.237 OA
ATOM     86  O   UNL     1       7.287  19.984  -6.907  1.00  0.00    -0.237 OA
ATOM     87  O   UNL     1       6.689  18.114  -8.394  1.00  0.00    -0.744 OA
ENDBRANCH  83  84
ENDBRANCH  55  78
BRANCH  67  88
ATOM     88  C   UNL     1       2.363  16.065   2.001  1.00  0.00    -0.014 A 
ATOM     89  C   UNL     1       1.493  15.523   1.033  1.00  0.00     0.010 A 
ATOM     90  C   UNL     1       1.812  16.529   3.208  1.00  0.00     0.010 A 
ATOM     91  C   UNL     1       0.109  15.476   1.256  1.00  0.00     0.020 A 
ATOM     92  C   UNL     1       0.437  16.465   3.445  1.00  0.00     0.020 A 
ATOM     93  C   UNL     1      -0.410  15.949   2.463  1.00  0.00     0.054 A 
BRANCH  93  94
ATOM     94  S   UNL     1      -2.196  15.842   2.768  1.00  0.00     0.124 S 
ATOM     95  O   UNL     1      -2.735  16.835   1.844  1.00  0.00    -0.237 OA
ATOM     96  O   UNL     1      -2.500  14.450   2.443  1.00  0.00    -0.237 OA
ATOM     97  O   UNL     1      -2.329  16.180   4.185  1.00  0.00    -0.744 OA
ENDBRANCH  93  94
ENDBRANCH  67  88
ENDBRANCH  41  42
ENDBRANCH  34  36
ENDBRANCH  33  34
ENDBRANCH  32  33
ENDBRANCH   1  32
TORSDOF 19
