REMARK SMILES Cc1cccc(CC(=O)N2CCC3(CCC(=O)N([C@H](C)C(=O)OCCOC(=O)c4ccc(-c5c6nc(c(-c7ccc(S(=O)(=O)[O-])cc7)c7ccc([nH]7)c(-c7ccc(S(=O)(=O)[O-])cc7)c7nc(c(-c8ccc(S(=O)(=O)[O-])cc8)c8ccc5[nH]8)C=C7)C=C6)cc4)C3)CC2)c1
REMARK SMILES IDX 24 1 23 2 21 3 22 4 19 5 20 6 18 7 8 8 9 9 10 10 11 11 91 12
REMARK SMILES IDX 12 13 90 14 13 15 14 16 89 17 15 18 16 19 17 20 7 21 6 22
REMARK SMILES IDX 1 23 2 24 3 25 92 26 4 27 5 28 25 29 26 30 27 31 28 32 29 33
REMARK SMILES IDX 30 34 88 35 31 36 87 37 32 38 33 39 34 40 81 41 35 42 86 43
REMARK SMILES IDX 80 44 82 45 36 46 85 47 79 48 78 49 37 51 67 52 48 53 66 54
REMARK SMILES IDX 49 55 52 56 65 57 83 58 50 59 51 60 64 62 84 63 53 64 38 65
REMARK SMILES IDX 39 66 47 67 40 68 46 69 41 70 42 71 43 72 44 73 45 74 68 75
REMARK SMILES IDX 69 76 77 77 70 78 76 79 71 80 72 81 73 82 74 83 75 84 54 85
REMARK SMILES IDX 55 86 63 87 56 88 62 89 57 90 58 91 59 92 60 93 61 94
REMARK H PARENT 82 50 52 61
REMARK Flexibility Score: inf
ROOT
ATOM      1  C   UNL     1      -3.938   6.660  -6.524  1.00  0.00     0.274 C 
ENDROOT
BRANCH   1   2
ATOM      2  O   UNL     1      -2.447   6.683  -7.272  1.00  0.00    -0.461 OA
BRANCH   2   3
ATOM      3  C   UNL     1      -1.919   5.714  -8.186  1.00  0.00     0.328 C 
ATOM      4  O   UNL     1      -2.627   5.247  -9.076  1.00  0.00    -0.250 OA
BRANCH   3   5
ATOM      5  C   UNL     1      -0.271   5.226  -7.946  1.00  0.00     0.192 C 
ATOM      6  C   UNL     1      -0.209   3.707  -7.638  1.00  0.00     0.044 C 
BRANCH   5   7
ATOM      7  N   UNL     1       1.062   5.503  -8.762  1.00  0.00    -0.329 N 
ATOM      8  C   UNL     1       7.775   5.269  -7.094  1.00  0.00     0.226 C 
ATOM      9  O   UNL     1       8.249   4.125  -7.110  1.00  0.00    -0.275 OA
ATOM     10  N   UNL     1       6.504   5.535  -7.612  1.00  0.00    -0.342 N 
ATOM     11  C   UNL     1       5.676   4.395  -7.997  1.00  0.00     0.120 C 
ATOM     12  C   UNL     1       6.102   6.821  -8.184  1.00  0.00     0.120 C 
ATOM     13  C   UNL     1       4.184   4.665  -7.785  1.00  0.00     0.030 C 
ATOM     14  C   UNL     1       4.597   7.099  -8.059  1.00  0.00     0.030 C 
ATOM     15  C   UNL     1       3.676   5.919  -8.524  1.00  0.00    -0.008 C 
ATOM     16  C   UNL     1       3.685   5.829 -10.051  1.00  0.00     0.019 C 
ATOM     17  C   UNL     1       2.206   6.211  -8.122  1.00  0.00     0.127 C 
ATOM     18  C   UNL     1       2.656   4.833 -10.561  1.00  0.00     0.101 C 
ATOM     19  C   UNL     1       1.227   4.965 -10.026  1.00  0.00     0.223 C 
ATOM     20  O   UNL     1       0.291   4.489 -10.664  1.00  0.00    -0.275 OA
BRANCH   8  21
ATOM     21  C   UNL     1       8.533   6.361  -6.345  1.00  0.00     0.135 C 
BRANCH  21  22
ATOM     22  C   UNL     1       9.126   7.480  -7.163  1.00  0.00    -0.038 A 
ATOM     23  C   UNL     1       8.822  11.280  -7.309  1.00  0.00     0.044 C 
ATOM     24  C   UNL     1       9.265   9.877  -7.607  1.00  0.00    -0.051 A 
ATOM     25  C   UNL     1      10.087   9.612  -8.705  1.00  0.00     0.003 A 
ATOM     26  C   UNL     1       8.816   8.809  -6.826  1.00  0.00     0.007 A 
ATOM     27  C   UNL     1      10.456   8.300  -9.012  1.00  0.00     0.001 A 
ATOM     28  C   UNL     1       9.978   7.236  -8.245  1.00  0.00     0.004 A 
ENDBRANCH  21  22
ENDBRANCH   8  21
ENDBRANCH   5   7
ENDBRANCH   3   5
ENDBRANCH   2   3
ENDBRANCH   1   2
BRANCH   1  29
ATOM     29  C   UNL     1      -4.250   6.937  -4.649  1.00  0.00     0.275 C 
BRANCH  29  30
ATOM     30  O   UNL     1      -3.083   7.775  -3.422  1.00  0.00    -0.458 OA
BRANCH  30  31
ATOM     31  C   UNL     1      -1.468   8.228  -3.074  1.00  0.00     0.338 C 
ATOM     32  O   UNL     1      -1.375   8.737  -1.945  1.00  0.00    -0.246 OA
BRANCH  31  33
ATOM     33  C   UNL     1       0.127   8.357  -4.073  1.00  0.00     0.060 A 
ATOM     34  C   UNL     1       0.837   9.579  -4.175  1.00  0.00     0.016 A 
ATOM     35  C   UNL     1       0.500   7.638  -5.271  1.00  0.00     0.016 A 
ATOM     36  C   UNL     1       1.293  10.155  -5.528  1.00  0.00     0.010 A 
ATOM     37  C   UNL     1       0.805   8.195  -6.561  1.00  0.00     0.010 A 
ATOM     38  C   UNL     1       1.052   9.516  -6.782  1.00  0.00    -0.014 A 
BRANCH  38  39
ATOM     39  C   UNL     1       0.526  10.020  -8.169  1.00  0.00     0.031 A 
ATOM     40  C   UNL     1       1.145   9.642  -9.471  1.00  0.00     0.074 A 
ATOM     41  C   UNL     1      -0.753  10.393  -8.514  1.00  0.00     0.049 A 
ATOM     42  N   UNL     1       2.011  10.354 -10.119  1.00  0.00    -0.248 NA
ATOM     43  C   UNL     1       0.576   8.526 -10.264  1.00  0.00     0.031 C 
ATOM     44  C   UNL     1      -1.236  11.146  -9.688  1.00  0.00     0.029 A 
ATOM     45  N   UNL     1      -1.897  10.414  -7.766  1.00  0.00    -0.354 N 
ATOM     46  C   UNL     1       1.839  10.003 -11.456  1.00  0.00     0.074 A 
ATOM     47  C   UNL     1       1.109   8.742 -11.470  1.00  0.00     0.031 C 
ATOM     48  C   UNL     1      -2.263  11.941  -9.293  1.00  0.00     0.029 A 
ATOM     49  C   UNL     1      -2.536  11.655  -7.895  1.00  0.00     0.049 A 
ATOM     50  H   UNL     1      -2.225   9.666  -7.217  1.00  0.00     0.167 HD
ATOM     51  C   UNL     1       1.719  10.931 -12.459  1.00  0.00     0.031 A 
ATOM     52  C   UNL     1      -2.442  12.449  -6.778  1.00  0.00     0.031 A 
ATOM     53  C   UNL     1       1.294  12.249 -11.966  1.00  0.00     0.049 A 
ATOM     54  C   UNL     1      -1.196  13.396  -6.970  1.00  0.00     0.074 A 
ATOM     55  C   UNL     1       0.182  13.041 -12.225  1.00  0.00     0.029 A 
ATOM     56  N   UNL     1       1.889  12.805 -10.840  1.00  0.00    -0.354 N 
ATOM     57  N   UNL     1      -0.606  13.578  -8.126  1.00  0.00    -0.248 NA
ATOM     58  C   UNL     1      -0.486  14.151  -5.924  1.00  0.00     0.031 C 
ATOM     59  C   UNL     1       0.046  13.986 -11.174  1.00  0.00     0.029 A 
ATOM     60  C   UNL     1       1.077  13.778 -10.282  1.00  0.00     0.049 A 
ATOM     61  H   UNL     1       2.770  12.543 -10.486  1.00  0.00     0.167 HD
ATOM     62  C   UNL     1       0.579  14.263  -7.985  1.00  0.00     0.074 A 
ATOM     63  C   UNL     1       0.565  14.676  -6.595  1.00  0.00     0.031 C 
ATOM     64  C   UNL     1       1.466  14.401  -9.022  1.00  0.00     0.031 A 
BRANCH  51  65
ATOM     65  C   UNL     1       1.666  10.514 -13.921  1.00  0.00    -0.014 A 
ATOM     66  C   UNL     1       1.120  11.356 -14.910  1.00  0.00     0.010 A 
ATOM     67  C   UNL     1       2.274   9.324 -14.384  1.00  0.00     0.010 A 
ATOM     68  C   UNL     1       1.133  11.019 -16.272  1.00  0.00     0.020 A 
ATOM     69  C   UNL     1       2.287   8.970 -15.745  1.00  0.00     0.020 A 
ATOM     70  C   UNL     1       1.719   9.826 -16.684  1.00  0.00     0.054 A 
BRANCH  70  71
ATOM     71  S   UNL     1       1.769   9.451 -18.457  1.00  0.00     0.124 S 
ATOM     72  O   UNL     1       0.355   9.465 -18.822  1.00  0.00    -0.237 OA
ATOM     73  O   UNL     1       2.564  10.555 -18.988  1.00  0.00    -0.237 OA
ATOM     74  O   UNL     1       2.411   8.140 -18.518  1.00  0.00    -0.744 OA
ENDBRANCH  70  71
ENDBRANCH  51  65
BRANCH  52  75
ATOM     75  C   UNL     1      -2.732  11.514  -5.551  1.00  0.00    -0.014 A 
ATOM     76  C   UNL     1      -3.844  10.669  -5.522  1.00  0.00     0.010 A 
ATOM     77  C   UNL     1      -1.659  10.819  -5.101  1.00  0.00     0.010 A 
ATOM     78  C   UNL     1      -3.724   9.164  -5.408  1.00  0.00     0.020 A 
ATOM     79  C   UNL     1      -1.623   9.339  -5.335  1.00  0.00     0.020 A 
ATOM     80  C   UNL     1      -2.492   8.287  -5.378  1.00  0.00     0.054 A 
BRANCH  80  81
ATOM     81  S   UNL     1      -1.949   6.095  -4.617  1.00  0.00     0.124 S 
ATOM     82  O   UNL     1      -2.850   5.577  -3.569  1.00  0.00    -0.237 OA
ATOM     83  O   UNL     1      -1.996   5.199  -5.732  1.00  0.00    -0.237 OA
ATOM     84  O   UNL     1      -0.653   6.064  -3.928  1.00  0.00    -0.744 OA
ENDBRANCH  80  81
ENDBRANCH  52  75
BRANCH  64  85
ATOM     85  C   UNL     1       2.770  15.174  -9.049  1.00  0.00    -0.014 A 
ATOM     86  C   UNL     1       3.644  15.357  -7.971  1.00  0.00     0.010 A 
ATOM     87  C   UNL     1       3.193  15.681 -10.310  1.00  0.00     0.010 A 
ATOM     88  C   UNL     1       4.850  16.070  -8.138  1.00  0.00     0.020 A 
ATOM     89  C   UNL     1       4.399  16.356 -10.493  1.00  0.00     0.020 A 
ATOM     90  C   UNL     1       5.210  16.578  -9.392  1.00  0.00     0.054 A 
BRANCH  90  91
ATOM     91  S   UNL     1       6.748  17.515  -9.599  1.00  0.00     0.124 S 
ATOM     92  O   UNL     1       6.337  18.857  -9.193  1.00  0.00    -0.237 OA
ATOM     93  O   UNL     1       7.668  16.838  -8.689  1.00  0.00    -0.237 OA
ATOM     94  O   UNL     1       7.060  17.361 -11.018  1.00  0.00    -0.744 OA
ENDBRANCH  90  91
ENDBRANCH  64  85
ENDBRANCH  38  39
ENDBRANCH  31  33
ENDBRANCH  30  31
ENDBRANCH  29  30
ENDBRANCH   1  29
TORSDOF 17
