REMARK SMILES O=C(CC1(C(=O)OCCOC(=O)c2ccc(-c3c4nc(c(-c5ccc(S(=O)(=O)[O-])cc5)c5ccc([nH]5)c(-c5ccc(S(=O)(=O)[O-])cc5)c5nc(c(-c6ccc(S(=O)(=O)[O-])cc6)c6ccc3[nH]6)C=C5)C=C4)cc2)CCCCCC1)NNC(=O)c1ccc(Cl)cc1
REMARK SMILES IDX 8 1 7 2 5 3 6 4 4 5 3 6 2 7 1 8 79 9 80 11 81 12 82 14 83 15
REMARK SMILES IDX 84 16 89 17 85 18 88 19 86 20 87 21 73 22 74 23 75 24 76 25
REMARK SMILES IDX 78 27 77 28 9 30 10 31 11 32 12 33 13 34 14 35 72 36 15 37
REMARK SMILES IDX 71 38 16 39 17 40 18 41 65 42 19 43 70 44 64 45 66 46 20 47
REMARK SMILES IDX 69 48 63 49 62 50 21 52 51 53 32 54 50 55 33 56 36 57 49 58
REMARK SMILES IDX 67 59 34 60 35 61 48 63 68 64 37 65 22 66 23 67 31 68 24 69
REMARK SMILES IDX 30 70 25 71 26 72 27 73 28 74 29 75 52 76 53 77 61 78 54 79
REMARK SMILES IDX 60 80 55 81 56 82 57 83 58 84 59 85 38 86 39 87 47 88 40 89
REMARK SMILES IDX 46 90 41 91 42 92 43 93 44 94 45 95
REMARK H PARENT 79 10 80 13 66 51 36 62
REMARK Flexibility Score: 100.00
ROOT
ATOM      1  C   UNL     1       7.472   1.259   0.657  1.00  0.00     0.274 C 
ENDROOT
BRANCH   1   2
ATOM      2  O   UNL     1       6.129   1.673   1.006  1.00  0.00    -0.462 OA
BRANCH   2   3
ATOM      3  C   UNL     1       5.233   1.666  -0.015  1.00  0.00     0.312 C 
ATOM      4  O   UNL     1       5.505   1.254  -1.140  1.00  0.00    -0.252 OA
BRANCH   3   5
ATOM      5  C   UNL     1       3.877   2.328   0.307  1.00  0.00     0.077 C 
BRANCH   5   6
ATOM      6  C   UNL     1       2.739   1.349  -0.119  1.00  0.00     0.120 C 
BRANCH   6   7
ATOM      7  C   UNL     1       1.978   0.538   0.925  1.00  0.00     0.239 C 
ATOM      8  O   UNL     1       0.757   0.673   1.040  1.00  0.00    -0.273 OA
ATOM      9  N   UNL     1       2.669  -0.398   1.666  1.00  0.00    -0.267 N 
ATOM     10  H   UNL     1       3.652  -0.436   1.669  1.00  0.00     0.191 HD
BRANCH   9  11
ATOM     11  N   UNL     1       1.885  -1.296   2.418  1.00  0.00    -0.264 N 
ATOM     12  C   UNL     1       2.316  -2.462   3.014  1.00  0.00     0.269 C 
ATOM     13  H   UNL     1       0.933  -1.067   2.529  1.00  0.00     0.191 HD
ATOM     14  O   UNL     1       1.522  -3.375   3.236  1.00  0.00    -0.267 OA
BRANCH  12  15
ATOM     15  C   UNL     1       3.727  -2.652   3.419  1.00  0.00     0.041 A 
ATOM     16  C   UNL     1       4.302  -3.922   3.260  1.00  0.00     0.015 A 
ATOM     17  C   UNL     1       4.465  -1.630   4.027  1.00  0.00     0.015 A 
ATOM     18  C   UNL     1       5.635  -4.144   3.618  1.00  0.00     0.021 A 
ATOM     19  C   UNL     1       5.799  -1.854   4.386  1.00  0.00     0.021 A 
ATOM     20  C   UNL     1       6.382  -3.102   4.163  1.00  0.00     0.041 A 
ATOM     21  Cl  UNL     1       8.039  -3.352   4.555  1.00  0.00    -0.084 Cl
ENDBRANCH  12  15
ENDBRANCH   9  11
ENDBRANCH   6   7
ENDBRANCH   5   6
BRANCH   5  22
ATOM     22  C   UNL     1       3.883   3.531  -0.691  1.00  0.00     0.019 C 
BRANCH  22  23
ATOM     23  C   UNL     1       2.885   4.654  -0.435  1.00  0.00     0.001 C 
BRANCH  23  24
ATOM     24  C   UNL     1       3.443   5.715   0.507  1.00  0.00     0.000 C 
BRANCH  24  25
ATOM     25  C   UNL     1       3.514   5.279   1.964  1.00  0.00     0.000 CG0
ATOM     26  G   UNL     1       4.370   4.039   2.223  1.00  0.00     0.000 G0
ENDBRANCH  24  25
ENDBRANCH  23  24
ENDBRANCH  22  23
ENDBRANCH   5  22
BRANCH   5  27
ATOM     27  C   UNL     1       3.694   2.740   1.782  1.00  0.00     0.019 C 
BRANCH  27  28
ATOM     28  C   UNL     1       4.370   4.039   2.223  1.00  0.00     0.001 CG0
ATOM     29  G   UNL     1       3.514   5.279   1.964  1.00  0.00     0.000 G0
ENDBRANCH  27  28
ENDBRANCH   5  27
ENDBRANCH   3   5
ENDBRANCH   2   3
ENDBRANCH   1   2
BRANCH   1  30
ATOM     30  C   UNL     1       7.766  -0.229   0.907  1.00  0.00     0.275 C 
BRANCH  30  31
ATOM     31  O   UNL     1       7.081  -1.125   0.009  1.00  0.00    -0.458 OA
BRANCH  31  32
ATOM     32  C   UNL     1       5.822  -1.393   0.401  1.00  0.00     0.338 C 
ATOM     33  O   UNL     1       5.244  -0.894   1.356  1.00  0.00    -0.246 OA
BRANCH  32  34
ATOM     34  C   UNL     1       5.076  -2.296  -0.475  1.00  0.00     0.060 A 
ATOM     35  C   UNL     1       4.241  -1.719  -1.430  1.00  0.00     0.016 A 
ATOM     36  C   UNL     1       4.913  -3.629  -0.101  1.00  0.00     0.016 A 
ATOM     37  C   UNL     1       3.173  -2.441  -1.947  1.00  0.00     0.010 A 
ATOM     38  C   UNL     1       3.881  -4.377  -0.670  1.00  0.00     0.010 A 
ATOM     39  C   UNL     1       2.994  -3.781  -1.580  1.00  0.00    -0.014 A 
BRANCH  39  40
ATOM     40  C   UNL     1       2.005  -4.611  -2.296  1.00  0.00     0.031 A 
ATOM     41  C   UNL     1       0.756  -5.112  -1.638  1.00  0.00     0.074 A 
ATOM     42  C   UNL     1       2.307  -4.953  -3.562  1.00  0.00     0.049 A 
ATOM     43  N   UNL     1      -0.106  -5.985  -2.092  1.00  0.00    -0.248 NA
ATOM     44  C   UNL     1       0.425  -4.569  -0.312  1.00  0.00     0.031 C 
ATOM     45  C   UNL     1       3.487  -4.487  -4.299  1.00  0.00     0.029 A 
ATOM     46  N   UNL     1       1.674  -5.790  -4.441  1.00  0.00    -0.354 N 
ATOM     47  C   UNL     1      -1.081  -6.105  -1.109  1.00  0.00     0.074 A 
ATOM     48  C   UNL     1      -0.700  -5.217  -0.030  1.00  0.00     0.031 C 
ATOM     49  C   UNL     1       3.508  -5.066  -5.505  1.00  0.00     0.029 A 
ATOM     50  C   UNL     1       2.384  -5.986  -5.599  1.00  0.00     0.049 A 
ATOM     51  H   UNL     1       0.801  -6.207  -4.260  1.00  0.00     0.167 HD
ATOM     52  C   UNL     1      -2.183  -6.894  -1.116  1.00  0.00     0.031 A 
ATOM     53  C   UNL     1       2.194  -6.858  -6.605  1.00  0.00     0.031 A 
ATOM     54  C   UNL     1      -2.530  -7.786  -2.195  1.00  0.00     0.049 A 
ATOM     55  C   UNL     1       1.025  -7.785  -6.546  1.00  0.00     0.074 A 
ATOM     56  C   UNL     1      -3.635  -8.614  -2.308  1.00  0.00     0.029 A 
ATOM     57  N   UNL     1      -1.774  -7.974  -3.343  1.00  0.00    -0.354 N 
ATOM     58  N   UNL     1       0.118  -7.895  -5.606  1.00  0.00    -0.248 NA
ATOM     59  C   UNL     1       0.851  -8.702  -7.677  1.00  0.00     0.031 C 
ATOM     60  C   UNL     1      -3.525  -9.332  -3.505  1.00  0.00     0.029 A 
ATOM     61  C   UNL     1      -2.373  -8.921  -4.157  1.00  0.00     0.049 A 
ATOM     62  H   UNL     1      -0.935  -7.503  -3.549  1.00  0.00     0.167 HD
ATOM     63  C   UNL     1      -0.749  -8.887  -6.037  1.00  0.00     0.074 A 
ATOM     64  C   UNL     1      -0.256  -9.342  -7.324  1.00  0.00     0.031 C 
ATOM     65  C   UNL     1      -1.857  -9.370  -5.425  1.00  0.00     0.031 A 
BRANCH  52  66
ATOM     66  C   UNL     1      -3.087  -6.860   0.088  1.00  0.00    -0.014 A 
ATOM     67  C   UNL     1      -4.003  -5.811   0.278  1.00  0.00     0.010 A 
ATOM     68  C   UNL     1      -3.085  -7.938   0.991  1.00  0.00     0.010 A 
ATOM     69  C   UNL     1      -4.894  -5.836   1.357  1.00  0.00     0.020 A 
ATOM     70  C   UNL     1      -3.982  -7.973   2.063  1.00  0.00     0.020 A 
ATOM     71  C   UNL     1      -4.877  -6.916   2.245  1.00  0.00     0.054 A 
BRANCH  71  72
ATOM     72  S   UNL     1      -6.081  -6.960   3.604  1.00  0.00     0.124 S 
ATOM     73  O   UNL     1      -5.492  -6.028   4.562  1.00  0.00    -0.237 OA
ATOM     74  O   UNL     1      -7.312  -6.504   2.963  1.00  0.00    -0.237 OA
ATOM     75  O   UNL     1      -6.085  -8.361   4.019  1.00  0.00    -0.744 OA
ENDBRANCH  71  72
ENDBRANCH  52  66
BRANCH  53  76
ATOM     76  C   UNL     1       3.191  -6.902  -7.702  1.00  0.00    -0.014 A 
ATOM     77  C   UNL     1       2.928  -6.272  -8.928  1.00  0.00     0.010 A 
ATOM     78  C   UNL     1       4.461  -7.463  -7.469  1.00  0.00     0.010 A 
ATOM     79  C   UNL     1       3.928  -6.185  -9.900  1.00  0.00     0.020 A 
ATOM     80  C   UNL     1       5.467  -7.360  -8.430  1.00  0.00     0.020 A 
ATOM     81  C   UNL     1       5.194  -6.721  -9.641  1.00  0.00     0.054 A 
BRANCH  81  82
ATOM     82  S   UNL     1       6.519  -6.488 -10.858  1.00  0.00     0.124 S 
ATOM     83  O   UNL     1       6.265  -7.577 -11.794  1.00  0.00    -0.237 OA
ATOM     84  O   UNL     1       6.259  -5.143 -11.365  1.00  0.00    -0.237 OA
ATOM     85  O   UNL     1       7.737  -6.615 -10.059  1.00  0.00    -0.744 OA
ENDBRANCH  81  82
ENDBRANCH  53  76
BRANCH  65  86
ATOM     86  C   UNL     1      -2.621 -10.430  -6.163  1.00  0.00    -0.014 A 
ATOM     87  C   UNL     1      -2.186 -11.766  -6.160  1.00  0.00     0.010 A 
ATOM     88  C   UNL     1      -3.798 -10.085  -6.851  1.00  0.00     0.010 A 
ATOM     89  C   UNL     1      -2.903 -12.738  -6.861  1.00  0.00     0.020 A 
ATOM     90  C   UNL     1      -4.525 -11.057  -7.538  1.00  0.00     0.020 A 
ATOM     91  C   UNL     1      -4.064 -12.376  -7.552  1.00  0.00     0.054 A 
BRANCH  91  92
ATOM     92  S   UNL     1      -4.997 -13.656  -8.434  1.00  0.00     0.124 S 
ATOM     93  O   UNL     1      -4.234 -13.787  -9.672  1.00  0.00    -0.237 OA
ATOM     94  O   UNL     1      -4.923 -14.799  -7.527  1.00  0.00    -0.237 OA
ATOM     95  O   UNL     1      -6.328 -13.071  -8.580  1.00  0.00    -0.744 OA
ENDBRANCH  91  92
ENDBRANCH  65  86
ENDBRANCH  39  40
ENDBRANCH  32  34
ENDBRANCH  31  32
ENDBRANCH  30  31
ENDBRANCH   1  30
TORSDOF 18
