REMARK SMILES Cc1nc(C[N@@H+]2CCC[C@H]2C(=O)OCCOC(=O)c2ccc(-c3c4nc(c(-c5ccc(S(=O)(=O)[O-])cc5)c5ccc([nH]5)c(-c5ccc(S(=O)(=O)[O-])cc5)c5nc(c(-c6ccc(S(=O)(=O)[O-])cc6)c6ccc3[nH]6)C=C5)C=C4)cc2)cs1
REMARK SMILES IDX 15 1 14 2 13 3 11 4 12 5 10 6 6 7 7 8 8 10 9 11 5 12 4 13
REMARK SMILES IDX 1 14 2 15 3 16 80 17 79 18 16 19 17 20 18 21 19 22 20 23
REMARK SMILES IDX 78 24 21 25 77 26 22 27 23 28 24 29 71 30 25 31 76 32 70 33
REMARK SMILES IDX 72 34 26 35 75 36 69 37 68 38 27 40 57 41 38 42 56 43 39 44
REMARK SMILES IDX 42 45 55 46 73 47 40 48 41 49 54 51 74 52 43 53 28 54 29 55
REMARK SMILES IDX 37 56 30 57 36 58 31 59 32 60 33 61 34 62 35 63 58 64 59 65
REMARK SMILES IDX 67 66 60 67 66 68 61 69 62 70 63 71 64 72 65 73 44 74 45 75
REMARK SMILES IDX 53 76 46 77 52 78 47 79 48 80 49 81 50 82 51 83
REMARK H PARENT 6 9 72 39 42 50
REMARK Flexibility Score: inf
ROOT
ATOM      1  C   UNL     1       2.379  -5.821  -4.745  1.00  0.00     0.275 C 
ENDROOT
BRANCH   1   2
ATOM      2  C   UNL     1       3.587  -5.145  -4.100  1.00  0.00     0.274 C 
BRANCH   2   3
ATOM      3  O   UNL     1       3.131  -4.271  -3.053  1.00  0.00    -0.458 OA
BRANCH   3   4
ATOM      4  C   UNL     1       3.347  -2.936  -3.243  1.00  0.00     0.365 C 
ATOM      5  O   UNL     1       4.032  -2.460  -4.140  1.00  0.00    -0.245 OA
BRANCH   4   6
ATOM      6  C   UNL     1       2.552  -2.118  -2.210  1.00  0.00     0.295 C 
ATOM      7  N   UNL     1       3.239  -2.150  -0.906  1.00  0.00    -0.318 N 
ATOM      8  C   UNL     1       4.133  -0.996  -0.877  1.00  0.00     0.263 C 
ATOM      9  H   UNL     1       3.800  -2.995  -0.800  1.00  0.00     0.349 HD
ATOM     10  C   UNL     1       3.547   0.061  -1.799  1.00  0.00     0.068 C 
ATOM     11  C   UNL     1       2.472  -0.643  -2.611  1.00  0.00     0.083 C 
BRANCH   7  12
ATOM     12  C   UNL     1       2.317  -2.282   0.233  1.00  0.00     0.321 C 
BRANCH  12  13
ATOM     13  C   UNL     1       1.304  -1.181   0.390  1.00  0.00     0.106 A 
ATOM     14  C   UNL     1      -2.173  -0.197  -0.218  1.00  0.00     0.079 C 
ATOM     15  C   UNL     1      -0.735  -0.321   0.152  1.00  0.00     0.090 A 
ATOM     16  N   UNL     1       0.024  -1.360  -0.128  1.00  0.00    -0.241 NA
ATOM     17  S   UNL     1       0.045   0.946   1.010  1.00  0.00    -0.127 S 
ATOM     18  C   UNL     1       1.482   0.017   1.056  1.00  0.00     0.096 A 
ENDBRANCH  12  13
ENDBRANCH   7  12
ENDBRANCH   4   6
ENDBRANCH   3   4
ENDBRANCH   2   3
ENDBRANCH   1   2
BRANCH   1  19
ATOM     19  O   UNL     1       1.502  -4.819  -5.293  1.00  0.00    -0.458 OA
BRANCH  19  20
ATOM     20  C   UNL     1       0.302  -4.685  -4.679  1.00  0.00     0.338 C 
ATOM     21  O   UNL     1      -0.155  -5.356  -3.773  1.00  0.00    -0.246 OA
BRANCH  20  22
ATOM     22  C   UNL     1      -0.399  -3.538  -5.276  1.00  0.00     0.060 A 
ATOM     23  C   UNL     1      -0.038  -2.247  -4.891  1.00  0.00     0.016 A 
ATOM     24  C   UNL     1      -1.445  -3.742  -6.173  1.00  0.00     0.016 A 
ATOM     25  C   UNL     1      -0.727  -1.146  -5.391  1.00  0.00     0.010 A 
ATOM     26  C   UNL     1      -2.105  -2.634  -6.714  1.00  0.00     0.010 A 
ATOM     27  C   UNL     1      -1.752  -1.328  -6.327  1.00  0.00    -0.014 A 
BRANCH  27  28
ATOM     28  C   UNL     1      -2.443  -0.155  -6.916  1.00  0.00     0.031 A 
ATOM     29  C   UNL     1      -3.892   0.101  -6.613  1.00  0.00     0.074 A 
ATOM     30  C   UNL     1      -1.767   0.673  -7.736  1.00  0.00     0.049 A 
ATOM     31  N   UNL     1      -4.702   0.976  -7.149  1.00  0.00    -0.248 NA
ATOM     32  C   UNL     1      -4.510  -0.736  -5.572  1.00  0.00     0.031 C 
ATOM     33  C   UNL     1      -0.342   0.568  -8.061  1.00  0.00     0.029 A 
ATOM     34  N   UNL     1      -2.190   1.767  -8.450  1.00  0.00    -0.354 N 
ATOM     35  C   UNL     1      -5.934   0.774  -6.541  1.00  0.00     0.074 A 
ATOM     36  C   UNL     1      -5.765  -0.306  -5.591  1.00  0.00     0.031 C 
ATOM     37  C   UNL     1      -0.008   1.562  -8.900  1.00  0.00     0.029 A 
ATOM     38  C   UNL     1      -1.205   2.327  -9.229  1.00  0.00     0.049 A 
ATOM     39  H   UNL     1      -3.109   2.116  -8.408  1.00  0.00     0.167 HD
ATOM     40  C   UNL     1      -7.100   1.426  -6.762  1.00  0.00     0.031 A 
ATOM     41  C   UNL     1      -1.267   3.314 -10.144  1.00  0.00     0.031 A 
ATOM     42  C   UNL     1      -7.257   2.507  -7.699  1.00  0.00     0.049 A 
ATOM     43  C   UNL     1      -2.594   3.953 -10.442  1.00  0.00     0.074 A 
ATOM     44  C   UNL     1      -8.392   3.250  -7.973  1.00  0.00     0.029 A 
ATOM     45  N   UNL     1      -6.252   2.994  -8.520  1.00  0.00    -0.354 N 
ATOM     46  N   UNL     1      -3.755   3.741  -9.870  1.00  0.00    -0.248 NA
ATOM     47  C   UNL     1      -2.624   4.942 -11.528  1.00  0.00     0.031 C 
ATOM     48  C   UNL     1      -8.086   4.153  -8.997  1.00  0.00     0.029 A 
ATOM     49  C   UNL     1      -6.749   4.002  -9.329  1.00  0.00     0.049 A 
ATOM     50  H   UNL     1      -5.322   2.672  -8.527  1.00  0.00     0.167 HD
ATOM     51  C   UNL     1      -4.655   4.571 -10.527  1.00  0.00     0.074 A 
ATOM     52  C   UNL     1      -3.901   5.304 -11.524  1.00  0.00     0.031 C 
ATOM     53  C   UNL     1      -5.988   4.708 -10.326  1.00  0.00     0.031 A 
BRANCH  40  54
ATOM     54  C   UNL     1      -8.315   0.955  -6.013  1.00  0.00    -0.014 A 
ATOM     55  C   UNL     1      -8.506   1.270  -4.656  1.00  0.00     0.010 A 
ATOM     56  C   UNL     1      -9.306   0.226  -6.695  1.00  0.00     0.010 A 
ATOM     57  C   UNL     1      -9.655   0.837  -3.988  1.00  0.00     0.020 A 
ATOM     58  C   UNL     1     -10.464  -0.193  -6.035  1.00  0.00     0.020 A 
ATOM     59  C   UNL     1     -10.625   0.104  -4.681  1.00  0.00     0.054 A 
BRANCH  59  60
ATOM     60  S   UNL     1     -12.118  -0.425  -3.796  1.00  0.00     0.124 S 
ATOM     61  O   UNL     1     -11.612  -1.533  -2.990  1.00  0.00    -0.237 OA
ATOM     62  O   UNL     1     -12.493   0.773  -3.050  1.00  0.00    -0.237 OA
ATOM     63  O   UNL     1     -13.039  -0.802  -4.866  1.00  0.00    -0.744 OA
ENDBRANCH  59  60
ENDBRANCH  40  54
BRANCH  41  64
ATOM     64  C   UNL     1      -0.045   3.705 -10.897  1.00  0.00    -0.014 A 
ATOM     65  C   UNL     1       0.571   4.946 -10.664  1.00  0.00     0.010 A 
ATOM     66  C   UNL     1       0.514   2.829 -11.847  1.00  0.00     0.010 A 
ATOM     67  C   UNL     1       1.722   5.307 -11.371  1.00  0.00     0.020 A 
ATOM     68  C   UNL     1       1.677   3.176 -12.537  1.00  0.00     0.020 A 
ATOM     69  C   UNL     1       2.268   4.419 -12.302  1.00  0.00     0.054 A 
BRANCH  69  70
ATOM     70  S   UNL     1       3.795   4.879 -13.168  1.00  0.00     0.124 S 
ATOM     71  O   UNL     1       3.299   5.796 -14.189  1.00  0.00    -0.237 OA
ATOM     72  O   UNL     1       4.594   5.487 -12.106  1.00  0.00    -0.237 OA
ATOM     73  O   UNL     1       4.303   3.602 -13.664  1.00  0.00    -0.744 OA
ENDBRANCH  69  70
ENDBRANCH  41  64
BRANCH  53  74
ATOM     74  C   UNL     1      -6.718   5.686 -11.203  1.00  0.00    -0.014 A 
ATOM     75  C   UNL     1      -7.038   5.357 -12.531  1.00  0.00     0.010 A 
ATOM     76  C   UNL     1      -7.138   6.920 -10.677  1.00  0.00     0.010 A 
ATOM     77  C   UNL     1      -7.755   6.254 -13.326  1.00  0.00     0.020 A 
ATOM     78  C   UNL     1      -7.873   7.811 -11.463  1.00  0.00     0.020 A 
ATOM     79  C   UNL     1      -8.169   7.476 -12.787  1.00  0.00     0.054 A 
BRANCH  79  80
ATOM     80  S   UNL     1      -9.151   8.600 -13.818  1.00  0.00     0.124 S 
ATOM     81  O   UNL     1      -8.133   9.176 -14.693  1.00  0.00    -0.237 OA
ATOM     82  O   UNL     1     -10.100   7.698 -14.467  1.00  0.00    -0.237 OA
ATOM     83  O   UNL     1      -9.742   9.525 -12.854  1.00  0.00    -0.744 OA
ENDBRANCH  79  80
ENDBRANCH  53  74
ENDBRANCH  27  28
ENDBRANCH  20  22
ENDBRANCH  19  20
ENDBRANCH   1  19
TORSDOF 16
