REMARK SMILES CC1(C)S[C@H](c2ccc(Cl)cc2Cl)[NH2+][C@H]1C(=O)OCCOC(=O)c1ccc(-c2c3nc(c(-c4ccc(S(=O)(=O)[O-])cc4)c4ccc([nH]4)c(-c4ccc(S(=O)(=O)[O-])cc4)c4nc(c(-c5ccc(S(=O)(=O)[O-])cc5)c5ccc2[nH]5)C=C4)C=C3)cc1
REMARK SMILES IDX 20 1 19 2 18 3 16 4 17 5 15 6 1 7 2 8 3 9 4 10 5 11 14 12
REMARK SMILES IDX 6 15 7 16 12 17 8 18 11 19 13 20 9 21 10 22 21 23 22 24
REMARK SMILES IDX 23 25 24 26 25 27 83 28 26 29 82 30 27 31 28 32 29 33 76 34
REMARK SMILES IDX 30 35 81 36 75 37 77 38 31 39 80 40 74 41 73 42 32 44 62 45
REMARK SMILES IDX 43 46 61 47 44 48 47 49 60 50 78 51 45 52 46 53 59 55 79 56
REMARK SMILES IDX 48 57 33 58 34 59 42 60 35 61 41 62 36 63 37 64 38 65 39 66
REMARK SMILES IDX 40 67 63 68 64 69 72 70 65 71 71 72 66 73 67 74 68 75 69 76
REMARK SMILES IDX 70 77 49 78 50 79 58 80 51 81 57 82 52 83 53 84 54 85 55 86
REMARK SMILES IDX 56 87
REMARK H PARENT 14 13 14 14 77 43 47 54
REMARK Flexibility Score: inf
ROOT
ATOM      1  C   UNL     1       2.492   4.703   0.627  1.00  0.00     0.275 C 
ENDROOT
BRANCH   1   2
ATOM      2  C   UNL     1       1.193   4.311   1.340  1.00  0.00     0.274 C 
BRANCH   2   3
ATOM      3  O   UNL     1       0.843   2.925   1.147  1.00  0.00    -0.458 OA
BRANCH   3   4
ATOM      4  C   UNL     1       0.022   2.677   0.096  1.00  0.00     0.366 C 
ATOM      5  O   UNL     1      -0.399   3.557  -0.651  1.00  0.00    -0.245 OA
BRANCH   4   6
ATOM      6  C   UNL     1      -0.413   1.208  -0.050  1.00  0.00     0.310 C 
ATOM      7  C   UNL     1       1.248   0.194   1.709  1.00  0.00     0.030 C 
ATOM      8  C   UNL     1       0.517   0.052   0.372  1.00  0.00     0.079 C 
ATOM      9  C   UNL     1       1.497  -0.337  -0.738  1.00  0.00     0.030 C 
ATOM     10  S   UNL     1      -0.677  -1.345   0.579  1.00  0.00    -0.081 SA
ATOM     11  C   UNL     1      -2.181  -0.326   0.281  1.00  0.00     0.276 C 
ATOM     12  N   UNL     1      -1.734   1.024   0.615  1.00  0.00    -0.319 N 
ATOM     13  H   UNL     1      -1.636   1.122   1.626  1.00  0.00     0.348 HD
ATOM     14  H   UNL     1      -2.406   1.724   0.301  1.00  0.00     0.348 HD
BRANCH  11  15
ATOM     15  C   UNL     1      -2.797  -0.565  -1.106  1.00  0.00     0.039 A 
ATOM     16  C   UNL     1      -2.969  -1.914  -1.514  1.00  0.00     0.014 A 
ATOM     17  C   UNL     1      -3.298   0.419  -1.987  1.00  0.00     0.052 A 
ATOM     18  C   UNL     1      -3.524  -2.258  -2.751  1.00  0.00     0.021 A 
ATOM     19  C   UNL     1      -3.832   0.071  -3.241  1.00  0.00     0.041 A 
ATOM     20  Cl  UNL     1      -3.378   2.107  -1.623  1.00  0.00    -0.084 Cl
ATOM     21  C   UNL     1      -3.939  -1.260  -3.617  1.00  0.00     0.042 A 
ATOM     22  Cl  UNL     1      -4.624  -1.677  -5.137  1.00  0.00    -0.084 Cl
ENDBRANCH  11  15
ENDBRANCH   4   6
ENDBRANCH   3   4
ENDBRANCH   2   3
ENDBRANCH   1   2
BRANCH   1  23
ATOM     23  O   UNL     1       2.378   4.609  -0.805  1.00  0.00    -0.458 OA
BRANCH  23  24
ATOM     24  C   UNL     1       2.872   3.471  -1.345  1.00  0.00     0.338 C 
ATOM     25  O   UNL     1       3.424   2.560  -0.752  1.00  0.00    -0.246 OA
BRANCH  24  26
ATOM     26  C   UNL     1       2.562   3.417  -2.782  1.00  0.00     0.060 A 
ATOM     27  C   UNL     1       1.492   2.629  -3.210  1.00  0.00     0.016 A 
ATOM     28  C   UNL     1       3.388   4.050  -3.710  1.00  0.00     0.016 A 
ATOM     29  C   UNL     1       1.241   2.460  -4.569  1.00  0.00     0.010 A 
ATOM     30  C   UNL     1       3.127   3.892  -5.076  1.00  0.00     0.010 A 
ATOM     31  C   UNL     1       2.059   3.088  -5.514  1.00  0.00    -0.014 A 
BRANCH  31  32
ATOM     32  C   UNL     1       1.814   2.882  -6.961  1.00  0.00     0.031 A 
ATOM     33  C   UNL     1       2.752   2.031  -7.767  1.00  0.00     0.074 A 
ATOM     34  C   UNL     1       0.747   3.456  -7.547  1.00  0.00     0.049 A 
ATOM     35  N   UNL     1       2.777   1.828  -9.059  1.00  0.00    -0.248 NA
ATOM     36  C   UNL     1       3.799   1.313  -7.022  1.00  0.00     0.031 C 
ATOM     37  C   UNL     1      -0.269   4.256  -6.860  1.00  0.00     0.029 A 
ATOM     38  N   UNL     1       0.344   3.458  -8.859  1.00  0.00    -0.354 N 
ATOM     39  C   UNL     1       3.857   0.984  -9.288  1.00  0.00     0.074 A 
ATOM     40  C   UNL     1       4.465   0.716  -8.002  1.00  0.00     0.031 C 
ATOM     41  C   UNL     1      -1.175   4.676  -7.758  1.00  0.00     0.029 A 
ATOM     42  C   UNL     1      -0.777   4.219  -9.086  1.00  0.00     0.049 A 
ATOM     43  H   UNL     1       0.814   2.963  -9.569  1.00  0.00     0.167 HD
ATOM     44  C   UNL     1       4.303   0.483 -10.465  1.00  0.00     0.031 A 
ATOM     45  C   UNL     1      -1.395   4.544 -10.239  1.00  0.00     0.031 A 
ATOM     46  C   UNL     1       3.695   0.751 -11.742  1.00  0.00     0.049 A 
ATOM     47  C   UNL     1      -0.843   4.029 -11.539  1.00  0.00     0.074 A 
ATOM     48  C   UNL     1       4.074   0.290 -12.991  1.00  0.00     0.029 A 
ATOM     49  N   UNL     1       2.579   1.551 -11.933  1.00  0.00    -0.354 N 
ATOM     50  N   UNL     1       0.194   3.252 -11.742  1.00  0.00    -0.248 NA
ATOM     51  C   UNL     1      -1.539   4.442 -12.765  1.00  0.00     0.031 C 
ATOM     52  C   UNL     1       3.210   0.844 -13.942  1.00  0.00     0.029 A 
ATOM     53  C   UNL     1       2.266   1.614 -13.280  1.00  0.00     0.049 A 
ATOM     54  H   UNL     1       2.082   2.008 -11.216  1.00  0.00     0.167 HD
ATOM     55  C   UNL     1       0.265   3.070 -13.119  1.00  0.00     0.074 A 
ATOM     56  C   UNL     1      -0.840   3.807 -13.697  1.00  0.00     0.031 C 
ATOM     57  C   UNL     1       1.165   2.356 -13.839  1.00  0.00     0.031 A 
BRANCH  44  58
ATOM     58  C   UNL     1       5.539  -0.373 -10.428  1.00  0.00    -0.014 A 
ATOM     59  C   UNL     1       5.497  -1.696  -9.953  1.00  0.00     0.010 A 
ATOM     60  C   UNL     1       6.757   0.149 -10.900  1.00  0.00     0.010 A 
ATOM     61  C   UNL     1       6.662  -2.469  -9.916  1.00  0.00     0.020 A 
ATOM     62  C   UNL     1       7.919  -0.628 -10.884  1.00  0.00     0.020 A 
ATOM     63  C   UNL     1       7.867  -1.927 -10.374  1.00  0.00     0.054 A 
BRANCH  63  64
ATOM     64  S   UNL     1       9.363  -2.951 -10.323  1.00  0.00     0.124 S 
ATOM     65  O   UNL     1       9.712  -2.903  -8.905  1.00  0.00    -0.237 OA
ATOM     66  O   UNL     1       8.887  -4.244 -10.808  1.00  0.00    -0.237 OA
ATOM     67  O   UNL     1      10.288  -2.257 -11.216  1.00  0.00    -0.744 OA
ENDBRANCH  63  64
ENDBRANCH  44  58
BRANCH  45  68
ATOM     68  C   UNL     1      -2.583   5.437 -10.213  1.00  0.00    -0.014 A 
ATOM     69  C   UNL     1      -3.866   4.930 -10.473  1.00  0.00     0.010 A 
ATOM     70  C   UNL     1      -2.433   6.803  -9.906  1.00  0.00     0.010 A 
ATOM     71  C   UNL     1      -4.980   5.774 -10.435  1.00  0.00     0.020 A 
ATOM     72  C   UNL     1      -3.547   7.644  -9.845  1.00  0.00     0.020 A 
ATOM     73  C   UNL     1      -4.814   7.126 -10.120  1.00  0.00     0.054 A 
BRANCH  73  74
ATOM     74  S   UNL     1      -6.277   8.193 -10.016  1.00  0.00     0.124 S 
ATOM     75  O   UNL     1      -6.562   8.455 -11.423  1.00  0.00    -0.237 OA
ATOM     76  O   UNL     1      -7.243   7.345  -9.322  1.00  0.00    -0.237 OA
ATOM     77  O   UNL     1      -5.805   9.343  -9.247  1.00  0.00    -0.744 OA
ENDBRANCH  73  74
ENDBRANCH  45  68
BRANCH  57  78
ATOM     78  C   UNL     1       0.977   2.316 -15.330  1.00  0.00    -0.014 A 
ATOM     79  C   UNL     1       1.324   3.415 -16.134  1.00  0.00     0.010 A 
ATOM     80  C   UNL     1       0.496   1.142 -15.938  1.00  0.00     0.010 A 
ATOM     81  C   UNL     1       1.170   3.350 -17.521  1.00  0.00     0.020 A 
ATOM     82  C   UNL     1       0.360   1.067 -17.327  1.00  0.00     0.020 A 
ATOM     83  C   UNL     1       0.687   2.177 -18.109  1.00  0.00     0.054 A 
BRANCH  83  84
ATOM     84  S   UNL     1       0.540   2.096 -19.915  1.00  0.00     0.124 S 
ATOM     85  O   UNL     1      -0.685   2.854 -20.154  1.00  0.00    -0.237 OA
ATOM     86  O   UNL     1       1.773   2.735 -20.370  1.00  0.00    -0.237 OA
ATOM     87  O   UNL     1       0.451   0.664 -20.191  1.00  0.00    -0.744 OA
ENDBRANCH  83  84
ENDBRANCH  57  78
ENDBRANCH  31  32
ENDBRANCH  24  26
ENDBRANCH  23  24
ENDBRANCH   1  23
TORSDOF 15
