REMARK SMILES Cc1ccc(Nc2c(Cl)cccc2Cl)c(CC(=O)OCCOC(=O)c2ccc(-c3c4nc(c(-c5ccc(S(=O)(=O)[O-])cc5)c5ccc([nH]5)c(-c5ccc(S(=O)(=O)[O-])cc5)c5nc(c(-c6ccc(S(=O)(=O)[O-])cc6)c6ccc3[nH]6)C=C5)C=C4)cc2)c1
REMARK SMILES IDX 20 1 19 2 17 3 18 4 16 5 15 6 1 7 2 8 3 9 85 10 4 11 5 12
REMARK SMILES IDX 6 13 7 15 8 16 13 17 9 18 10 19 12 20 14 21 11 22 21 23
REMARK SMILES IDX 22 24 23 25 24 26 25 27 26 28 84 29 27 30 83 31 28 32 29 33
REMARK SMILES IDX 30 34 77 35 31 36 82 37 76 38 78 39 32 40 81 41 75 42 74 43
REMARK SMILES IDX 33 45 63 46 44 47 62 48 45 49 48 50 61 51 79 52 46 53 47 54
REMARK SMILES IDX 60 56 80 57 49 58 34 59 35 60 43 61 36 62 42 63 37 64 38 65
REMARK SMILES IDX 39 66 40 67 41 68 64 69 65 70 73 71 66 72 72 73 67 74 68 75
REMARK SMILES IDX 69 76 70 77 71 78 50 79 51 80 59 81 52 82 58 83 53 84 54 85
REMARK SMILES IDX 55 86 56 87 57 88
REMARK H PARENT 6 14 78 44 48 55
REMARK Flexibility Score: inf
ROOT
ATOM      1  C   UNL     1      -2.680   1.174  -4.032  1.00  0.00     0.274 C 
ENDROOT
BRANCH   1   2
ATOM      2  O   UNL     1      -1.773   1.688  -3.058  1.00  0.00    -0.462 OA
BRANCH   2   3
ATOM      3  C   UNL     1      -1.024   0.751  -2.439  1.00  0.00     0.310 C 
ATOM      4  O   UNL     1      -0.634  -0.276  -2.987  1.00  0.00    -0.252 OA
BRANCH   3   5
ATOM      5  C   UNL     1      -0.771   1.184  -1.008  1.00  0.00     0.160 C 
BRANCH   5   6
ATOM      6  C   UNL     1      -0.173   0.052  -0.217  1.00  0.00    -0.013 A 
ATOM      7  C   UNL     1       3.423  -0.915   0.400  1.00  0.00     0.044 C 
ATOM      8  C   UNL     1       1.930  -0.989   0.368  1.00  0.00    -0.051 A 
ATOM      9  C   UNL     1       1.248  -2.194   0.549  1.00  0.00     0.005 A 
ATOM     10  C   UNL     1       1.208   0.137   0.001  1.00  0.00     0.009 A 
ATOM     11  C   UNL     1      -0.146  -2.257   0.421  1.00  0.00     0.026 A 
ATOM     12  C   UNL     1      -0.894  -1.131   0.078  1.00  0.00     0.042 A 
BRANCH  12  13
ATOM     13  N   UNL     1      -2.281  -1.218  -0.141  1.00  0.00    -0.353 N 
ATOM     14  H   UNL     1      -2.681  -0.396  -0.508  1.00  0.00     0.167 HD
BRANCH  13  15
ATOM     15  C   UNL     1      -3.215  -2.271   0.068  1.00  0.00     0.076 A 
ATOM     16  C   UNL     1      -3.661  -2.623   1.356  1.00  0.00     0.066 A 
ATOM     17  C   UNL     1      -3.939  -2.799  -1.023  1.00  0.00     0.066 A 
ATOM     18  Cl  UNL     1      -2.889  -2.027   2.787  1.00  0.00    -0.082 Cl
ATOM     19  C   UNL     1      -4.762  -3.475   1.537  1.00  0.00     0.023 A 
ATOM     20  C   UNL     1      -5.080  -3.591  -0.840  1.00  0.00     0.023 A 
ATOM     21  Cl  UNL     1      -3.387  -2.612  -2.650  1.00  0.00    -0.082 Cl
ATOM     22  C   UNL     1      -5.488  -3.937   0.442  1.00  0.00     0.003 A 
ENDBRANCH  13  15
ENDBRANCH  12  13
ENDBRANCH   5   6
ENDBRANCH   3   5
ENDBRANCH   2   3
ENDBRANCH   1   2
BRANCH   1  23
ATOM     23  C   UNL     1      -3.986   0.643  -3.391  1.00  0.00     0.275 C 
BRANCH  23  24
ATOM     24  O   UNL     1      -4.017   0.503  -1.923  1.00  0.00    -0.458 OA
BRANCH  24  25
ATOM     25  C   UNL     1      -4.211   1.368  -0.875  1.00  0.00     0.338 C 
ATOM     26  O   UNL     1      -4.194   0.938   0.278  1.00  0.00    -0.246 OA
BRANCH  25  27
ATOM     27  C   UNL     1      -3.975   2.812  -1.078  1.00  0.00     0.060 A 
ATOM     28  C   UNL     1      -3.411   3.648  -0.092  1.00  0.00     0.016 A 
ATOM     29  C   UNL     1      -4.025   3.258  -2.362  1.00  0.00     0.016 A 
ATOM     30  C   UNL     1      -2.814   4.853  -0.484  1.00  0.00     0.010 A 
ATOM     31  C   UNL     1      -3.039   4.099  -2.763  1.00  0.00     0.010 A 
ATOM     32  C   UNL     1      -2.609   5.040  -1.851  1.00  0.00    -0.014 A 
BRANCH  32  33
ATOM     33  C   UNL     1      -2.292   6.266  -2.565  1.00  0.00     0.031 A 
ATOM     34  C   UNL     1      -0.936   6.798  -2.534  1.00  0.00     0.074 A 
ATOM     35  C   UNL     1      -3.301   6.724  -3.352  1.00  0.00     0.049 A 
ATOM     36  N   UNL     1      -0.615   7.963  -2.093  1.00  0.00    -0.248 NA
ATOM     37  C   UNL     1       0.201   6.003  -3.005  1.00  0.00     0.031 C 
ATOM     38  C   UNL     1      -3.369   7.789  -4.329  1.00  0.00     0.029 A 
ATOM     39  N   UNL     1      -4.606   6.246  -3.380  1.00  0.00    -0.354 N 
ATOM     40  C   UNL     1       0.630   8.202  -2.634  1.00  0.00     0.074 A 
ATOM     41  C   UNL     1       1.190   6.906  -2.958  1.00  0.00     0.031 C 
ATOM     42  C   UNL     1      -4.674   8.074  -4.557  1.00  0.00     0.029 A 
ATOM     43  C   UNL     1      -5.514   7.215  -3.720  1.00  0.00     0.049 A 
ATOM     44  H   UNL     1      -4.851   5.315  -3.178  1.00  0.00     0.167 HD
ATOM     45  C   UNL     1       0.918   9.412  -3.196  1.00  0.00     0.031 A 
ATOM     46  C   UNL     1      -6.386   7.577  -2.730  1.00  0.00     0.031 A 
ATOM     47  C   UNL     1      -0.306  10.204  -3.364  1.00  0.00     0.049 A 
ATOM     48  C   UNL     1      -5.873   8.822  -2.043  1.00  0.00     0.074 A 
ATOM     49  C   UNL     1      -1.073  10.481  -4.486  1.00  0.00     0.029 A 
ATOM     50  N   UNL     1      -1.110  10.504  -2.267  1.00  0.00    -0.354 N 
ATOM     51  N   UNL     1      -4.657   9.277  -2.192  1.00  0.00    -0.248 NA
ATOM     52  C   UNL     1      -6.689   9.697  -1.212  1.00  0.00     0.031 C 
ATOM     53  C   UNL     1      -2.367  10.877  -4.054  1.00  0.00     0.029 A 
ATOM     54  C   UNL     1      -2.392  10.842  -2.671  1.00  0.00     0.049 A 
ATOM     55  H   UNL     1      -0.808  10.478  -1.331  1.00  0.00     0.167 HD
ATOM     56  C   UNL     1      -4.532  10.493  -1.593  1.00  0.00     0.074 A 
ATOM     57  C   UNL     1      -5.833  10.711  -0.978  1.00  0.00     0.031 C 
ATOM     58  C   UNL     1      -3.391  11.238  -1.683  1.00  0.00     0.031 A 
BRANCH  45  59
ATOM     59  C   UNL     1       2.209   9.666  -3.942  1.00  0.00    -0.014 A 
ATOM     60  C   UNL     1       2.246  10.547  -5.039  1.00  0.00     0.010 A 
ATOM     61  C   UNL     1       3.439   9.090  -3.552  1.00  0.00     0.010 A 
ATOM     62  C   UNL     1       3.427  10.801  -5.749  1.00  0.00     0.020 A 
ATOM     63  C   UNL     1       4.627   9.320  -4.269  1.00  0.00     0.020 A 
ATOM     64  C   UNL     1       4.612  10.180  -5.364  1.00  0.00     0.054 A 
BRANCH  64  65
ATOM     65  S   UNL     1       6.127  10.546  -6.291  1.00  0.00     0.124 S 
ATOM     66  O   UNL     1       5.749  10.208  -7.661  1.00  0.00    -0.237 OA
ATOM     67  O   UNL     1       6.319  11.969  -6.025  1.00  0.00    -0.237 OA
ATOM     68  O   UNL     1       7.124   9.661  -5.691  1.00  0.00    -0.744 OA
ENDBRANCH  64  65
ENDBRANCH  45  59
BRANCH  46  69
ATOM     69  C   UNL     1      -7.112   6.401  -2.116  1.00  0.00    -0.014 A 
ATOM     70  C   UNL     1      -8.063   5.763  -2.947  1.00  0.00     0.010 A 
ATOM     71  C   UNL     1      -6.651   5.679  -0.994  1.00  0.00     0.010 A 
ATOM     72  C   UNL     1      -8.414   4.417  -2.772  1.00  0.00     0.020 A 
ATOM     73  C   UNL     1      -7.024   4.327  -0.798  1.00  0.00     0.020 A 
ATOM     74  C   UNL     1      -7.848   3.689  -1.731  1.00  0.00     0.054 A 
BRANCH  74  75
ATOM     75  S   UNL     1      -8.011   1.873  -1.793  1.00  0.00     0.124 S 
ATOM     76  O   UNL     1      -9.446   1.672  -1.626  1.00  0.00    -0.237 OA
ATOM     77  O   UNL     1      -7.478   1.576  -3.123  1.00  0.00    -0.237 OA
ATOM     78  O   UNL     1      -7.175   1.418  -0.691  1.00  0.00    -0.744 OA
ENDBRANCH  74  75
ENDBRANCH  46  69
BRANCH  58  79
ATOM     79  C   UNL     1      -3.124  12.505  -0.923  1.00  0.00    -0.014 A 
ATOM     80  C   UNL     1      -3.728  12.823   0.299  1.00  0.00     0.010 A 
ATOM     81  C   UNL     1      -2.105  13.371  -1.392  1.00  0.00     0.010 A 
ATOM     82  C   UNL     1      -3.380  13.989   0.987  1.00  0.00     0.020 A 
ATOM     83  C   UNL     1      -1.707  14.499  -0.684  1.00  0.00     0.020 A 
ATOM     84  C   UNL     1      -2.373  14.819   0.490  1.00  0.00     0.054 A 
BRANCH  84  85
ATOM     85  S   UNL     1      -1.893  16.291   1.417  1.00  0.00     0.124 S 
ATOM     86  O   UNL     1      -2.864  17.272   0.938  1.00  0.00    -0.237 OA
ATOM     87  O   UNL     1      -2.060  15.870   2.806  1.00  0.00    -0.237 OA
ATOM     88  O   UNL     1      -0.511  16.521   1.004  1.00  0.00    -0.744 OA
ENDBRANCH  84  85
ENDBRANCH  58  79
ENDBRANCH  32  33
ENDBRANCH  25  27
ENDBRANCH  24  25
ENDBRANCH  23  24
ENDBRANCH   1  23
TORSDOF 17
