REMARK SMILES NC(=O)N[C@@H](C(=O)N[C@@H](CO)C(=O)OCCOC(=O)c1ccc(-c2c3nc(c(-c4ccc(S(=O)(=O)[O-])cc4)c4ccc([nH]4)c(-c4ccc(S(=O)(=O)[O-])cc4)c4nc(c(-c5ccc(S(=O)(=O)[O-])cc5)c5ccc2[nH]5)C=C4)C=C3)cc1)c1ccccc1
REMARK SMILES IDX 15 1 14 2 12 3 13 4 9 5 8 6 6 7 7 8 5 10 4 11 1 12 2 13 3 16
REMARK SMILES IDX 80 18 81 19 85 20 82 21 84 22 83 23 10 24 11 25 16 27 17 28
REMARK SMILES IDX 18 29 19 30 20 31 21 32 79 33 22 34 78 35 23 36 24 37 25 38
REMARK SMILES IDX 72 39 26 40 77 41 71 42 73 43 27 44 76 45 70 46 69 47 28 49
REMARK SMILES IDX 58 50 39 51 57 52 40 53 43 54 56 55 74 56 41 57 42 58 55 60
REMARK SMILES IDX 75 61 44 62 29 63 30 64 38 65 31 66 37 67 32 68 33 69 34 70
REMARK SMILES IDX 35 71 36 72 59 73 60 74 68 75 61 76 67 77 62 78 63 79 64 80
REMARK SMILES IDX 65 81 66 82 45 83 46 84 54 85 47 86 53 87 48 88 49 89 50 90
REMARK SMILES IDX 51 91 52 92
REMARK H PARENT 8 9 1 14 1 15 4 17 11 26 73 48 43 59
REMARK Flexibility Score: inf
ROOT
ATOM      1  C   UNL     1       3.756   3.770  -3.760  1.00  0.00     0.274 C 
ENDROOT
BRANCH   1   2
ATOM      2  O   UNL     1       3.155   3.936  -2.461  1.00  0.00    -0.460 OA
BRANCH   2   3
ATOM      3  C   UNL     1       1.976   3.285  -2.257  1.00  0.00     0.331 C 
ATOM      4  O   UNL     1       1.372   2.648  -3.114  1.00  0.00    -0.250 OA
BRANCH   3   5
ATOM      5  C   UNL     1       1.461   3.435  -0.820  1.00  0.00     0.218 C 
BRANCH   5   6
ATOM      6  N   UNL     1       2.456   3.966   0.123  1.00  0.00    -0.339 N 
ATOM      7  C   UNL     1       2.840   3.502   1.358  1.00  0.00     0.248 C 
ATOM      8  O   UNL     1       3.746   4.128   1.914  1.00  0.00    -0.272 OA
ATOM      9  H   UNL     1       2.918   4.782  -0.177  1.00  0.00     0.164 HD
BRANCH   7  10
ATOM     10  C   UNL     1       2.162   2.228   1.960  1.00  0.00     0.203 C 
BRANCH  10  11
ATOM     11  N   UNL     1       0.728   2.479   2.106  1.00  0.00    -0.322 N 
ATOM     12  N   UNL     1      -0.081   0.588   1.077  1.00  0.00    -0.352 N 
ATOM     13  C   UNL     1      -0.323   1.782   1.639  1.00  0.00     0.313 C 
ATOM     14  H   UNL     1      -0.825   0.049   0.724  1.00  0.00     0.161 HD
ATOM     15  H   UNL     1       0.842   0.250   1.018  1.00  0.00     0.161 HD
ATOM     16  O   UNL     1      -1.452   2.256   1.667  1.00  0.00    -0.249 OA
ATOM     17  H   UNL     1       0.497   3.282   2.627  1.00  0.00     0.166 HD
ENDBRANCH  10  11
BRANCH  10  18
ATOM     18  C   UNL     1       2.710   1.721   3.288  1.00  0.00    -0.016 A 
ATOM     19  C   UNL     1       2.816   0.335   3.511  1.00  0.00     0.006 A 
ATOM     20  C   UNL     1       3.021   2.584   4.351  1.00  0.00     0.006 A 
ATOM     21  C   UNL     1       3.229  -0.168   4.748  1.00  0.00     0.000 A 
ATOM     22  C   UNL     1       3.449   2.080   5.583  1.00  0.00     0.000 A 
ATOM     23  C   UNL     1       3.549   0.706   5.782  1.00  0.00     0.000 A 
ENDBRANCH  10  18
ENDBRANCH   7  10
ENDBRANCH   5   6
BRANCH   5  24
ATOM     24  C   UNL     1       0.204   4.311  -0.855  1.00  0.00     0.193 C 
BRANCH  24  25
ATOM     25  O   UNL     1       0.538   5.673  -1.136  1.00  0.00    -0.394 OA
ATOM     26  H   UNL     1       1.123   6.012  -0.441  1.00  0.00     0.210 HD
ENDBRANCH  24  25
ENDBRANCH   5  24
ENDBRANCH   3   5
ENDBRANCH   2   3
ENDBRANCH   1   2
BRANCH   1  27
ATOM     27  C   UNL     1       5.006   2.892  -3.674  1.00  0.00     0.275 C 
BRANCH  27  28
ATOM     28  O   UNL     1       4.678   1.545  -3.279  1.00  0.00    -0.458 OA
BRANCH  28  29
ATOM     29  C   UNL     1       4.756   1.323  -1.947  1.00  0.00     0.338 C 
ATOM     30  O   UNL     1       5.066   2.120  -1.079  1.00  0.00    -0.246 OA
BRANCH  29  31
ATOM     31  C   UNL     1       4.274  -0.022  -1.614  1.00  0.00     0.060 A 
ATOM     32  C   UNL     1       2.959  -0.142  -1.174  1.00  0.00     0.016 A 
ATOM     33  C   UNL     1       5.154  -1.099  -1.510  1.00  0.00     0.016 A 
ATOM     34  C   UNL     1       2.554  -1.300  -0.521  1.00  0.00     0.010 A 
ATOM     35  C   UNL     1       4.716  -2.291  -0.915  1.00  0.00     0.010 A 
ATOM     36  C   UNL     1       3.429  -2.383  -0.355  1.00  0.00    -0.014 A 
BRANCH  36  37
ATOM     37  C   UNL     1       3.007  -3.540   0.493  1.00  0.00     0.031 A 
ATOM     38  C   UNL     1       3.793  -3.905   1.732  1.00  0.00     0.074 A 
ATOM     39  C   UNL     1       1.863  -4.205   0.226  1.00  0.00     0.049 A 
ATOM     40  N   UNL     1       3.623  -4.914   2.550  1.00  0.00    -0.248 NA
ATOM     41  C   UNL     1       4.916  -3.027   2.098  1.00  0.00     0.031 C 
ATOM     42  C   UNL     1       0.957  -3.925  -0.891  1.00  0.00     0.029 A 
ATOM     43  N   UNL     1       1.244  -5.231   0.899  1.00  0.00    -0.354 N 
ATOM     44  C   UNL     1       4.653  -4.831   3.482  1.00  0.00     0.074 A 
ATOM     45  C   UNL     1       5.440  -3.668   3.133  1.00  0.00     0.031 C 
ATOM     46  C   UNL     1      -0.130  -4.704  -0.784  1.00  0.00     0.029 A 
ATOM     47  C   UNL     1       0.043  -5.612   0.345  1.00  0.00     0.049 A 
ATOM     48  H   UNL     1       1.624  -5.654   1.703  1.00  0.00     0.167 HD
ATOM     49  C   UNL     1       4.926  -5.648   4.529  1.00  0.00     0.031 A 
ATOM     50  C   UNL     1      -0.810  -6.601   0.676  1.00  0.00     0.031 A 
ATOM     51  C   UNL     1       4.122  -6.782   4.909  1.00  0.00     0.049 A 
ATOM     52  C   UNL     1      -0.473  -7.511   1.824  1.00  0.00     0.074 A 
ATOM     53  C   UNL     1       4.328  -7.676   5.946  1.00  0.00     0.029 A 
ATOM     54  N   UNL     1       2.948  -7.168   4.281  1.00  0.00    -0.354 N 
ATOM     55  N   UNL     1       0.554  -7.464   2.638  1.00  0.00    -0.248 NA
ATOM     56  C   UNL     1      -1.404  -8.617   2.085  1.00  0.00     0.031 C 
ATOM     57  C   UNL     1       3.300  -8.626   5.920  1.00  0.00     0.029 A 
ATOM     58  C   UNL     1       2.423  -8.290   4.902  1.00  0.00     0.049 A 
ATOM     59  H   UNL     1       2.546  -6.711   3.506  1.00  0.00     0.167 HD
ATOM     60  C   UNL     1       0.388  -8.532   3.514  1.00  0.00     0.074 A 
ATOM     61  C   UNL     1      -0.853  -9.184   3.149  1.00  0.00     0.031 C 
ATOM     62  C   UNL     1       1.194  -8.939   4.525  1.00  0.00     0.031 A 
BRANCH  49  63
ATOM     63  C   UNL     1       6.188  -5.381   5.310  1.00  0.00    -0.014 A 
ATOM     64  C   UNL     1       6.304  -4.283   6.181  1.00  0.00     0.010 A 
ATOM     65  C   UNL     1       7.272  -6.270   5.184  1.00  0.00     0.010 A 
ATOM     66  C   UNL     1       7.496  -4.056   6.876  1.00  0.00     0.020 A 
ATOM     67  C   UNL     1       8.454  -6.063   5.898  1.00  0.00     0.020 A 
ATOM     68  C   UNL     1       8.566  -4.945   6.726  1.00  0.00     0.054 A 
BRANCH  68  69
ATOM     69  S   UNL     1      10.099  -4.634   7.645  1.00  0.00     0.124 S 
ATOM     70  O   UNL     1      10.673  -3.515   6.902  1.00  0.00    -0.237 OA
ATOM     71  O   UNL     1       9.611  -4.314   8.984  1.00  0.00    -0.237 OA
ATOM     72  O   UNL     1      10.830  -5.894   7.537  1.00  0.00    -0.744 OA
ENDBRANCH  68  69
ENDBRANCH  49  63
BRANCH  50  73
ATOM     73  C   UNL     1      -2.043  -6.820  -0.131  1.00  0.00    -0.014 A 
ATOM     74  C   UNL     1      -3.317  -6.597   0.421  1.00  0.00     0.010 A 
ATOM     75  C   UNL     1      -1.945  -7.254  -1.466  1.00  0.00     0.010 A 
ATOM     76  C   UNL     1      -4.468  -6.814  -0.344  1.00  0.00     0.020 A 
ATOM     77  C   UNL     1      -3.090  -7.439  -2.243  1.00  0.00     0.020 A 
ATOM     78  C   UNL     1      -4.346  -7.229  -1.673  1.00  0.00     0.054 A 
BRANCH  78  79
ATOM     79  S   UNL     1      -5.846  -7.448  -2.669  1.00  0.00     0.124 S 
ATOM     80  O   UNL     1      -6.356  -8.722  -2.173  1.00  0.00    -0.237 OA
ATOM     81  O   UNL     1      -6.633  -6.269  -2.320  1.00  0.00    -0.237 OA
ATOM     82  O   UNL     1      -5.341  -7.465  -4.041  1.00  0.00    -0.744 OA
ENDBRANCH  78  79
ENDBRANCH  50  73
BRANCH  62  83
ATOM     83  C   UNL     1       0.738 -10.128   5.329  1.00  0.00    -0.014 A 
ATOM     84  C   UNL     1       0.752 -11.426   4.786  1.00  0.00     0.010 A 
ATOM     85  C   UNL     1       0.294  -9.943   6.650  1.00  0.00     0.010 A 
ATOM     86  C   UNL     1       0.278 -12.509   5.533  1.00  0.00     0.020 A 
ATOM     87  C   UNL     1      -0.154 -11.027   7.409  1.00  0.00     0.020 A 
ATOM     88  C   UNL     1      -0.181 -12.300   6.837  1.00  0.00     0.054 A 
BRANCH  88  89
ATOM     89  S   UNL     1      -0.792 -13.719   7.788  1.00  0.00     0.124 S 
ATOM     90  O   UNL     1      -2.108 -13.937   7.193  1.00  0.00    -0.237 OA
ATOM     91  O   UNL     1       0.204 -14.750   7.507  1.00  0.00    -0.237 OA
ATOM     92  O   UNL     1      -0.804 -13.232   9.166  1.00  0.00    -0.744 OA
ENDBRANCH  88  89
ENDBRANCH  62  83
ENDBRANCH  36  37
ENDBRANCH  29  31
ENDBRANCH  28  29
ENDBRANCH  27  28
ENDBRANCH   1  27
TORSDOF 20
