REMARK SMILES C[C@H](Cc1cccs1)NC(=O)N[C@](C)(C(=O)OCCOC(=O)c1ccc(-c2c3nc(c(-c4ccc(S(=O)(=O)[O-])cc4)c4ccc([nH]4)c(-c4ccc(S(=O)(=O)[O-])cc4)c4nc(c(-c5ccc(S(=O)(=O)[O-])cc5)c5ccc2[nH]5)C=C4)C=C3)cc1)C(F)(F)F
REMARK SMILES IDX 18 1 17 2 15 3 16 4 13 5 14 6 12 7 9 8 10 9 11 11 2 13 1 14
REMARK SMILES IDX 3 15 4 16 5 17 8 18 6 19 7 20 83 21 84 22 85 23 86 24 19 25
REMARK SMILES IDX 20 26 21 27 22 28 23 29 24 30 82 31 25 32 81 33 26 34 27 35
REMARK SMILES IDX 28 36 75 37 29 38 80 39 74 40 76 41 30 42 79 43 73 44 72 45
REMARK SMILES IDX 31 47 61 48 42 49 60 50 43 51 46 52 59 53 77 54 44 55 45 56
REMARK SMILES IDX 58 58 78 59 47 60 32 61 33 62 41 63 34 64 40 65 35 66 36 67
REMARK SMILES IDX 37 68 38 69 39 70 62 71 63 72 71 73 64 74 70 75 65 76 66 77
REMARK SMILES IDX 67 78 68 79 69 80 48 81 49 82 57 83 50 84 56 85 51 86 52 87
REMARK SMILES IDX 53 88 54 89 55 90
REMARK H PARENT 9 10 12 12 76 46 46 57
REMARK Flexibility Score: inf
ROOT
ATOM      1  C   UNL     1       0.892   0.280  -5.828  1.00  0.00     0.274 C 
ENDROOT
BRANCH   1   2
ATOM      2  O   UNL     1       0.089  -0.547  -4.956  1.00  0.00    -0.460 OA
BRANCH   2   3
ATOM      3  C   UNL     1       0.748  -1.260  -3.995  1.00  0.00     0.341 C 
ATOM      4  O   UNL     1       1.943  -1.131  -3.759  1.00  0.00    -0.249 OA
BRANCH   3   5
ATOM      5  C   UNL     1      -0.153  -2.291  -3.310  1.00  0.00     0.232 C 
ATOM      6  C   UNL     1      -1.406  -2.586  -4.183  1.00  0.00     0.058 C 
BRANCH   5   7
ATOM      7  N   UNL     1       0.577  -3.607  -3.283  1.00  0.00    -0.315 N 
ATOM      8  N   UNL     1       2.360  -3.858  -1.726  1.00  0.00    -0.335 N 
ATOM      9  C   UNL     1       1.570  -4.250  -2.703  1.00  0.00     0.316 C 
ATOM     10  H   UNL     1       3.046  -4.543  -1.556  1.00  0.00     0.165 HD
ATOM     11  O   UNL     1       1.784  -5.380  -3.161  1.00  0.00    -0.249 OA
ATOM     12  H   UNL     1       0.159  -4.208  -3.942  1.00  0.00     0.166 HD
BRANCH   8  13
ATOM     13  C   UNL     1       2.547  -2.728  -0.808  1.00  0.00     0.086 C 
ATOM     14  C   UNL     1       4.029  -2.348  -0.822  1.00  0.00     0.031 C 
BRANCH  13  15
ATOM     15  C   UNL     1       1.979  -3.128   0.577  1.00  0.00     0.071 C 
BRANCH  15  16
ATOM     16  C   UNL     1       2.526  -2.418   1.785  1.00  0.00     0.007 A 
ATOM     17  C   UNL     1       1.989  -1.355   2.486  1.00  0.00     0.015 A 
ATOM     18  S   UNL     1       3.946  -3.011   2.555  1.00  0.00    -0.149 S 
ATOM     19  C   UNL     1       2.766  -1.011   3.632  1.00  0.00     0.012 A 
ATOM     20  C   UNL     1       3.874  -1.815   3.769  1.00  0.00     0.065 A 
ENDBRANCH  15  16
ENDBRANCH  13  15
ENDBRANCH   8  13
ENDBRANCH   5   7
BRANCH   5  21
ATOM     21  C   UNL     1      -0.679  -1.712  -1.993  1.00  0.00     0.422 C 
ATOM     22  F   UNL     1      -1.673  -0.814  -2.219  1.00  0.00    -0.168 F 
ATOM     23  F   UNL     1      -1.217  -2.688  -1.220  1.00  0.00    -0.168 F 
ATOM     24  F   UNL     1       0.227  -1.067  -1.245  1.00  0.00    -0.168 F 
ENDBRANCH   5  21
ENDBRANCH   3   5
ENDBRANCH   2   3
ENDBRANCH   1   2
BRANCH   1  25
ATOM     25  C   UNL     1       0.716   1.755  -5.491  1.00  0.00     0.275 C 
BRANCH  25  26
ATOM     26  O   UNL     1       1.266   1.998  -4.188  1.00  0.00    -0.458 OA
BRANCH  26  27
ATOM     27  C   UNL     1       0.416   2.507  -3.271  1.00  0.00     0.338 C 
ATOM     28  O   UNL     1      -0.741   2.858  -3.450  1.00  0.00    -0.246 OA
BRANCH  27  29
ATOM     29  C   UNL     1       1.093   2.579  -1.965  1.00  0.00     0.060 A 
ATOM     30  C   UNL     1       1.748   1.458  -1.457  1.00  0.00     0.016 A 
ATOM     31  C   UNL     1       0.983   3.735  -1.194  1.00  0.00     0.016 A 
ATOM     32  C   UNL     1       2.205   1.458  -0.142  1.00  0.00     0.010 A 
ATOM     33  C   UNL     1       1.531   3.762   0.093  1.00  0.00     0.010 A 
ATOM     34  C   UNL     1       2.109   2.609   0.653  1.00  0.00    -0.014 A 
BRANCH  34  35
ATOM     35  C   UNL     1       2.539   2.579   2.080  1.00  0.00     0.031 A 
ATOM     36  C   UNL     1       1.544   2.879   3.175  1.00  0.00     0.074 A 
ATOM     37  C   UNL     1       3.797   2.225   2.415  1.00  0.00     0.049 A 
ATOM     38  N   UNL     1       1.749   3.027   4.460  1.00  0.00    -0.248 NA
ATOM     39  C   UNL     1       0.137   3.042   2.774  1.00  0.00     0.031 C 
ATOM     40  C   UNL     1       4.844   1.811   1.479  1.00  0.00     0.029 A 
ATOM     41  N   UNL     1       4.392   2.101   3.648  1.00  0.00    -0.354 N 
ATOM     42  C   UNL     1       0.521   3.391   5.002  1.00  0.00     0.074 A 
ATOM     43  C   UNL     1      -0.432   3.410   3.913  1.00  0.00     0.031 C 
ATOM     44  C   UNL     1       5.909   1.380   2.173  1.00  0.00     0.029 A 
ATOM     45  C   UNL     1       5.663   1.580   3.596  1.00  0.00     0.049 A 
ATOM     46  H   UNL     1       3.949   2.361   4.488  1.00  0.00     0.167 HD
ATOM     47  C   UNL     1       0.217   3.702   6.285  1.00  0.00     0.031 A 
ATOM     48  C   UNL     1       6.541   1.304   4.581  1.00  0.00     0.031 A 
ATOM     49  C   UNL     1       1.148   3.627   7.379  1.00  0.00     0.049 A 
ATOM     50  C   UNL     1       6.180   1.636   6.001  1.00  0.00     0.074 A 
ATOM     51  C   UNL     1       0.947   3.959   8.708  1.00  0.00     0.029 A 
ATOM     52  N   UNL     1       2.448   3.160   7.277  1.00  0.00    -0.354 N 
ATOM     53  N   UNL     1       5.045   2.088   6.478  1.00  0.00    -0.248 NA
ATOM     54  C   UNL     1       7.232   1.451   7.011  1.00  0.00     0.031 C 
ATOM     55  C   UNL     1       2.135   3.714   9.405  1.00  0.00     0.029 A 
ATOM     56  C   UNL     1       3.062   3.193   8.517  1.00  0.00     0.049 A 
ATOM     57  H   UNL     1       2.873   2.849   6.444  1.00  0.00     0.167 HD
ATOM     58  C   UNL     1       5.253   2.257   7.843  1.00  0.00     0.074 A 
ATOM     59  C   UNL     1       6.605   1.817   8.121  1.00  0.00     0.031 C 
ATOM     60  C   UNL     1       4.408   2.755   8.778  1.00  0.00     0.031 A 
BRANCH  47  61
ATOM     61  C   UNL     1      -1.167   4.225   6.560  1.00  0.00    -0.014 A 
ATOM     62  C   UNL     1      -2.284   3.375   6.610  1.00  0.00     0.010 A 
ATOM     63  C   UNL     1      -1.340   5.602   6.794  1.00  0.00     0.010 A 
ATOM     64  C   UNL     1      -3.559   3.901   6.847  1.00  0.00     0.020 A 
ATOM     65  C   UNL     1      -2.608   6.128   7.053  1.00  0.00     0.020 A 
ATOM     66  C   UNL     1      -3.713   5.276   7.058  1.00  0.00     0.054 A 
BRANCH  66  67
ATOM     67  S   UNL     1      -5.373   5.938   7.369  1.00  0.00     0.124 S 
ATOM     68  O   UNL     1      -5.942   5.964   6.023  1.00  0.00    -0.237 OA
ATOM     69  O   UNL     1      -5.953   4.951   8.275  1.00  0.00    -0.237 OA
ATOM     70  O   UNL     1      -5.117   7.248   7.962  1.00  0.00    -0.744 OA
ENDBRANCH  66  67
ENDBRANCH  47  61
BRANCH  48  71
ATOM     71  C   UNL     1       7.864   0.705   4.255  1.00  0.00    -0.014 A 
ATOM     72  C   UNL     1       8.158  -0.615   4.636  1.00  0.00     0.010 A 
ATOM     73  C   UNL     1       8.832   1.447   3.554  1.00  0.00     0.010 A 
ATOM     74  C   UNL     1       9.398  -1.182   4.328  1.00  0.00     0.020 A 
ATOM     75  C   UNL     1      10.062   0.875   3.219  1.00  0.00     0.020 A 
ATOM     76  C   UNL     1      10.342  -0.433   3.619  1.00  0.00     0.054 A 
BRANCH  76  77
ATOM     77  S   UNL     1      11.923  -1.199   3.166  1.00  0.00     0.124 S 
ATOM     78  O   UNL     1      12.702  -1.028   4.388  1.00  0.00    -0.237 OA
ATOM     79  O   UNL     1      11.539  -2.572   2.848  1.00  0.00    -0.237 OA
ATOM     80  O   UNL     1      12.366  -0.405   2.022  1.00  0.00    -0.744 OA
ENDBRANCH  76  77
ENDBRANCH  48  71
BRANCH  60  81
ATOM     81  C   UNL     1       4.919   2.849  10.188  1.00  0.00    -0.014 A 
ATOM     82  C   UNL     1       5.829   3.857  10.555  1.00  0.00     0.010 A 
ATOM     83  C   UNL     1       4.453   1.953  11.165  1.00  0.00     0.010 A 
ATOM     84  C   UNL     1       6.288   3.947  11.872  1.00  0.00     0.020 A 
ATOM     85  C   UNL     1       4.895   2.053  12.487  1.00  0.00     0.020 A 
ATOM     86  C   UNL     1       5.821   3.041  12.829  1.00  0.00     0.054 A 
BRANCH  86  87
ATOM     87  S   UNL     1       6.399   3.200  14.541  1.00  0.00     0.124 S 
ATOM     88  O   UNL     1       7.729   2.600  14.469  1.00  0.00    -0.237 OA
ATOM     89  O   UNL     1       6.372   4.644  14.760  1.00  0.00    -0.237 OA
ATOM     90  O   UNL     1       5.413   2.442  15.309  1.00  0.00    -0.744 OA
ENDBRANCH  86  87
ENDBRANCH  60  81
ENDBRANCH  34  35
ENDBRANCH  27  29
ENDBRANCH  26  27
ENDBRANCH  25  26
ENDBRANCH   1  25
TORSDOF 19
