REMARK SMILES C[C@H](NC(=O)c1ccc(C(C)(C)C)cc1)C(=O)N[C@@H](C(=O)OCCOC(=O)c1ccc(-c2c3nc(c(-c4ccc(S(=O)(=O)[O-])cc4)c4ccc([nH]4)c(-c4ccc(S(=O)(=O)[O-])cc4)c4nc(c(-c5ccc(S(=O)(=O)[O-])cc5)c5ccc2[nH]5)C=C4)C=C3)cc1)[C@H](C)O
REMARK SMILES IDX 23 1 22 2 20 3 21 4 19 5 18 6 16 7 17 8 2 10 1 11 3 12 4 13
REMARK SMILES IDX 5 15 6 16 7 17 15 18 8 19 14 20 9 21 10 22 11 23 12 24 13 25
REMARK SMILES IDX 88 26 89 27 90 28 24 30 25 31 26 32 27 33 28 34 29 35 87 36
REMARK SMILES IDX 30 37 86 38 31 39 32 40 33 41 80 42 34 43 85 44 79 45 81 46
REMARK SMILES IDX 35 47 84 48 78 49 77 50 36 52 66 53 47 54 65 55 48 56 51 57
REMARK SMILES IDX 64 58 82 59 49 60 50 61 63 63 83 64 52 65 37 66 38 67 46 68
REMARK SMILES IDX 39 69 45 70 40 71 41 72 42 73 43 74 44 75 67 76 68 77 76 78
REMARK SMILES IDX 69 79 75 80 70 81 71 82 72 83 73 84 74 85 53 86 54 87 62 88
REMARK SMILES IDX 55 89 61 90 56 91 57 92 58 93 59 94 60 95
REMARK H PARENT 18 9 3 14 90 29 81 51 51 62
REMARK Flexibility Score: inf
ROOT
ATOM      1  C   UNL     1       1.050  -5.688   4.143  1.00  0.00     0.274 C 
ENDROOT
BRANCH   1   2
ATOM      2  O   UNL     1       0.639  -4.867   3.029  1.00  0.00    -0.460 OA
BRANCH   2   3
ATOM      3  C   UNL     1      -0.558  -4.234   3.161  1.00  0.00     0.331 C 
ATOM      4  O   UNL     1      -1.257  -4.281   4.167  1.00  0.00    -0.250 OA
BRANCH   3   5
ATOM      5  C   UNL     1      -0.940  -3.397   1.931  1.00  0.00     0.221 C 
BRANCH   5   6
ATOM      6  N   UNL     1      -0.114  -3.624   0.740  1.00  0.00    -0.339 N 
ATOM      7  C   UNL     1      -0.460  -4.132  -0.476  1.00  0.00     0.243 C 
ATOM      8  O   UNL     1       0.366  -4.093  -1.390  1.00  0.00    -0.273 OA
ATOM      9  H   UNL     1       0.833  -3.372   0.834  1.00  0.00     0.164 HD
BRANCH   7  10
ATOM     10  C   UNL     1      -1.859  -4.738  -0.704  1.00  0.00     0.168 C 
ATOM     11  C   UNL     1      -2.953  -3.670  -0.654  1.00  0.00     0.041 C 
BRANCH  10  12
ATOM     12  N   UNL     1      -2.010  -5.869   0.223  1.00  0.00    -0.341 N 
ATOM     13  C   UNL     1      -3.048  -6.740   0.420  1.00  0.00     0.251 C 
ATOM     14  H   UNL     1      -1.230  -6.028   0.803  1.00  0.00     0.164 HD
ATOM     15  O   UNL     1      -2.938  -7.667   1.216  1.00  0.00    -0.269 OA
BRANCH  13  16
ATOM     16  C   UNL     1      -4.327  -6.510  -0.270  1.00  0.00     0.039 A 
ATOM     17  C   UNL     1      -5.454  -6.255   0.506  1.00  0.00     0.014 A 
ATOM     18  C   UNL     1      -4.404  -6.474  -1.660  1.00  0.00     0.014 A 
ATOM     19  C   UNL     1      -6.634  -5.843  -0.113  1.00  0.00     0.005 A 
ATOM     20  C   UNL     1      -5.585  -6.043  -2.271  1.00  0.00     0.005 A 
ATOM     21  C   UNL     1      -6.705  -5.663  -1.509  1.00  0.00    -0.043 A 
BRANCH  21  22
ATOM     22  C   UNL     1      -7.971  -5.072  -2.155  1.00  0.00    -0.013 C 
ATOM     23  C   UNL     1      -9.037  -6.177  -2.249  1.00  0.00     0.016 C 
ATOM     24  C   UNL     1      -8.528  -3.896  -1.317  1.00  0.00     0.016 C 
ATOM     25  C   UNL     1      -7.720  -4.510  -3.574  1.00  0.00     0.016 C 
ENDBRANCH  21  22
ENDBRANCH  13  16
ENDBRANCH  10  12
ENDBRANCH   7  10
ENDBRANCH   5   6
BRANCH   5  26
ATOM     26  C   UNL     1      -0.931  -1.896   2.290  1.00  0.00     0.145 C 
ATOM     27  C   UNL     1      -1.748  -1.050   1.319  1.00  0.00     0.041 C 
BRANCH  26  28
ATOM     28  O   UNL     1       0.395  -1.358   2.260  1.00  0.00    -0.391 OA
ATOM     29  H   UNL     1       0.747  -1.416   1.358  1.00  0.00     0.211 HD
ENDBRANCH  26  28
ENDBRANCH   5  26
ENDBRANCH   3   5
ENDBRANCH   2   3
ENDBRANCH   1   2
BRANCH   1  30
ATOM     30  C   UNL     1       2.145  -5.017   4.977  1.00  0.00     0.275 C 
BRANCH  30  31
ATOM     31  O   UNL     1       1.651  -3.856   5.676  1.00  0.00    -0.458 OA
BRANCH  31  32
ATOM     32  C   UNL     1       1.921  -2.679   5.070  1.00  0.00     0.338 C 
ATOM     33  O   UNL     1       2.490  -2.523   4.000  1.00  0.00    -0.246 OA
BRANCH  32  34
ATOM     34  C   UNL     1       1.262  -1.548   5.742  1.00  0.00     0.060 A 
ATOM     35  C   UNL     1      -0.115  -1.442   5.601  1.00  0.00     0.016 A 
ATOM     36  C   UNL     1       2.004  -0.453   6.180  1.00  0.00     0.016 A 
ATOM     37  C   UNL     1      -0.725  -0.193   5.702  1.00  0.00     0.010 A 
ATOM     38  C   UNL     1       1.355   0.765   6.436  1.00  0.00     0.010 A 
ATOM     39  C   UNL     1      -0.007   0.936   6.123  1.00  0.00    -0.014 A 
BRANCH  39  40
ATOM     40  C   UNL     1      -0.654   2.289   6.146  1.00  0.00     0.031 A 
ATOM     41  C   UNL     1       0.001   3.467   5.454  1.00  0.00     0.074 A 
ATOM     42  C   UNL     1      -1.851   2.484   6.742  1.00  0.00     0.049 A 
ATOM     43  N   UNL     1      -0.276   4.745   5.554  1.00  0.00    -0.248 NA
ATOM     44  C   UNL     1       1.126   3.174   4.550  1.00  0.00     0.031 C 
ATOM     45  C   UNL     1      -2.658   1.455   7.401  1.00  0.00     0.029 A 
ATOM     46  N   UNL     1      -2.612   3.623   6.870  1.00  0.00    -0.354 N 
ATOM     47  C   UNL     1       0.696   5.408   4.809  1.00  0.00     0.074 A 
ATOM     48  C   UNL     1       1.561   4.391   4.250  1.00  0.00     0.031 C 
ATOM     49  C   UNL     1      -3.824   1.988   7.794  1.00  0.00     0.029 A 
ATOM     50  C   UNL     1      -3.803   3.421   7.528  1.00  0.00     0.049 A 
ATOM     51  H   UNL     1      -2.331   4.500   6.523  1.00  0.00     0.167 HD
ATOM     52  C   UNL     1       0.859   6.740   4.613  1.00  0.00     0.031 A 
ATOM     53  C   UNL     1      -4.756   4.285   7.927  1.00  0.00     0.031 A 
ATOM     54  C   UNL     1      -0.053   7.750   5.089  1.00  0.00     0.049 A 
ATOM     55  C   UNL     1      -4.569   5.755   7.686  1.00  0.00     0.074 A 
ATOM     56  C   UNL     1       0.029   9.125   4.941  1.00  0.00     0.029 A 
ATOM     57  N   UNL     1      -1.234   7.494   5.767  1.00  0.00    -0.354 N 
ATOM     58  N   UNL     1      -3.576   6.371   7.092  1.00  0.00    -0.248 NA
ATOM     59  C   UNL     1      -5.622   6.646   8.190  1.00  0.00     0.031 C 
ATOM     60  C   UNL     1      -1.092   9.701   5.550  1.00  0.00     0.029 A 
ATOM     61  C   UNL     1      -1.893   8.682   6.037  1.00  0.00     0.049 A 
ATOM     62  H   UNL     1      -1.557   6.598   6.019  1.00  0.00     0.167 HD
ATOM     63  C   UNL     1      -3.889   7.724   7.145  1.00  0.00     0.074 A 
ATOM     64  C   UNL     1      -5.173   7.833   7.805  1.00  0.00     0.031 C 
ATOM     65  C   UNL     1      -3.170   8.781   6.695  1.00  0.00     0.031 A 
BRANCH  52  66
ATOM     66  C   UNL     1       2.101   7.196   3.889  1.00  0.00    -0.014 A 
ATOM     67  C   UNL     1       2.257   7.034   2.502  1.00  0.00     0.010 A 
ATOM     68  C   UNL     1       3.117   7.843   4.619  1.00  0.00     0.010 A 
ATOM     69  C   UNL     1       3.424   7.472   1.866  1.00  0.00     0.020 A 
ATOM     70  C   UNL     1       4.271   8.307   3.983  1.00  0.00     0.020 A 
ATOM     71  C   UNL     1       4.426   8.101   2.612  1.00  0.00     0.054 A 
BRANCH  71  72
ATOM     72  S   UNL     1       5.923   8.679   1.764  1.00  0.00     0.124 S 
ATOM     73  O   UNL     1       6.659   7.432   1.569  1.00  0.00    -0.237 OA
ATOM     74  O   UNL     1       5.391   9.290   0.548  1.00  0.00    -0.237 OA
ATOM     75  O   UNL     1       6.521   9.613   2.715  1.00  0.00    -0.744 OA
ENDBRANCH  71  72
ENDBRANCH  52  66
BRANCH  53  76
ATOM     76  C   UNL     1      -5.954   3.779   8.653  1.00  0.00    -0.014 A 
ATOM     77  C   UNL     1      -7.219   3.789   8.041  1.00  0.00     0.010 A 
ATOM     78  C   UNL     1      -5.825   3.256   9.953  1.00  0.00     0.010 A 
ATOM     79  C   UNL     1      -8.334   3.285   8.717  1.00  0.00     0.020 A 
ATOM     80  C   UNL     1      -6.931   2.722  10.618  1.00  0.00     0.020 A 
ATOM     81  C   UNL     1      -8.181   2.749   9.999  1.00  0.00     0.054 A 
BRANCH  81  82
ATOM     82  S   UNL     1      -9.621   2.022  10.829  1.00  0.00     0.124 S 
ATOM     83  O   UNL     1     -10.313   3.205  11.327  1.00  0.00    -0.237 OA
ATOM     84  O   UNL     1     -10.289   1.307   9.744  1.00  0.00    -0.237 OA
ATOM     85  O   UNL     1      -9.025   1.165  11.852  1.00  0.00    -0.744 OA
ENDBRANCH  81  82
ENDBRANCH  53  76
BRANCH  65  86
ATOM     86  C   UNL     1      -3.782  10.144   6.865  1.00  0.00    -0.014 A 
ATOM     87  C   UNL     1      -3.837  10.767   8.124  1.00  0.00     0.010 A 
ATOM     88  C   UNL     1      -4.305  10.813   5.744  1.00  0.00     0.010 A 
ATOM     89  C   UNL     1      -4.450  12.015   8.268  1.00  0.00     0.020 A 
ATOM     90  C   UNL     1      -4.898  12.070   5.880  1.00  0.00     0.020 A 
ATOM     91  C   UNL     1      -4.985  12.654   7.145  1.00  0.00     0.054 A 
BRANCH  91  92
ATOM     92  S   UNL     1      -5.775  14.274   7.350  1.00  0.00     0.124 S 
ATOM     93  O   UNL     1      -7.074  13.909   7.907  1.00  0.00    -0.237 OA
ATOM     94  O   UNL     1      -4.869  14.963   8.267  1.00  0.00    -0.237 OA
ATOM     95  O   UNL     1      -5.808  14.816   5.994  1.00  0.00    -0.744 OA
ENDBRANCH  91  92
ENDBRANCH  65  86
ENDBRANCH  39  40
ENDBRANCH  32  34
ENDBRANCH  31  32
ENDBRANCH  30  31
ENDBRANCH   1  30
TORSDOF 21
