REMARK SMILES CN(CCc1cccs1)C(=O)c1cccn1CC(=O)OCCOC(=O)c1ccc(-c2c3nc(c(-c4ccc(S(=O)(=O)[O-])cc4)c4ccc([nH]4)c(-c4ccc(S(=O)(=O)[O-])cc4)c4nc(c(-c5ccc(S(=O)(=O)[O-])cc5)c5ccc2[nH]5)C=C4)C=C3)cc1
REMARK SMILES IDX 20 1 18 2 19 3 17 4 16 5 12 6 13 7 14 8 15 9 10 10 11 11
REMARK SMILES IDX 2 12 1 13 3 14 4 15 5 16 6 17 9 18 7 19 8 20 21 21 22 22
REMARK SMILES IDX 23 23 24 24 25 25 26 26 27 27 85 28 28 29 84 30 29 31 30 32
REMARK SMILES IDX 31 33 78 34 32 35 83 36 77 37 79 38 33 39 82 40 76 41 75 42
REMARK SMILES IDX 34 44 64 45 45 46 63 47 46 48 49 49 62 50 80 51 47 52 48 53
REMARK SMILES IDX 61 55 81 56 50 57 35 58 36 59 44 60 37 61 43 62 38 63 39 64
REMARK SMILES IDX 40 65 41 66 42 67 65 68 66 69 74 70 67 71 73 72 68 73 69 74
REMARK SMILES IDX 70 75 71 76 72 77 51 78 52 79 60 80 53 81 59 82 54 83 55 84
REMARK SMILES IDX 56 85 57 86 58 87
REMARK H PARENT 79 43 49 54
REMARK Flexibility Score: inf
ROOT
ATOM      1  O   UNL     1       3.702   1.619  -4.540  1.00  0.00    -0.461 OA
ENDROOT
BRANCH   1   2
ATOM      2  C   UNL     1       4.142   2.831  -4.101  1.00  0.00     0.326 C 
ATOM      3  O   UNL     1       5.221   3.324  -4.425  1.00  0.00    -0.250 OA
BRANCH   2   4
ATOM      4  C   UNL     1       3.241   3.488  -3.076  1.00  0.00     0.244 C 
BRANCH   4   5
ATOM      5  N   UNL     1       1.819   3.322  -3.334  1.00  0.00    -0.332 N 
ATOM      6  C   UNL     1       0.992   2.259  -2.971  1.00  0.00     0.107 A 
ATOM      7  C   UNL     1       0.020   2.290  -3.964  1.00  0.00     0.033 A 
ATOM      8  C   UNL     1       0.017   3.577  -4.557  1.00  0.00     0.020 A 
ATOM      9  C   UNL     1       1.078   4.253  -4.018  1.00  0.00     0.087 A 
BRANCH   6  10
ATOM     10  C   UNL     1       1.231   1.428  -1.793  1.00  0.00     0.270 C 
ATOM     11  O   UNL     1       2.180   1.698  -1.048  1.00  0.00    -0.267 OA
BRANCH  10  12
ATOM     12  N   UNL     1       0.371   0.391  -1.389  1.00  0.00    -0.340 N 
ATOM     13  C   UNL     1       0.582  -0.122  -0.039  1.00  0.00     0.147 C 
BRANCH  12  14
ATOM     14  C   UNL     1      -0.755  -0.198  -2.121  1.00  0.00     0.125 C 
BRANCH  14  15
ATOM     15  C   UNL     1      -2.152   0.228  -1.632  1.00  0.00     0.068 C 
BRANCH  15  16
ATOM     16  C   UNL     1      -2.563   1.613  -2.039  1.00  0.00     0.006 A 
ATOM     17  C   UNL     1      -2.234   2.818  -1.450  1.00  0.00     0.015 A 
ATOM     18  S   UNL     1      -3.592   1.843  -3.396  1.00  0.00    -0.149 S 
ATOM     19  C   UNL     1      -2.739   3.934  -2.180  1.00  0.00     0.012 A 
ATOM     20  C   UNL     1      -3.470   3.544  -3.280  1.00  0.00     0.065 A 
ENDBRANCH  15  16
ENDBRANCH  14  15
ENDBRANCH  12  14
ENDBRANCH  10  12
ENDBRANCH   6  10
ENDBRANCH   4   5
ENDBRANCH   2   4
ENDBRANCH   1   2
BRANCH   1  21
ATOM     21  C   UNL     1       4.576   0.904  -5.435  1.00  0.00     0.274 C 
BRANCH  21  22
ATOM     22  C   UNL     1       4.183   0.992  -6.914  1.00  0.00     0.275 C 
BRANCH  22  23
ATOM     23  O   UNL     1       3.984   2.328  -7.394  1.00  0.00    -0.458 OA
BRANCH  23  24
ATOM     24  C   UNL     1       2.708   2.728  -7.254  1.00  0.00     0.338 C 
ATOM     25  O   UNL     1       1.820   2.129  -6.638  1.00  0.00    -0.246 OA
BRANCH  24  26
ATOM     26  C   UNL     1       2.393   3.925  -8.021  1.00  0.00     0.060 A 
ATOM     27  C   UNL     1       1.853   5.017  -7.341  1.00  0.00     0.016 A 
ATOM     28  C   UNL     1       2.315   3.829  -9.412  1.00  0.00     0.016 A 
ATOM     29  C   UNL     1       1.128   5.970  -8.033  1.00  0.00     0.010 A 
ATOM     30  C   UNL     1       1.600   4.794 -10.114  1.00  0.00     0.010 A 
ATOM     31  C   UNL     1       0.976   5.840  -9.417  1.00  0.00    -0.014 A 
BRANCH  31  32
ATOM     32  C   UNL     1       0.263   6.915 -10.136  1.00  0.00     0.031 A 
ATOM     33  C   UNL     1       1.161   8.121 -10.414  1.00  0.00     0.074 A 
ATOM     34  C   UNL     1      -1.063   6.722 -10.395  1.00  0.00     0.049 A 
ATOM     35  N   UNL     1       0.843   9.350 -10.682  1.00  0.00    -0.248 NA
ATOM     36  C   UNL     1       2.636   7.949 -10.300  1.00  0.00     0.031 C 
ATOM     37  C   UNL     1      -1.826   5.511 -10.020  1.00  0.00     0.029 A 
ATOM     38  N   UNL     1      -2.035   7.486 -11.006  1.00  0.00    -0.354 N 
ATOM     39  C   UNL     1       2.045  10.048 -10.915  1.00  0.00     0.074 A 
ATOM     40  C   UNL     1       3.115   9.161 -10.573  1.00  0.00     0.031 C 
ATOM     41  C   UNL     1      -3.127   5.641 -10.360  1.00  0.00     0.029 A 
ATOM     42  C   UNL     1      -3.335   6.925 -11.002  1.00  0.00     0.049 A 
ATOM     43  H   UNL     1      -1.839   8.359 -11.416  1.00  0.00     0.167 HD
ATOM     44  C   UNL     1       2.115  11.288 -11.473  1.00  0.00     0.031 A 
ATOM     45  C   UNL     1      -4.506   7.465 -11.453  1.00  0.00     0.031 A 
ATOM     46  C   UNL     1       0.821  11.837 -11.689  1.00  0.00     0.049 A 
ATOM     47  C   UNL     1      -4.159   8.750 -12.090  1.00  0.00     0.074 A 
ATOM     48  C   UNL     1      -0.115  12.404 -10.865  1.00  0.00     0.029 A 
ATOM     49  N   UNL     1       0.236  11.579 -12.904  1.00  0.00    -0.354 N 
ATOM     50  N   UNL     1      -3.539   8.886 -13.221  1.00  0.00    -0.248 NA
ATOM     51  C   UNL     1      -4.498   9.997 -11.391  1.00  0.00     0.031 C 
ATOM     52  C   UNL     1      -1.355  12.099 -11.474  1.00  0.00     0.029 A 
ATOM     53  C   UNL     1      -1.111  11.419 -12.671  1.00  0.00     0.049 A 
ATOM     54  H   UNL     1       0.692  11.520 -13.775  1.00  0.00     0.167 HD
ATOM     55  C   UNL     1      -3.102  10.188 -13.180  1.00  0.00     0.074 A 
ATOM     56  C   UNL     1      -3.945  10.873 -12.226  1.00  0.00     0.031 C 
ATOM     57  C   UNL     1      -1.822  10.484 -13.515  1.00  0.00     0.031 A 
BRANCH  44  58
ATOM     58  C   UNL     1       3.302  12.014 -12.039  1.00  0.00    -0.014 A 
ATOM     59  C   UNL     1       3.199  13.416 -12.200  1.00  0.00     0.010 A 
ATOM     60  C   UNL     1       4.373  11.364 -12.674  1.00  0.00     0.010 A 
ATOM     61  C   UNL     1       4.065  14.124 -13.035  1.00  0.00     0.020 A 
ATOM     62  C   UNL     1       5.269  12.074 -13.488  1.00  0.00     0.020 A 
ATOM     63  C   UNL     1       5.080  13.441 -13.699  1.00  0.00     0.054 A 
BRANCH  63  64
ATOM     64  S   UNL     1       6.092  14.353 -14.895  1.00  0.00     0.124 S 
ATOM     65  O   UNL     1       5.149  14.581 -15.986  1.00  0.00    -0.237 OA
ATOM     66  O   UNL     1       6.476  15.545 -14.141  1.00  0.00    -0.237 OA
ATOM     67  O   UNL     1       7.189  13.434 -15.190  1.00  0.00    -0.744 OA
ENDBRANCH  63  64
ENDBRANCH  44  58
BRANCH  45  68
ATOM     68  C   UNL     1      -5.983   7.150 -11.368  1.00  0.00    -0.014 A 
ATOM     69  C   UNL     1      -6.556   6.064 -10.694  1.00  0.00     0.010 A 
ATOM     70  C   UNL     1      -6.902   8.102 -11.895  1.00  0.00     0.010 A 
ATOM     71  C   UNL     1      -7.946   6.011 -10.438  1.00  0.00     0.020 A 
ATOM     72  C   UNL     1      -8.269   8.089 -11.607  1.00  0.00     0.020 A 
ATOM     73  C   UNL     1      -8.785   7.050 -10.852  1.00  0.00     0.054 A 
BRANCH  73  74
ATOM     74  S   UNL     1     -10.510   7.143 -10.295  1.00  0.00     0.124 S 
ATOM     75  O   UNL     1     -11.223   6.456 -11.367  1.00  0.00    -0.237 OA
ATOM     76  O   UNL     1     -10.479   6.447  -9.010  1.00  0.00    -0.237 OA
ATOM     77  O   UNL     1     -10.753   8.582 -10.201  1.00  0.00    -0.744 OA
ENDBRANCH  73  74
ENDBRANCH  45  68
BRANCH  57  78
ATOM     78  C   UNL     1      -1.148   9.474 -14.426  1.00  0.00    -0.014 A 
ATOM     79  C   UNL     1      -1.557   9.348 -15.764  1.00  0.00     0.010 A 
ATOM     80  C   UNL     1      -0.154   8.590 -13.960  1.00  0.00     0.010 A 
ATOM     81  C   UNL     1      -0.984   8.384 -16.608  1.00  0.00     0.020 A 
ATOM     82  C   UNL     1       0.429   7.627 -14.796  1.00  0.00     0.020 A 
ATOM     83  C   UNL     1       0.010   7.531 -16.121  1.00  0.00     0.054 A 
BRANCH  83  84
ATOM     84  S   UNL     1       0.730   6.292 -17.237  1.00  0.00     0.124 S 
ATOM     85  O   UNL     1      -0.439   5.532 -17.672  1.00  0.00    -0.237 OA
ATOM     86  O   UNL     1       1.353   7.121 -18.266  1.00  0.00    -0.237 OA
ATOM     87  O   UNL     1       1.663   5.552 -16.388  1.00  0.00    -0.744 OA
ENDBRANCH  83  84
ENDBRANCH  57  78
ENDBRANCH  31  32
ENDBRANCH  24  26
ENDBRANCH  23  24
ENDBRANCH  22  23
ENDBRANCH  21  22
ENDBRANCH   1  21
TORSDOF 20
