REMARK SMILES C/C(=N\NC(N)=O)c1nnn(-c2ccc(C(=O)OCCOC(=O)c3ccc(-c4c5nc(c(-c6ccc(S(=O)(=O)[O-])cc6)c6ccc([nH]6)c(-c6ccc(S(=O)(=O)[O-])cc6)c6nc(c(-c7ccc(S(=O)(=O)[O-])cc7)c7ccc4[nH]7)C=C6)C=C5)cc3)cc2)c1C
REMARK SMILES IDX 19 1 18 2 16 3 17 4 15 5 12 6 13 7 85 8 14 9 84 10 11 11
REMARK SMILES IDX 8 12 9 13 86 14 10 15 87 16 2 17 1 18 3 19 4 20 5 21 6 23
REMARK SMILES IDX 7 24 20 27 21 28 22 29 23 30 24 31 25 32 83 33 26 34 82 35
REMARK SMILES IDX 27 36 28 37 29 38 76 39 30 40 81 41 75 42 77 43 31 44 80 45
REMARK SMILES IDX 74 46 73 47 32 49 62 50 43 51 61 52 44 53 47 54 60 55 78 56
REMARK SMILES IDX 45 57 46 58 59 60 79 61 48 62 33 63 34 64 42 65 35 66 41 67
REMARK SMILES IDX 36 68 37 69 38 70 39 71 40 72 63 73 64 74 72 75 65 76 71 77
REMARK SMILES IDX 66 78 67 79 68 80 69 81 70 82 49 83 50 84 58 85 51 86 57 87
REMARK SMILES IDX 52 88 53 89 54 90 55 91 56 92
REMARK H PARENT 4 22 6 25 6 26 77 48 47 59
REMARK Flexibility Score: inf
ROOT
ATOM      1  C   UNL     1       9.473  -6.675  -0.998  1.00  0.00     0.275 C 
ENDROOT
BRANCH   1   2
ATOM      2  O   UNL     1       8.218  -6.099  -0.612  1.00  0.00    -0.458 OA
BRANCH   2   3
ATOM      3  C   UNL     1       7.271  -6.031  -1.580  1.00  0.00     0.338 C 
ATOM      4  O   UNL     1       7.439  -6.228  -2.776  1.00  0.00    -0.246 OA
BRANCH   3   5
ATOM      5  C   UNL     1       5.950  -5.716  -0.982  1.00  0.00     0.060 A 
ATOM      6  C   UNL     1       3.493  -4.830  -0.055  1.00  0.00     0.067 A 
ATOM      7  C   UNL     1       3.541  -5.541  -1.256  1.00  0.00     0.029 A 
ATOM      8  C   UNL     1       4.627  -4.697   0.753  1.00  0.00     0.029 A 
ATOM      9  C   UNL     1       4.786  -5.963  -1.729  1.00  0.00     0.018 A 
ATOM     10  C   UNL     1       5.857  -5.146   0.292  1.00  0.00     0.018 A 
BRANCH   6  11
ATOM     11  N   UNL     1       2.361  -4.047   0.243  1.00  0.00    -0.217 N 
ATOM     12  C   UNL     1       1.020  -2.366   0.579  1.00  0.00     0.132 A 
ATOM     13  N   UNL     1       0.271  -3.501   0.418  1.00  0.00    -0.128 NA
ATOM     14  C   UNL     1       2.358  -2.674   0.435  1.00  0.00     0.071 A 
ATOM     15  N   UNL     1       1.095  -4.500   0.120  1.00  0.00    -0.061 NA
ATOM     16  C   UNL     1       3.548  -1.796   0.306  1.00  0.00     0.069 C 
BRANCH  12  17
ATOM     17  C   UNL     1       0.444  -1.038   0.671  1.00  0.00     0.087 C 
ATOM     18  C   UNL     1       0.523  -0.193  -0.575  1.00  0.00     0.071 C 
ATOM     19  N   UNL     1      -0.086  -0.733   1.819  1.00  0.00    -0.174 NA
BRANCH  19  20
ATOM     20  N   UNL     1      -0.595   0.507   2.079  1.00  0.00    -0.229 N 
ATOM     21  C   UNL     1       0.008   1.714   1.800  1.00  0.00     0.332 C 
ATOM     22  H   UNL     1      -1.481   0.542   2.508  1.00  0.00     0.195 HD
ATOM     23  N   UNL     1      -0.740   2.776   2.215  1.00  0.00    -0.350 N 
ATOM     24  O   UNL     1       1.079   1.903   1.239  1.00  0.00    -0.247 OA
ATOM     25  H   UNL     1      -1.601   2.625   2.667  1.00  0.00     0.161 HD
ATOM     26  H   UNL     1      -0.418   3.694   2.063  1.00  0.00     0.161 HD
ENDBRANCH  19  20
ENDBRANCH  12  17
ENDBRANCH   6  11
ENDBRANCH   3   5
ENDBRANCH   2   3
ENDBRANCH   1   2
BRANCH   1  27
ATOM     27  C   UNL     1       9.456  -8.184  -0.808  1.00  0.00     0.275 C 
BRANCH  27  28
ATOM     28  O   UNL     1       8.623  -8.829  -1.771  1.00  0.00    -0.458 OA
BRANCH  28  29
ATOM     29  C   UNL     1       7.370  -9.102  -1.342  1.00  0.00     0.338 C 
ATOM     30  O   UNL     1       6.770  -8.570  -0.422  1.00  0.00    -0.246 OA
BRANCH  29  31
ATOM     31  C   UNL     1       6.899 -10.327  -1.991  1.00  0.00     0.060 A 
ATOM     32  C   UNL     1       5.554 -10.673  -1.838  1.00  0.00     0.016 A 
ATOM     33  C   UNL     1       7.845 -11.232  -2.494  1.00  0.00     0.016 A 
ATOM     34  C   UNL     1       5.181 -11.981  -2.073  1.00  0.00     0.010 A 
ATOM     35  C   UNL     1       7.476 -12.538  -2.708  1.00  0.00     0.010 A 
ATOM     36  C   UNL     1       6.161 -12.912  -2.442  1.00  0.00    -0.014 A 
BRANCH  36  37
ATOM     37  C   UNL     1       5.750 -14.275  -2.711  1.00  0.00     0.031 A 
ATOM     38  C   UNL     1       4.955 -14.395  -3.955  1.00  0.00     0.074 A 
ATOM     39  C   UNL     1       6.179 -15.332  -1.997  1.00  0.00     0.049 A 
ATOM     40  N   UNL     1       3.705 -14.695  -4.064  1.00  0.00    -0.248 NA
ATOM     41  C   UNL     1       5.581 -13.948  -5.212  1.00  0.00     0.031 C 
ATOM     42  C   UNL     1       7.200 -15.356  -0.946  1.00  0.00     0.029 A 
ATOM     43  N   UNL     1       5.873 -16.647  -2.156  1.00  0.00    -0.354 N 
ATOM     44  C   UNL     1       3.444 -14.701  -5.429  1.00  0.00     0.074 A 
ATOM     45  C   UNL     1       4.557 -14.041  -6.060  1.00  0.00     0.031 C 
ATOM     46  C   UNL     1       7.594 -16.634  -0.740  1.00  0.00     0.029 A 
ATOM     47  C   UNL     1       6.766 -17.520  -1.543  1.00  0.00     0.049 A 
ATOM     48  H   UNL     1       5.087 -16.956  -2.662  1.00  0.00     0.167 HD
ATOM     49  C   UNL     1       2.474 -15.494  -5.959  1.00  0.00     0.031 A 
ATOM     50  C   UNL     1       6.857 -18.859  -1.751  1.00  0.00     0.031 A 
ATOM     51  C   UNL     1       1.570 -15.977  -4.949  1.00  0.00     0.049 A 
ATOM     52  C   UNL     1       5.573 -19.297  -2.354  1.00  0.00     0.074 A 
ATOM     53  C   UNL     1       0.728 -15.381  -4.031  1.00  0.00     0.029 A 
ATOM     54  N   UNL     1       1.755 -17.270  -4.518  1.00  0.00    -0.354 N 
ATOM     55  N   UNL     1       4.436 -19.282  -1.718  1.00  0.00    -0.248 NA
ATOM     56  C   UNL     1       5.473 -19.332  -3.806  1.00  0.00     0.031 C 
ATOM     57  C   UNL     1       0.818 -16.194  -2.865  1.00  0.00     0.029 A 
ATOM     58  C   UNL     1       1.653 -17.276  -3.153  1.00  0.00     0.049 A 
ATOM     59  H   UNL     1       1.930 -18.052  -5.090  1.00  0.00     0.167 HD
ATOM     60  C   UNL     1       3.507 -18.864  -2.661  1.00  0.00     0.074 A 
ATOM     61  C   UNL     1       4.184 -19.008  -3.948  1.00  0.00     0.031 C 
ATOM     62  C   UNL     1       2.385 -18.180  -2.289  1.00  0.00     0.031 A 
BRANCH  49  63
ATOM     63  C   UNL     1       2.620 -16.182  -7.295  1.00  0.00    -0.014 A 
ATOM     64  C   UNL     1       1.555 -16.977  -7.763  1.00  0.00     0.010 A 
ATOM     65  C   UNL     1       3.858 -16.314  -7.960  1.00  0.00     0.010 A 
ATOM     66  C   UNL     1       1.745 -17.912  -8.788  1.00  0.00     0.020 A 
ATOM     67  C   UNL     1       4.045 -17.209  -9.013  1.00  0.00     0.020 A 
ATOM     68  C   UNL     1       2.995 -18.029  -9.396  1.00  0.00     0.054 A 
BRANCH  68  69
ATOM     69  S   UNL     1       3.257 -19.307 -10.647  1.00  0.00     0.124 S 
ATOM     70  O   UNL     1       3.129 -20.529  -9.859  1.00  0.00    -0.237 OA
ATOM     71  O   UNL     1       2.174 -19.041 -11.589  1.00  0.00    -0.237 OA
ATOM     72  O   UNL     1       4.599 -19.022 -11.150  1.00  0.00    -0.744 OA
ENDBRANCH  68  69
ENDBRANCH  49  63
BRANCH  50  73
ATOM     73  C   UNL     1       8.074 -19.712  -1.770  1.00  0.00    -0.014 A 
ATOM     74  C   UNL     1       7.971 -21.117  -1.821  1.00  0.00     0.010 A 
ATOM     75  C   UNL     1       9.336 -19.143  -2.034  1.00  0.00     0.010 A 
ATOM     76  C   UNL     1       9.068 -21.913  -2.195  1.00  0.00     0.020 A 
ATOM     77  C   UNL     1      10.437 -19.930  -2.397  1.00  0.00     0.020 A 
ATOM     78  C   UNL     1      10.290 -21.310  -2.504  1.00  0.00     0.054 A 
BRANCH  78  79
ATOM     79  S   UNL     1      11.645 -22.320  -3.176  1.00  0.00     0.124 S 
ATOM     80  O   UNL     1      12.061 -23.097  -2.013  1.00  0.00    -0.237 OA
ATOM     81  O   UNL     1      10.984 -23.075  -4.237  1.00  0.00    -0.237 OA
ATOM     82  O   UNL     1      12.615 -21.329  -3.639  1.00  0.00    -0.744 OA
ENDBRANCH  78  79
ENDBRANCH  50  73
BRANCH  62  83
ATOM     83  C   UNL     1       1.988 -18.177  -0.832  1.00  0.00    -0.014 A 
ATOM     84  C   UNL     1       2.783 -17.654   0.206  1.00  0.00     0.010 A 
ATOM     85  C   UNL     1       0.678 -18.591  -0.531  1.00  0.00     0.010 A 
ATOM     86  C   UNL     1       2.284 -17.575   1.517  1.00  0.00     0.020 A 
ATOM     87  C   UNL     1       0.170 -18.497   0.765  1.00  0.00     0.020 A 
ATOM     88  C   UNL     1       0.978 -17.998   1.786  1.00  0.00     0.054 A 
BRANCH  88  89
ATOM     89  S   UNL     1       0.318 -17.857   3.470  1.00  0.00     0.124 S 
ATOM     90  O   UNL     1       1.096 -18.853   4.201  1.00  0.00    -0.237 OA
ATOM     91  O   UNL     1       0.596 -16.464   3.814  1.00  0.00    -0.237 OA
ATOM     92  O   UNL     1      -1.102 -18.175   3.316  1.00  0.00    -0.744 OA
ENDBRANCH  88  89
ENDBRANCH  62  83
ENDBRANCH  36  37
ENDBRANCH  29  31
ENDBRANCH  28  29
ENDBRANCH  27  28
ENDBRANCH   1  27
TORSDOF 17
