REMARK SMILES Cc1c(CC(=O)N[C@H](CO)C(=O)OCCOC(=O)c2ccc(-c3c4nc(c(-c5ccc(S(=O)(=O)[O-])cc5)c5ccc([nH]5)c(-c5ccc(S(=O)(=O)[O-])cc5)c5nc(c(-c6ccc(S(=O)(=O)[O-])cc6)c6ccc3[nH]6)C=C5)C=C4)cc2)cc(-c2ccc(S(C)(=O)=O)cc2)n1-c1cccc(F)c1
REMARK SMILES IDX 14 1 13 2 11 3 12 4 8 5 7 6 5 7 6 8 4 10 3 11 1 12 2 13
REMARK SMILES IDX 91 14 79 15 80 16 92 17 93 18 98 19 94 20 96 21 95 22 97 23
REMARK SMILES IDX 81 24 82 25 90 26 83 27 89 28 84 29 85 30 86 31 87 32 88 33
REMARK SMILES IDX 9 34 10 35 15 37 16 38 17 39 18 40 19 41 20 42 78 43 21 44
REMARK SMILES IDX 77 45 22 46 23 47 24 48 71 49 25 50 76 51 70 52 72 53 26 54
REMARK SMILES IDX 75 55 69 56 68 57 27 59 57 60 38 61 56 62 39 63 42 64 55 65
REMARK SMILES IDX 73 66 40 67 41 68 54 70 74 71 43 72 28 73 29 74 37 75 30 76
REMARK SMILES IDX 36 77 31 78 32 79 33 80 34 81 35 82 58 83 59 84 67 85 60 86
REMARK SMILES IDX 66 87 61 88 62 89 63 90 64 91 65 92 44 93 45 94 53 95 46 96
REMARK SMILES IDX 52 97 47 98 48 99 49 100 50 101 51 102
REMARK H PARENT 7 9 10 36 72 58 42 69
REMARK Flexibility Score: inf
ROOT
ATOM      1  C   UNL     1      -0.396  -7.355  -3.308  1.00  0.00     0.274 C 
ENDROOT
BRANCH   1   2
ATOM      2  O   UNL     1      -0.341  -5.952  -2.913  1.00  0.00    -0.460 OA
BRANCH   2   3
ATOM      3  C   UNL     1      -1.195  -5.501  -1.952  1.00  0.00     0.331 C 
ATOM      4  O   UNL     1      -2.023  -6.205  -1.381  1.00  0.00    -0.250 OA
BRANCH   3   5
ATOM      5  C   UNL     1      -0.957  -4.011  -1.583  1.00  0.00     0.218 C 
BRANCH   5   6
ATOM      6  N   UNL     1      -2.207  -3.393  -1.078  1.00  0.00    -0.341 N 
ATOM      7  C   UNL     1      -2.390  -2.228  -0.385  1.00  0.00     0.225 C 
ATOM      8  O   UNL     1      -3.545  -1.891  -0.105  1.00  0.00    -0.275 OA
ATOM      9  H   UNL     1      -3.029  -3.898  -1.270  1.00  0.00     0.164 HD
BRANCH   7  10
ATOM     10  C   UNL     1      -1.205  -1.366   0.030  1.00  0.00     0.137 C 
BRANCH  10  11
ATOM     11  C   UNL     1      -0.294  -2.077   0.983  1.00  0.00    -0.017 A 
ATOM     12  C   UNL     1      -1.905  -2.472   2.968  1.00  0.00     0.065 C 
ATOM     13  C   UNL     1      -0.617  -2.613   2.224  1.00  0.00     0.024 A 
ATOM     14  N   UNL     1       0.503  -3.267   2.723  1.00  0.00    -0.313 N 
ATOM     15  C   UNL     1       1.085  -2.322   0.775  1.00  0.00     0.033 A 
ATOM     16  C   UNL     1       1.555  -3.087   1.824  1.00  0.00     0.053 A 
BRANCH  14  17
ATOM     17  C   UNL     1       0.578  -4.015   3.932  1.00  0.00     0.049 A 
ATOM     18  C   UNL     1       1.647  -3.804   4.816  1.00  0.00     0.027 A 
ATOM     19  C   UNL     1      -0.343  -5.039   4.171  1.00  0.00     0.065 A 
ATOM     20  C   UNL     1       1.815  -4.636   5.923  1.00  0.00     0.005 A 
ATOM     21  C   UNL     1      -0.157  -5.861   5.278  1.00  0.00     0.125 A 
ATOM     22  C   UNL     1       0.913  -5.673   6.149  1.00  0.00     0.039 A 
ATOM     23  F   UNL     1      -1.007  -6.873   5.496  1.00  0.00    -0.207 F 
ENDBRANCH  14  17
BRANCH  16  24
ATOM     24  C   UNL     1       2.893  -3.656   1.978  1.00  0.00    -0.001 A 
ATOM     25  C   UNL     1       3.074  -5.028   2.219  1.00  0.00     0.011 A 
ATOM     26  C   UNL     1       4.003  -2.805   1.950  1.00  0.00     0.011 A 
ATOM     27  C   UNL     1       4.334  -5.521   2.539  1.00  0.00     0.021 A 
ATOM     28  C   UNL     1       5.269  -3.294   2.258  1.00  0.00     0.021 A 
ATOM     29  C   UNL     1       5.415  -4.641   2.592  1.00  0.00     0.067 A 
BRANCH  29  30
ATOM     30  S   UNL     1       7.027  -5.266   2.942  1.00  0.00     0.175 S 
ATOM     31  C   UNL     1       6.911  -6.127   4.479  1.00  0.00     0.163 C 
ATOM     32  O   UNL     1       7.237  -6.280   1.915  1.00  0.00    -0.224 OA
ATOM     33  O   UNL     1       7.917  -4.160   3.131  1.00  0.00    -0.224 OA
ENDBRANCH  29  30
ENDBRANCH  16  24
ENDBRANCH  10  11
ENDBRANCH   7  10
ENDBRANCH   5   6
BRANCH   5  34
ATOM     34  C   UNL     1      -0.325  -3.173  -2.715  1.00  0.00     0.193 C 
BRANCH  34  35
ATOM     35  O   UNL     1      -1.291  -2.455  -3.490  1.00  0.00    -0.394 OA
ATOM     36  H   UNL     1      -1.891  -3.084  -3.921  1.00  0.00     0.210 HD
ENDBRANCH  34  35
ENDBRANCH   5  34
ENDBRANCH   3   5
ENDBRANCH   2   3
ENDBRANCH   1   2
BRANCH   1  37
ATOM     37  C   UNL     1       0.975  -7.794  -3.910  1.00  0.00     0.275 C 
BRANCH  37  38
ATOM     38  O   UNL     1       1.771  -8.831  -3.218  1.00  0.00    -0.458 OA
BRANCH  38  39
ATOM     39  C   UNL     1       2.921  -8.429  -2.571  1.00  0.00     0.338 C 
ATOM     40  O   UNL     1       3.084  -7.272  -2.208  1.00  0.00    -0.246 OA
BRANCH  39  41
ATOM     41  C   UNL     1       3.942  -9.552  -2.246  1.00  0.00     0.060 A 
ATOM     42  C   UNL     1       4.138  -9.930  -0.924  1.00  0.00     0.016 A 
ATOM     43  C   UNL     1       4.897 -10.097  -3.136  1.00  0.00     0.016 A 
ATOM     44  C   UNL     1       5.178 -10.868  -0.539  1.00  0.00     0.010 A 
ATOM     45  C   UNL     1       6.009 -11.006  -2.720  1.00  0.00     0.010 A 
ATOM     46  C   UNL     1       6.195 -11.451  -1.395  1.00  0.00    -0.014 A 
BRANCH  46  47
ATOM     47  C   UNL     1       7.566 -12.065  -0.640  1.00  0.00     0.031 A 
ATOM     48  C   UNL     1       7.799 -11.026   0.391  1.00  0.00     0.074 A 
ATOM     49  C   UNL     1       8.641 -12.986  -0.650  1.00  0.00     0.049 A 
ATOM     50  N   UNL     1       7.961  -9.803  -0.015  1.00  0.00    -0.248 NA
ATOM     51  C   UNL     1       7.488 -11.173   1.811  1.00  0.00     0.031 C 
ATOM     52  C   UNL     1       9.012 -13.970  -1.687  1.00  0.00     0.029 A 
ATOM     53  N   UNL     1       9.714 -13.272   0.295  1.00  0.00    -0.354 N 
ATOM     54  C   UNL     1       8.097  -9.045   1.108  1.00  0.00     0.074 A 
ATOM     55  C   UNL     1       7.559  -9.886   2.173  1.00  0.00     0.031 C 
ATOM     56  C   UNL     1      10.018 -14.809  -1.283  1.00  0.00     0.029 A 
ATOM     57  C   UNL     1      10.514 -14.470   0.054  1.00  0.00     0.049 A 
ATOM     58  H   UNL     1       9.891 -12.682   1.064  1.00  0.00     0.167 HD
ATOM     59  C   UNL     1       9.176  -8.212   1.127  1.00  0.00     0.031 A 
ATOM     60  C   UNL     1      11.547 -15.084   0.792  1.00  0.00     0.031 A 
ATOM     61  C   UNL     1      10.209  -8.695   1.998  1.00  0.00     0.049 A 
ATOM     62  C   UNL     1      12.247 -13.976   1.460  1.00  0.00     0.074 A 
ATOM     63  C   UNL     1      10.210  -9.323   3.228  1.00  0.00     0.029 A 
ATOM     64  N   UNL     1      11.399  -9.012   1.384  1.00  0.00    -0.354 N 
ATOM     65  N   UNL     1      13.033 -13.174   0.807  1.00  0.00    -0.248 NA
ATOM     66  C   UNL     1      12.242 -13.819   2.911  1.00  0.00     0.031 C 
ATOM     67  C   UNL     1      11.113 -10.397   3.070  1.00  0.00     0.029 A 
ATOM     68  C   UNL     1      11.908 -10.158   1.956  1.00  0.00     0.049 A 
ATOM     69  H   UNL     1      11.819  -8.503   0.654  1.00  0.00     0.167 HD
ATOM     70  C   UNL     1      13.204 -12.137   1.676  1.00  0.00     0.074 A 
ATOM     71  C   UNL     1      12.940 -12.686   2.994  1.00  0.00     0.031 C 
ATOM     72  C   UNL     1      12.894 -10.904   1.210  1.00  0.00     0.031 A 
BRANCH  59  73
ATOM     73  C   UNL     1       9.466  -7.450  -0.155  1.00  0.00    -0.014 A 
ATOM     74  C   UNL     1       9.517  -6.050  -0.130  1.00  0.00     0.010 A 
ATOM     75  C   UNL     1       9.642  -8.093  -1.401  1.00  0.00     0.010 A 
ATOM     76  C   UNL     1       9.627  -5.317  -1.320  1.00  0.00     0.020 A 
ATOM     77  C   UNL     1       9.730  -7.372  -2.594  1.00  0.00     0.020 A 
ATOM     78  C   UNL     1       9.702  -5.983  -2.547  1.00  0.00     0.054 A 
BRANCH  78  79
ATOM     79  S   UNL     1       9.708  -5.006  -4.074  1.00  0.00     0.124 S 
ATOM     80  O   UNL     1       8.515  -4.173  -3.921  1.00  0.00    -0.237 OA
ATOM     81  O   UNL     1      10.974  -4.286  -3.982  1.00  0.00    -0.237 OA
ATOM     82  O   UNL     1       9.613  -6.002  -5.138  1.00  0.00    -0.744 OA
ENDBRANCH  78  79
ENDBRANCH  59  73
BRANCH  60  83
ATOM     83  C   UNL     1      12.437 -16.390   1.037  1.00  0.00    -0.014 A 
ATOM     84  C   UNL     1      13.800 -16.268   1.511  1.00  0.00     0.010 A 
ATOM     85  C   UNL     1      11.889 -17.665   1.270  1.00  0.00     0.010 A 
ATOM     86  C   UNL     1      14.486 -17.253   2.280  1.00  0.00     0.020 A 
ATOM     87  C   UNL     1      12.588 -18.682   2.015  1.00  0.00     0.020 A 
ATOM     88  C   UNL     1      13.857 -18.454   2.563  1.00  0.00     0.054 A 
BRANCH  88  89
ATOM     89  S   UNL     1      14.630 -19.622   3.762  1.00  0.00     0.124 S 
ATOM     90  O   UNL     1      15.821 -20.086   3.057  1.00  0.00    -0.237 OA
ATOM     91  O   UNL     1      14.884 -18.773   4.924  1.00  0.00    -0.237 OA
ATOM     92  O   UNL     1      13.598 -20.637   3.967  1.00  0.00    -0.744 OA
ENDBRANCH  88  89
ENDBRANCH  60  83
BRANCH  72  93
ATOM     93  C   UNL     1      13.406 -10.500  -0.159  1.00  0.00    -0.014 A 
ATOM     94  C   UNL     1      13.338 -11.284  -1.332  1.00  0.00     0.010 A 
ATOM     95  C   UNL     1      14.023  -9.240  -0.256  1.00  0.00     0.010 A 
ATOM     96  C   UNL     1      13.915 -10.848  -2.534  1.00  0.00     0.020 A 
ATOM     97  C   UNL     1      14.561  -8.779  -1.460  1.00  0.00     0.020 A 
ATOM     98  C   UNL     1      14.536  -9.600  -2.586  1.00  0.00     0.054 A 
BRANCH  98  99
ATOM     99  S   UNL     1      15.356  -9.079  -4.117  1.00  0.00     0.124 S 
ATOM    100  O   UNL     1      16.471 -10.022  -4.203  1.00  0.00    -0.237 OA
ATOM    101  O   UNL     1      14.314  -9.261  -5.123  1.00  0.00    -0.237 OA
ATOM    102  O   UNL     1      15.748  -7.698  -3.848  1.00  0.00    -0.744 OA
ENDBRANCH  98  99
ENDBRANCH  72  93
ENDBRANCH  46  47
ENDBRANCH  39  41
ENDBRANCH  38  39
ENDBRANCH  37  38
ENDBRANCH   1  37
TORSDOF 22
