REMARK SMILES Cc1cnn(C2(C(=O)OCCOC(=O)c3ccc(-c4c5nc(c(-c6ccc(S(=O)(=O)[O-])cc6)c6ccc([nH]6)c(-c6ccc(S(=O)(=O)[O-])cc6)c6nc(c(-c7ccc(S(=O)(=O)[O-])cc7)c7ccc4[nH]7)C=C6)C=C5)cc3)CCN(C(=O)c3cc4ccccc4[nH]3)CC2)c1
REMARK SMILES IDX 11 1 10 2 9 3 7 4 8 5 6 6 75 7 90 8 76 9 89 10 77 11 78 12
REMARK SMILES IDX 79 13 5 14 1 15 2 16 3 17 91 18 4 19 80 20 81 21 88 22 82 23
REMARK SMILES IDX 87 24 83 26 86 27 84 28 85 29 12 30 13 31 14 32 15 33 16 34
REMARK SMILES IDX 74 35 17 36 73 37 18 38 19 39 20 40 67 41 21 42 72 43 66 44
REMARK SMILES IDX 68 45 22 46 71 47 65 48 64 49 23 51 53 52 34 53 52 54 35 55
REMARK SMILES IDX 38 56 51 57 69 58 36 59 37 60 50 62 70 63 39 64 24 65 25 66
REMARK SMILES IDX 33 67 26 68 32 69 27 70 28 71 29 72 30 73 31 74 54 75 55 76
REMARK SMILES IDX 63 77 56 78 62 79 57 80 58 81 59 82 60 83 61 84 40 85 41 86
REMARK SMILES IDX 49 87 42 88 48 89 43 90 44 91 45 92 46 93 47 94
REMARK H PARENT 88 25 68 50 38 61
REMARK Flexibility Score: inf
ROOT
ATOM      1  C   UNL     1      -0.865  -7.731  -3.541  1.00  0.00     0.275 C 
ENDROOT
BRANCH   1   2
ATOM      2  C   UNL     1      -2.168  -7.121  -3.039  1.00  0.00     0.274 C 
BRANCH   2   3
ATOM      3  O   UNL     1      -2.155  -5.686  -3.156  1.00  0.00    -0.460 OA
BRANCH   3   4
ATOM      4  C   UNL     1      -1.760  -4.975  -2.049  1.00  0.00     0.334 C 
ATOM      5  O   UNL     1      -1.674  -5.498  -0.942  1.00  0.00    -0.249 OA
BRANCH   4   6
ATOM      6  C   UNL     1      -1.718  -3.446  -2.334  1.00  0.00     0.163 C 
ATOM      7  C   UNL     1      -1.381  -3.106  -3.812  1.00  0.00     0.064 C 
ATOM      8  C   UNL     1      -3.172  -3.074  -1.979  1.00  0.00     0.064 C 
ATOM      9  C   UNL     1      -1.944  -1.780  -4.310  1.00  0.00     0.123 C 
ATOM     10  C   UNL     1      -3.664  -1.760  -2.535  1.00  0.00     0.123 C 
ATOM     11  N   UNL     1      -3.344  -1.605  -3.949  1.00  0.00    -0.337 N 
ATOM     12  C   UNL     1      -4.273  -1.293  -4.946  1.00  0.00     0.270 C 
ATOM     13  O   UNL     1      -4.008  -1.384  -6.144  1.00  0.00    -0.267 OA
BRANCH   6  14
ATOM     14  N   UNL     1      -0.752  -2.752  -1.446  1.00  0.00    -0.255 N 
ATOM     15  C   UNL     1       0.936   0.078   0.167  1.00  0.00     0.048 C 
ATOM     16  C   UNL     1       0.420  -1.204  -0.363  1.00  0.00    -0.013 A 
ATOM     17  C   UNL     1       0.888  -2.506  -0.111  1.00  0.00     0.138 A 
ATOM     18  C   UNL     1      -0.622  -1.397  -1.242  1.00  0.00     0.113 A 
ATOM     19  N   UNL     1       0.220  -3.431  -0.802  1.00  0.00    -0.180 NA
ENDBRANCH   6  14
BRANCH  12  20
ATOM     20  C   UNL     1      -5.602  -0.920  -4.519  1.00  0.00     0.105 A 
ATOM     21  C   UNL     1      -6.032  -0.085  -3.501  1.00  0.00     0.042 A 
ATOM     22  N   UNL     1      -6.736  -1.391  -5.138  1.00  0.00    -0.351 N 
ATOM     23  C   UNL     1      -7.419  -0.309  -3.317  1.00  0.00     0.000 A 
ATOM     24  C   UNL     1      -7.842  -1.127  -4.363  1.00  0.00     0.046 A 
ATOM     25  H   UNL     1      -6.754  -1.850  -6.008  1.00  0.00     0.167 HD
ATOM     26  C   UNL     1      -8.345   0.082  -2.333  1.00  0.00     0.010 A 
ATOM     27  C   UNL     1      -9.166  -1.555  -4.494  1.00  0.00     0.026 A 
ATOM     28  C   UNL     1      -9.666  -0.366  -2.430  1.00  0.00     0.001 A 
ATOM     29  C   UNL     1     -10.069  -1.165  -3.500  1.00  0.00     0.002 A 
ENDBRANCH  12  20
ENDBRANCH   4   6
ENDBRANCH   3   4
ENDBRANCH   2   3
ENDBRANCH   1   2
BRANCH   1  30
ATOM     30  O   UNL     1       0.239  -7.366  -2.712  1.00  0.00    -0.458 OA
BRANCH  30  31
ATOM     31  C   UNL     1       0.829  -6.209  -3.089  1.00  0.00     0.338 C 
ATOM     32  O   UNL     1       0.392  -5.397  -3.890  1.00  0.00    -0.246 OA
BRANCH  31  33
ATOM     33  C   UNL     1       2.204  -6.140  -2.609  1.00  0.00     0.060 A 
ATOM     34  C   UNL     1       2.850  -4.908  -2.756  1.00  0.00     0.016 A 
ATOM     35  C   UNL     1       2.902  -7.334  -2.400  1.00  0.00     0.016 A 
ATOM     36  C   UNL     1       4.218  -4.901  -2.895  1.00  0.00     0.010 A 
ATOM     37  C   UNL     1       4.270  -7.322  -2.533  1.00  0.00     0.010 A 
ATOM     38  C   UNL     1       4.899  -6.122  -2.868  1.00  0.00    -0.014 A 
BRANCH  38  39
ATOM     39  C   UNL     1       6.319  -6.100  -3.159  1.00  0.00     0.031 A 
ATOM     40  C   UNL     1       7.142  -5.438  -2.122  1.00  0.00     0.074 A 
ATOM     41  C   UNL     1       6.838  -6.756  -4.213  1.00  0.00     0.049 A 
ATOM     42  N   UNL     1       7.965  -4.452  -2.255  1.00  0.00    -0.248 NA
ATOM     43  C   UNL     1       6.921  -5.862  -0.729  1.00  0.00     0.031 C 
ATOM     44  C   UNL     1       6.145  -7.676  -5.122  1.00  0.00     0.029 A 
ATOM     45  N   UNL     1       8.139  -6.861  -4.593  1.00  0.00    -0.354 N 
ATOM     46  C   UNL     1       8.507  -4.247  -0.991  1.00  0.00     0.074 A 
ATOM     47  C   UNL     1       7.722  -5.029  -0.071  1.00  0.00     0.031 C 
ATOM     48  C   UNL     1       7.063  -8.433  -5.760  1.00  0.00     0.029 A 
ATOM     49  C   UNL     1       8.390  -7.964  -5.395  1.00  0.00     0.049 A 
ATOM     50  H   UNL     1       8.834  -6.216  -4.327  1.00  0.00     0.167 HD
ATOM     51  C   UNL     1       9.705  -3.632  -0.806  1.00  0.00     0.031 A 
ATOM     52  C   UNL     1       9.600  -8.522  -5.642  1.00  0.00     0.031 A 
ATOM     53  C   UNL     1      10.111  -2.868  -1.953  1.00  0.00     0.049 A 
ATOM     54  C   UNL     1      10.638  -7.515  -5.312  1.00  0.00     0.074 A 
ATOM     55  C   UNL     1       9.583  -1.789  -2.633  1.00  0.00     0.029 A 
ATOM     56  N   UNL     1      11.050  -3.426  -2.789  1.00  0.00    -0.354 N 
ATOM     57  N   UNL     1      10.801  -6.402  -5.971  1.00  0.00    -0.248 NA
ATOM     58  C   UNL     1      11.235  -7.537  -3.984  1.00  0.00     0.031 C 
ATOM     59  C   UNL     1       9.903  -2.017  -4.002  1.00  0.00     0.029 A 
ATOM     60  C   UNL     1      10.637  -3.204  -4.079  1.00  0.00     0.049 A 
ATOM     61  H   UNL     1      11.868  -3.898  -2.513  1.00  0.00     0.167 HD
ATOM     62  C   UNL     1      11.142  -5.458  -5.011  1.00  0.00     0.074 A 
ATOM     63  C   UNL     1      11.512  -6.238  -3.834  1.00  0.00     0.031 C 
ATOM     64  C   UNL     1      10.826  -4.138  -5.171  1.00  0.00     0.031 A 
BRANCH  51  65
ATOM     65  C   UNL     1      10.668  -4.054   0.273  1.00  0.00    -0.014 A 
ATOM     66  C   UNL     1      11.850  -3.316   0.469  1.00  0.00     0.010 A 
ATOM     67  C   UNL     1      10.585  -5.314   0.906  1.00  0.00     0.010 A 
ATOM     68  C   UNL     1      12.921  -3.848   1.198  1.00  0.00     0.020 A 
ATOM     69  C   UNL     1      11.625  -5.832   1.674  1.00  0.00     0.020 A 
ATOM     70  C   UNL     1      12.806  -5.114   1.777  1.00  0.00     0.054 A 
BRANCH  70  71
ATOM     71  S   UNL     1      14.242  -5.860   2.585  1.00  0.00     0.124 S 
ATOM     72  O   UNL     1      15.128  -6.100   1.451  1.00  0.00    -0.237 OA
ATOM     73  O   UNL     1      14.660  -4.809   3.509  1.00  0.00    -0.237 OA
ATOM     74  O   UNL     1      13.694  -7.057   3.218  1.00  0.00    -0.744 OA
ENDBRANCH  70  71
ENDBRANCH  51  65
BRANCH  52  75
ATOM     75  C   UNL     1       9.881  -9.968  -5.821  1.00  0.00    -0.014 A 
ATOM     76  C   UNL     1      11.092 -10.419  -6.372  1.00  0.00     0.010 A 
ATOM     77  C   UNL     1       9.032 -10.929  -5.230  1.00  0.00     0.010 A 
ATOM     78  C   UNL     1      11.452 -11.777  -6.306  1.00  0.00     0.020 A 
ATOM     79  C   UNL     1       9.375 -12.283  -5.173  1.00  0.00     0.020 A 
ATOM     80  C   UNL     1      10.594 -12.699  -5.696  1.00  0.00     0.054 A 
BRANCH  80  81
ATOM     81  S   UNL     1      11.124 -14.424  -5.494  1.00  0.00     0.124 S 
ATOM     82  O   UNL     1      11.104 -14.918  -6.867  1.00  0.00    -0.237 OA
ATOM     83  O   UNL     1      12.447 -14.280  -4.891  1.00  0.00    -0.237 OA
ATOM     84  O   UNL     1      10.106 -14.997  -4.614  1.00  0.00    -0.744 OA
ENDBRANCH  80  81
ENDBRANCH  52  75
BRANCH  64  85
ATOM     85  C   UNL     1      10.359  -3.673  -6.533  1.00  0.00    -0.014 A 
ATOM     86  C   UNL     1       9.187  -4.155  -7.149  1.00  0.00     0.010 A 
ATOM     87  C   UNL     1      11.033  -2.593  -7.131  1.00  0.00     0.010 A 
ATOM     88  C   UNL     1       8.715  -3.587  -8.341  1.00  0.00     0.020 A 
ATOM     89  C   UNL     1      10.557  -2.010  -8.309  1.00  0.00     0.020 A 
ATOM     90  C   UNL     1       9.404  -2.514  -8.913  1.00  0.00     0.054 A 
BRANCH  90  91
ATOM     91  S   UNL     1       8.748  -1.736 -10.416  1.00  0.00     0.124 S 
ATOM     92  O   UNL     1       8.998  -2.752 -11.434  1.00  0.00    -0.237 OA
ATOM     93  O   UNL     1       7.343  -1.512 -10.081  1.00  0.00    -0.237 OA
ATOM     94  O   UNL     1       9.543  -0.516 -10.552  1.00  0.00    -0.744 OA
ENDBRANCH  90  91
ENDBRANCH  64  85
ENDBRANCH  38  39
ENDBRANCH  31  33
ENDBRANCH  30  31
ENDBRANCH   1  30
TORSDOF 16
