REMARK SMILES CCC(=O)N1CCc2cc(C(=O)NC3(C(=O)OCCOC(=O)c4ccc(-c5c6nc(c(-c7ccc(S(=O)(=O)[O-])cc7)c7ccc([nH]7)c(-c7ccc(S(=O)(=O)[O-])cc7)c7nc(c(-c8ccc(S(=O)(=O)[O-])cc8)c8ccc5[nH]8)C=C7)C=C6)cc4)CCCC3)ccc21
REMARK SMILES IDX 18 1 17 2 15 3 16 4 14 5 83 6 86 7 84 8 85 9 13 10 11 11
REMARK SMILES IDX 12 12 10 14 5 15 6 16 89 17 7 18 8 19 88 20 9 21 87 22 3 23
REMARK SMILES IDX 4 24 2 25 1 26 19 27 20 28 21 29 22 30 23 31 24 32 82 33
REMARK SMILES IDX 25 34 81 35 26 36 27 37 28 38 75 39 29 40 80 41 74 42 76 43
REMARK SMILES IDX 30 44 79 45 73 46 72 47 31 49 61 50 42 51 60 52 43 53 46 54
REMARK SMILES IDX 59 55 77 56 44 57 45 58 58 60 78 61 47 62 32 63 33 64 41 65
REMARK SMILES IDX 34 66 40 67 35 68 36 69 37 70 38 71 39 72 62 73 63 74 71 75
REMARK SMILES IDX 64 76 70 77 65 78 66 79 67 80 68 81 69 82 48 83 49 84 57 85
REMARK SMILES IDX 50 86 56 87 51 88 52 89 53 90 54 91 55 92
REMARK H PARENT 13 13 76 48 46 59
REMARK Flexibility Score: inf
ROOT
ATOM      1  C   UNL     1       2.042   0.581  -1.544  1.00  0.00     0.274 C 
ENDROOT
BRANCH   1   2
ATOM      2  O   UNL     1       2.729   1.147  -2.657  1.00  0.00    -0.460 OA
BRANCH   2   3
ATOM      3  C   UNL     1       3.185   2.418  -2.496  1.00  0.00     0.331 C 
ATOM      4  O   UNL     1       2.458   3.358  -2.201  1.00  0.00    -0.249 OA
BRANCH   3   5
ATOM      5  C   UNL     1       4.698   2.502  -2.824  1.00  0.00     0.138 C 
ATOM      6  C   UNL     1       4.806   3.384  -4.100  1.00  0.00     0.040 C 
ATOM      7  C   UNL     1       5.240   1.184  -3.438  1.00  0.00     0.040 C 
ATOM      8  C   UNL     1       4.251   2.523  -5.229  1.00  0.00     0.003 C 
ATOM      9  C   UNL     1       4.611   1.091  -4.842  1.00  0.00     0.003 C 
BRANCH   5  10
ATOM     10  N   UNL     1       5.593   3.128  -1.793  1.00  0.00    -0.336 N 
ATOM     11  C   UNL     1       5.830   3.084  -0.436  1.00  0.00     0.252 C 
ATOM     12  O   UNL     1       6.948   3.445  -0.063  1.00  0.00    -0.269 OA
ATOM     13  H   UNL     1       6.203   3.772  -2.222  1.00  0.00     0.165 HD
BRANCH  11  14
ATOM     14  C   UNL     1       4.861   2.665   0.610  1.00  0.00     0.040 A 
ATOM     15  N   UNL     1       2.314   0.731   3.242  1.00  0.00    -0.312 N 
ATOM     16  C   UNL     1       3.232   0.066   4.168  1.00  0.00     0.130 C 
ATOM     17  C   UNL     1       3.041   1.561   2.389  1.00  0.00     0.047 A 
ATOM     18  C   UNL     1       4.627   0.663   3.904  1.00  0.00     0.059 C 
ATOM     19  C   UNL     1       4.401   1.430   2.634  1.00  0.00    -0.022 A 
ATOM     20  C   UNL     1       2.574   2.415   1.415  1.00  0.00     0.027 A 
ATOM     21  C   UNL     1       5.324   1.999   1.760  1.00  0.00     0.019 A 
ATOM     22  C   UNL     1       3.508   3.003   0.551  1.00  0.00     0.016 A 
BRANCH  15  23
ATOM     23  C   UNL     1       0.961   0.531   3.202  1.00  0.00     0.226 C 
ATOM     24  O   UNL     1       0.161   1.220   3.831  1.00  0.00    -0.275 OA
BRANCH  23  25
ATOM     25  C   UNL     1       0.504  -0.642   2.347  1.00  0.00     0.097 C 
ATOM     26  C   UNL     1      -0.417  -0.192   1.222  1.00  0.00     0.014 C 
ENDBRANCH  23  25
ENDBRANCH  15  23
ENDBRANCH  11  14
ENDBRANCH   5  10
ENDBRANCH   3   5
ENDBRANCH   2   3
ENDBRANCH   1   2
BRANCH   1  27
ATOM     27  C   UNL     1       2.878  -0.592  -1.022  1.00  0.00     0.275 C 
BRANCH  27  28
ATOM     28  O   UNL     1       4.190  -0.168  -0.587  1.00  0.00    -0.458 OA
BRANCH  28  29
ATOM     29  C   UNL     1       5.057  -1.196  -0.381  1.00  0.00     0.338 C 
ATOM     30  O   UNL     1       4.811  -2.384  -0.540  1.00  0.00    -0.246 OA
BRANCH  29  31
ATOM     31  C   UNL     1       6.339  -0.714   0.176  1.00  0.00     0.060 A 
ATOM     32  C   UNL     1       7.250   0.019  -0.588  1.00  0.00     0.016 A 
ATOM     33  C   UNL     1       6.657  -1.043   1.496  1.00  0.00     0.016 A 
ATOM     34  C   UNL     1       8.464   0.445  -0.027  1.00  0.00     0.010 A 
ATOM     35  C   UNL     1       7.852  -0.585   2.070  1.00  0.00     0.010 A 
ATOM     36  C   UNL     1       8.780   0.145   1.306  1.00  0.00    -0.014 A 
BRANCH  36  37
ATOM     37  C   UNL     1      10.156   0.394   1.823  1.00  0.00     0.031 A 
ATOM     38  C   UNL     1      11.097  -0.782   1.901  1.00  0.00     0.074 A 
ATOM     39  C   UNL     1      10.599   1.623   2.161  1.00  0.00     0.049 A 
ATOM     40  N   UNL     1      12.347  -0.826   2.283  1.00  0.00    -0.248 NA
ATOM     41  C   UNL     1      10.550  -2.085   1.485  1.00  0.00     0.031 C 
ATOM     42  C   UNL     1       9.823   2.859   2.084  1.00  0.00     0.029 A 
ATOM     43  N   UNL     1      11.829   2.033   2.627  1.00  0.00    -0.354 N 
ATOM     44  C   UNL     1      12.735  -2.153   2.145  1.00  0.00     0.074 A 
ATOM     45  C   UNL     1      11.576  -2.892   1.695  1.00  0.00     0.031 C 
ATOM     46  C   UNL     1      10.598   3.890   2.473  1.00  0.00     0.029 A 
ATOM     47  C   UNL     1      11.919   3.390   2.851  1.00  0.00     0.049 A 
ATOM     48  H   UNL     1      12.577   1.413   2.785  1.00  0.00     0.167 HD
ATOM     49  C   UNL     1      13.948  -2.716   2.354  1.00  0.00     0.031 A 
ATOM     50  C   UNL     1      12.946   4.140   3.307  1.00  0.00     0.031 A 
ATOM     51  C   UNL     1      15.098  -2.002   2.829  1.00  0.00     0.049 A 
ATOM     52  C   UNL     1      14.265   3.473   3.628  1.00  0.00     0.074 A 
ATOM     53  C   UNL     1      16.359  -2.494   3.114  1.00  0.00     0.029 A 
ATOM     54  N   UNL     1      15.126  -0.642   3.097  1.00  0.00    -0.354 N 
ATOM     55  N   UNL     1      14.614   2.216   3.480  1.00  0.00    -0.248 NA
ATOM     56  C   UNL     1      15.332   4.328   4.173  1.00  0.00     0.031 C 
ATOM     57  C   UNL     1      17.136  -1.439   3.603  1.00  0.00     0.029 A 
ATOM     58  C   UNL     1      16.377  -0.280   3.564  1.00  0.00     0.049 A 
ATOM     59  H   UNL     1      14.368  -0.025   2.973  1.00  0.00     0.167 HD
ATOM     60  C   UNL     1      15.945   2.139   3.884  1.00  0.00     0.074 A 
ATOM     61  C   UNL     1      16.345   3.476   4.268  1.00  0.00     0.031 C 
ATOM     62  C   UNL     1      16.764   1.059   3.932  1.00  0.00     0.031 A 
BRANCH  49  63
ATOM     63  C   UNL     1      14.058  -4.195   2.105  1.00  0.00    -0.014 A 
ATOM     64  C   UNL     1      14.024  -4.716   0.798  1.00  0.00     0.010 A 
ATOM     65  C   UNL     1      14.165  -5.078   3.194  1.00  0.00     0.010 A 
ATOM     66  C   UNL     1      14.035  -6.097   0.589  1.00  0.00     0.020 A 
ATOM     67  C   UNL     1      14.205  -6.458   2.987  1.00  0.00     0.020 A 
ATOM     68  C   UNL     1      14.115  -6.959   1.686  1.00  0.00     0.054 A 
BRANCH  68  69
ATOM     69  S   UNL     1      14.102  -8.748   1.389  1.00  0.00     0.124 S 
ATOM     70  O   UNL     1      12.707  -8.981   1.025  1.00  0.00    -0.237 OA
ATOM     71  O   UNL     1      15.068  -8.900   0.304  1.00  0.00    -0.237 OA
ATOM     72  O   UNL     1      14.514  -9.315   2.671  1.00  0.00    -0.744 OA
ENDBRANCH  68  69
ENDBRANCH  49  63
BRANCH  50  73
ATOM     73  C   UNL     1      12.787   5.613   3.510  1.00  0.00    -0.014 A 
ATOM     74  C   UNL     1      13.518   6.536   2.739  1.00  0.00     0.010 A 
ATOM     75  C   UNL     1      11.939   6.103   4.521  1.00  0.00     0.010 A 
ATOM     76  C   UNL     1      13.429   7.911   2.994  1.00  0.00     0.020 A 
ATOM     77  C   UNL     1      11.824   7.477   4.761  1.00  0.00     0.020 A 
ATOM     78  C   UNL     1      12.583   8.372   4.006  1.00  0.00     0.054 A 
BRANCH  78  79
ATOM     79  S   UNL     1      12.467  10.159   4.309  1.00  0.00     0.124 S 
ATOM     80  O   UNL     1      13.751  10.445   4.942  1.00  0.00    -0.237 OA
ATOM     81  O   UNL     1      12.293  10.698   2.962  1.00  0.00    -0.237 OA
ATOM     82  O   UNL     1      11.299  10.284   5.178  1.00  0.00    -0.744 OA
ENDBRANCH  78  79
ENDBRANCH  50  73
BRANCH  62  83
ATOM     83  C   UNL     1      18.188   1.269   4.379  1.00  0.00    -0.014 A 
ATOM     84  C   UNL     1      18.502   1.519   5.726  1.00  0.00     0.010 A 
ATOM     85  C   UNL     1      19.233   1.122   3.448  1.00  0.00     0.010 A 
ATOM     86  C   UNL     1      19.835   1.639   6.130  1.00  0.00     0.020 A 
ATOM     87  C   UNL     1      20.567   1.213   3.853  1.00  0.00     0.020 A 
ATOM     88  C   UNL     1      20.860   1.481   5.192  1.00  0.00     0.054 A 
BRANCH  88  89
ATOM     89  S   UNL     1      22.583   1.573   5.753  1.00  0.00     0.124 S 
ATOM     90  O   UNL     1      22.752   3.005   5.984  1.00  0.00    -0.237 OA
ATOM     91  O   UNL     1      22.574   0.740   6.953  1.00  0.00    -0.237 OA
ATOM     92  O   UNL     1      23.343   1.028   4.631  1.00  0.00    -0.744 OA
ENDBRANCH  88  89
ENDBRANCH  62  83
ENDBRANCH  36  37
ENDBRANCH  29  31
ENDBRANCH  28  29
ENDBRANCH  27  28
ENDBRANCH   1  27
TORSDOF 18
