REMARK SMILES O=C(CCCN1C(=O)/C(=C/c2ccccc2Cl)SC1=S)Nc1cccc(C(=O)OCCOC(=O)c2ccc(-c3c4nc(c(-c5ccc(S(=O)(=O)[O-])cc5)c5ccc([nH]5)c(-c5ccc(S(=O)(=O)[O-])cc5)c5nc(c(-c6ccc(S(=O)(=O)[O-])cc6)c6ccc3[nH]6)C=C5)C=C4)cc2)c1
REMARK SMILES IDX 29 1 27 2 28 3 26 4 22 5 23 6 95 7 24 8 25 9 21 10 1 11 2 12
REMARK SMILES IDX 3 14 4 15 5 16 6 17 7 18 19 19 8 20 9 21 18 22 20 23 10 24
REMARK SMILES IDX 11 25 12 26 16 27 13 28 15 29 17 30 14 31 30 32 31 33 32 34
REMARK SMILES IDX 33 35 34 36 35 37 36 38 94 39 37 40 93 41 38 42 39 43 40 44
REMARK SMILES IDX 87 45 41 46 92 47 86 48 88 49 42 50 91 51 85 52 84 53 43 55
REMARK SMILES IDX 73 56 54 57 72 58 55 59 58 60 71 61 89 62 56 63 57 64 70 66
REMARK SMILES IDX 90 67 59 68 44 69 45 70 53 71 46 72 52 73 47 74 48 75 49 76
REMARK SMILES IDX 50 77 51 78 74 79 75 80 83 81 76 82 82 83 77 84 78 85 79 86
REMARK SMILES IDX 80 87 81 88 60 89 61 90 69 91 62 92 68 93 63 94 64 95 65 96
REMARK SMILES IDX 66 97 67 98
REMARK H PARENT 21 13 88 54 58 65
REMARK Flexibility Score: inf
ROOT
ATOM      1  O   UNL     1      -0.848  -1.970  -3.502  1.00  0.00    -0.458 OA
ENDROOT
BRANCH   1   2
ATOM      2  C   UNL     1      -0.992  -2.929  -2.550  1.00  0.00     0.338 C 
ATOM      3  O   UNL     1      -1.945  -3.675  -2.403  1.00  0.00    -0.246 OA
BRANCH   2   4
ATOM      4  C   UNL     1       0.269  -3.040  -1.778  1.00  0.00     0.062 A 
ATOM      5  C   UNL     1       2.243  -2.023  -0.849  1.00  0.00     0.042 A 
ATOM      6  C   UNL     1       2.772  -3.283  -0.562  1.00  0.00     0.026 A 
ATOM      7  C   UNL     1       1.026  -1.905  -1.515  1.00  0.00     0.041 A 
ATOM      8  C   UNL     1       1.990  -4.416  -0.768  1.00  0.00     0.003 A 
ATOM      9  C   UNL     1       0.715  -4.284  -1.317  1.00  0.00     0.016 A 
BRANCH   5  10
ATOM     10  N   UNL     1       2.936  -0.892  -0.395  1.00  0.00    -0.326 N 
ATOM     11  O   UNL     1       1.081   0.425   0.097  1.00  0.00    -0.275 OA
ATOM     12  C   UNL     1       2.296   0.248   0.058  1.00  0.00     0.224 C 
ATOM     13  H   UNL     1       3.920  -0.909  -0.399  1.00  0.00     0.169 HD
BRANCH  12  14
ATOM     14  C   UNL     1       3.224   1.328   0.547  1.00  0.00     0.102 C 
BRANCH  14  15
ATOM     15  C   UNL     1       4.048   0.950   1.780  1.00  0.00     0.032 C 
BRANCH  15  16
ATOM     16  C   UNL     1       5.326   0.126   1.547  1.00  0.00     0.128 C 
BRANCH  16  17
ATOM     17  N   UNL     1       6.106   0.455   0.347  1.00  0.00    -0.293 N 
ATOM     18  C   UNL     1       6.348   1.780   0.025  1.00  0.00     0.266 C 
ATOM     19  C   UNL     1       6.771  -0.475  -0.434  1.00  0.00     0.148 C 
ATOM     20  O   UNL     1       6.048   2.759   0.695  1.00  0.00    -0.268 OA
ATOM     21  C   UNL     1       7.042   1.873  -1.280  1.00  0.00     0.081 C 
ATOM     22  S   UNL     1       7.635   0.333  -1.735  1.00  0.00    -0.054 SA
ATOM     23  S   UNL     1       6.801  -2.132  -0.253  1.00  0.00    -0.052 S 
ATOM     24  C   UNL     1       7.119   3.034  -1.943  1.00  0.00     0.031 C 
BRANCH  24  25
ATOM     25  C   UNL     1       7.825   3.245  -3.212  1.00  0.00    -0.006 A 
ATOM     26  C   UNL     1       9.006   4.000  -3.149  1.00  0.00     0.010 A 
ATOM     27  C   UNL     1       7.402   2.745  -4.454  1.00  0.00     0.048 A 
ATOM     28  C   UNL     1       9.769   4.224  -4.295  1.00  0.00     0.001 A 
ATOM     29  C   UNL     1       8.178   2.959  -5.598  1.00  0.00     0.021 A 
ATOM     30  Cl  UNL     1       5.913   1.886  -4.640  1.00  0.00    -0.084 Cl
ATOM     31  C   UNL     1       9.362   3.694  -5.516  1.00  0.00     0.002 A 
ENDBRANCH  24  25
ENDBRANCH  16  17
ENDBRANCH  15  16
ENDBRANCH  14  15
ENDBRANCH  12  14
ENDBRANCH   5  10
ENDBRANCH   2   4
ENDBRANCH   1   2
BRANCH   1  32
ATOM     32  C   UNL     1      -1.928  -1.805  -4.439  1.00  0.00     0.275 C 
BRANCH  32  33
ATOM     33  C   UNL     1      -1.544  -2.349  -5.816  1.00  0.00     0.275 C 
BRANCH  33  34
ATOM     34  O   UNL     1      -1.438  -3.784  -5.777  1.00  0.00    -0.458 OA
BRANCH  34  35
ATOM     35  C   UNL     1      -0.179  -4.275  -5.827  1.00  0.00     0.338 C 
ATOM     36  O   UNL     1       0.858  -3.653  -5.978  1.00  0.00    -0.246 OA
BRANCH  35  37
ATOM     37  C   UNL     1      -0.206  -5.713  -5.524  1.00  0.00     0.060 A 
ATOM     38  C   UNL     1      -0.155  -6.074  -4.185  1.00  0.00     0.016 A 
ATOM     39  C   UNL     1      -0.135  -6.690  -6.510  1.00  0.00     0.016 A 
ATOM     40  C   UNL     1       0.054  -7.393  -3.805  1.00  0.00     0.010 A 
ATOM     41  C   UNL     1      -0.019  -8.037  -6.127  1.00  0.00     0.010 A 
ATOM     42  C   UNL     1       0.109  -8.401  -4.771  1.00  0.00    -0.014 A 
BRANCH  42  43
ATOM     43  C   UNL     1       0.340  -9.814  -4.352  1.00  0.00     0.031 A 
ATOM     44  C   UNL     1       1.539 -10.570  -4.866  1.00  0.00     0.074 A 
ATOM     45  C   UNL     1      -0.498 -10.414  -3.480  1.00  0.00     0.049 A 
ATOM     46  N   UNL     1       1.838 -11.837  -4.730  1.00  0.00    -0.248 NA
ATOM     47  C   UNL     1       2.525  -9.804  -5.646  1.00  0.00     0.031 C 
ATOM     48  C   UNL     1      -1.663  -9.785  -2.850  1.00  0.00     0.029 A 
ATOM     49  N   UNL     1      -0.494 -11.686  -2.960  1.00  0.00    -0.354 N 
ATOM     50  C   UNL     1       3.011 -12.031  -5.452  1.00  0.00     0.074 A 
ATOM     51  C   UNL     1       3.365 -10.754  -6.031  1.00  0.00     0.031 C 
ATOM     52  C   UNL     1      -2.233 -10.656  -2.003  1.00  0.00     0.029 A 
ATOM     53  C   UNL     1      -1.538 -11.934  -2.098  1.00  0.00     0.049 A 
ATOM     54  H   UNL     1       0.191 -12.357  -3.184  1.00  0.00     0.167 HD
ATOM     55  C   UNL     1       3.727 -13.171  -5.618  1.00  0.00     0.031 A 
ATOM     56  C   UNL     1      -1.928 -13.069  -1.485  1.00  0.00     0.031 A 
ATOM     57  C   UNL     1       3.387 -14.432  -5.011  1.00  0.00     0.049 A 
ATOM     58  C   UNL     1      -1.150 -14.332  -1.728  1.00  0.00     0.074 A 
ATOM     59  C   UNL     1       4.053 -15.642  -5.111  1.00  0.00     0.029 A 
ATOM     60  N   UNL     1       2.296 -14.646  -4.181  1.00  0.00    -0.354 N 
ATOM     61  N   UNL     1      -0.070 -14.508  -2.452  1.00  0.00    -0.248 NA
ATOM     62  C   UNL     1      -1.649 -15.552  -1.079  1.00  0.00     0.031 C 
ATOM     63  C   UNL     1       3.335 -16.599  -4.387  1.00  0.00     0.029 A 
ATOM     64  C   UNL     1       2.259 -15.972  -3.780  1.00  0.00     0.049 A 
ATOM     65  H   UNL     1       1.645 -13.957  -3.917  1.00  0.00     0.167 HD
ATOM     66  C   UNL     1       0.251 -15.854  -2.330  1.00  0.00     0.074 A 
ATOM     67  C   UNL     1      -0.736 -16.441  -1.446  1.00  0.00     0.031 C 
ATOM     68  C   UNL     1       1.270 -16.543  -2.901  1.00  0.00     0.031 A 
BRANCH  55  69
ATOM     69  C   UNL     1       4.923 -13.120  -6.535  1.00  0.00    -0.014 A 
ATOM     70  C   UNL     1       6.101 -12.438  -6.179  1.00  0.00     0.010 A 
ATOM     71  C   UNL     1       4.877 -13.803  -7.765  1.00  0.00     0.010 A 
ATOM     72  C   UNL     1       7.192 -12.406  -7.053  1.00  0.00     0.020 A 
ATOM     73  C   UNL     1       5.976 -13.799  -8.629  1.00  0.00     0.020 A 
ATOM     74  C   UNL     1       7.122 -13.085  -8.274  1.00  0.00     0.054 A 
BRANCH  74  75
ATOM     75  S   UNL     1       8.559 -13.042  -9.380  1.00  0.00     0.124 S 
ATOM     76  O   UNL     1       8.520 -11.667  -9.872  1.00  0.00    -0.237 OA
ATOM     77  O   UNL     1       9.666 -13.356  -8.480  1.00  0.00    -0.237 OA
ATOM     78  O   UNL     1       8.261 -14.068 -10.377  1.00  0.00    -0.744 OA
ENDBRANCH  74  75
ENDBRANCH  55  69
BRANCH  56  79
ATOM     79  C   UNL     1      -3.145 -13.071  -0.625  1.00  0.00    -0.014 A 
ATOM     80  C   UNL     1      -3.047 -13.275   0.762  1.00  0.00     0.010 A 
ATOM     81  C   UNL     1      -4.415 -12.856  -1.194  1.00  0.00     0.010 A 
ATOM     82  C   UNL     1      -4.196 -13.275   1.561  1.00  0.00     0.020 A 
ATOM     83  C   UNL     1      -5.561 -12.821  -0.395  1.00  0.00     0.020 A 
ATOM     84  C   UNL     1      -5.445 -13.044   0.977  1.00  0.00     0.054 A 
BRANCH  84  85
ATOM     85  S   UNL     1      -6.914 -12.994   2.041  1.00  0.00     0.124 S 
ATOM     86  O   UNL     1      -7.099 -14.404   2.368  1.00  0.00    -0.237 OA
ATOM     87  O   UNL     1      -6.479 -12.140   3.142  1.00  0.00    -0.237 OA
ATOM     88  O   UNL     1      -7.941 -12.412   1.179  1.00  0.00    -0.744 OA
ENDBRANCH  84  85
ENDBRANCH  56  79
BRANCH  68  89
ATOM     89  C   UNL     1       1.396 -18.002  -2.551  1.00  0.00    -0.014 A 
ATOM     90  C   UNL     1       0.484 -18.955  -3.038  1.00  0.00     0.010 A 
ATOM     91  C   UNL     1       2.471 -18.429  -1.748  1.00  0.00     0.010 A 
ATOM     92  C   UNL     1       0.622 -20.303  -2.698  1.00  0.00     0.020 A 
ATOM     93  C   UNL     1       2.630 -19.780  -1.431  1.00  0.00     0.020 A 
ATOM     94  C   UNL     1       1.694 -20.707  -1.895  1.00  0.00     0.054 A 
BRANCH  94  95
ATOM     95  S   UNL     1       1.870 -22.467  -1.493  1.00  0.00     0.124 S 
ATOM     96  O   UNL     1       0.796 -22.666  -0.523  1.00  0.00    -0.237 OA
ATOM     97  O   UNL     1       1.675 -23.113  -2.788  1.00  0.00    -0.237 OA
ATOM     98  O   UNL     1       3.224 -22.565  -0.952  1.00  0.00    -0.744 OA
ENDBRANCH  94  95
ENDBRANCH  68  89
ENDBRANCH  42  43
ENDBRANCH  35  37
ENDBRANCH  34  35
ENDBRANCH  33  34
ENDBRANCH  32  33
ENDBRANCH   1  32
TORSDOF 20
