REMARK SMILES COc1ccc(COc2cncc(C(=O)OCCOC(=O)c3ccc(-c4c5nc(c(-c6ccc(S(=O)(=O)[O-])cc6)c6ccc([nH]6)c(-c6ccc(S(=O)(=O)[O-])cc6)c6nc(c(-c7ccc(S(=O)(=O)[O-])cc7)c7ccc4[nH]7)C=C6)C=C5)cc3)n2)cc1
REMARK SMILES IDX 17 1 16 2 14 3 15 4 13 5 9 6 10 7 82 8 11 9 12 10 8 11 7 12
REMARK SMILES IDX 6 13 3 14 4 15 84 16 5 17 83 18 2 19 1 20 18 21 19 22 20 23
REMARK SMILES IDX 21 24 22 25 23 26 81 27 24 28 80 29 25 30 26 31 27 32 74 33
REMARK SMILES IDX 28 34 79 35 73 36 75 37 29 38 78 39 72 40 71 41 30 43 60 44
REMARK SMILES IDX 41 45 59 46 42 47 45 48 58 49 76 50 43 51 44 52 57 54 77 55
REMARK SMILES IDX 46 56 31 57 32 58 40 59 33 60 39 61 34 62 35 63 36 64 37 65
REMARK SMILES IDX 38 66 61 67 62 68 70 69 63 70 69 71 64 72 65 73 66 74 67 75
REMARK SMILES IDX 68 76 47 77 48 78 56 79 49 80 55 81 50 82 51 83 52 84 53 85
REMARK SMILES IDX 54 86
REMARK H PARENT 75 42 45 53
REMARK Flexibility Score: inf
ROOT
ATOM      1  C   UNL     1       5.251  11.101  -3.719  1.00  0.00     0.275 C 
ENDROOT
BRANCH   1   2
ATOM      2  O   UNL     1       4.705  10.018  -2.937  1.00  0.00    -0.457 OA
BRANCH   2   3
ATOM      3  C   UNL     1       3.935   9.149  -3.642  1.00  0.00     0.358 C 
ATOM      4  O   UNL     1       3.676   9.227  -4.831  1.00  0.00    -0.244 OA
BRANCH   3   5
ATOM      5  C   UNL     1       3.515   7.980  -2.838  1.00  0.00     0.170 A 
ATOM      6  C   UNL     1       2.384   7.015  -1.105  1.00  0.00     0.233 A 
ATOM      7  C   UNL     1       2.452   5.790  -1.774  1.00  0.00     0.179 A 
ATOM      8  N   UNL     1       2.914   8.150  -1.628  1.00  0.00    -0.203 NA
ATOM      9  N   UNL     1       3.101   5.613  -2.938  1.00  0.00    -0.257 NA
ATOM     10  C   UNL     1       3.606   6.743  -3.462  1.00  0.00     0.147 A 
BRANCH   6  11
ATOM     11  O   UNL     1       1.636   7.184   0.035  1.00  0.00    -0.472 OA
BRANCH  11  12
ATOM     12  C   UNL     1       2.052   6.346   1.127  1.00  0.00     0.267 C 
BRANCH  12  13
ATOM     13  C   UNL     1       1.557   4.920   1.004  1.00  0.00    -0.010 A 
ATOM     14  C   UNL     1       0.751   2.302   0.352  1.00  0.00     0.118 A 
ATOM     15  C   UNL     1      -0.165   3.357   0.318  1.00  0.00     0.047 A 
ATOM     16  C   UNL     1       2.062   2.550   0.755  1.00  0.00     0.047 A 
ATOM     17  C   UNL     1       0.225   4.654   0.659  1.00  0.00     0.011 A 
ATOM     18  C   UNL     1       2.462   3.850   1.088  1.00  0.00     0.011 A 
BRANCH  14  19
ATOM     19  O   UNL     1       0.251   1.099  -0.064  1.00  0.00    -0.497 OA
ATOM     20  C   UNL     1       1.072  -0.044   0.140  1.00  0.00     0.278 C 
ENDBRANCH  14  19
ENDBRANCH  12  13
ENDBRANCH  11  12
ENDBRANCH   6  11
ENDBRANCH   3   5
ENDBRANCH   2   3
ENDBRANCH   1   2
BRANCH   1  21
ATOM     21  C   UNL     1       6.696  10.824  -4.140  1.00  0.00     0.275 C 
BRANCH  21  22
ATOM     22  O   UNL     1       6.767   9.710  -5.052  1.00  0.00    -0.458 OA
BRANCH  22  23
ATOM     23  C   UNL     1       7.368   8.601  -4.571  1.00  0.00     0.338 C 
ATOM     24  O   UNL     1       7.853   8.451  -3.455  1.00  0.00    -0.246 OA
BRANCH  23  25
ATOM     25  C   UNL     1       7.329   7.505  -5.554  1.00  0.00     0.060 A 
ATOM     26  C   UNL     1       6.097   7.021  -5.973  1.00  0.00     0.016 A 
ATOM     27  C   UNL     1       8.493   6.822  -5.900  1.00  0.00     0.016 A 
ATOM     28  C   UNL     1       6.011   5.763  -6.569  1.00  0.00     0.010 A 
ATOM     29  C   UNL     1       8.409   5.645  -6.660  1.00  0.00     0.010 A 
ATOM     30  C   UNL     1       7.164   5.065  -6.961  1.00  0.00    -0.014 A 
BRANCH  30  31
ATOM     31  C   UNL     1       7.061   3.753  -7.679  1.00  0.00     0.031 A 
ATOM     32  C   UNL     1       7.841   2.543  -7.212  1.00  0.00     0.074 A 
ATOM     33  C   UNL     1       6.259   3.626  -8.761  1.00  0.00     0.049 A 
ATOM     34  N   UNL     1       8.034   1.397  -7.819  1.00  0.00    -0.248 NA
ATOM     35  C   UNL     1       8.507   2.638  -5.903  1.00  0.00     0.031 C 
ATOM     36  C   UNL     1       5.405   4.678  -9.319  1.00  0.00     0.029 A 
ATOM     37  N   UNL     1       6.016   2.548  -9.579  1.00  0.00    -0.354 N 
ATOM     38  C   UNL     1       8.895   0.667  -7.004  1.00  0.00     0.074 A 
ATOM     39  C   UNL     1       9.189   1.501  -5.858  1.00  0.00     0.031 C 
ATOM     40  C   UNL     1       4.678   4.176 -10.325  1.00  0.00     0.029 A 
ATOM     41  C   UNL     1       5.107   2.808 -10.579  1.00  0.00     0.049 A 
ATOM     42  H   UNL     1       6.452   1.673  -9.461  1.00  0.00     0.167 HD
ATOM     43  C   UNL     1       9.400  -0.578  -7.194  1.00  0.00     0.031 A 
ATOM     44  C   UNL     1       4.696   2.066 -11.626  1.00  0.00     0.031 A 
ATOM     45  C   UNL     1       9.068  -1.427  -8.311  1.00  0.00     0.049 A 
ATOM     46  C   UNL     1       5.303   0.714 -11.846  1.00  0.00     0.074 A 
ATOM     47  C   UNL     1       9.519  -2.708  -8.585  1.00  0.00     0.029 A 
ATOM     48  N   UNL     1       8.190  -1.090  -9.330  1.00  0.00    -0.354 N 
ATOM     49  N   UNL     1       6.178   0.076 -11.106  1.00  0.00    -0.248 NA
ATOM     50  C   UNL     1       4.894  -0.004 -13.060  1.00  0.00     0.031 C 
ATOM     51  C   UNL     1       8.949  -3.126  -9.792  1.00  0.00     0.029 A 
ATOM     52  C   UNL     1       8.102  -2.127 -10.244  1.00  0.00     0.049 A 
ATOM     53  H   UNL     1       7.700  -0.238  -9.394  1.00  0.00     0.167 HD
ATOM     54  C   UNL     1       6.426  -1.120 -11.767  1.00  0.00     0.074 A 
ATOM     55  C   UNL     1       5.589  -1.129 -12.950  1.00  0.00     0.031 C 
ATOM     56  C   UNL     1       7.278  -2.117 -11.426  1.00  0.00     0.031 A 
BRANCH  43  57
ATOM     57  C   UNL     1      10.412  -1.083  -6.194  1.00  0.00    -0.014 A 
ATOM     58  C   UNL     1      10.044  -1.461  -4.891  1.00  0.00     0.010 A 
ATOM     59  C   UNL     1      11.761  -1.208  -6.583  1.00  0.00     0.010 A 
ATOM     60  C   UNL     1      11.011  -1.901  -3.981  1.00  0.00     0.020 A 
ATOM     61  C   UNL     1      12.726  -1.673  -5.685  1.00  0.00     0.020 A 
ATOM     62  C   UNL     1      12.348  -1.995  -4.380  1.00  0.00     0.054 A 
BRANCH  62  63
ATOM     63  S   UNL     1      13.585  -2.560  -3.179  1.00  0.00     0.124 S 
ATOM     64  O   UNL     1      13.735  -1.383  -2.326  1.00  0.00    -0.237 OA
ATOM     65  O   UNL     1      12.928  -3.706  -2.554  1.00  0.00    -0.237 OA
ATOM     66  O   UNL     1      14.746  -2.885  -4.002  1.00  0.00    -0.744 OA
ENDBRANCH  62  63
ENDBRANCH  43  57
BRANCH  44  67
ATOM     67  C   UNL     1       3.702   2.630 -12.581  1.00  0.00    -0.014 A 
ATOM     68  C   UNL     1       2.393   2.121 -12.633  1.00  0.00     0.010 A 
ATOM     69  C   UNL     1       4.048   3.716 -13.408  1.00  0.00     0.010 A 
ATOM     70  C   UNL     1       1.446   2.694 -13.488  1.00  0.00     0.020 A 
ATOM     71  C   UNL     1       3.096   4.311 -14.239  1.00  0.00     0.020 A 
ATOM     72  C   UNL     1       1.802   3.791 -14.279  1.00  0.00     0.054 A 
BRANCH  72  73
ATOM     73  S   UNL     1       0.535   4.576 -15.314  1.00  0.00     0.124 S 
ATOM     74  O   UNL     1       0.427   3.636 -16.425  1.00  0.00    -0.237 OA
ATOM     75  O   UNL     1      -0.618   4.633 -14.418  1.00  0.00    -0.237 OA
ATOM     76  O   UNL     1       1.121   5.873 -15.644  1.00  0.00    -0.744 OA
ENDBRANCH  72  73
ENDBRANCH  44  67
BRANCH  56  77
ATOM     77  C   UNL     1       7.337  -3.308 -12.343  1.00  0.00    -0.014 A 
ATOM     78  C   UNL     1       7.987  -3.230 -13.588  1.00  0.00     0.010 A 
ATOM     79  C   UNL     1       6.759  -4.526 -11.943  1.00  0.00     0.010 A 
ATOM     80  C   UNL     1       8.033  -4.345 -14.430  1.00  0.00     0.020 A 
ATOM     81  C   UNL     1       6.824  -5.648 -12.772  1.00  0.00     0.020 A 
ATOM     82  C   UNL     1       7.449  -5.546 -14.017  1.00  0.00     0.054 A 
BRANCH  82  83
ATOM     83  S   UNL     1       7.554  -6.989 -15.110  1.00  0.00     0.124 S 
ATOM     84  O   UNL     1       6.569  -6.664 -16.138  1.00  0.00    -0.237 OA
ATOM     85  O   UNL     1       8.948  -6.963 -15.545  1.00  0.00    -0.237 OA
ATOM     86  O   UNL     1       7.201  -8.109 -14.240  1.00  0.00    -0.744 OA
ENDBRANCH  82  83
ENDBRANCH  56  77
ENDBRANCH  30  31
ENDBRANCH  23  25
ENDBRANCH  22  23
ENDBRANCH  21  22
ENDBRANCH   1  21
TORSDOF 18
