REMARK SMILES COc1ccc([C@@H]2[NH2+][C@H](C(=O)OCCOC(=O)c3ccc(-c4c5nc(c(-c6ccc(S(=O)(=O)[O-])cc6)c6ccc([nH]6)c(-c6ccc(S(=O)(=O)[O-])cc6)c6nc(c(-c7ccc(S(=O)(=O)[O-])cc7)c7ccc4[nH]7)C=C6)C=C5)cc3)CS2)cc1Cn1nc(C)c(Br)c1C
REMARK SMILES IDX 13 1 12 2 10 3 11 4 9 5 7 6 8 7 79 8 78 11 6 12 3 13 4 14
REMARK SMILES IDX 81 15 5 16 80 17 2 18 1 19 82 20 83 21 84 22 89 23 85 24
REMARK SMILES IDX 87 25 90 26 86 27 88 28 14 29 15 30 16 31 17 32 18 33 19 34
REMARK SMILES IDX 77 35 20 36 76 37 21 38 22 39 23 40 70 41 24 42 75 43 69 44
REMARK SMILES IDX 71 45 25 46 74 47 68 48 67 49 26 51 56 52 37 53 55 54 38 55
REMARK SMILES IDX 41 56 54 57 72 58 39 59 40 60 53 62 73 63 42 64 27 65 28 66
REMARK SMILES IDX 36 67 29 68 35 69 30 70 31 71 32 72 33 73 34 74 57 75 58 76
REMARK SMILES IDX 66 77 59 78 65 79 60 80 61 81 62 82 63 83 64 84 43 85 44 86
REMARK SMILES IDX 52 87 45 88 51 89 46 90 47 91 48 92 49 93 50 94
REMARK H PARENT 8 9 8 10 71 50 41 61
REMARK Flexibility Score: inf
ROOT
ATOM      1  C   UNL     1       3.411  -1.014  -4.681  1.00  0.00     0.274 C 
ENDROOT
BRANCH   1   2
ATOM      2  O   UNL     1       3.063   0.201  -5.369  1.00  0.00    -0.458 OA
BRANCH   2   3
ATOM      3  C   UNL     1       3.987   1.201  -5.352  1.00  0.00     0.365 C 
ATOM      4  O   UNL     1       5.127   1.090  -4.912  1.00  0.00    -0.245 OA
BRANCH   3   5
ATOM      5  C   UNL     1       3.489   2.493  -6.019  1.00  0.00     0.304 C 
ATOM      6  C   UNL     1       1.650   3.263  -4.708  1.00  0.00     0.274 C 
ATOM      7  N   UNL     1       2.010   2.660  -5.991  1.00  0.00    -0.319 N 
ATOM      8  S   UNL     1       2.877   4.546  -4.394  1.00  0.00    -0.087 SA
ATOM      9  H   UNL     1       1.715   3.268  -6.755  1.00  0.00     0.348 HD
ATOM     10  H   UNL     1       1.548   1.757  -6.101  1.00  0.00     0.348 HD
ATOM     11  C   UNL     1       4.149   3.735  -5.404  1.00  0.00     0.153 C 
BRANCH   6  12
ATOM     12  C   UNL     1       1.470   2.224  -3.609  1.00  0.00     0.021 A 
ATOM     13  C   UNL     1       1.043   0.228  -1.682  1.00  0.00     0.123 A 
ATOM     14  C   UNL     1       0.063   0.496  -2.639  1.00  0.00     0.047 A 
ATOM     15  C   UNL     1       2.283   0.878  -1.704  1.00  0.00     0.016 A 
ATOM     16  C   UNL     1       0.278   1.482  -3.599  1.00  0.00     0.015 A 
ATOM     17  C   UNL     1       2.460   1.901  -2.654  1.00  0.00     0.020 A 
BRANCH  13  18
ATOM     18  O   UNL     1       0.748  -0.717  -0.735  1.00  0.00    -0.496 OA
ATOM     19  C   UNL     1       0.205  -0.082   0.426  1.00  0.00     0.278 C 
ENDBRANCH  13  18
BRANCH  15  20
ATOM     20  C   UNL     1       3.382   0.534  -0.721  1.00  0.00     0.184 C 
BRANCH  20  21
ATOM     21  N   UNL     1       4.592  -0.023  -1.332  1.00  0.00    -0.264 N 
ATOM     22  N   UNL     1       4.691  -1.374  -1.452  1.00  0.00    -0.177 NA
ATOM     23  C   UNL     1       5.757   0.631  -1.675  1.00  0.00     0.050 A 
ATOM     24  C   UNL     1       5.914  -1.578  -1.963  1.00  0.00     0.074 A 
ATOM     25  C   UNL     1       6.603  -0.362  -2.116  1.00  0.00     0.061 A 
ATOM     26  C   UNL     1       5.977   2.096  -1.611  1.00  0.00     0.067 C 
ATOM     27  C   UNL     1       6.373  -2.950  -2.291  1.00  0.00     0.070 C 
ATOM     28  Br  UNL     1       8.337  -0.168  -2.799  1.00  0.00    -0.047 Br
ENDBRANCH  20  21
ENDBRANCH  15  20
ENDBRANCH   6  12
ENDBRANCH   3   5
ENDBRANCH   2   3
ENDBRANCH   1   2
BRANCH   1  29
ATOM     29  C   UNL     1       3.682  -2.170  -5.640  1.00  0.00     0.275 C 
BRANCH  29  30
ATOM     30  O   UNL     1       4.921  -1.972  -6.340  1.00  0.00    -0.458 OA
BRANCH  30  31
ATOM     31  C   UNL     1       4.812  -1.190  -7.436  1.00  0.00     0.338 C 
ATOM     32  O   UNL     1       3.793  -0.757  -7.947  1.00  0.00    -0.246 OA
BRANCH  31  33
ATOM     33  C   UNL     1       6.146  -0.776  -7.879  1.00  0.00     0.060 A 
ATOM     34  C   UNL     1       6.391   0.598  -7.976  1.00  0.00     0.016 A 
ATOM     35  C   UNL     1       7.083  -1.710  -8.319  1.00  0.00     0.016 A 
ATOM     36  C   UNL     1       7.553   1.055  -8.573  1.00  0.00     0.010 A 
ATOM     37  C   UNL     1       8.248  -1.250  -8.931  1.00  0.00     0.010 A 
ATOM     38  C   UNL     1       8.458   0.131  -9.098  1.00  0.00    -0.014 A 
BRANCH  38  39
ATOM     39  C   UNL     1       9.524   0.611  -9.995  1.00  0.00     0.031 A 
ATOM     40  C   UNL     1       9.307   0.494 -11.476  1.00  0.00     0.074 A 
ATOM     41  C   UNL     1      10.633   1.171  -9.488  1.00  0.00     0.049 A 
ATOM     42  N   UNL     1      10.141   0.723 -12.453  1.00  0.00    -0.248 NA
ATOM     43  C   UNL     1       7.968   0.058 -11.915  1.00  0.00     0.031 C 
ATOM     44  C   UNL     1      10.888   1.407  -8.066  1.00  0.00     0.029 A 
ATOM     45  N   UNL     1      11.757   1.635 -10.116  1.00  0.00    -0.354 N 
ATOM     46  C   UNL     1       9.444   0.425 -13.618  1.00  0.00     0.074 A 
ATOM     47  C   UNL     1       8.118   0.001 -13.230  1.00  0.00     0.031 C 
ATOM     48  C   UNL     1      12.107   1.955  -7.929  1.00  0.00     0.029 A 
ATOM     49  C   UNL     1      12.731   2.060  -9.245  1.00  0.00     0.049 A 
ATOM     50  H   UNL     1      11.858   1.662 -11.095  1.00  0.00     0.167 HD
ATOM     51  C   UNL     1       9.882   0.492 -14.896  1.00  0.00     0.031 A 
ATOM     52  C   UNL     1      13.997   2.445  -9.489  1.00  0.00     0.031 A 
ATOM     53  C   UNL     1      11.207   0.916 -15.255  1.00  0.00     0.049 A 
ATOM     54  C   UNL     1      14.483   2.450 -10.914  1.00  0.00     0.074 A 
ATOM     55  C   UNL     1      11.773   1.012 -16.512  1.00  0.00     0.029 A 
ATOM     56  N   UNL     1      12.174   1.320 -14.344  1.00  0.00    -0.354 N 
ATOM     57  N   UNL     1      13.829   2.134 -12.008  1.00  0.00    -0.248 NA
ATOM     58  C   UNL     1      15.875   2.859 -11.137  1.00  0.00     0.031 C 
ATOM     59  C   UNL     1      13.098   1.437 -16.358  1.00  0.00     0.029 A 
ATOM     60  C   UNL     1      13.339   1.652 -15.009  1.00  0.00     0.049 A 
ATOM     61  H   UNL     1      12.049   1.363 -13.369  1.00  0.00     0.167 HD
ATOM     62  C   UNL     1      14.725   2.321 -13.052  1.00  0.00     0.074 A 
ATOM     63  C   UNL     1      15.962   2.793 -12.460  1.00  0.00     0.031 C 
ATOM     64  C   UNL     1      14.548   2.122 -14.382  1.00  0.00     0.031 A 
BRANCH  51  65
ATOM     65  C   UNL     1       8.939   0.048 -15.981  1.00  0.00    -0.014 A 
ATOM     66  C   UNL     1       7.842   0.837 -16.367  1.00  0.00     0.010 A 
ATOM     67  C   UNL     1       9.169  -1.174 -16.639  1.00  0.00     0.010 A 
ATOM     68  C   UNL     1       6.974   0.398 -17.372  1.00  0.00     0.020 A 
ATOM     69  C   UNL     1       8.317  -1.607 -17.658  1.00  0.00     0.020 A 
ATOM     70  C   UNL     1       7.215  -0.824 -18.008  1.00  0.00     0.054 A 
BRANCH  70  71
ATOM     71  S   UNL     1       6.090  -1.360 -19.327  1.00  0.00     0.124 S 
ATOM     72  O   UNL     1       4.915  -1.781 -18.568  1.00  0.00    -0.237 OA
ATOM     73  O   UNL     1       5.922  -0.145 -20.120  1.00  0.00    -0.237 OA
ATOM     74  O   UNL     1       6.822  -2.437 -19.991  1.00  0.00    -0.744 OA
ENDBRANCH  70  71
ENDBRANCH  51  65
BRANCH  52  75
ATOM     75  C   UNL     1      14.897   2.800  -8.360  1.00  0.00    -0.014 A 
ATOM     76  C   UNL     1      15.308   4.128  -8.157  1.00  0.00     0.010 A 
ATOM     77  C   UNL     1      15.335   1.804  -7.467  1.00  0.00     0.010 A 
ATOM     78  C   UNL     1      16.152   4.451  -7.090  1.00  0.00     0.020 A 
ATOM     79  C   UNL     1      16.158   2.127  -6.385  1.00  0.00     0.020 A 
ATOM     80  C   UNL     1      16.572   3.449  -6.210  1.00  0.00     0.054 A 
BRANCH  80  81
ATOM     81  S   UNL     1      17.625   3.897  -4.802  1.00  0.00     0.124 S 
ATOM     82  O   UNL     1      18.927   4.067  -5.440  1.00  0.00    -0.237 OA
ATOM     83  O   UNL     1      16.996   5.120  -4.311  1.00  0.00    -0.237 OA
ATOM     84  O   UNL     1      17.509   2.746  -3.910  1.00  0.00    -0.744 OA
ENDBRANCH  80  81
ENDBRANCH  52  75
BRANCH  64  85
ATOM     85  C   UNL     1      15.706   2.448 -15.282  1.00  0.00    -0.014 A 
ATOM     86  C   UNL     1      16.814   1.589 -15.376  1.00  0.00     0.010 A 
ATOM     87  C   UNL     1      15.651   3.599 -16.088  1.00  0.00     0.010 A 
ATOM     88  C   UNL     1      17.863   1.890 -16.247  1.00  0.00     0.020 A 
ATOM     89  C   UNL     1      16.688   3.891 -16.976  1.00  0.00     0.020 A 
ATOM     90  C   UNL     1      17.794   3.041 -17.040  1.00  0.00     0.054 A 
BRANCH  90  91
ATOM     91  S   UNL     1      19.144   3.387 -18.199  1.00  0.00     0.124 S 
ATOM     92  O   UNL     1      20.180   3.905 -17.310  1.00  0.00    -0.237 OA
ATOM     93  O   UNL     1      19.415   2.075 -18.782  1.00  0.00    -0.237 OA
ATOM     94  O   UNL     1      18.567   4.363 -19.120  1.00  0.00    -0.744 OA
ENDBRANCH  90  91
ENDBRANCH  64  85
ENDBRANCH  38  39
ENDBRANCH  31  33
ENDBRANCH  30  31
ENDBRANCH  29  30
ENDBRANCH   1  29
TORSDOF 18
