REMARK SMILES C[C@]12CC[C@H]3[C@@H](CCC4=CC(=O)C=C[C@@]43C)[C@@H]1CC[C@H]2O[C@@H]1O[C@H](C(=O)OCCOC(=O)c2ccc(-c3c4nc(c(-c5ccc(S(=O)(=O)[O-])cc5)c5ccc([nH]5)c(-c5ccc(S(=O)(=O)[O-])cc5)c5nc(c(-c6ccc(S(=O)(=O)[O-])cc6)c6ccc3[nH]6)C=C5)C=C4)cc2)[C@@H](O)[C@H](O)[C@H]1O
REMARK SMILES IDX 29 1 28 2 27 3 25 4 26 5 24 6 22 7 23 8 97 9 95 10 93 11
REMARK SMILES IDX 21 12 20 13 1 14 2 15 3 16 17 17 4 18 6 19 18 20 19 21 5 22
REMARK SMILES IDX 7 23 15 24 8 25 9 26 14 27 16 28 10 29 13 30 11 31 12 32
REMARK SMILES IDX 98 33 96 35 94 37 30 39 31 40 32 41 33 42 34 43 92 44 35 45
REMARK SMILES IDX 91 46 36 47 37 48 38 49 85 50 39 51 90 52 84 53 86 54 40 55
REMARK SMILES IDX 89 56 83 57 82 58 41 60 71 61 52 62 70 63 53 64 56 65 69 66
REMARK SMILES IDX 87 67 54 68 55 69 68 71 88 72 57 73 42 74 43 75 51 76 44 77
REMARK SMILES IDX 50 78 45 79 46 80 47 81 48 82 49 83 72 84 73 85 81 86 74 87
REMARK SMILES IDX 80 88 75 89 76 90 77 91 78 92 79 93 58 94 59 95 67 96 60 97
REMARK SMILES IDX 66 98 61 99 62 100 63 101 64 102 65 103
REMARK H PARENT 98 34 96 36 94 38 86 59 56 70
REMARK Flexibility Score: inf
ROOT
ATOM      1  C   UNL     1       5.940  -5.322  -2.262  1.00  0.00     0.275 C 
ENDROOT
BRANCH   1   2
ATOM      2  C   UNL     1       4.879  -5.077  -1.188  1.00  0.00     0.274 C 
BRANCH   2   3
ATOM      3  O   UNL     1       4.160  -3.859  -1.473  1.00  0.00    -0.460 OA
BRANCH   3   4
ATOM      4  C   UNL     1       4.048  -2.964  -0.467  1.00  0.00     0.338 C 
ATOM      5  O   UNL     1       4.453  -3.136   0.679  1.00  0.00    -0.249 OA
BRANCH   4   6
ATOM      6  C   UNL     1       3.342  -1.670  -0.883  1.00  0.00     0.262 C 
ATOM      7  C   UNL     1       2.745  -0.110  -2.619  1.00  0.00     0.282 C 
ATOM      8  O   UNL     1       3.294  -1.386  -2.278  1.00  0.00    -0.332 OA
ATOM      9  C   UNL     1       1.465   0.286  -1.833  1.00  0.00     0.202 C 
ATOM     10  C   UNL     1       1.445  -0.203  -0.379  1.00  0.00     0.180 C 
ATOM     11  C   UNL     1       1.920  -1.661  -0.318  1.00  0.00     0.186 C 
BRANCH   7  12
ATOM     12  O   UNL     1       2.672   0.105  -4.040  1.00  0.00    -0.346 OA
BRANCH  12  13
ATOM     13  C   UNL     1       1.784  -0.490  -4.993  1.00  0.00     0.127 C 
ATOM     14  C   UNL     1       1.369  -2.230  -6.807  1.00  0.00     0.014 C 
ATOM     15  C   UNL     1       2.049  -1.962  -5.427  1.00  0.00    -0.003 C 
ATOM     16  C   UNL     1       3.505  -2.407  -5.524  1.00  0.00     0.010 C 
ATOM     17  C   UNL     1       1.342  -2.701  -4.287  1.00  0.00     0.001 C 
ATOM     18  C   UNL     1       3.619  -3.935  -5.694  1.00  0.00     0.006 C 
ATOM     19  C   UNL     1       1.390  -4.226  -4.375  1.00  0.00    -0.003 C 
ATOM     20  C   UNL     1      -0.002  -1.971  -4.153  1.00  0.00     0.007 C 
ATOM     21  C   UNL     1       0.280  -0.529  -4.654  1.00  0.00     0.033 C 
ATOM     22  C   UNL     1       2.860  -4.728  -4.601  1.00  0.00     0.006 C 
ATOM     23  C   UNL     1       0.866  -4.841  -3.061  1.00  0.00     0.009 C 
ATOM     24  C   UNL     1       2.907  -6.298  -4.741  1.00  0.00     0.010 C 
ATOM     25  C   UNL     1       0.936  -6.365  -3.051  1.00  0.00     0.032 C 
ATOM     26  C   UNL     1       2.292  -6.893  -3.463  1.00  0.00    -0.056 C 
ATOM     27  C   UNL     1       4.322  -6.824  -4.963  1.00  0.00    -0.012 C 
ATOM     28  C   UNL     1       2.107  -6.805  -5.958  1.00  0.00     0.021 C 
ATOM     29  C   UNL     1       2.912  -7.814  -2.702  1.00  0.00     0.052 C 
ATOM     30  C   UNL     1       4.925  -7.760  -4.217  1.00  0.00     0.048 C 
ATOM     31  C   UNL     1       4.259  -8.323  -3.028  1.00  0.00     0.178 C 
ATOM     32  O   UNL     1       4.822  -9.141  -2.312  1.00  0.00    -0.290 OA
ENDBRANCH  12  13
ENDBRANCH   7  12
BRANCH   9  33
ATOM     33  O   UNL     1       1.227   1.700  -1.905  1.00  0.00    -0.385 OA
ATOM     34  H   UNL     1       1.951   2.172  -1.465  1.00  0.00     0.211 HD
ENDBRANCH   9  33
BRANCH  10  35
ATOM     35  O   UNL     1       0.116  -0.070   0.150  1.00  0.00    -0.387 OA
ATOM     36  H   UNL     1      -0.498  -0.604  -0.380  1.00  0.00     0.211 HD
ENDBRANCH  10  35
BRANCH  11  37
ATOM     37  O   UNL     1       1.776  -2.161   1.008  1.00  0.00    -0.387 OA
ATOM     38  H   UNL     1       2.282  -1.604   1.620  1.00  0.00     0.211 HD
ENDBRANCH  11  37
ENDBRANCH   4   6
ENDBRANCH   3   4
ENDBRANCH   2   3
ENDBRANCH   1   2
BRANCH   1  39
ATOM     39  O   UNL     1       7.048  -4.453  -2.047  1.00  0.00    -0.458 OA
BRANCH  39  40
ATOM     40  C   UNL     1       6.918  -3.226  -2.598  1.00  0.00     0.338 C 
ATOM     41  O   UNL     1       6.148  -2.859  -3.463  1.00  0.00    -0.246 OA
BRANCH  40  42
ATOM     42  C   UNL     1       7.688  -2.347  -1.723  1.00  0.00     0.060 A 
ATOM     43  C   UNL     1       7.023  -1.261  -1.148  1.00  0.00     0.016 A 
ATOM     44  C   UNL     1       9.001  -2.677  -1.386  1.00  0.00     0.016 A 
ATOM     45  C   UNL     1       7.674  -0.497  -0.198  1.00  0.00     0.010 A 
ATOM     46  C   UNL     1       9.660  -1.904  -0.448  1.00  0.00     0.010 A 
ATOM     47  C   UNL     1       9.000  -0.805   0.125  1.00  0.00    -0.014 A 
BRANCH  47  48
ATOM     48  C   UNL     1       9.785   0.166   0.892  1.00  0.00     0.031 A 
ATOM     49  C   UNL     1      10.675   1.081   0.108  1.00  0.00     0.074 A 
ATOM     50  C   UNL     1       9.674   0.207   2.228  1.00  0.00     0.049 A 
ATOM     51  N   UNL     1      11.536   1.958   0.536  1.00  0.00    -0.248 NA
ATOM     52  C   UNL     1      10.595   0.980  -1.364  1.00  0.00     0.031 C 
ATOM     53  C   UNL     1       8.786  -0.638   3.032  1.00  0.00     0.029 A 
ATOM     54  N   UNL     1      10.316   0.990   3.145  1.00  0.00    -0.354 N 
ATOM     55  C   UNL     1      12.121   2.488  -0.608  1.00  0.00     0.074 A 
ATOM     56  C   UNL     1      11.538   1.824  -1.747  1.00  0.00     0.031 C 
ATOM     57  C   UNL     1       8.944  -0.324   4.330  1.00  0.00     0.029 A 
ATOM     58  C   UNL     1       9.970   0.706   4.444  1.00  0.00     0.049 A 
ATOM     59  H   UNL     1      10.962   1.690   2.899  1.00  0.00     0.167 HD
ATOM     60  C   UNL     1      13.065   3.451  -0.683  1.00  0.00     0.031 A 
ATOM     61  C   UNL     1      10.463   1.216   5.587  1.00  0.00     0.031 A 
ATOM     62  C   UNL     1      13.613   4.085   0.483  1.00  0.00     0.049 A 
ATOM     63  C   UNL     1      11.530   2.274   5.472  1.00  0.00     0.074 A 
ATOM     64  C   UNL     1      14.568   5.079   0.557  1.00  0.00     0.029 A 
ATOM     65  N   UNL     1      13.238   3.780   1.786  1.00  0.00    -0.354 N 
ATOM     66  N   UNL     1      12.081   2.772   4.387  1.00  0.00    -0.248 NA
ATOM     67  C   UNL     1      12.032   2.848   6.724  1.00  0.00     0.031 C 
ATOM     68  C   UNL     1      14.806   5.341   1.910  1.00  0.00     0.029 A 
ATOM     69  C   UNL     1      13.949   4.561   2.675  1.00  0.00     0.049 A 
ATOM     70  H   UNL     1      12.564   3.108   2.037  1.00  0.00     0.167 HD
ATOM     71  C   UNL     1      12.970   3.745   4.825  1.00  0.00     0.074 A 
ATOM     72  C   UNL     1      12.869   3.772   6.273  1.00  0.00     0.031 C 
ATOM     73  C   UNL     1      13.796   4.549   4.108  1.00  0.00     0.031 A 
BRANCH  60  74
ATOM     74  C   UNL     1      13.576   3.831  -2.046  1.00  0.00    -0.014 A 
ATOM     75  C   UNL     1      12.768   4.520  -2.969  1.00  0.00     0.010 A 
ATOM     76  C   UNL     1      14.899   3.514  -2.401  1.00  0.00     0.010 A 
ATOM     77  C   UNL     1      13.268   4.868  -4.227  1.00  0.00     0.020 A 
ATOM     78  C   UNL     1      15.412   3.885  -3.647  1.00  0.00     0.020 A 
ATOM     79  C   UNL     1      14.590   4.554  -4.556  1.00  0.00     0.054 A 
BRANCH  79  80
ATOM     80  S   UNL     1      15.232   5.075  -6.170  1.00  0.00     0.124 S 
ATOM     81  O   UNL     1      14.520   4.183  -7.082  1.00  0.00    -0.237 OA
ATOM     82  O   UNL     1      14.837   6.480  -6.231  1.00  0.00    -0.237 OA
ATOM     83  O   UNL     1      16.670   4.838  -6.065  1.00  0.00    -0.744 OA
ENDBRANCH  79  80
ENDBRANCH  60  74
BRANCH  61  84
ATOM     84  C   UNL     1       9.973   0.730   6.907  1.00  0.00    -0.014 A 
ATOM     85  C   UNL     1       9.253   1.576   7.768  1.00  0.00     0.010 A 
ATOM     86  C   UNL     1      10.224  -0.595   7.311  1.00  0.00     0.010 A 
ATOM     87  C   UNL     1       8.825   1.119   9.020  1.00  0.00     0.020 A 
ATOM     88  C   UNL     1       9.771  -1.066   8.547  1.00  0.00     0.020 A 
ATOM     89  C   UNL     1       9.090  -0.200   9.402  1.00  0.00     0.054 A 
BRANCH  89  90
ATOM     90  S   UNL     1       8.513  -0.775  11.024  1.00  0.00     0.124 S 
ATOM     91  O   UNL     1       9.418  -0.078  11.932  1.00  0.00    -0.237 OA
ATOM     92  O   UNL     1       7.124  -0.324  11.043  1.00  0.00    -0.237 OA
ATOM     93  O   UNL     1       8.689  -2.224  10.955  1.00  0.00    -0.744 OA
ENDBRANCH  89  90
ENDBRANCH  61  84
BRANCH  73  94
ATOM     94  C   UNL     1      14.594   5.560   4.880  1.00  0.00    -0.014 A 
ATOM     95  C   UNL     1      15.678   5.176   5.687  1.00  0.00     0.010 A 
ATOM     96  C   UNL     1      14.278   6.924   4.745  1.00  0.00     0.010 A 
ATOM     97  C   UNL     1      16.406   6.141   6.385  1.00  0.00     0.020 A 
ATOM     98  C   UNL     1      15.025   7.893   5.412  1.00  0.00     0.020 A 
ATOM     99  C   UNL     1      16.073   7.493   6.243  1.00  0.00     0.054 A 
BRANCH  99 100
ATOM    100  S   UNL     1      17.052   8.728   7.136  1.00  0.00     0.124 S 
ATOM    101  O   UNL     1      16.589   8.544   8.509  1.00  0.00    -0.237 OA
ATOM    102  O   UNL     1      18.424   8.301   6.871  1.00  0.00    -0.237 OA
ATOM    103  O   UNL     1      16.667   9.992   6.512  1.00  0.00    -0.744 OA
ENDBRANCH  99 100
ENDBRANCH  73  94
ENDBRANCH  47  48
ENDBRANCH  40  42
ENDBRANCH  39  40
ENDBRANCH   1  39
TORSDOF 19
