REMARK SMILES CC[C@@H](C)[C@H](NC(=O)[C@H](C)N1C(=O)N2CCC3=c4cc(OC)ccc4=N[C@H]3[C@@]2(C)C1=O)C(=O)OCCOC(=O)c1ccc(-c2c3nc(c(-c4ccc(S(=O)(=O)[O-])cc4)c4ccc([nH]4)c(-c4ccc(S(=O)(=O)[O-])cc4)c4nc(c(-c5ccc(S(=O)(=O)[O-])cc5)c5ccc2[nH]5)C=C4)C=C3)cc1
REMARK SMILES IDX 35 1 34 2 32 3 33 4 5 5 3 6 4 7 2 8 1 9 6 10 7 11 8 13 9 14
REMARK SMILES IDX 10 15 11 16 12 17 30 18 14 19 13 20 28 21 31 22 15 23 27 24
REMARK SMILES IDX 29 25 16 26 17 27 26 28 18 29 25 30 19 31 24 32 20 33 23 34
REMARK SMILES IDX 21 35 22 36 36 37 37 38 38 39 39 40 40 41 41 42 99 43 42 44
REMARK SMILES IDX 98 45 43 46 44 47 45 48 92 49 46 50 97 51 91 52 93 53 47 54
REMARK SMILES IDX 96 55 90 56 89 57 48 59 78 60 59 61 77 62 60 63 63 64 76 65
REMARK SMILES IDX 94 66 61 67 62 68 75 70 95 71 64 72 49 73 50 74 58 75 51 76
REMARK SMILES IDX 57 77 52 78 53 79 54 80 55 81 56 82 79 83 80 84 88 85 81 86
REMARK SMILES IDX 87 87 82 88 83 89 84 90 85 91 86 92 65 93 66 94 74 95 67 96
REMARK SMILES IDX 73 97 68 98 69 99 70 100 71 101 72 102
REMARK H PARENT 6 12 93 58 63 69
REMARK Flexibility Score: inf
ROOT
ATOM      1  C   UNL     1      -0.111  -5.524   6.563  1.00  0.00     0.274 C 
ENDROOT
BRANCH   1   2
ATOM      2  O   UNL     1       1.190  -5.209   7.130  1.00  0.00    -0.461 OA
BRANCH   2   3
ATOM      3  C   UNL     1       1.585  -3.896   6.991  1.00  0.00     0.329 C 
ATOM      4  O   UNL     1       0.788  -2.984   6.794  1.00  0.00    -0.250 OA
BRANCH   3   5
ATOM      5  C   UNL     1       3.121  -3.789   6.634  1.00  0.00     0.195 C 
BRANCH   5   6
ATOM      6  C   UNL     1       3.127  -4.564   5.216  1.00  0.00     0.019 C 
ATOM      7  C   UNL     1       4.344  -5.384   4.827  1.00  0.00     0.010 C 
BRANCH   6   8
ATOM      8  C   UNL     1       2.501  -3.652   4.094  1.00  0.00     0.002 C 
ATOM      9  C   UNL     1       3.130  -3.642   2.701  1.00  0.00     0.004 C 
ENDBRANCH   6   8
ENDBRANCH   5   6
BRANCH   5  10
ATOM     10  N   UNL     1       4.061  -4.244   7.732  1.00  0.00    -0.341 N 
ATOM     11  C   UNL     1       4.837  -3.665   8.753  1.00  0.00     0.243 C 
ATOM     12  H   UNL     1       4.157  -5.223   7.731  1.00  0.00     0.164 HD
ATOM     13  O   UNL     1       5.186  -4.489   9.616  1.00  0.00    -0.273 OA
BRANCH  11  14
ATOM     14  C   UNL     1       5.493  -2.142   8.830  1.00  0.00     0.181 C 
ATOM     15  C   UNL     1       6.750  -2.088   9.709  1.00  0.00     0.042 C 
BRANCH  14  16
ATOM     16  N   UNL     1       4.640  -0.912   9.062  1.00  0.00    -0.250 N 
ATOM     17  C   UNL     1       4.918   0.503   8.974  1.00  0.00     0.328 C 
ATOM     18  C   UNL     1       3.457  -1.073   8.489  1.00  0.00     0.259 C 
ATOM     19  N   UNL     1       3.783   1.110   8.143  1.00  0.00    -0.307 N 
ATOM     20  O   UNL     1       5.945   1.096   9.266  1.00  0.00    -0.248 OA
ATOM     21  C   UNL     1       3.351  -0.041   7.450  1.00  0.00     0.147 C 
ATOM     22  O   UNL     1       2.706  -2.010   8.668  1.00  0.00    -0.271 OA
ATOM     23  C   UNL     1       3.795   2.314   7.106  1.00  0.00     0.127 C 
ATOM     24  C   UNL     1       4.561  -0.117   6.418  1.00  0.00     0.168 C 
ATOM     25  C   UNL     1       1.870   0.054   7.075  1.00  0.00     0.048 C 
ATOM     26  C   UNL     1       3.748   1.778   5.376  1.00  0.00     0.055 C 
ATOM     27  C   UNL     1       4.308   0.292   5.048  1.00  0.00    -0.032 C 
ATOM     28  N   UNL     1       6.029  -0.438   6.606  1.00  0.00    -0.274 NA
ATOM     29  C   UNL     1       5.347  -0.304   4.372  1.00  0.00     0.005 A 
ATOM     30  C   UNL     1       6.452  -0.161   5.394  1.00  0.00     0.066 A 
ATOM     31  C   UNL     1       5.436  -1.841   4.281  1.00  0.00     0.056 A 
ATOM     32  C   UNL     1       7.809  -0.448   4.904  1.00  0.00     0.032 A 
ATOM     33  C   UNL     1       6.620  -2.490   4.517  1.00  0.00     0.119 A 
ATOM     34  C   UNL     1       7.852  -1.720   4.479  1.00  0.00     0.048 A 
BRANCH  33  35
ATOM     35  O   UNL     1       6.658  -3.744   5.090  1.00  0.00    -0.497 OA
ATOM     36  C   UNL     1       7.702  -4.139   5.991  1.00  0.00     0.278 C 
ENDBRANCH  33  35
ENDBRANCH  14  16
ENDBRANCH  11  14
ENDBRANCH   5  10
ENDBRANCH   3   5
ENDBRANCH   2   3
ENDBRANCH   1   2
BRANCH   1  37
ATOM     37  C   UNL     1      -1.101  -6.067   7.592  1.00  0.00     0.275 C 
BRANCH  37  38
ATOM     38  O   UNL     1      -1.373  -5.076   8.587  1.00  0.00    -0.458 OA
BRANCH  38  39
ATOM     39  C   UNL     1      -0.463  -5.051   9.591  1.00  0.00     0.338 C 
ATOM     40  O   UNL     1       0.400  -5.887   9.816  1.00  0.00    -0.246 OA
BRANCH  39  41
ATOM     41  C   UNL     1      -0.527  -3.733  10.239  1.00  0.00     0.060 A 
ATOM     42  C   UNL     1      -1.728  -3.159  10.657  1.00  0.00     0.016 A 
ATOM     43  C   UNL     1       0.676  -3.051  10.401  1.00  0.00     0.016 A 
ATOM     44  C   UNL     1      -1.715  -1.885  11.233  1.00  0.00     0.010 A 
ATOM     45  C   UNL     1       0.684  -1.763  10.926  1.00  0.00     0.010 A 
ATOM     46  C   UNL     1      -0.509  -1.174  11.354  1.00  0.00    -0.014 A 
BRANCH  46  47
ATOM     47  C   UNL     1      -0.454   0.116  12.072  1.00  0.00     0.031 A 
ATOM     48  C   UNL     1      -0.641   1.422  11.369  1.00  0.00     0.074 A 
ATOM     49  C   UNL     1      -0.168   0.084  13.385  1.00  0.00     0.049 A 
ATOM     50  N   UNL     1      -0.724   2.621  11.884  1.00  0.00    -0.248 NA
ATOM     51  C   UNL     1      -0.724   1.388   9.902  1.00  0.00     0.031 C 
ATOM     52  C   UNL     1       0.113  -1.133  14.148  1.00  0.00     0.029 A 
ATOM     53  N   UNL     1      -0.072   1.093  14.307  1.00  0.00    -0.354 N 
ATOM     54  C   UNL     1      -0.880   3.488  10.810  1.00  0.00     0.074 A 
ATOM     55  C   UNL     1      -0.830   2.679   9.609  1.00  0.00     0.031 C 
ATOM     56  C   UNL     1       0.325  -0.803  15.430  1.00  0.00     0.029 A 
ATOM     57  C   UNL     1       0.181   0.643  15.579  1.00  0.00     0.049 A 
ATOM     58  H   UNL     1      -0.175   2.045  14.079  1.00  0.00     0.167 HD
ATOM     59  C   UNL     1      -1.074   4.829  10.840  1.00  0.00     0.031 A 
ATOM     60  C   UNL     1       0.246   1.310  16.746  1.00  0.00     0.031 A 
ATOM     61  C   UNL     1      -1.131   5.606  12.055  1.00  0.00     0.049 A 
ATOM     62  C   UNL     1      -0.045   2.781  16.766  1.00  0.00     0.074 A 
ATOM     63  C   UNL     1      -1.423   6.953  12.196  1.00  0.00     0.029 A 
ATOM     64  N   UNL     1      -0.895   5.116  13.331  1.00  0.00    -0.354 N 
ATOM     65  N   UNL     1      -0.315   3.576  15.758  1.00  0.00    -0.248 NA
ATOM     66  C   UNL     1      -0.064   3.440  18.078  1.00  0.00     0.031 C 
ATOM     67  C   UNL     1      -1.310   7.287  13.548  1.00  0.00     0.029 A 
ATOM     68  C   UNL     1      -1.018   6.136  14.261  1.00  0.00     0.049 A 
ATOM     69  H   UNL     1      -0.673   4.181  13.544  1.00  0.00     0.167 HD
ATOM     70  C   UNL     1      -0.555   4.826  16.315  1.00  0.00     0.074 A 
ATOM     71  C   UNL     1      -0.414   4.678  17.750  1.00  0.00     0.031 C 
ATOM     72  C   UNL     1      -0.866   5.987  15.689  1.00  0.00     0.031 A 
BRANCH  59  73
ATOM     73  C   UNL     1      -1.296   5.557   9.538  1.00  0.00    -0.014 A 
ATOM     74  C   UNL     1      -0.393   6.555   9.123  1.00  0.00     0.010 A 
ATOM     75  C   UNL     1      -2.481   5.366   8.805  1.00  0.00     0.010 A 
ATOM     76  C   UNL     1      -0.686   7.368   8.023  1.00  0.00     0.020 A 
ATOM     77  C   UNL     1      -2.764   6.156   7.688  1.00  0.00     0.020 A 
ATOM     78  C   UNL     1      -1.877   7.170   7.319  1.00  0.00     0.054 A 
BRANCH  78  79
ATOM     79  S   UNL     1      -2.259   8.249   5.912  1.00  0.00     0.124 S 
ATOM     80  O   UNL     1      -2.702   9.473   6.571  1.00  0.00    -0.237 OA
ATOM     81  O   UNL     1      -0.976   8.333   5.216  1.00  0.00    -0.237 OA
ATOM     82  O   UNL     1      -3.296   7.514   5.191  1.00  0.00    -0.744 OA
ENDBRANCH  78  79
ENDBRANCH  59  73
BRANCH  60  83
ATOM     83  C   UNL     1       0.463   0.528  17.990  1.00  0.00    -0.014 A 
ATOM     84  C   UNL     1       1.719  -0.042  18.268  1.00  0.00     0.010 A 
ATOM     85  C   UNL     1      -0.630   0.225  18.820  1.00  0.00     0.010 A 
ATOM     86  C   UNL     1       1.864  -0.946  19.323  1.00  0.00     0.020 A 
ATOM     87  C   UNL     1      -0.483  -0.660  19.889  1.00  0.00     0.020 A 
ATOM     88  C   UNL     1       0.756  -1.264  20.114  1.00  0.00     0.054 A 
BRANCH  88  89
ATOM     89  S   UNL     1       0.944  -2.502  21.426  1.00  0.00     0.124 S 
ATOM     90  O   UNL     1       0.964  -3.747  20.662  1.00  0.00    -0.237 OA
ATOM     91  O   UNL     1       2.211  -2.123  22.046  1.00  0.00    -0.237 OA
ATOM     92  O   UNL     1      -0.239  -2.300  22.259  1.00  0.00    -0.744 OA
ENDBRANCH  88  89
ENDBRANCH  60  83
BRANCH  72  93
ATOM     93  C   UNL     1      -1.074   7.217  16.534  1.00  0.00    -0.014 A 
ATOM     94  C   UNL     1      -2.352   7.801  16.617  1.00  0.00     0.010 A 
ATOM     95  C   UNL     1       0.016   7.868  17.139  1.00  0.00     0.010 A 
ATOM     96  C   UNL     1      -2.532   9.029  17.257  1.00  0.00     0.020 A 
ATOM     97  C   UNL     1      -0.166   9.085  17.805  1.00  0.00     0.020 A 
ATOM     98  C   UNL     1      -1.434   9.669  17.837  1.00  0.00     0.054 A 
BRANCH  98  99
ATOM     99  S   UNL     1      -1.680  11.282  18.632  1.00  0.00     0.124 S 
ATOM    100  O   UNL     1      -1.788  12.177  17.484  1.00  0.00    -0.237 OA
ATOM    101  O   UNL     1      -2.911  11.082  19.393  1.00  0.00    -0.237 OA
ATOM    102  O   UNL     1      -0.476  11.451  19.444  1.00  0.00    -0.744 OA
ENDBRANCH  98  99
ENDBRANCH  72  93
ENDBRANCH  46  47
ENDBRANCH  39  41
ENDBRANCH  38  39
ENDBRANCH  37  38
ENDBRANCH   1  37
TORSDOF 20
