REMARK SMILES CCCS[C@@H]1CC[C@@]([NH2+]CC)(C(=O)OCCOC(=O)c2ccc(-c3c4nc(c(-c5ccc(S(=O)(=O)[O-])cc5)c5ccc([nH]5)c(-c5ccc(S(=O)(=O)[O-])cc5)c5nc(c(-c6ccc(S(=O)(=O)[O-])cc6)c6ccc3[nH]6)C=C5)C=C4)cc2)C1
REMARK SMILES IDX 15 1 14 2 12 3 13 4 8 5 5 6 6 7 80 8 7 9 4 10 3 11 2 12 1 13
REMARK SMILES IDX 9 14 10 17 11 18 16 19 17 20 18 21 19 22 20 23 21 24 79 25
REMARK SMILES IDX 22 26 78 27 23 28 24 29 25 30 72 31 26 32 77 33 71 34 73 35
REMARK SMILES IDX 27 36 76 37 70 38 69 39 28 41 58 42 39 43 57 44 40 45 43 46
REMARK SMILES IDX 56 47 74 48 41 49 42 50 55 52 75 53 44 54 29 55 30 56 38 57
REMARK SMILES IDX 31 58 37 59 32 60 33 61 34 62 35 63 36 64 59 65 60 66 68 67
REMARK SMILES IDX 61 68 67 69 62 70 63 71 64 72 65 73 66 74 45 75 46 76 54 77
REMARK SMILES IDX 47 78 53 79 48 80 49 81 50 82 51 83 52 84
REMARK H PARENT 9 15 9 16 73 40 43 51
REMARK Flexibility Score: inf
ROOT
ATOM      1  C   UNL     1       4.015   4.869   0.394  1.00  0.00     0.274 C 
ENDROOT
BRANCH   1   2
ATOM      2  O   UNL     1       2.729   4.635   1.004  1.00  0.00    -0.457 OA
BRANCH   2   3
ATOM      3  C   UNL     1       1.949   3.678   0.423  1.00  0.00     0.368 C 
ATOM      4  O   UNL     1       2.260   3.071  -0.597  1.00  0.00    -0.245 OA
BRANCH   3   5
ATOM      5  C   UNL     1       0.579   3.510   1.141  1.00  0.00     0.195 C 
ATOM      6  C   UNL     1       0.210   1.482   2.531  1.00  0.00     0.053 C 
ATOM      7  C   UNL     1      -0.025   2.710   3.401  1.00  0.00     0.022 C 
ATOM      8  C   UNL     1       0.087   2.036   1.116  1.00  0.00     0.095 C 
ATOM      9  C   UNL     1       0.692   3.829   2.656  1.00  0.00     0.082 C 
BRANCH   6  10
ATOM     10  S   UNL     1      -1.059   0.214   2.906  1.00  0.00    -0.158 SA
BRANCH  10  11
ATOM     11  C   UNL     1      -0.336  -1.269   2.127  1.00  0.00     0.069 C 
BRANCH  11  12
ATOM     12  C   UNL     1      -1.071  -1.773   0.883  1.00  0.00     0.007 C 
ATOM     13  C   UNL     1      -1.010  -0.862  -0.332  1.00  0.00     0.005 C 
ENDBRANCH  11  12
ENDBRANCH  10  11
ENDBRANCH   6  10
BRANCH   5  14
ATOM     14  N   UNL     1      -0.436   4.414   0.523  1.00  0.00    -0.332 N 
ATOM     15  H   UNL     1      -0.234   5.363   0.838  1.00  0.00     0.347 HD
ATOM     16  H   UNL     1      -1.338   4.045   0.823  1.00  0.00     0.347 HD
BRANCH  14  17
ATOM     17  C   UNL     1      -0.500   4.438  -0.946  1.00  0.00     0.257 C 
ATOM     18  C   UNL     1      -0.915   3.144  -1.638  1.00  0.00     0.071 C 
ENDBRANCH  14  17
ENDBRANCH   5  14
ENDBRANCH   3   5
ENDBRANCH   2   3
ENDBRANCH   1   2
BRANCH   1  19
ATOM     19  C   UNL     1       5.101   4.079   1.122  1.00  0.00     0.275 C 
BRANCH  19  20
ATOM     20  O   UNL     1       4.872   2.676   0.915  1.00  0.00    -0.458 OA
BRANCH  20  21
ATOM     21  C   UNL     1       5.146   1.855   1.956  1.00  0.00     0.338 C 
ATOM     22  O   UNL     1       5.658   2.169   3.015  1.00  0.00    -0.246 OA
BRANCH  21  23
ATOM     23  C   UNL     1       4.695   0.480   1.631  1.00  0.00     0.060 A 
ATOM     24  C   UNL     1       3.569   0.275   0.838  1.00  0.00     0.016 A 
ATOM     25  C   UNL     1       5.343  -0.623   2.190  1.00  0.00     0.016 A 
ATOM     26  C   UNL     1       3.045  -1.004   0.676  1.00  0.00     0.010 A 
ATOM     27  C   UNL     1       4.851  -1.920   1.962  1.00  0.00     0.010 A 
ATOM     28  C   UNL     1       3.660  -2.127   1.243  1.00  0.00    -0.014 A 
BRANCH  28  29
ATOM     29  C   UNL     1       3.000  -3.471   1.169  1.00  0.00     0.031 A 
ATOM     30  C   UNL     1       2.720  -4.252   2.435  1.00  0.00     0.074 A 
ATOM     31  C   UNL     1       2.553  -3.981   0.000  1.00  0.00     0.049 A 
ATOM     32  N   UNL     1       2.327  -5.495   2.570  1.00  0.00    -0.248 NA
ATOM     33  C   UNL     1       2.906  -3.547   3.714  1.00  0.00     0.031 C 
ATOM     34  C   UNL     1       2.639  -3.330  -1.308  1.00  0.00     0.029 A 
ATOM     35  N   UNL     1       1.892  -5.158  -0.267  1.00  0.00    -0.354 N 
ATOM     36  C   UNL     1       2.309  -5.745   3.938  1.00  0.00     0.074 A 
ATOM     37  C   UNL     1       2.703  -4.517   4.594  1.00  0.00     0.031 C 
ATOM     38  C   UNL     1       1.971  -4.062  -2.212  1.00  0.00     0.029 A 
ATOM     39  C   UNL     1       1.519  -5.299  -1.584  1.00  0.00     0.049 A 
ATOM     40  H   UNL     1       1.703  -5.837   0.420  1.00  0.00     0.167 HD
ATOM     41  C   UNL     1       2.011  -6.894   4.592  1.00  0.00     0.031 A 
ATOM     42  C   UNL     1       0.926  -6.320  -2.236  1.00  0.00     0.031 A 
ATOM     43  C   UNL     1       1.554  -8.101   3.957  1.00  0.00     0.049 A 
ATOM     44  C   UNL     1       0.642  -7.601  -1.505  1.00  0.00     0.074 A 
ATOM     45  C   UNL     1       1.268  -9.326   4.538  1.00  0.00     0.029 A 
ATOM     46  N   UNL     1       1.281  -8.229   2.606  1.00  0.00    -0.354 N 
ATOM     47  N   UNL     1       0.783  -7.872  -0.230  1.00  0.00    -0.248 NA
ATOM     48  C   UNL     1       0.165  -8.733  -2.314  1.00  0.00     0.031 C 
ATOM     49  C   UNL     1       0.852 -10.204   3.530  1.00  0.00     0.029 A 
ATOM     50  C   UNL     1       0.841  -9.512   2.330  1.00  0.00     0.049 A 
ATOM     51  H   UNL     1       1.386  -7.512   1.939  1.00  0.00     0.167 HD
ATOM     52  C   UNL     1       0.433  -9.210  -0.089  1.00  0.00     0.074 A 
ATOM     53  C   UNL     1       0.034  -9.683  -1.398  1.00  0.00     0.031 C 
ATOM     54  C   UNL     1       0.462  -9.982   1.024  1.00  0.00     0.031 A 
BRANCH  41  55
ATOM     55  C   UNL     1       2.247  -6.923   6.077  1.00  0.00    -0.014 A 
ATOM     56  C   UNL     1       1.355  -6.325   6.982  1.00  0.00     0.010 A 
ATOM     57  C   UNL     1       3.382  -7.593   6.571  1.00  0.00     0.010 A 
ATOM     58  C   UNL     1       1.617  -6.362   8.356  1.00  0.00     0.020 A 
ATOM     59  C   UNL     1       3.636  -7.651   7.942  1.00  0.00     0.020 A 
ATOM     60  C   UNL     1       2.761  -7.017   8.826  1.00  0.00     0.054 A 
BRANCH  60  61
ATOM     61  S   UNL     1       3.081  -7.059  10.611  1.00  0.00     0.124 S 
ATOM     62  O   UNL     1       3.603  -5.716  10.853  1.00  0.00    -0.237 OA
ATOM     63  O   UNL     1       1.759  -7.329  11.172  1.00  0.00    -0.237 OA
ATOM     64  O   UNL     1       4.050  -8.142  10.763  1.00  0.00    -0.744 OA
ENDBRANCH  60  61
ENDBRANCH  41  55
BRANCH  42  65
ATOM     65  C   UNL     1       0.632  -6.204  -3.691  1.00  0.00    -0.014 A 
ATOM     66  C   UNL     1      -0.697  -6.133  -4.145  1.00  0.00     0.010 A 
ATOM     67  C   UNL     1       1.680  -6.160  -4.628  1.00  0.00     0.010 A 
ATOM     68  C   UNL     1      -0.971  -6.017  -5.511  1.00  0.00     0.020 A 
ATOM     69  C   UNL     1       1.410  -6.014  -5.991  1.00  0.00     0.020 A 
ATOM     70  C   UNL     1       0.085  -5.954  -6.425  1.00  0.00     0.054 A 
BRANCH  70  71
ATOM     71  S   UNL     1      -0.278  -5.725  -8.188  1.00  0.00     0.124 S 
ATOM     72  O   UNL     1      -0.549  -7.092  -8.620  1.00  0.00    -0.237 OA
ATOM     73  O   UNL     1      -1.429  -4.827  -8.168  1.00  0.00    -0.237 OA
ATOM     74  O   UNL     1       0.953  -5.133  -8.709  1.00  0.00    -0.744 OA
ENDBRANCH  70  71
ENDBRANCH  42  65
BRANCH  54  75
ATOM     75  C   UNL     1       0.061 -11.424   0.876  1.00  0.00    -0.014 A 
ATOM     76  C   UNL     1       0.938 -12.354   0.290  1.00  0.00     0.010 A 
ATOM     77  C   UNL     1      -1.181 -11.864   1.367  1.00  0.00     0.010 A 
ATOM     78  C   UNL     1       0.570 -13.697   0.174  1.00  0.00     0.020 A 
ATOM     79  C   UNL     1      -1.545 -13.210   1.269  1.00  0.00     0.020 A 
ATOM     80  C   UNL     1      -0.672 -14.116   0.661  1.00  0.00     0.054 A 
BRANCH  80  81
ATOM     81  S   UNL     1      -1.114 -15.872   0.538  1.00  0.00     0.124 S 
ATOM     82  O   UNL     1      -1.491 -15.992  -0.867  1.00  0.00    -0.237 OA
ATOM     83  O   UNL     1       0.127 -16.545   0.916  1.00  0.00    -0.237 OA
ATOM     84  O   UNL     1      -2.210 -16.019   1.493  1.00  0.00    -0.744 OA
ENDBRANCH  80  81
ENDBRANCH  54  75
ENDBRANCH  28  29
ENDBRANCH  21  23
ENDBRANCH  20  21
ENDBRANCH  19  20
ENDBRANCH   1  19
TORSDOF 19
