REMARK SMILES O=C(CC1(CC(=O)OCCOC(=O)c2ccc(-c3c4nc(c(-c5ccc(S(=O)(=O)[O-])cc5)c5ccc([nH]5)c(-c5ccc(S(=O)(=O)[O-])cc5)c5nc(c(-c6ccc(S(=O)(=O)[O-])cc6)c6ccc3[nH]6)C=C5)C=C4)cc2)CCCC1)NNc1ccc([N+](=O)[O-])cc1
REMARK SMILES IDX 8 1 6 2 7 3 5 4 4 5 74 6 77 7 75 8 76 9 3 10 2 11 1 12 78 13
REMARK SMILES IDX 79 15 80 17 81 18 88 19 82 20 87 21 83 22 84 23 85 24 86 25
REMARK SMILES IDX 9 26 10 27 11 28 12 29 13 30 14 31 15 32 73 33 16 34 72 35
REMARK SMILES IDX 17 36 18 37 19 38 66 39 20 40 71 41 65 42 67 43 21 44 70 45
REMARK SMILES IDX 64 46 63 47 22 49 52 50 33 51 51 52 34 53 37 54 50 55 68 56
REMARK SMILES IDX 35 57 36 58 49 60 69 61 38 62 23 63 24 64 32 65 25 66 31 67
REMARK SMILES IDX 26 68 27 69 28 70 29 71 30 72 53 73 54 74 62 75 55 76 61 77
REMARK SMILES IDX 56 78 57 79 58 80 59 81 60 82 39 83 40 84 48 85 41 86 47 87
REMARK SMILES IDX 42 88 43 89 44 90 45 91 46 92
REMARK H PARENT 78 14 79 16 67 48 37 59
REMARK Flexibility Score: inf
ROOT
ATOM      1  O   UNL     1       5.406   0.670  -0.634  1.00  0.00    -0.462 OA
ENDROOT
BRANCH   1   2
ATOM      2  C   UNL     1       5.968  -0.539  -0.386  1.00  0.00     0.306 C 
ATOM      3  O   UNL     1       7.059  -0.691   0.156  1.00  0.00    -0.252 OA
BRANCH   2   4
ATOM      4  C   UNL     1       5.171  -1.742  -0.853  1.00  0.00     0.130 C 
BRANCH   4   5
ATOM      5  C   UNL     1       3.705  -1.632  -1.360  1.00  0.00    -0.010 C 
ATOM      6  C   UNL     1       3.233  -3.062  -1.748  1.00  0.00     0.008 C 
ATOM      7  C   UNL     1       3.612  -0.955  -2.742  1.00  0.00     0.008 C 
ATOM      8  C   UNL     1       3.879  -3.356  -3.099  1.00  0.00     0.001 C 
ATOM      9  C   UNL     1       4.103  -1.994  -3.751  1.00  0.00     0.001 C 
BRANCH   5  10
ATOM     10  C   UNL     1       2.762  -1.084  -0.257  1.00  0.00     0.109 C 
BRANCH  10  11
ATOM     11  C   UNL     1       1.870   0.079  -0.661  1.00  0.00     0.238 C 
ATOM     12  O   UNL     1       0.671  -0.056  -0.891  1.00  0.00    -0.273 OA
ATOM     13  N   UNL     1       2.556   1.272  -0.750  1.00  0.00    -0.270 N 
ATOM     14  H   UNL     1       3.533   1.294  -0.628  1.00  0.00     0.191 HD
BRANCH  13  15
ATOM     15  N   UNL     1       1.857   2.439  -1.011  1.00  0.00    -0.299 N 
ATOM     16  H   UNL     1       0.885   2.499  -0.867  1.00  0.00     0.188 HD
BRANCH  15  17
ATOM     17  C   UNL     1       2.593   3.525  -1.488  1.00  0.00     0.055 A 
ATOM     18  C   UNL     1       2.305   4.815  -1.023  1.00  0.00     0.034 A 
ATOM     19  C   UNL     1       3.656   3.364  -2.390  1.00  0.00     0.034 A 
ATOM     20  C   UNL     1       3.062   5.918  -1.435  1.00  0.00     0.088 A 
ATOM     21  C   UNL     1       4.419   4.455  -2.817  1.00  0.00     0.088 A 
ATOM     22  C   UNL     1       4.120   5.732  -2.331  1.00  0.00     0.269 A 
BRANCH  22  23
ATOM     23  N   UNL     1       4.926   6.880  -2.760  1.00  0.00     0.062 N 
ATOM     24  O   UNL     1       4.576   8.007  -2.379  1.00  0.00    -0.258 OA
ATOM     25  O   UNL     1       5.913   6.657  -3.476  1.00  0.00    -0.258 OA
ENDBRANCH  22  23
ENDBRANCH  15  17
ENDBRANCH  13  15
ENDBRANCH  10  11
ENDBRANCH   5  10
ENDBRANCH   4   5
ENDBRANCH   2   4
ENDBRANCH   1   2
BRANCH   1  26
ATOM     26  C   UNL     1       6.242   1.803  -0.291  1.00  0.00     0.274 C 
BRANCH  26  27
ATOM     27  C   UNL     1       5.810   2.468   1.015  1.00  0.00     0.275 C 
BRANCH  27  28
ATOM     28  O   UNL     1       5.835   1.526   2.100  1.00  0.00    -0.458 OA
BRANCH  28  29
ATOM     29  C   UNL     1       4.623   1.066   2.483  1.00  0.00     0.338 C 
ATOM     30  O   UNL     1       3.540   1.381   2.023  1.00  0.00    -0.246 OA
BRANCH  29  31
ATOM     31  C   UNL     1       4.782   0.042   3.521  1.00  0.00     0.060 A 
ATOM     32  C   UNL     1       5.135  -1.258   3.151  1.00  0.00     0.016 A 
ATOM     33  C   UNL     1       4.465   0.348   4.843  1.00  0.00     0.016 A 
ATOM     34  C   UNL     1       5.146  -2.271   4.107  1.00  0.00     0.010 A 
ATOM     35  C   UNL     1       4.523  -0.660   5.808  1.00  0.00     0.010 A 
ATOM     36  C   UNL     1       4.848  -1.978   5.444  1.00  0.00    -0.014 A 
BRANCH  36  37
ATOM     37  C   UNL     1       4.877  -3.045   6.473  1.00  0.00     0.031 A 
ATOM     38  C   UNL     1       3.603  -3.499   7.126  1.00  0.00     0.074 A 
ATOM     39  C   UNL     1       6.057  -3.581   6.838  1.00  0.00     0.049 A 
ATOM     40  N   UNL     1       3.441  -4.306   8.142  1.00  0.00    -0.248 NA
ATOM     41  C   UNL     1       2.347  -2.971   6.567  1.00  0.00     0.031 C 
ATOM     42  C   UNL     1       7.357  -3.245   6.252  1.00  0.00     0.029 A 
ATOM     43  N   UNL     1       6.354  -4.512   7.799  1.00  0.00    -0.354 N 
ATOM     44  C   UNL     1       2.070  -4.359   8.368  1.00  0.00     0.074 A 
ATOM     45  C   UNL     1       1.446  -3.499   7.385  1.00  0.00     0.031 C 
ATOM     46  C   UNL     1       8.312  -3.962   6.865  1.00  0.00     0.029 A 
ATOM     47  C   UNL     1       7.700  -4.762   7.920  1.00  0.00     0.049 A 
ATOM     48  H   UNL     1       5.670  -4.959   8.348  1.00  0.00     0.167 HD
ATOM     49  C   UNL     1       1.397  -5.057   9.314  1.00  0.00     0.031 A 
ATOM     50  C   UNL     1       8.372  -5.521   8.806  1.00  0.00     0.031 A 
ATOM     51  C   UNL     1       2.025  -5.914  10.286  1.00  0.00     0.049 A 
ATOM     52  C   UNL     1       7.607  -6.255   9.870  1.00  0.00     0.074 A 
ATOM     53  C   UNL     1       1.430  -6.668  11.283  1.00  0.00     0.029 A 
ATOM     54  N   UNL     1       3.391  -6.133  10.380  1.00  0.00    -0.354 N 
ATOM     55  N   UNL     1       6.314  -6.277  10.084  1.00  0.00    -0.248 NA
ATOM     56  C   UNL     1       8.393  -7.061  10.813  1.00  0.00     0.031 C 
ATOM     57  C   UNL     1       2.441  -7.317  12.001  1.00  0.00     0.029 A 
ATOM     58  C   UNL     1       3.660  -7.000  11.425  1.00  0.00     0.049 A 
ATOM     59  H   UNL     1       4.069  -5.732   9.790  1.00  0.00     0.167 HD
ATOM     60  C   UNL     1       6.128  -7.111  11.180  1.00  0.00     0.074 A 
ATOM     61  C   UNL     1       7.440  -7.583  11.575  1.00  0.00     0.031 C 
ATOM     62  C   UNL     1       4.974  -7.454  11.803  1.00  0.00     0.031 A 
BRANCH  49  63
ATOM     63  C   UNL     1      -0.097  -4.888   9.367  1.00  0.00    -0.014 A 
ATOM     64  C   UNL     1      -0.933  -5.497   8.415  1.00  0.00     0.010 A 
ATOM     65  C   UNL     1      -0.673  -4.132  10.403  1.00  0.00     0.010 A 
ATOM     66  C   UNL     1      -2.319  -5.321   8.478  1.00  0.00     0.020 A 
ATOM     67  C   UNL     1      -2.059  -3.970  10.481  1.00  0.00     0.020 A 
ATOM     68  C   UNL     1      -2.873  -4.551   9.506  1.00  0.00     0.054 A 
BRANCH  68  69
ATOM     69  S   UNL     1      -4.674  -4.345   9.576  1.00  0.00     0.124 S 
ATOM     70  O   UNL     1      -4.901  -3.342   8.538  1.00  0.00    -0.237 OA
ATOM     71  O   UNL     1      -5.166  -5.686   9.271  1.00  0.00    -0.237 OA
ATOM     72  O   UNL     1      -4.917  -3.892  10.944  1.00  0.00    -0.744 OA
ENDBRANCH  68  69
ENDBRANCH  49  63
BRANCH  50  73
ATOM     73  C   UNL     1       9.854  -5.593   8.735  1.00  0.00    -0.014 A 
ATOM     74  C   UNL     1      10.489  -6.750   8.253  1.00  0.00     0.010 A 
ATOM     75  C   UNL     1      10.636  -4.486   9.112  1.00  0.00     0.010 A 
ATOM     76  C   UNL     1      11.883  -6.799   8.151  1.00  0.00     0.020 A 
ATOM     77  C   UNL     1      12.027  -4.524   8.990  1.00  0.00     0.020 A 
ATOM     78  C   UNL     1      12.643  -5.684   8.517  1.00  0.00     0.054 A 
BRANCH  78  79
ATOM     79  S   UNL     1      14.444  -5.737   8.305  1.00  0.00     0.124 S 
ATOM     80  O   UNL     1      14.865  -6.494   9.479  1.00  0.00    -0.237 OA
ATOM     81  O   UNL     1      14.595  -6.422   7.023  1.00  0.00    -0.237 OA
ATOM     82  O   UNL     1      14.825  -4.327   8.295  1.00  0.00    -0.744 OA
ENDBRANCH  78  79
ENDBRANCH  50  73
BRANCH  62  83
ATOM     83  C   UNL     1       5.081  -8.405  12.961  1.00  0.00    -0.014 A 
ATOM     84  C   UNL     1       5.531  -7.968  14.219  1.00  0.00     0.010 A 
ATOM     85  C   UNL     1       4.688  -9.745  12.796  1.00  0.00     0.010 A 
ATOM     86  C   UNL     1       5.613  -8.863  15.288  1.00  0.00     0.020 A 
ATOM     87  C   UNL     1       4.751 -10.639  13.868  1.00  0.00     0.020 A 
ATOM     88  C   UNL     1       5.227 -10.195  15.104  1.00  0.00     0.054 A 
BRANCH  88  89
ATOM     89  S   UNL     1       5.304 -11.335  16.513  1.00  0.00     0.124 S 
ATOM     90  O   UNL     1       6.727 -11.662  16.560  1.00  0.00    -0.237 OA
ATOM     91  O   UNL     1       4.810 -10.518  17.619  1.00  0.00    -0.237 OA
ATOM     92  O   UNL     1       4.424 -12.432  16.117  1.00  0.00    -0.744 OA
ENDBRANCH  88  89
ENDBRANCH  62  83
ENDBRANCH  36  37
ENDBRANCH  29  31
ENDBRANCH  28  29
ENDBRANCH  27  28
ENDBRANCH  26  27
ENDBRANCH   1  26
TORSDOF 20
