REMARK SMILES O=C(OCCOC(=O)[C@@H]1[C@H](C(=O)Nc2ccccc2OC(F)F)[C@@H]2C=C[C@H]1C2)c1ccc(-c2c3nc(c(-c4ccc(S(=O)(=O)[O-])cc4)c4ccc([nH]4)c(-c4ccc(S(=O)(=O)[O-])cc4)c4nc(c(-c5ccc(S(=O)(=O)[O-])cc5)c5ccc2[nH]5)C=C4)C=C3)cc1
REMARK SMILES IDX 5 1 4 2 3 3 2 4 1 5 29 6 30 7 88 8 31 9 87 10 32 11 33 12
REMARK SMILES IDX 34 13 81 14 35 15 86 16 80 17 82 18 36 19 85 20 79 21 78 22
REMARK SMILES IDX 37 24 67 25 48 26 66 27 49 28 52 29 65 30 83 31 50 32 51 33
REMARK SMILES IDX 64 35 84 36 53 37 38 38 39 39 47 40 40 41 46 42 41 43 42 44
REMARK SMILES IDX 43 45 44 46 45 47 68 48 69 49 77 50 70 51 76 52 71 53 72 54
REMARK SMILES IDX 73 55 74 56 75 57 54 58 55 59 63 60 56 61 62 62 57 63 58 64
REMARK SMILES IDX 59 65 60 66 61 67 6 68 7 69 8 70 9 71 10 72 27 73 24 74
REMARK SMILES IDX 26 75 28 76 25 77 11 78 12 79 13 80 14 82 15 83 19 84 16 85
REMARK SMILES IDX 18 86 17 87 20 88 21 89 22 90 23 91
REMARK H PARENT 82 23 52 34 13 81
REMARK Flexibility Score: inf
ROOT
ATOM      1  C   UNL     1       4.319  -2.221  -1.965  1.00  0.00     0.274 C 
ENDROOT
BRANCH   1   2
ATOM      2  C   UNL     1       4.841  -1.979  -0.490  1.00  0.00     0.275 C 
BRANCH   2   3
ATOM      3  O   UNL     1       3.893  -1.456   0.402  1.00  0.00    -0.458 OA
BRANCH   3   4
ATOM      4  C   UNL     1       4.235  -0.260   0.982  1.00  0.00     0.338 C 
ATOM      5  O   UNL     1       4.705  -0.270   2.111  1.00  0.00    -0.246 OA
BRANCH   4   6
ATOM      6  C   UNL     1       3.659   1.147   0.050  1.00  0.00     0.060 A 
ATOM      7  C   UNL     1       5.133   1.547  -0.686  1.00  0.00     0.016 A 
ATOM      8  C   UNL     1       2.257   2.514   0.391  1.00  0.00     0.016 A 
ATOM      9  C   UNL     1       5.345   2.951  -1.335  1.00  0.00     0.010 A 
ATOM     10  C   UNL     1       2.788   4.188  -0.218  1.00  0.00     0.010 A 
ATOM     11  C   UNL     1       4.264   4.232  -1.180  1.00  0.00    -0.014 A 
BRANCH  11  12
ATOM     12  C   UNL     1       4.810   5.380  -1.896  1.00  0.00     0.031 A 
ATOM     13  C   UNL     1       5.466   6.332  -0.984  1.00  0.00     0.074 A 
ATOM     14  C   UNL     1       4.962   5.389  -3.244  1.00  0.00     0.049 A 
ATOM     15  N   UNL     1       6.314   7.271  -1.254  1.00  0.00    -0.248 NA
ATOM     16  C   UNL     1       5.212   6.133   0.448  1.00  0.00     0.031 C 
ATOM     17  C   UNL     1       4.534   4.357  -4.208  1.00  0.00     0.029 A 
ATOM     18  N   UNL     1       5.533   6.333  -4.058  1.00  0.00    -0.354 N 
ATOM     19  C   UNL     1       6.700   7.736  -0.010  1.00  0.00     0.074 A 
ATOM     20  C   UNL     1       6.078   6.942   1.005  1.00  0.00     0.031 C 
ATOM     21  C   UNL     1       4.780   4.768  -5.465  1.00  0.00     0.029 A 
ATOM     22  C   UNL     1       5.374   6.090  -5.407  1.00  0.00     0.049 A 
ATOM     23  H   UNL     1       6.015   7.118  -3.710  1.00  0.00     0.167 HD
ATOM     24  C   UNL     1       7.421   8.830   0.263  1.00  0.00     0.031 A 
ATOM     25  C   UNL     1       5.646   6.885  -6.460  1.00  0.00     0.031 A 
ATOM     26  C   UNL     1       7.764   9.744  -0.771  1.00  0.00     0.049 A 
ATOM     27  C   UNL     1       6.275   8.208  -6.130  1.00  0.00     0.074 A 
ATOM     28  C   UNL     1       8.359  10.975  -0.660  1.00  0.00     0.029 A 
ATOM     29  N   UNL     1       7.451   9.539  -2.112  1.00  0.00    -0.354 N 
ATOM     30  N   UNL     1       6.612   8.669  -4.945  1.00  0.00    -0.248 NA
ATOM     31  C   UNL     1       6.573   9.111  -7.243  1.00  0.00     0.031 C 
ATOM     32  C   UNL     1       8.333  11.554  -1.929  1.00  0.00     0.029 A 
ATOM     33  C   UNL     1       7.828  10.636  -2.845  1.00  0.00     0.049 A 
ATOM     34  H   UNL     1       7.024   8.730  -2.478  1.00  0.00     0.167 HD
ATOM     35  C   UNL     1       7.207   9.897  -5.169  1.00  0.00     0.074 A 
ATOM     36  C   UNL     1       7.178  10.106  -6.608  1.00  0.00     0.031 C 
ATOM     37  C   UNL     1       7.747  10.767  -4.280  1.00  0.00     0.031 A 
BRANCH  24  38
ATOM     38  C   UNL     1       7.608   9.131   1.714  1.00  0.00    -0.014 A 
ATOM     39  C   UNL     1       8.337   8.257   2.546  1.00  0.00     0.010 A 
ATOM     40  C   UNL     1       6.907  10.207   2.280  1.00  0.00     0.010 A 
ATOM     41  C   UNL     1       8.351   8.454   3.924  1.00  0.00     0.020 A 
ATOM     42  C   UNL     1       6.968  10.439   3.651  1.00  0.00     0.020 A 
ATOM     43  C   UNL     1       7.691   9.561   4.463  1.00  0.00     0.054 A 
BRANCH  43  44
ATOM     44  S   UNL     1       7.854   9.873   6.236  1.00  0.00     0.124 S 
ATOM     45  O   UNL     1       7.133   8.744   6.816  1.00  0.00    -0.237 OA
ATOM     46  O   UNL     1       9.303   9.857   6.418  1.00  0.00    -0.237 OA
ATOM     47  O   UNL     1       7.220  11.177   6.418  1.00  0.00    -0.744 OA
ENDBRANCH  43  44
ENDBRANCH  24  38
BRANCH  25  48
ATOM     48  C   UNL     1       5.293   6.487  -7.856  1.00  0.00    -0.014 A 
ATOM     49  C   UNL     1       6.281   6.280  -8.835  1.00  0.00     0.010 A 
ATOM     50  C   UNL     1       3.943   6.296  -8.216  1.00  0.00     0.010 A 
ATOM     51  C   UNL     1       5.931   5.894 -10.136  1.00  0.00     0.020 A 
ATOM     52  C   UNL     1       3.590   5.879  -9.505  1.00  0.00     0.020 A 
ATOM     53  C   UNL     1       4.587   5.683 -10.460  1.00  0.00     0.054 A 
BRANCH  53  54
ATOM     54  S   UNL     1       4.168   5.102 -12.128  1.00  0.00     0.124 S 
ATOM     55  O   UNL     1       4.580   6.227 -12.960  1.00  0.00    -0.237 OA
ATOM     56  O   UNL     1       4.981   3.894 -12.248  1.00  0.00    -0.237 OA
ATOM     57  O   UNL     1       2.726   4.871 -12.061  1.00  0.00    -0.744 OA
ENDBRANCH  53  54
ENDBRANCH  25  48
BRANCH  37  58
ATOM     58  C   UNL     1       8.413  11.978  -4.845  1.00  0.00    -0.014 A 
ATOM     59  C   UNL     1       7.679  13.010  -5.446  1.00  0.00     0.010 A 
ATOM     60  C   UNL     1       9.799  12.117  -4.642  1.00  0.00     0.010 A 
ATOM     61  C   UNL     1       8.336  14.161  -5.869  1.00  0.00     0.020 A 
ATOM     62  C   UNL     1      10.443  13.291  -5.004  1.00  0.00     0.020 A 
ATOM     63  C   UNL     1       9.709  14.298  -5.629  1.00  0.00     0.054 A 
BRANCH  63  64
ATOM     64  S   UNL     1      10.515  15.842  -6.107  1.00  0.00     0.124 S 
ATOM     65  O   UNL     1      10.416  15.794  -7.563  1.00  0.00    -0.237 OA
ATOM     66  O   UNL     1       9.682  16.845  -5.449  1.00  0.00    -0.237 OA
ATOM     67  O   UNL     1      11.867  15.709  -5.569  1.00  0.00    -0.744 OA
ENDBRANCH  63  64
ENDBRANCH  37  58
ENDBRANCH  11  12
ENDBRANCH   4   6
ENDBRANCH   3   4
ENDBRANCH   2   3
ENDBRANCH   1   2
BRANCH   1  68
ATOM     68  O   UNL     1       2.813  -1.781  -2.546  1.00  0.00    -0.462 OA
BRANCH  68  69
ATOM     69  C   UNL     1       1.805  -0.731  -2.923  1.00  0.00     0.310 C 
ATOM     70  O   UNL     1       0.876  -1.152  -3.622  1.00  0.00    -0.252 OA
BRANCH  69  71
ATOM     71  C   UNL     1       1.840   1.129  -2.479  1.00  0.00     0.119 C 
ATOM     72  C   UNL     1       2.807   2.456  -1.340  1.00  0.00     0.100 C 
ATOM     73  C   UNL     1       0.306   1.508  -2.615  1.00  0.00     0.027 C 
ATOM     74  C   UNL     1       0.990   3.200  -1.367  1.00  0.00     0.025 C 
ATOM     75  C   UNL     1      -0.477   1.385  -1.349  1.00  0.00    -0.027 C 
ATOM     76  C   UNL     1       0.358   3.008  -2.729  1.00  0.00     0.017 C 
ATOM     77  C   UNL     1      -0.114   2.419  -0.596  1.00  0.00    -0.027 C 
BRANCH  72  78
ATOM     78  C   UNL     1       3.997   2.851   0.551  1.00  0.00     0.229 C 
ATOM     79  O   UNL     1       5.010   3.428   0.974  1.00  0.00    -0.274 OA
ATOM     80  N   UNL     1       3.344   1.888   1.955  1.00  0.00    -0.323 N 
ATOM     81  H   UNL     1       3.664   2.072   2.868  1.00  0.00     0.170 HD
BRANCH  80  82
ATOM     82  C   UNL     1       2.139   0.626   1.681  1.00  0.00     0.084 A 
ATOM     83  C   UNL     1       1.400   0.248   2.781  1.00  0.00     0.030 A 
ATOM     84  C   UNL     1       1.821  -0.092   0.213  1.00  0.00     0.149 A 
ATOM     85  C   UNL     1       0.414  -0.730   2.573  1.00  0.00     0.002 A 
ATOM     86  C   UNL     1       0.804  -1.024   0.129  1.00  0.00     0.049 A 
ATOM     87  C   UNL     1       0.120  -1.322   1.308  1.00  0.00     0.004 A 
BRANCH  84  88
ATOM     88  O   UNL     1       2.719  -0.197  -1.130  1.00  0.00    -0.433 OA
BRANCH  88  89
ATOM     89  C   UNL     1       3.992   0.285  -2.363  1.00  0.00     0.542 C 
ATOM     90  F   UNL     1       3.759  -0.201  -3.641  1.00  0.00    -0.167 F 
ATOM     91  F   UNL     1       4.119   1.575  -2.739  1.00  0.00    -0.167 F 
ENDBRANCH  88  89
ENDBRANCH  84  88
ENDBRANCH  80  82
ENDBRANCH  72  78
ENDBRANCH  69  71
ENDBRANCH  68  69
ENDBRANCH   1  68
TORSDOF 18
