REMARK SMILES Cn1cncc1COc1c(F)cc(C(=O)OCCOC(=O)c2ccc(-c3c4nc(c(-c5ccc(S(=O)(=O)[O-])cc5)c5ccc([nH]5)c(-c5ccc(S(=O)(=O)[O-])cc5)c5nc(c(-c6ccc(S(=O)(=O)[O-])cc6)c6ccc3[nH]6)C=C5)C=C4)cc2)cc1F
REMARK SMILES IDX 17 1 16 2 14 3 15 4 13 5 9 6 10 7 83 8 11 9 12 10 82 11
REMARK SMILES IDX 84 12 8 13 7 14 6 15 1 16 2 17 3 18 4 19 5 20 18 21 19 22
REMARK SMILES IDX 20 23 21 24 22 25 23 26 81 27 24 28 80 29 25 30 26 31 27 32
REMARK SMILES IDX 74 33 28 34 79 35 73 36 75 37 29 38 78 39 72 40 71 41 30 43
REMARK SMILES IDX 60 44 41 45 59 46 42 47 45 48 58 49 76 50 43 51 44 52 57 54
REMARK SMILES IDX 77 55 46 56 31 57 32 58 40 59 33 60 39 61 34 62 35 63 36 64
REMARK SMILES IDX 37 65 38 66 61 67 62 68 70 69 63 70 69 71 64 72 65 73 66 74
REMARK SMILES IDX 67 75 68 76 47 77 48 78 56 79 49 80 55 81 50 82 51 83 52 84
REMARK SMILES IDX 53 85 54 86
REMARK H PARENT 75 42 45 53
REMARK Flexibility Score: inf
ROOT
ATOM      1  C   UNL     1       1.122   0.408   8.019  1.00  0.00     0.275 C 
ENDROOT
BRANCH   1   2
ATOM      2  O   UNL     1       0.846   0.052   6.652  1.00  0.00    -0.458 OA
BRANCH   2   3
ATOM      3  C   UNL     1       1.618  -0.917   6.104  1.00  0.00     0.338 C 
ATOM      4  O   UNL     1       2.574  -1.464   6.619  1.00  0.00    -0.246 OA
BRANCH   3   5
ATOM      5  C   UNL     1       1.076  -1.314   4.778  1.00  0.00     0.066 A 
ATOM      6  C   UNL     1      -0.013  -2.198   2.355  1.00  0.00     0.191 A 
ATOM      7  C   UNL     1      -0.383  -0.967   2.893  1.00  0.00     0.169 A 
ATOM      8  C   UNL     1       0.897  -2.991   3.045  1.00  0.00     0.169 A 
ATOM      9  F   UNL     1      -1.268  -0.185   2.262  1.00  0.00    -0.203 F 
ATOM     10  C   UNL     1       0.162  -0.513   4.089  1.00  0.00     0.059 A 
ATOM     11  C   UNL     1       1.461  -2.550   4.237  1.00  0.00     0.059 A 
ATOM     12  F   UNL     1       1.245  -4.193   2.564  1.00  0.00    -0.203 F 
BRANCH   6  13
ATOM     13  O   UNL     1      -0.591  -2.644   1.197  1.00  0.00    -0.481 OA
BRANCH  13  14
ATOM     14  C   UNL     1       0.235  -2.380   0.054  1.00  0.00     0.285 C 
BRANCH  14  15
ATOM     15  C   UNL     1      -0.109  -1.024  -0.450  1.00  0.00     0.075 A 
ATOM     16  C   UNL     1       2.147   0.070  -0.157  1.00  0.00     0.151 C 
ATOM     17  N   UNL     1       0.748   0.049  -0.504  1.00  0.00    -0.335 N 
ATOM     18  C   UNL     1       0.034   1.129  -0.940  1.00  0.00     0.199 A 
ATOM     19  N   UNL     1      -1.210   0.811  -1.210  1.00  0.00    -0.245 NA
ATOM     20  C   UNL     1      -1.315  -0.518  -0.895  1.00  0.00     0.138 A 
ENDBRANCH  14  15
ENDBRANCH  13  14
ENDBRANCH   6  13
ENDBRANCH   3   5
ENDBRANCH   2   3
ENDBRANCH   1   2
BRANCH   1  21
ATOM     21  C   UNL     1       0.026  -0.123   8.945  1.00  0.00     0.275 C 
BRANCH  21  22
ATOM     22  O   UNL     1       0.114  -1.555   9.076  1.00  0.00    -0.458 OA
BRANCH  22  23
ATOM     23  C   UNL     1      -0.740  -2.262   8.300  1.00  0.00     0.338 C 
ATOM     24  O   UNL     1      -1.589  -1.823   7.543  1.00  0.00    -0.246 OA
BRANCH  23  25
ATOM     25  C   UNL     1      -0.403  -3.690   8.383  1.00  0.00     0.060 A 
ATOM     26  C   UNL     1       0.395  -4.220   7.373  1.00  0.00     0.016 A 
ATOM     27  C   UNL     1      -0.939  -4.520   9.365  1.00  0.00     0.016 A 
ATOM     28  C   UNL     1       0.631  -5.589   7.305  1.00  0.00     0.010 A 
ATOM     29  C   UNL     1      -0.658  -5.893   9.328  1.00  0.00     0.010 A 
ATOM     30  C   UNL     1       0.115  -6.444   8.287  1.00  0.00    -0.014 A 
BRANCH  30  31
ATOM     31  C   UNL     1       0.357  -7.910   8.190  1.00  0.00     0.031 A 
ATOM     32  C   UNL     1      -0.798  -8.857   7.997  1.00  0.00     0.074 A 
ATOM     33  C   UNL     1       1.615  -8.394   8.241  1.00  0.00     0.049 A 
ATOM     34  N   UNL     1      -0.805 -10.165   8.016  1.00  0.00    -0.248 NA
ATOM     35  C   UNL     1      -2.120  -8.253   7.761  1.00  0.00     0.031 C 
ATOM     36  C   UNL     1       2.830  -7.587   8.367  1.00  0.00     0.029 A 
ATOM     37  N   UNL     1       2.082  -9.685   8.179  1.00  0.00    -0.354 N 
ATOM     38  C   UNL     1      -2.133 -10.541   7.846  1.00  0.00     0.074 A 
ATOM     39  C   UNL     1      -2.904  -9.322   7.728  1.00  0.00     0.031 C 
ATOM     40  C   UNL     1       3.901  -8.395   8.338  1.00  0.00     0.029 A 
ATOM     41  C   UNL     1       3.451  -9.781   8.273  1.00  0.00     0.049 A 
ATOM     42  H   UNL     1       1.492 -10.467   8.078  1.00  0.00     0.167 HD
ATOM     43  C   UNL     1      -2.661 -11.788   7.797  1.00  0.00     0.031 A 
ATOM     44  C   UNL     1       4.255 -10.860   8.337  1.00  0.00     0.031 A 
ATOM     45  C   UNL     1      -1.886 -12.999   7.879  1.00  0.00     0.049 A 
ATOM     46  C   UNL     1       3.644 -12.233   8.318  1.00  0.00     0.074 A 
ATOM     47  C   UNL     1      -2.330 -14.309   7.834  1.00  0.00     0.029 A 
ATOM     48  N   UNL     1      -0.507 -13.049   8.009  1.00  0.00    -0.354 N 
ATOM     49  N   UNL     1       2.381 -12.568   8.208  1.00  0.00    -0.248 NA
ATOM     50  C   UNL     1       4.563 -13.372   8.446  1.00  0.00     0.031 C 
ATOM     51  C   UNL     1      -1.222 -15.152   7.978  1.00  0.00     0.029 A 
ATOM     52  C   UNL     1      -0.084 -14.367   8.060  1.00  0.00     0.049 A 
ATOM     53  H   UNL     1       0.085 -12.264   8.057  1.00  0.00     0.167 HD
ATOM     54  C   UNL     1       2.355 -13.957   8.241  1.00  0.00     0.074 A 
ATOM     55  C   UNL     1       3.729 -14.400   8.362  1.00  0.00     0.031 C 
ATOM     56  C   UNL     1       1.288 -14.791   8.180  1.00  0.00     0.031 A 
BRANCH  43  57
ATOM     57  C   UNL     1      -4.160 -11.908   7.696  1.00  0.00    -0.014 A 
ATOM     58  C   UNL     1      -4.845 -11.613   6.505  1.00  0.00     0.010 A 
ATOM     59  C   UNL     1      -4.890 -12.359   8.811  1.00  0.00     0.010 A 
ATOM     60  C   UNL     1      -6.237 -11.729   6.443  1.00  0.00     0.020 A 
ATOM     61  C   UNL     1      -6.279 -12.501   8.746  1.00  0.00     0.020 A 
ATOM     62  C   UNL     1      -6.946 -12.167   7.566  1.00  0.00     0.054 A 
BRANCH  62  63
ATOM     63  S   UNL     1      -8.750 -12.322   7.457  1.00  0.00     0.124 S 
ATOM     64  O   UNL     1      -9.176 -10.925   7.510  1.00  0.00    -0.237 OA
ATOM     65  O   UNL     1      -8.940 -12.987   6.171  1.00  0.00    -0.237 OA
ATOM     66  O   UNL     1      -9.101 -13.124   8.627  1.00  0.00    -0.744 OA
ENDBRANCH  62  63
ENDBRANCH  43  57
BRANCH  44  67
ATOM     67  C   UNL     1       5.727 -10.679   8.474  1.00  0.00    -0.014 A 
ATOM     68  C   UNL     1       6.593 -11.008   7.418  1.00  0.00     0.010 A 
ATOM     69  C   UNL     1       6.268 -10.149   9.661  1.00  0.00     0.010 A 
ATOM     70  C   UNL     1       7.973 -10.816   7.547  1.00  0.00     0.020 A 
ATOM     71  C   UNL     1       7.642  -9.928   9.783  1.00  0.00     0.020 A 
ATOM     72  C   UNL     1       8.487 -10.272   8.728  1.00  0.00     0.054 A 
BRANCH  72  73
ATOM     73  S   UNL     1      10.271  -9.963   8.850  1.00  0.00     0.124 S 
ATOM     74  O   UNL     1      10.797 -11.304   9.080  1.00  0.00    -0.237 OA
ATOM     75  O   UNL     1      10.582  -9.375   7.549  1.00  0.00    -0.237 OA
ATOM     76  O   UNL     1      10.381  -9.043   9.980  1.00  0.00    -0.744 OA
ENDBRANCH  72  73
ENDBRANCH  44  67
BRANCH  56  77
ATOM     77  C   UNL     1       1.563 -16.269   8.211  1.00  0.00    -0.014 A 
ATOM     78  C   UNL     1       1.924 -16.917   9.405  1.00  0.00     0.010 A 
ATOM     79  C   UNL     1       1.400 -17.029   7.038  1.00  0.00     0.010 A 
ATOM     80  C   UNL     1       2.141 -18.297   9.421  1.00  0.00     0.020 A 
ATOM     81  C   UNL     1       1.594 -18.413   7.056  1.00  0.00     0.020 A 
ATOM     82  C   UNL     1       1.975 -19.036   8.245  1.00  0.00     0.054 A 
BRANCH  82  83
ATOM     83  S   UNL     1       2.213 -20.834   8.301  1.00  0.00     0.124 S 
ATOM     84  O   UNL     1       3.667 -20.946   8.360  1.00  0.00    -0.237 OA
ATOM     85  O   UNL     1       1.503 -21.215   9.520  1.00  0.00    -0.237 OA
ATOM     86  O   UNL     1       1.601 -21.303   7.060  1.00  0.00    -0.744 OA
ENDBRANCH  82  83
ENDBRANCH  56  77
ENDBRANCH  30  31
ENDBRANCH  23  25
ENDBRANCH  22  23
ENDBRANCH  21  22
ENDBRANCH   1  21
TORSDOF 17
