REMARK SMILES O=C(OCCOC(=O)[C@@H]1[C@@H](C(=O)NCCn2cc(Cl)cn2)[C@H]2CC[C@@H]1O2)c1ccc(-c2c3nc(c(-c4ccc(S(=O)(=O)[O-])cc4)c4ccc([nH]4)c(-c4ccc(S(=O)(=O)[O-])cc4)c4nc(c(-c5ccc(S(=O)(=O)[O-])cc5)c5ccc2[nH]5)C=C4)C=C3)cc1
REMARK SMILES IDX 5 1 4 2 3 3 2 4 1 5 27 6 28 7 86 8 29 9 85 10 30 11 31 12
REMARK SMILES IDX 32 13 79 14 33 15 84 16 78 17 80 18 34 19 83 20 77 21 76 22
REMARK SMILES IDX 35 24 65 25 46 26 64 27 47 28 50 29 63 30 81 31 48 32 49 33
REMARK SMILES IDX 62 35 82 36 51 37 36 38 37 39 45 40 38 41 44 42 39 43 40 44
REMARK SMILES IDX 41 45 42 46 43 47 66 48 67 49 75 50 68 51 74 52 69 53 70 54
REMARK SMILES IDX 71 55 72 56 73 57 52 58 53 59 61 60 54 61 60 62 55 63 56 64
REMARK SMILES IDX 57 65 58 66 59 67 6 68 7 69 8 70 9 71 10 72 25 73 22 74
REMARK SMILES IDX 24 75 26 76 23 77 11 78 12 79 13 80 14 82 15 83 16 84 17 85
REMARK SMILES IDX 21 86 18 87 20 88 19 89
REMARK H PARENT 80 23 50 34 13 81
REMARK Flexibility Score: inf
ROOT
ATOM      1  C   UNL     1       4.519   1.594   0.199  1.00  0.00     0.274 C 
ENDROOT
BRANCH   1   2
ATOM      2  C   UNL     1       4.777   0.764  -1.061  1.00  0.00     0.275 C 
BRANCH   2   3
ATOM      3  O   UNL     1       3.642   0.184  -1.729  1.00  0.00    -0.458 OA
BRANCH   3   4
ATOM      4  C   UNL     1       2.532  -0.056  -1.002  1.00  0.00     0.338 C 
ATOM      5  O   UNL     1       1.659   0.772  -0.797  1.00  0.00    -0.246 OA
BRANCH   4   6
ATOM      6  C   UNL     1       2.454  -1.478  -0.590  1.00  0.00     0.060 A 
ATOM      7  C   UNL     1       3.591  -2.299  -0.505  1.00  0.00     0.016 A 
ATOM      8  C   UNL     1       1.203  -1.981  -0.234  1.00  0.00     0.016 A 
ATOM      9  C   UNL     1       3.478  -3.616  -0.076  1.00  0.00     0.010 A 
ATOM     10  C   UNL     1       1.091  -3.292   0.202  1.00  0.00     0.010 A 
ATOM     11  C   UNL     1       2.223  -4.118   0.251  1.00  0.00    -0.014 A 
BRANCH  11  12
ATOM     12  C   UNL     1       2.092  -5.523   0.630  1.00  0.00     0.031 A 
ATOM     13  C   UNL     1       2.607  -5.941   1.970  1.00  0.00     0.074 A 
ATOM     14  C   UNL     1       1.288  -6.336  -0.081  1.00  0.00     0.049 A 
ATOM     15  N   UNL     1       3.565  -6.759   2.281  1.00  0.00    -0.248 NA
ATOM     16  C   UNL     1       2.008  -5.275   3.133  1.00  0.00     0.031 C 
ATOM     17  C   UNL     1       0.426  -5.983  -1.215  1.00  0.00     0.029 A 
ATOM     18  N   UNL     1       0.938  -7.618   0.187  1.00  0.00    -0.354 N 
ATOM     19  C   UNL     1       3.570  -6.829   3.681  1.00  0.00     0.074 A 
ATOM     20  C   UNL     1       2.767  -5.723   4.131  1.00  0.00     0.031 C 
ATOM     21  C   UNL     1      -0.530  -6.926  -1.348  1.00  0.00     0.029 A 
ATOM     22  C   UNL     1      -0.244  -8.009  -0.424  1.00  0.00     0.049 A 
ATOM     23  H   UNL     1       1.472  -8.214   0.760  1.00  0.00     0.167 HD
ATOM     24  C   UNL     1       4.005  -7.917   4.388  1.00  0.00     0.031 A 
ATOM     25  C   UNL     1      -0.980  -9.102  -0.116  1.00  0.00     0.031 A 
ATOM     26  C   UNL     1       4.715  -8.852   3.559  1.00  0.00     0.049 A 
ATOM     27  C   UNL     1      -0.095 -10.034   0.628  1.00  0.00     0.074 A 
ATOM     28  C   UNL     1       5.859  -8.817   2.789  1.00  0.00     0.029 A 
ATOM     29  N   UNL     1       4.035  -9.979   3.159  1.00  0.00    -0.354 N 
ATOM     30  N   UNL     1       0.970 -10.580   0.106  1.00  0.00    -0.248 NA
ATOM     31  C   UNL     1      -0.130 -10.016   2.082  1.00  0.00     0.031 C 
ATOM     32  C   UNL     1       5.544  -9.604   1.641  1.00  0.00     0.029 A 
ATOM     33  C   UNL     1       4.254 -10.112   1.814  1.00  0.00     0.049 A 
ATOM     34  H   UNL     1       3.496 -10.575   3.729  1.00  0.00     0.167 HD
ATOM     35  C   UNL     1       1.908 -10.602   1.128  1.00  0.00     0.074 A 
ATOM     36  C   UNL     1       1.139 -10.345   2.346  1.00  0.00     0.031 C 
ATOM     37  C   UNL     1       3.249 -10.548   0.866  1.00  0.00     0.031 A 
BRANCH  24  38
ATOM     38  C   UNL     1       3.461  -8.338   5.746  1.00  0.00    -0.014 A 
ATOM     39  C   UNL     1       4.010  -9.476   6.381  1.00  0.00     0.010 A 
ATOM     40  C   UNL     1       2.262  -7.837   6.291  1.00  0.00     0.010 A 
ATOM     41  C   UNL     1       3.338 -10.129   7.427  1.00  0.00     0.020 A 
ATOM     42  C   UNL     1       1.611  -8.448   7.366  1.00  0.00     0.020 A 
ATOM     43  C   UNL     1       2.127  -9.622   7.894  1.00  0.00     0.054 A 
BRANCH  43  44
ATOM     44  S   UNL     1       1.175 -10.557   9.118  1.00  0.00     0.124 S 
ATOM     45  O   UNL     1       0.788 -11.738   8.352  1.00  0.00    -0.237 OA
ATOM     46  O   UNL     1       2.158 -10.779  10.174  1.00  0.00    -0.237 OA
ATOM     47  O   UNL     1       0.084  -9.650   9.467  1.00  0.00    -0.744 OA
ENDBRANCH  43  44
ENDBRANCH  24  38
BRANCH  25  48
ATOM     48  C   UNL     1      -2.458  -9.188  -0.123  1.00  0.00    -0.014 A 
ATOM     49  C   UNL     1      -3.119 -10.426  -0.148  1.00  0.00     0.010 A 
ATOM     50  C   UNL     1      -3.231  -8.033   0.134  1.00  0.00     0.010 A 
ATOM     51  C   UNL     1      -4.499 -10.509   0.111  1.00  0.00     0.020 A 
ATOM     52  C   UNL     1      -4.604  -8.107   0.385  1.00  0.00     0.020 A 
ATOM     53  C   UNL     1      -5.229  -9.350   0.391  1.00  0.00     0.054 A 
BRANCH  53  54
ATOM     54  S   UNL     1      -6.976  -9.487   0.873  1.00  0.00     0.124 S 
ATOM     55  O   UNL     1      -7.613  -9.882  -0.379  1.00  0.00    -0.237 OA
ATOM     56  O   UNL     1      -6.937 -10.510   1.914  1.00  0.00    -0.237 OA
ATOM     57  O   UNL     1      -7.311  -8.143   1.342  1.00  0.00    -0.744 OA
ENDBRANCH  53  54
ENDBRANCH  25  48
BRANCH  37  58
ATOM     58  C   UNL     1       3.711 -10.659  -0.572  1.00  0.00    -0.014 A 
ATOM     59  C   UNL     1       3.382  -9.702  -1.554  1.00  0.00     0.010 A 
ATOM     60  C   UNL     1       4.670 -11.636  -0.890  1.00  0.00     0.010 A 
ATOM     61  C   UNL     1       3.988  -9.726  -2.818  1.00  0.00     0.020 A 
ATOM     62  C   UNL     1       5.291 -11.656  -2.143  1.00  0.00     0.020 A 
ATOM     63  C   UNL     1       4.945 -10.702  -3.103  1.00  0.00     0.054 A 
BRANCH  63  64
ATOM     64  S   UNL     1       5.787 -10.675  -4.711  1.00  0.00     0.124 S 
ATOM     65  O   UNL     1       4.728 -11.080  -5.631  1.00  0.00    -0.237 OA
ATOM     66  O   UNL     1       6.223  -9.285  -4.827  1.00  0.00    -0.237 OA
ATOM     67  O   UNL     1       6.872 -11.642  -4.552  1.00  0.00    -0.744 OA
ENDBRANCH  63  64
ENDBRANCH  37  58
ENDBRANCH  11  12
ENDBRANCH   4   6
ENDBRANCH   3   4
ENDBRANCH   2   3
ENDBRANCH   1   2
BRANCH   1  68
ATOM     68  O   UNL     1       4.032   0.787   1.292  1.00  0.00    -0.462 OA
BRANCH  68  69
ATOM     69  C   UNL     1       3.114   1.401   2.095  1.00  0.00     0.312 C 
ATOM     70  O   UNL     1       2.753   2.565   1.954  1.00  0.00    -0.252 OA
BRANCH  69  71
ATOM     71  C   UNL     1       2.655   0.566   3.272  1.00  0.00     0.143 C 
ATOM     72  C   UNL     1       3.102  -0.902   3.304  1.00  0.00     0.124 C 
ATOM     73  C   UNL     1       1.125   0.436   3.230  1.00  0.00     0.133 C 
ATOM     74  C   UNL     1       1.756  -1.629   3.385  1.00  0.00     0.132 C 
ATOM     75  C   UNL     1       0.571   0.023   4.597  1.00  0.00     0.036 C 
ATOM     76  O   UNL     1       0.966  -0.798   2.497  1.00  0.00    -0.373 OA
ATOM     77  C   UNL     1       0.940  -1.458   4.660  1.00  0.00     0.035 C 
BRANCH  72  78
ATOM     78  C   UNL     1       4.024  -1.175   4.473  1.00  0.00     0.226 C 
ATOM     79  O   UNL     1       3.665  -1.016   5.640  1.00  0.00    -0.275 OA
ATOM     80  N   UNL     1       5.314  -1.542   4.266  1.00  0.00    -0.354 N 
ATOM     81  H   UNL     1       5.800  -1.774   5.090  1.00  0.00     0.163 HD
BRANCH  80  82
ATOM     82  C   UNL     1       6.117  -1.657   3.055  1.00  0.00     0.139 C 
BRANCH  82  83
ATOM     83  C   UNL     1       7.160  -0.541   2.947  1.00  0.00     0.165 C 
BRANCH  83  84
ATOM     84  N   UNL     1       8.167  -0.549   3.996  1.00  0.00    -0.269 N 
ATOM     85  C   UNL     1       8.757   0.545   4.566  1.00  0.00     0.129 A 
ATOM     86  N   UNL     1       8.652  -1.716   4.465  1.00  0.00    -0.180 NA
ATOM     87  C   UNL     1       9.659   0.054   5.478  1.00  0.00     0.079 A 
ATOM     88  C   UNL     1       9.548  -1.342   5.384  1.00  0.00     0.155 A 
ATOM     89  Cl  UNL     1      10.695   0.918   6.497  1.00  0.00    -0.081 Cl
ENDBRANCH  83  84
ENDBRANCH  82  83
ENDBRANCH  80  82
ENDBRANCH  72  78
ENDBRANCH  69  71
ENDBRANCH  68  69
ENDBRANCH   1  68
TORSDOF 18
