REMARK SMILES Cc1nc(-c2ccccc2)sc1C(=O)N[C@@H](CC1=c2ccccc2=NC1)C(=O)OCCOC(=O)c1ccc(-c2c3nc(c(-c4ccc(S(=O)(=O)[O-])cc4)c4ccc([nH]4)c(-c4ccc(S(=O)(=O)[O-])cc4)c4nc(c(-c5ccc(S(=O)(=O)[O-])cc5)c5ccc2[nH]5)C=C4)C=C3)cc1
REMARK SMILES IDX 30 1 29 2 27 3 28 4 16 5 15 6 13 7 14 8 12 10 1 11 2 12 3 13
REMARK SMILES IDX 4 14 11 15 5 16 6 17 10 18 7 19 9 20 8 21 17 22 18 23 19 24
REMARK SMILES IDX 26 25 20 26 24 27 25 28 21 29 23 30 22 31 31 32 32 33 33 34
REMARK SMILES IDX 34 35 35 36 36 37 94 38 37 39 93 40 38 41 39 42 40 43 87 44
REMARK SMILES IDX 41 45 92 46 86 47 88 48 42 49 91 50 85 51 84 52 43 54 73 55
REMARK SMILES IDX 54 56 72 57 55 58 58 59 71 60 89 61 56 62 57 63 70 65 90 66
REMARK SMILES IDX 59 67 44 68 45 69 53 70 46 71 52 72 47 73 48 74 49 75 50 76
REMARK SMILES IDX 51 77 74 78 75 79 83 80 76 81 82 82 77 83 78 84 79 85 80 86
REMARK SMILES IDX 81 87 60 88 61 89 69 90 62 91 68 92 63 93 64 94 65 95 66 96
REMARK SMILES IDX 67 97
REMARK H PARENT 15 9 88 53 58 64
REMARK Flexibility Score: inf
ROOT
ATOM      1  C   UNL     1      -4.684  -3.956   3.040  1.00  0.00     0.274 C 
ENDROOT
BRANCH   1   2
ATOM      2  O   UNL     1      -3.822  -3.609   1.939  1.00  0.00    -0.461 OA
BRANCH   2   3
ATOM      3  C   UNL     1      -4.328  -2.710   1.053  1.00  0.00     0.329 C 
ATOM      4  O   UNL     1      -5.475  -2.275   1.070  1.00  0.00    -0.250 OA
BRANCH   3   5
ATOM      5  C   UNL     1      -3.328  -2.323  -0.044  1.00  0.00     0.196 C 
BRANCH   5   6
ATOM      6  N   UNL     1      -1.949  -2.742   0.172  1.00  0.00    -0.338 N 
ATOM      7  C   UNL     1      -0.731  -2.170  -0.099  1.00  0.00     0.264 C 
ATOM      8  O   UNL     1       0.213  -2.962   0.011  1.00  0.00    -0.268 OA
ATOM      9  H   UNL     1      -1.875  -3.624   0.604  1.00  0.00     0.164 HD
BRANCH   7  10
ATOM     10  C   UNL     1      -0.529  -0.763  -0.435  1.00  0.00     0.115 A 
ATOM     11  C   UNL     1      -2.507   0.292  -1.825  1.00  0.00     0.068 C 
ATOM     12  C   UNL     1      -1.221   0.259  -1.085  1.00  0.00     0.062 A 
ATOM     13  N   UNL     1      -0.580   1.488  -1.090  1.00  0.00    -0.241 NA
ATOM     14  C   UNL     1       0.629   1.409  -0.595  1.00  0.00     0.124 A 
ATOM     15  S   UNL     1       1.038  -0.121   0.029  1.00  0.00    -0.108 S 
BRANCH  14  16
ATOM     16  C   UNL     1       1.552   2.541  -0.547  1.00  0.00     0.010 A 
ATOM     17  C   UNL     1       1.167   3.704   0.132  1.00  0.00     0.011 A 
ATOM     18  C   UNL     1       2.764   2.537  -1.250  1.00  0.00     0.011 A 
ATOM     19  C   UNL     1       1.987   4.832   0.138  1.00  0.00     0.001 A 
ATOM     20  C   UNL     1       3.576   3.675  -1.261  1.00  0.00     0.001 A 
ATOM     21  C   UNL     1       3.190   4.818  -0.561  1.00  0.00     0.000 A 
ENDBRANCH  14  16
ENDBRANCH   7  10
ENDBRANCH   5   6
BRANCH   5  22
ATOM     22  C   UNL     1      -3.843  -2.838  -1.405  1.00  0.00     0.070 C 
BRANCH  22  23
ATOM     23  C   UNL     1      -4.034  -4.323  -1.470  1.00  0.00    -0.037 C 
ATOM     24  C   UNL     1      -3.115  -5.261  -1.684  1.00  0.00     0.001 A 
ATOM     25  C   UNL     1      -5.385  -4.942  -1.271  1.00  0.00     0.174 C 
ATOM     26  C   UNL     1      -1.712  -5.270  -1.944  1.00  0.00     0.010 A 
ATOM     27  C   UNL     1      -3.879  -6.506  -1.510  1.00  0.00     0.065 A 
ATOM     28  N   UNL     1      -5.155  -6.407  -1.288  1.00  0.00    -0.280 NA
ATOM     29  C   UNL     1      -1.071  -6.449  -1.986  1.00  0.00     0.001 A 
ATOM     30  C   UNL     1      -3.104  -7.764  -1.569  1.00  0.00     0.028 A 
ATOM     31  C   UNL     1      -1.779  -7.702  -1.782  1.00  0.00     0.002 A 
ENDBRANCH  22  23
ENDBRANCH   5  22
ENDBRANCH   3   5
ENDBRANCH   2   3
ENDBRANCH   1   2
BRANCH   1  32
ATOM     32  C   UNL     1      -4.072  -3.507   4.366  1.00  0.00     0.275 C 
BRANCH  32  33
ATOM     33  O   UNL     1      -3.752  -2.104   4.345  1.00  0.00    -0.458 OA
BRANCH  33  34
ATOM     34  C   UNL     1      -2.464  -1.831   4.031  1.00  0.00     0.338 C 
ATOM     35  O   UNL     1      -1.577  -2.633   3.782  1.00  0.00    -0.246 OA
BRANCH  34  36
ATOM     36  C   UNL     1      -2.268  -0.380   3.930  1.00  0.00     0.060 A 
ATOM     37  C   UNL     1      -2.354   0.211   2.672  1.00  0.00     0.016 A 
ATOM     38  C   UNL     1      -1.854   0.363   5.034  1.00  0.00     0.016 A 
ATOM     39  C   UNL     1      -1.975   1.538   2.496  1.00  0.00     0.010 A 
ATOM     40  C   UNL     1      -1.520   1.713   4.865  1.00  0.00     0.010 A 
ATOM     41  C   UNL     1      -1.550   2.306   3.589  1.00  0.00    -0.014 A 
BRANCH  41  42
ATOM     42  C   UNL     1      -1.069   3.697   3.371  1.00  0.00     0.031 A 
ATOM     43  C   UNL     1       0.378   4.044   3.611  1.00  0.00     0.074 A 
ATOM     44  C   UNL     1      -1.898   4.635   2.870  1.00  0.00     0.049 A 
ATOM     45  N   UNL     1       0.966   5.212   3.547  1.00  0.00    -0.248 NA
ATOM     46  C   UNL     1       1.282   2.933   3.948  1.00  0.00     0.031 C 
ATOM     47  C   UNL     1      -3.301   4.422   2.512  1.00  0.00     0.029 A 
ATOM     48  N   UNL     1      -1.671   5.952   2.553  1.00  0.00    -0.354 N 
ATOM     49  C   UNL     1       2.304   4.979   3.844  1.00  0.00     0.074 A 
ATOM     50  C   UNL     1       2.434   3.565   4.123  1.00  0.00     0.031 C 
ATOM     51  C   UNL     1      -3.799   5.555   1.993  1.00  0.00     0.029 A 
ATOM     52  C   UNL     1      -2.777   6.596   2.049  1.00  0.00     0.049 A 
ATOM     53  H   UNL     1      -0.800   6.394   2.675  1.00  0.00     0.167 HD
ATOM     54  C   UNL     1       3.337   5.854   3.859  1.00  0.00     0.031 A 
ATOM     55  C   UNL     1      -2.966   7.885   1.706  1.00  0.00     0.031 A 
ATOM     56  C   UNL     1       3.228   7.253   3.542  1.00  0.00     0.049 A 
ATOM     57  C   UNL     1      -1.838   8.865   1.862  1.00  0.00     0.074 A 
ATOM     58  C   UNL     1       4.226   8.214   3.537  1.00  0.00     0.029 A 
ATOM     59  N   UNL     1       2.058   7.891   3.166  1.00  0.00    -0.354 N 
ATOM     60  N   UNL     1      -0.598   8.641   2.225  1.00  0.00    -0.248 NA
ATOM     61  C   UNL     1      -2.142  10.276   1.585  1.00  0.00     0.031 C 
ATOM     62  C   UNL     1       3.650   9.441   3.187  1.00  0.00     0.029 A 
ATOM     63  C   UNL     1       2.304   9.234   2.936  1.00  0.00     0.049 A 
ATOM     64  H   UNL     1       1.181   7.453   3.074  1.00  0.00     0.167 HD
ATOM     65  C   UNL     1       0.026   9.883   2.216  1.00  0.00     0.074 A 
ATOM     66  C   UNL     1      -0.965  10.851   1.792  1.00  0.00     0.031 C 
ATOM     67  C   UNL     1       1.307  10.193   2.535  1.00  0.00     0.031 A 
BRANCH  54  68
ATOM     68  C   UNL     1       4.686   5.320   4.251  1.00  0.00    -0.014 A 
ATOM     69  C   UNL     1       5.456   4.560   3.353  1.00  0.00     0.010 A 
ATOM     70  C   UNL     1       5.202   5.610   5.527  1.00  0.00     0.010 A 
ATOM     71  C   UNL     1       6.707   4.070   3.738  1.00  0.00     0.020 A 
ATOM     72  C   UNL     1       6.460   5.137   5.909  1.00  0.00     0.020 A 
ATOM     73  C   UNL     1       7.198   4.356   5.016  1.00  0.00     0.054 A 
BRANCH  73  74
ATOM     74  S   UNL     1       8.829   3.718   5.489  1.00  0.00     0.124 S 
ATOM     75  O   UNL     1       8.544   2.304   5.722  1.00  0.00    -0.237 OA
ATOM     76  O   UNL     1       9.643   4.009   4.312  1.00  0.00    -0.237 OA
ATOM     77  O   UNL     1       9.170   4.489   6.683  1.00  0.00    -0.744 OA
ENDBRANCH  73  74
ENDBRANCH  54  68
BRANCH  55  78
ATOM     78  C   UNL     1      -4.307   8.337   1.244  1.00  0.00    -0.014 A 
ATOM     79  C   UNL     1      -4.518   8.728  -0.089  1.00  0.00     0.010 A 
ATOM     80  C   UNL     1      -5.387   8.368   2.147  1.00  0.00     0.010 A 
ATOM     81  C   UNL     1      -5.786   9.143  -0.511  1.00  0.00     0.020 A 
ATOM     82  C   UNL     1      -6.659   8.757   1.723  1.00  0.00     0.020 A 
ATOM     83  C   UNL     1      -6.849   9.152   0.398  1.00  0.00     0.054 A 
BRANCH  83  84
ATOM     84  S   UNL     1      -8.503   9.627  -0.178  1.00  0.00     0.124 S 
ATOM     85  O   UNL     1      -8.415  11.083  -0.184  1.00  0.00    -0.237 OA
ATOM     86  O   UNL     1      -8.579   8.991  -1.492  1.00  0.00    -0.237 OA
ATOM     87  O   UNL     1      -9.389   9.054   0.832  1.00  0.00    -0.744 OA
ENDBRANCH  83  84
ENDBRANCH  55  78
BRANCH  67  88
ATOM     88  C   UNL     1       1.713  11.637   2.430  1.00  0.00    -0.014 A 
ATOM     89  C   UNL     1       1.319  12.567   3.408  1.00  0.00     0.010 A 
ATOM     90  C   UNL     1       2.529  12.061   1.366  1.00  0.00     0.010 A 
ATOM     91  C   UNL     1       1.715  13.904   3.310  1.00  0.00     0.020 A 
ATOM     92  C   UNL     1       2.943  13.392   1.276  1.00  0.00     0.020 A 
ATOM     93  C   UNL     1       2.522  14.309   2.242  1.00  0.00     0.054 A 
BRANCH  93  94
ATOM     94  S   UNL     1       3.059  16.040   2.156  1.00  0.00     0.124 S 
ATOM     95  O   UNL     1       1.861  16.704   1.649  1.00  0.00    -0.237 OA
ATOM     96  O   UNL     1       3.405  16.341   3.543  1.00  0.00    -0.237 OA
ATOM     97  O   UNL     1       4.191  16.004   1.233  1.00  0.00    -0.744 OA
ENDBRANCH  93  94
ENDBRANCH  67  88
ENDBRANCH  41  42
ENDBRANCH  34  36
ENDBRANCH  33  34
ENDBRANCH  32  33
ENDBRANCH   1  32
TORSDOF 19
