REMARK SMILES Cc1nn(-c2ccccc2)c(C)c1CNC(=O)[C@@H]1[C@@H](C(=O)OCCOC(=O)c2ccc(-c3c4nc(c(-c5ccc(S(=O)(=O)[O-])cc5)c5ccc([nH]5)c(-c5ccc(S(=O)(=O)[O-])cc5)c5nc(c(-c6ccc(S(=O)(=O)[O-])cc6)c6ccc3[nH]6)C=C5)C=C4)cc2)[C@@H]2C=C[C@H]1C2
REMARK SMILES IDX 23 1 22 2 20 3 21 4 19 5 18 6 91 7 88 8 90 9 92 10 89 11
REMARK SMILES IDX 16 12 15 13 17 15 14 16 13 17 1 18 2 19 3 20 4 21 11 22
REMARK SMILES IDX 12 23 5 24 6 25 10 26 7 27 9 28 8 29 24 30 25 31 26 32 27 33
REMARK SMILES IDX 28 34 29 35 87 36 30 37 86 38 31 39 32 40 33 41 80 42 34 43
REMARK SMILES IDX 85 44 79 45 81 46 35 47 84 48 78 49 77 50 36 52 66 53 47 54
REMARK SMILES IDX 65 55 48 56 51 57 64 58 82 59 49 60 50 61 63 63 83 64 52 65
REMARK SMILES IDX 37 66 38 67 46 68 39 69 45 70 40 71 41 72 42 73 43 74 44 75
REMARK SMILES IDX 67 76 68 77 76 78 69 79 75 80 70 81 71 82 72 83 73 84 74 85
REMARK SMILES IDX 53 86 54 87 62 88 55 89 61 90 56 91 57 92 58 93 59 94 60 95
REMARK H PARENT 15 14 81 51 51 62
REMARK Flexibility Score: inf
ROOT
ATOM      1  C   UNL     1       4.887   8.715  -1.669  1.00  0.00     0.274 C 
ENDROOT
BRANCH   1   2
ATOM      2  O   UNL     1       4.346   7.545  -1.020  1.00  0.00    -0.462 OA
BRANCH   2   3
ATOM      3  C   UNL     1       3.986   6.502  -1.816  1.00  0.00     0.310 C 
ATOM      4  O   UNL     1       4.109   6.488  -3.033  1.00  0.00    -0.252 OA
BRANCH   3   5
ATOM      5  C   UNL     1       3.427   5.317  -1.042  1.00  0.00     0.119 C 
ATOM      6  C   UNL     1       2.313   5.711  -0.044  1.00  0.00     0.100 C 
ATOM      7  C   UNL     1       2.760   5.028   1.282  1.00  0.00     0.025 C 
ATOM      8  C   UNL     1       4.465   4.651  -0.109  1.00  0.00     0.027 C 
ATOM      9  C   UNL     1       2.951   3.536   1.179  1.00  0.00    -0.027 C 
ATOM     10  C   UNL     1       4.255   5.375   1.229  1.00  0.00     0.017 C 
ATOM     11  C   UNL     1       3.936   3.303   0.302  1.00  0.00    -0.027 C 
BRANCH   6  12
ATOM     12  C   UNL     1       0.911   5.633  -0.637  1.00  0.00     0.224 C 
ATOM     13  N   UNL     1       0.154   4.531  -0.799  1.00  0.00    -0.352 N 
ATOM     14  H   UNL     1      -0.743   4.723  -1.155  1.00  0.00     0.163 HD
ATOM     15  O   UNL     1       0.391   6.686  -1.040  1.00  0.00    -0.275 OA
BRANCH  13  16
ATOM     16  C   UNL     1       0.384   3.131  -0.560  1.00  0.00     0.155 C 
BRANCH  16  17
ATOM     17  C   UNL     1      -0.069   2.688   0.797  1.00  0.00     0.016 A 
ATOM     18  C   UNL     1       0.553   0.156   0.522  1.00  0.00     0.069 C 
ATOM     19  C   UNL     1       0.031   1.340   1.258  1.00  0.00     0.065 A 
ATOM     20  N   UNL     1      -0.320   1.215   2.537  1.00  0.00    -0.173 NA
ATOM     21  N   UNL     1      -0.733   2.443   2.916  1.00  0.00    -0.237 N 
ATOM     22  C   UNL     1      -0.530   3.388   1.913  1.00  0.00     0.046 A 
ATOM     23  C   UNL     1      -0.666   4.848   2.178  1.00  0.00     0.067 C 
BRANCH  21  24
ATOM     24  C   UNL     1      -1.219   2.655   4.236  1.00  0.00     0.065 A 
ATOM     25  C   UNL     1      -0.677   1.915   5.293  1.00  0.00     0.028 A 
ATOM     26  C   UNL     1      -2.195   3.626   4.496  1.00  0.00     0.028 A 
ATOM     27  C   UNL     1      -1.048   2.213   6.607  1.00  0.00     0.002 A 
ATOM     28  C   UNL     1      -2.571   3.910   5.808  1.00  0.00     0.002 A 
ATOM     29  C   UNL     1      -1.984   3.217   6.863  1.00  0.00     0.000 A 
ENDBRANCH  21  24
ENDBRANCH  16  17
ENDBRANCH  13  16
ENDBRANCH   6  12
ENDBRANCH   3   5
ENDBRANCH   2   3
ENDBRANCH   1   2
BRANCH   1  30
ATOM     30  C   UNL     1       6.417   8.736  -1.680  1.00  0.00     0.275 C 
BRANCH  30  31
ATOM     31  O   UNL     1       6.956   7.669  -2.473  1.00  0.00    -0.458 OA
BRANCH  31  32
ATOM     32  C   UNL     1       7.164   6.554  -1.748  1.00  0.00     0.338 C 
ATOM     33  O   UNL     1       6.959   6.416  -0.547  1.00  0.00    -0.246 OA
BRANCH  32  34
ATOM     34  C   UNL     1       7.741   5.474  -2.543  1.00  0.00     0.060 A 
ATOM     35  C   UNL     1       7.099   4.233  -2.522  1.00  0.00     0.016 A 
ATOM     36  C   UNL     1       9.085   5.598  -2.889  1.00  0.00     0.016 A 
ATOM     37  C   UNL     1       7.862   3.085  -2.604  1.00  0.00     0.010 A 
ATOM     38  C   UNL     1       9.838   4.445  -3.029  1.00  0.00     0.010 A 
ATOM     39  C   UNL     1       9.244   3.203  -2.769  1.00  0.00    -0.014 A 
BRANCH  39  40
ATOM     40  C   UNL     1      10.043   1.989  -2.624  1.00  0.00     0.031 A 
ATOM     41  C   UNL     1       9.842   0.941  -3.655  1.00  0.00     0.074 A 
ATOM     42  C   UNL     1      11.009   1.868  -1.693  1.00  0.00     0.049 A 
ATOM     43  N   UNL     1       9.571  -0.314  -3.494  1.00  0.00    -0.248 NA
ATOM     44  C   UNL     1       9.901   1.377  -5.058  1.00  0.00     0.031 C 
ATOM     45  C   UNL     1      11.517   2.918  -0.803  1.00  0.00     0.029 A 
ATOM     46  N   UNL     1      11.856   0.822  -1.461  1.00  0.00    -0.354 N 
ATOM     47  C   UNL     1       9.597  -0.869  -4.769  1.00  0.00     0.074 A 
ATOM     48  C   UNL     1       9.681   0.231  -5.699  1.00  0.00     0.031 C 
ATOM     49  C   UNL     1      12.733   2.551  -0.348  1.00  0.00     0.029 A 
ATOM     50  C   UNL     1      13.022   1.203  -0.812  1.00  0.00     0.049 A 
ATOM     51  H   UNL     1      11.659  -0.105  -1.726  1.00  0.00     0.167 HD
ATOM     52  C   UNL     1       9.750  -2.201  -5.000  1.00  0.00     0.031 A 
ATOM     53  C   UNL     1      14.186   0.514  -0.762  1.00  0.00     0.031 A 
ATOM     54  C   UNL     1       9.499  -3.012  -3.843  1.00  0.00     0.049 A 
ATOM     55  C   UNL     1      13.904  -0.903  -1.087  1.00  0.00     0.074 A 
ATOM     56  C   UNL     1       8.414  -3.238  -3.022  1.00  0.00     0.029 A 
ATOM     57  N   UNL     1      10.584  -3.551  -3.196  1.00  0.00    -0.354 N 
ATOM     58  N   UNL     1      13.226  -1.709  -0.320  1.00  0.00    -0.248 NA
ATOM     59  C   UNL     1      14.100  -1.367  -2.453  1.00  0.00     0.031 C 
ATOM     60  C   UNL     1       8.961  -3.521  -1.738  1.00  0.00     0.029 A 
ATOM     61  C   UNL     1      10.351  -3.447  -1.848  1.00  0.00     0.049 A 
ATOM     62  H   UNL     1      11.382  -3.941  -3.621  1.00  0.00     0.167 HD
ATOM     63  C   UNL     1      12.575  -2.570  -1.189  1.00  0.00     0.074 A 
ATOM     64  C   UNL     1      13.260  -2.405  -2.465  1.00  0.00     0.031 C 
ATOM     65  C   UNL     1      11.367  -3.120  -0.867  1.00  0.00     0.031 A 
BRANCH  52  66
ATOM     66  C   UNL     1      10.469  -2.730  -6.212  1.00  0.00    -0.014 A 
ATOM     67  C   UNL     1      10.384  -4.097  -6.535  1.00  0.00     0.010 A 
ATOM     68  C   UNL     1      11.441  -1.964  -6.892  1.00  0.00     0.010 A 
ATOM     69  C   UNL     1      11.258  -4.675  -7.467  1.00  0.00     0.020 A 
ATOM     70  C   UNL     1      12.283  -2.518  -7.855  1.00  0.00     0.020 A 
ATOM     71  C   UNL     1      12.211  -3.881  -8.109  1.00  0.00     0.054 A 
BRANCH  71  72
ATOM     72  S   UNL     1      13.411  -4.649  -9.225  1.00  0.00     0.124 S 
ATOM     73  O   UNL     1      14.300  -5.323  -8.284  1.00  0.00    -0.237 OA
ATOM     74  O   UNL     1      12.572  -5.521 -10.041  1.00  0.00    -0.237 OA
ATOM     75  O   UNL     1      13.992  -3.511  -9.934  1.00  0.00    -0.744 OA
ENDBRANCH  71  72
ENDBRANCH  52  66
BRANCH  53  76
ATOM     76  C   UNL     1      15.557   1.081  -0.755  1.00  0.00    -0.014 A 
ATOM     77  C   UNL     1      16.671   0.277  -0.458  1.00  0.00     0.010 A 
ATOM     78  C   UNL     1      15.800   2.367  -1.284  1.00  0.00     0.010 A 
ATOM     79  C   UNL     1      17.975   0.724  -0.727  1.00  0.00     0.020 A 
ATOM     80  C   UNL     1      17.096   2.827  -1.536  1.00  0.00     0.020 A 
ATOM     81  C   UNL     1      18.177   1.992  -1.278  1.00  0.00     0.054 A 
BRANCH  81  82
ATOM     82  S   UNL     1      19.848   2.499  -1.775  1.00  0.00     0.124 S 
ATOM     83  O   UNL     1      20.501   2.717  -0.488  1.00  0.00    -0.237 OA
ATOM     84  O   UNL     1      20.317   1.343  -2.535  1.00  0.00    -0.237 OA
ATOM     85  O   UNL     1      19.620   3.706  -2.568  1.00  0.00    -0.744 OA
ENDBRANCH  81  82
ENDBRANCH  53  76
BRANCH  65  86
ATOM     86  C   UNL     1      10.924  -3.079   0.578  1.00  0.00    -0.014 A 
ATOM     87  C   UNL     1      10.738  -1.876   1.287  1.00  0.00     0.010 A 
ATOM     88  C   UNL     1      10.542  -4.284   1.194  1.00  0.00     0.010 A 
ATOM     89  C   UNL     1      10.215  -1.880   2.586  1.00  0.00     0.020 A 
ATOM     90  C   UNL     1      10.001  -4.294   2.484  1.00  0.00     0.020 A 
ATOM     91  C   UNL     1       9.848  -3.091   3.178  1.00  0.00     0.054 A 
BRANCH  91  92
ATOM     92  S   UNL     1       9.103  -3.078   4.832  1.00  0.00     0.124 S 
ATOM     93  O   UNL     1      10.246  -2.786   5.692  1.00  0.00    -0.237 OA
ATOM     94  O   UNL     1       8.104  -2.017   4.733  1.00  0.00    -0.237 OA
ATOM     95  O   UNL     1       8.549  -4.424   4.974  1.00  0.00    -0.744 OA
ENDBRANCH  91  92
ENDBRANCH  65  86
ENDBRANCH  39  40
ENDBRANCH  32  34
ENDBRANCH  31  32
ENDBRANCH  30  31
ENDBRANCH   1  30
TORSDOF 18
