REMARK SMILES O=C(OCCOC(=O)[C@@H](Cc1ccc(O)cc1)Nc1c2ccccc2nc2ccccc12)c1ccc(-c2c3nc(c(-c4ccc(S(=O)(=O)[O-])cc4)c4ccc([nH]4)c(-c4ccc(S(=O)(=O)[O-])cc4)c4nc(c(-c5ccc(S(=O)(=O)[O-])cc5)c5ccc2[nH]5)C=C4)C=C3)cc1
REMARK SMILES IDX 4 1 3 2 2 3 1 4 33 5 34 6 92 7 35 8 91 9 36 10 37 11 38 12
REMARK SMILES IDX 85 13 39 14 90 15 84 16 86 17 40 18 89 19 83 20 82 21 41 23
REMARK SMILES IDX 71 24 52 25 70 26 53 27 56 28 69 29 87 30 54 31 55 32 68 34
REMARK SMILES IDX 88 35 57 36 42 37 43 38 51 39 44 40 50 41 45 42 46 43 47 44
REMARK SMILES IDX 48 45 49 46 72 47 73 48 81 49 74 50 80 51 75 52 76 53 77 54
REMARK SMILES IDX 78 55 79 56 58 57 59 58 67 59 60 60 66 61 61 62 62 63 63 64
REMARK SMILES IDX 64 65 65 66 5 67 6 68 7 69 8 70 9 71 10 72 11 73 12 74 17 75
REMARK SMILES IDX 13 76 16 77 14 78 15 79 18 81 19 83 20 84 32 85 21 86 25 87
REMARK SMILES IDX 27 88 31 89 22 90 24 91 26 92 28 93 30 94 23 95 29 96
REMARK H PARENT 86 22 56 33 15 80 18 82
REMARK Flexibility Score: inf
ROOT
ATOM      1  C   UNL     1       4.330  -1.901   0.868  1.00  0.00     0.275 C 
ENDROOT
BRANCH   1   2
ATOM      2  O   UNL     1       3.408  -0.988   1.444  1.00  0.00    -0.458 OA
BRANCH   2   3
ATOM      3  C   UNL     1       3.058   0.176   0.881  1.00  0.00     0.338 C 
ATOM      4  O   UNL     1       2.145   0.835   1.373  1.00  0.00    -0.246 OA
BRANCH   3   5
ATOM      5  C   UNL     1       3.679   0.711  -0.364  1.00  0.00     0.060 A 
ATOM      6  C   UNL     1       4.410  -0.162  -1.823  1.00  0.00     0.016 A 
ATOM      7  C   UNL     1       3.200   2.445  -0.538  1.00  0.00     0.016 A 
ATOM      8  C   UNL     1       4.728   0.775  -3.381  1.00  0.00     0.010 A 
ATOM      9  C   UNL     1       3.357   3.273  -2.136  1.00  0.00     0.010 A 
ATOM     10  C   UNL     1       4.239   2.523  -3.519  1.00  0.00    -0.014 A 
BRANCH  10  11
ATOM     11  C   UNL     1       4.634   3.358  -4.707  1.00  0.00     0.031 A 
ATOM     12  C   UNL     1       5.245   4.746  -4.559  1.00  0.00     0.074 A 
ATOM     13  C   UNL     1       4.555   2.820  -5.939  1.00  0.00     0.049 A 
ATOM     14  N   UNL     1       6.112   5.353  -5.337  1.00  0.00    -0.248 NA
ATOM     15  C   UNL     1       4.895   5.555  -3.387  1.00  0.00     0.031 C 
ATOM     16  C   UNL     1       3.929   1.542  -6.259  1.00  0.00     0.029 A 
ATOM     17  N   UNL     1       5.010   3.271  -7.153  1.00  0.00    -0.354 N 
ATOM     18  C   UNL     1       6.496   6.510  -4.654  1.00  0.00     0.074 A 
ATOM     19  C   UNL     1       5.775   6.538  -3.416  1.00  0.00     0.031 C 
ATOM     20  C   UNL     1       4.106   1.264  -7.557  1.00  0.00     0.029 A 
ATOM     21  C   UNL     1       4.786   2.389  -8.186  1.00  0.00     0.049 A 
ATOM     22  H   UNL     1       5.455   4.141  -7.273  1.00  0.00     0.167 HD
ATOM     23  C   UNL     1       7.286   7.539  -5.040  1.00  0.00     0.031 A 
ATOM     24  C   UNL     1       5.067   2.486  -9.500  1.00  0.00     0.031 A 
ATOM     25  C   UNL     1       7.648   7.740  -6.409  1.00  0.00     0.049 A 
ATOM     26  C   UNL     1       5.775   3.724  -9.973  1.00  0.00     0.074 A 
ATOM     27  C   UNL     1       8.250   8.836  -6.991  1.00  0.00     0.029 A 
ATOM     28  N   UNL     1       7.304   6.865  -7.430  1.00  0.00    -0.354 N 
ATOM     29  N   UNL     1       6.244   4.721  -9.257  1.00  0.00    -0.248 NA
ATOM     30  C   UNL     1       5.979   3.867 -11.418  1.00  0.00     0.031 C 
ATOM     31  C   UNL     1       8.163   8.674  -8.377  1.00  0.00     0.029 A 
ATOM     32  C   UNL     1       7.609   7.429  -8.650  1.00  0.00     0.049 A 
ATOM     33  H   UNL     1       6.902   5.975  -7.303  1.00  0.00     0.167 HD
ATOM     34  C   UNL     1       6.795   5.616 -10.164  1.00  0.00     0.074 A 
ATOM     35  C   UNL     1       6.619   5.029 -11.480  1.00  0.00     0.031 C 
ATOM     36  C   UNL     1       7.392   6.812  -9.935  1.00  0.00     0.031 A 
BRANCH  23  37
ATOM     37  C   UNL     1       7.582   8.596  -4.000  1.00  0.00    -0.014 A 
ATOM     38  C   UNL     1       8.454   8.328  -2.926  1.00  0.00     0.010 A 
ATOM     39  C   UNL     1       6.902   9.828  -4.029  1.00  0.00     0.010 A 
ATOM     40  C   UNL     1       8.601   9.249  -1.881  1.00  0.00     0.020 A 
ATOM     41  C   UNL     1       7.056  10.756  -2.993  1.00  0.00     0.020 A 
ATOM     42  C   UNL     1       7.888  10.451  -1.913  1.00  0.00     0.054 A 
BRANCH  42  43
ATOM     43  S   UNL     1       8.041  11.598  -0.514  1.00  0.00     0.124 S 
ATOM     44  O   UNL     1       7.341  10.877   0.547  1.00  0.00    -0.237 OA
ATOM     45  O   UNL     1       9.487  11.711  -0.347  1.00  0.00    -0.237 OA
ATOM     46  O   UNL     1       7.373  12.810  -0.983  1.00  0.00    -0.744 OA
ENDBRANCH  42  43
ENDBRANCH  23  37
BRANCH  24  47
ATOM     47  C   UNL     1       4.610   1.405 -10.423  1.00  0.00    -0.014 A 
ATOM     48  C   UNL     1       5.517   0.555 -11.077  1.00  0.00     0.010 A 
ATOM     49  C   UNL     1       3.228   1.152 -10.562  1.00  0.00     0.010 A 
ATOM     50  C   UNL     1       5.053  -0.537 -11.825  1.00  0.00     0.020 A 
ATOM     51  C   UNL     1       2.763   0.043 -11.275  1.00  0.00     0.020 A 
ATOM     52  C   UNL     1       3.680  -0.796 -11.904  1.00  0.00     0.054 A 
BRANCH  52  53
ATOM     53  S   UNL     1       3.111  -2.280 -12.782  1.00  0.00     0.124 S 
ATOM     54  O   UNL     1       3.377  -1.932 -14.174  1.00  0.00    -0.237 OA
ATOM     55  O   UNL     1       3.961  -3.327 -12.219  1.00  0.00    -0.237 OA
ATOM     56  O   UNL     1       1.698  -2.378 -12.422  1.00  0.00    -0.744 OA
ENDBRANCH  52  53
ENDBRANCH  24  47
BRANCH  36  57
ATOM     57  C   UNL     1       7.911   7.568 -11.122  1.00  0.00    -0.014 A 
ATOM     58  C   UNL     1       7.042   8.258 -11.982  1.00  0.00     0.010 A 
ATOM     59  C   UNL     1       9.302   7.706 -11.275  1.00  0.00     0.010 A 
ATOM     60  C   UNL     1       7.562   9.079 -12.984  1.00  0.00     0.020 A 
ATOM     61  C   UNL     1       9.823   8.546 -12.256  1.00  0.00     0.020 A 
ATOM     62  C   UNL     1       8.949   9.225 -13.107  1.00  0.00     0.054 A 
BRANCH  62  63
ATOM     63  S   UNL     1       9.597  10.376 -14.347  1.00  0.00     0.124 S 
ATOM     64  O   UNL     1       9.361   9.646 -15.589  1.00  0.00    -0.237 OA
ATOM     65  O   UNL     1       8.770  11.562 -14.145  1.00  0.00    -0.237 OA
ATOM     66  O   UNL     1      11.002  10.532 -13.973  1.00  0.00    -0.744 OA
ENDBRANCH  62  63
ENDBRANCH  36  57
ENDBRANCH  10  11
ENDBRANCH   3   5
ENDBRANCH   2   3
ENDBRANCH   1   2
BRANCH   1  67
ATOM     67  C   UNL     1       3.607  -2.897  -0.057  1.00  0.00     0.274 C 
BRANCH  67  68
ATOM     68  O   UNL     1       3.145  -2.321  -1.309  1.00  0.00    -0.461 OA
BRANCH  68  69
ATOM     69  C   UNL     1       2.045  -1.502  -1.320  1.00  0.00     0.329 C 
ATOM     70  O   UNL     1       1.153  -1.582  -0.486  1.00  0.00    -0.250 OA
BRANCH  69  71
ATOM     71  C   UNL     1       2.120  -0.381  -2.455  1.00  0.00     0.194 C 
BRANCH  71  72
ATOM     72  C   UNL     1       3.062   1.216  -2.247  1.00  0.00     0.072 C 
BRANCH  72  73
ATOM     73  C   UNL     1       5.023   1.844  -1.580  1.00  0.00    -0.045 A 
ATOM     74  C   UNL     1       6.300   0.976  -1.366  1.00  0.00     0.007 A 
ATOM     75  C   UNL     1       5.622   3.192  -1.395  1.00  0.00     0.007 A 
ATOM     76  C   UNL     1       7.648   1.307  -1.606  1.00  0.00     0.046 A 
ATOM     77  C   UNL     1       6.999   3.550  -1.605  1.00  0.00     0.046 A 
ATOM     78  C   UNL     1       7.963   2.604  -1.853  1.00  0.00     0.115 A 
BRANCH  78  79
ATOM     79  O   UNL     1       9.211   2.958  -2.244  1.00  0.00    -0.508 OA
ATOM     80  H   UNL     1       9.855   2.298  -2.408  1.00  0.00     0.293 HD
ENDBRANCH  78  79
ENDBRANCH  72  73
ENDBRANCH  71  72
BRANCH  71  81
ATOM     81  N   UNL     1       2.433  -0.980  -3.772  1.00  0.00    -0.371 N 
ATOM     82  H   UNL     1       3.365  -1.284  -3.864  1.00  0.00     0.161 HD
BRANCH  81  83
ATOM     83  C   UNL     1       1.649  -1.192  -4.909  1.00  0.00     0.054 A 
ATOM     84  C   UNL     1       0.598  -0.325  -5.365  1.00  0.00     0.024 A 
ATOM     85  C   UNL     1       1.962  -2.358  -5.693  1.00  0.00     0.024 A 
ATOM     86  C   UNL     1       0.206   0.923  -4.803  1.00  0.00     0.012 A 
ATOM     87  C   UNL     1      -0.073  -0.703  -6.551  1.00  0.00     0.073 A 
ATOM     88  C   UNL     1       1.219  -2.583  -6.867  1.00  0.00     0.073 A 
ATOM     89  C   UNL     1       2.984  -3.298  -5.379  1.00  0.00     0.012 A 
ATOM     90  C   UNL     1      -0.797   1.724  -5.360  1.00  0.00     0.001 A 
ATOM     91  C   UNL     1      -1.071   0.099  -7.087  1.00  0.00     0.029 A 
ATOM     92  N   UNL     1       0.215  -1.798  -7.251  1.00  0.00    -0.248 NA
ATOM     93  C   UNL     1       1.534  -3.659  -7.687  1.00  0.00     0.029 A 
ATOM     94  C   UNL     1       3.288  -4.371  -6.217  1.00  0.00     0.001 A 
ATOM     95  C   UNL     1      -1.444   1.307  -6.508  1.00  0.00     0.002 A 
ATOM     96  C   UNL     1       2.564  -4.546  -7.383  1.00  0.00     0.002 A 
ENDBRANCH  81  83
ENDBRANCH  71  81
ENDBRANCH  69  71
ENDBRANCH  68  69
ENDBRANCH  67  68
ENDBRANCH   1  67
TORSDOF 19
