REMARK SMILES O=C(OCCOC(=O)c1cnccc1C(=O)N1CCC(Cc2ccccc2)CC1)c1ccc(-c2c3nc(c(-c4ccc(S(=O)(=O)[O-])cc4)c4ccc([nH]4)c(-c4ccc(S(=O)(=O)[O-])cc4)c4nc(c(-c5ccc(S(=O)(=O)[O-])cc5)c5ccc2[nH]5)C=C4)C=C3)cc1
REMARK SMILES IDX 4 1 3 2 2 3 1 4 30 5 31 6 89 7 32 8 88 9 33 10 34 11 35 12
REMARK SMILES IDX 82 13 36 14 87 15 81 16 83 17 37 18 86 19 80 20 79 21 38 23
REMARK SMILES IDX 68 24 49 25 67 26 50 27 53 28 66 29 84 30 51 31 52 32 65 34
REMARK SMILES IDX 85 35 54 36 39 37 40 38 48 39 41 40 47 41 42 42 43 43 44 44
REMARK SMILES IDX 45 45 46 46 69 47 70 48 78 49 71 50 77 51 72 52 73 53 74 54
REMARK SMILES IDX 75 55 76 56 55 57 56 58 64 59 57 60 63 61 58 62 59 63 60 64
REMARK SMILES IDX 61 65 62 66 5 67 6 68 7 69 8 70 9 71 10 72 14 73 11 74 13 75
REMARK SMILES IDX 12 76 15 77 16 78 17 79 18 80 29 81 19 82 28 83 20 84 21 85
REMARK SMILES IDX 22 86 23 87 27 88 24 89 26 90 25 91
REMARK H PARENT 83 22 53 33
REMARK Flexibility Score: inf
ROOT
ATOM      1  C   UNL     1       4.027   1.222  -0.990  1.00  0.00     0.275 C 
ENDROOT
BRANCH   1   2
ATOM      2  O   UNL     1       3.029   0.379  -1.592  1.00  0.00    -0.458 OA
BRANCH   2   3
ATOM      3  C   UNL     1       2.653  -0.885  -1.287  1.00  0.00     0.338 C 
ATOM      4  O   UNL     1       1.550  -1.264  -1.680  1.00  0.00    -0.246 OA
BRANCH   3   5
ATOM      5  C   UNL     1       3.477  -1.851  -0.481  1.00  0.00     0.060 A 
ATOM      6  C   UNL     1       4.813  -1.681  -0.108  1.00  0.00     0.016 A 
ATOM      7  C   UNL     1       2.828  -3.027  -0.054  1.00  0.00     0.016 A 
ATOM      8  C   UNL     1       5.457  -2.602   0.721  1.00  0.00     0.010 A 
ATOM      9  C   UNL     1       3.474  -3.966   0.760  1.00  0.00     0.010 A 
ATOM     10  C   UNL     1       4.797  -3.753   1.150  1.00  0.00    -0.014 A 
BRANCH  10  11
ATOM     11  C   UNL     1       5.575  -4.792   1.857  1.00  0.00     0.031 A 
ATOM     12  C   UNL     1       6.214  -5.864   1.036  1.00  0.00     0.074 A 
ATOM     13  C   UNL     1       5.805  -4.708   3.179  1.00  0.00     0.049 A 
ATOM     14  N   UNL     1       7.045  -6.794   1.417  1.00  0.00    -0.248 NA
ATOM     15  C   UNL     1       5.922  -5.857  -0.407  1.00  0.00     0.031 C 
ATOM     16  C   UNL     1       5.322  -3.630   4.027  1.00  0.00     0.029 A 
ATOM     17  N   UNL     1       6.506  -5.508   4.042  1.00  0.00    -0.354 N 
ATOM     18  C   UNL     1       7.415  -7.452   0.255  1.00  0.00     0.074 A 
ATOM     19  C   UNL     1       6.682  -6.853  -0.837  1.00  0.00     0.031 C 
ATOM     20  C   UNL     1       5.700  -3.842   5.298  1.00  0.00     0.029 A 
ATOM     21  C   UNL     1       6.464  -5.080   5.351  1.00  0.00     0.049 A 
ATOM     22  H   UNL     1       6.994  -6.313   3.753  1.00  0.00     0.167 HD
ATOM     23  C   UNL     1       8.309  -8.455   0.116  1.00  0.00     0.031 A 
ATOM     24  C   UNL     1       6.987  -5.628   6.465  1.00  0.00     0.031 A 
ATOM     25  C   UNL     1       8.973  -9.084   1.224  1.00  0.00     0.049 A 
ATOM     26  C   UNL     1       7.840  -6.856   6.297  1.00  0.00     0.074 A 
ATOM     27  C   UNL     1       9.835 -10.163   1.211  1.00  0.00     0.029 A 
ATOM     28  N   UNL     1       8.828  -8.697   2.550  1.00  0.00    -0.354 N 
ATOM     29  N   UNL     1       8.190  -7.465   5.187  1.00  0.00    -0.248 NA
ATOM     30  C   UNL     1       8.394  -7.457   7.517  1.00  0.00     0.031 C 
ATOM     31  C   UNL     1      10.166 -10.466   2.536  1.00  0.00     0.029 A 
ATOM     32  C   UNL     1       9.562  -9.536   3.369  1.00  0.00     0.049 A 
ATOM     33  H   UNL     1       8.283  -7.939   2.861  1.00  0.00     0.167 HD
ATOM     34  C   UNL     1       9.032  -8.499   5.571  1.00  0.00     0.074 A 
ATOM     35  C   UNL     1       9.154  -8.419   7.014  1.00  0.00     0.031 C 
ATOM     36  C   UNL     1       9.651  -9.431   4.804  1.00  0.00     0.031 A 
BRANCH  23  37
ATOM     37  C   UNL     1       8.565  -8.943  -1.279  1.00  0.00    -0.014 A 
ATOM     38  C   UNL     1       9.315  -8.170  -2.186  1.00  0.00     0.010 A 
ATOM     39  C   UNL     1       8.039 -10.177  -1.695  1.00  0.00     0.010 A 
ATOM     40  C   UNL     1       9.512  -8.614  -3.495  1.00  0.00     0.020 A 
ATOM     41  C   UNL     1       8.253 -10.634  -2.998  1.00  0.00     0.020 A 
ATOM     42  C   UNL     1       8.979  -9.844  -3.892  1.00  0.00     0.054 A 
BRANCH  42  43
ATOM     43  S   UNL     1       9.273 -10.408  -5.590  1.00  0.00     0.124 S 
ATOM     44  O   UNL     1       8.431  -9.496  -6.361  1.00  0.00    -0.237 OA
ATOM     45  O   UNL     1      10.713 -10.215  -5.744  1.00  0.00    -0.237 OA
ATOM     46  O   UNL     1       8.832 -11.800  -5.574  1.00  0.00    -0.744 OA
ENDBRANCH  42  43
ENDBRANCH  23  37
BRANCH  24  47
ATOM     47  C   UNL     1       6.711  -5.052   7.814  1.00  0.00    -0.014 A 
ATOM     48  C   UNL     1       7.740  -4.526   8.615  1.00  0.00     0.010 A 
ATOM     49  C   UNL     1       5.402  -5.079   8.333  1.00  0.00     0.010 A 
ATOM     50  C   UNL     1       7.477  -4.089   9.920  1.00  0.00     0.020 A 
ATOM     51  C   UNL     1       5.128  -4.616   9.625  1.00  0.00     0.020 A 
ATOM     52  C   UNL     1       6.173  -4.146  10.420  1.00  0.00     0.054 A 
BRANCH  52  53
ATOM     53  S   UNL     1       5.859  -3.601  12.123  1.00  0.00     0.124 S 
ATOM     54  O   UNL     1       6.483  -4.667  12.902  1.00  0.00    -0.237 OA
ATOM     55  O   UNL     1       6.533  -2.306  12.172  1.00  0.00    -0.237 OA
ATOM     56  O   UNL     1       4.401  -3.542  12.203  1.00  0.00    -0.744 OA
ENDBRANCH  52  53
ENDBRANCH  24  47
BRANCH  36  57
ATOM     57  C   UNL     1      10.531 -10.418   5.519  1.00  0.00    -0.014 A 
ATOM     58  C   UNL     1       9.982 -11.422   6.335  1.00  0.00     0.010 A 
ATOM     59  C   UNL     1      11.925 -10.357   5.341  1.00  0.00     0.010 A 
ATOM     60  C   UNL     1      10.817 -12.324   6.996  1.00  0.00     0.020 A 
ATOM     61  C   UNL     1      12.760 -11.278   5.973  1.00  0.00     0.020 A 
ATOM     62  C   UNL     1      12.201 -12.244   6.812  1.00  0.00     0.054 A 
BRANCH  62  63
ATOM     63  S   UNL     1      13.262 -13.447   7.655  1.00  0.00     0.124 S 
ATOM     64  O   UNL     1      13.231 -12.964   9.033  1.00  0.00    -0.237 OA
ATOM     65  O   UNL     1      12.569 -14.710   7.416  1.00  0.00    -0.237 OA
ATOM     66  O   UNL     1      14.548 -13.310   6.976  1.00  0.00    -0.744 OA
ENDBRANCH  62  63
ENDBRANCH  36  57
ENDBRANCH  10  11
ENDBRANCH   3   5
ENDBRANCH   2   3
ENDBRANCH   1   2
BRANCH   1  67
ATOM     67  C   UNL     1       3.732   1.603   0.457  1.00  0.00     0.275 C 
BRANCH  67  68
ATOM     68  O   UNL     1       3.367   0.465   1.254  1.00  0.00    -0.458 OA
BRANCH  68  69
ATOM     69  C   UNL     1       2.242   0.575   1.993  1.00  0.00     0.340 C 
ATOM     70  O   UNL     1       1.476   1.534   2.035  1.00  0.00    -0.246 OA
BRANCH  69  71
ATOM     71  C   UNL     1       1.983  -0.666   2.709  1.00  0.00     0.091 A 
ATOM     72  C   UNL     1       0.948  -1.442   2.196  1.00  0.00     0.127 A 
ATOM     73  C   UNL     1       2.622  -1.094   3.874  1.00  0.00     0.057 A 
ATOM     74  N   UNL     1       0.550  -2.627   2.716  1.00  0.00    -0.264 NA
ATOM     75  C   UNL     1       2.191  -2.308   4.443  1.00  0.00     0.035 A 
ATOM     76  C   UNL     1       1.189  -3.039   3.828  1.00  0.00     0.112 A 
BRANCH  73  77
ATOM     77  C   UNL     1       3.767  -0.421   4.574  1.00  0.00     0.254 C 
ATOM     78  O   UNL     1       4.127  -0.822   5.676  1.00  0.00    -0.269 OA
ATOM     79  N   UNL     1       4.484   0.550   3.901  1.00  0.00    -0.339 N 
ATOM     80  C   UNL     1       5.858   0.252   3.490  1.00  0.00     0.120 C 
ATOM     81  C   UNL     1       4.071   1.940   4.029  1.00  0.00     0.120 C 
ATOM     82  C   UNL     1       6.913   1.204   4.057  1.00  0.00     0.025 C 
ATOM     83  C   UNL     1       5.139   2.834   4.631  1.00  0.00     0.025 C 
ATOM     84  C   UNL     1       6.474   2.664   3.889  1.00  0.00    -0.003 C 
BRANCH  84  85
ATOM     85  C   UNL     1       7.478   3.689   4.438  1.00  0.00     0.039 C 
BRANCH  85  86
ATOM     86  C   UNL     1       8.863   3.657   3.844  1.00  0.00    -0.048 A 
ATOM     87  C   UNL     1       9.960   3.381   4.672  1.00  0.00     0.004 A 
ATOM     88  C   UNL     1       9.094   3.961   2.495  1.00  0.00     0.004 A 
ATOM     89  C   UNL     1      11.260   3.421   4.170  1.00  0.00     0.000 A 
ATOM     90  C   UNL     1      10.398   3.998   1.992  1.00  0.00     0.000 A 
ATOM     91  C   UNL     1      11.479   3.733   2.831  1.00  0.00     0.000 A 
ENDBRANCH  85  86
ENDBRANCH  84  85
ENDBRANCH  73  77
ENDBRANCH  69  71
ENDBRANCH  68  69
ENDBRANCH  67  68
ENDBRANCH   1  67
TORSDOF 17
