REMARK SMILES Cc1ccc(OCC(=O)NNC(=O)[C@H]2CCCC[C@@H]2C(=O)OCCOC(=O)c2ccc(-c3c4nc(c(-c5ccc(S(=O)(=O)[O-])cc5)c5ccc([nH]5)c(-c5ccc(S(=O)(=O)[O-])cc5)c5nc(c(-c6ccc(S(=O)(=O)[O-])cc6)c6ccc3[nH]6)C=C5)C=C4)cc2)cc1
REMARK SMILES IDX 23 1 22 2 20 3 21 4 19 5 14 6 15 7 16 8 18 9 17 10 12 11
REMARK SMILES IDX 11 12 13 14 10 15 8 16 9 17 7 19 6 20 5 21 1 22 2 23 3 24
REMARK SMILES IDX 89 25 4 26 88 27 24 28 25 29 26 30 27 31 28 32 29 33 87 34
REMARK SMILES IDX 30 35 86 36 31 37 32 38 33 39 80 40 34 41 85 42 79 43 81 44
REMARK SMILES IDX 35 45 84 46 78 47 77 48 36 50 66 51 47 52 65 53 48 54 51 55
REMARK SMILES IDX 64 56 82 57 49 58 50 59 63 61 83 62 52 63 37 64 38 65 46 66
REMARK SMILES IDX 39 67 45 68 40 69 41 70 42 71 43 72 44 73 67 74 68 75 76 76
REMARK SMILES IDX 69 77 75 78 70 79 71 80 72 81 73 82 74 83 53 84 54 85 62 86
REMARK SMILES IDX 55 87 61 88 56 89 57 90 58 91 59 92 60 93
REMARK H PARENT 11 13 10 18 81 49 51 60
REMARK Flexibility Score: inf
ROOT
ATOM      1  C   UNL     1      -6.178   5.141   4.446  1.00  0.00     0.274 C 
ENDROOT
BRANCH   1   2
ATOM      2  O   UNL     1      -4.943   4.453   4.735  1.00  0.00    -0.462 OA
BRANCH   2   3
ATOM      3  C   UNL     1      -5.077   3.361   5.541  1.00  0.00     0.309 C 
ATOM      4  O   UNL     1      -6.154   2.992   5.993  1.00  0.00    -0.252 OA
BRANCH   3   5
ATOM      5  C   UNL     1      -3.729   2.747   5.926  1.00  0.00     0.111 C 
ATOM      6  C   UNL     1      -3.704   1.211   5.780  1.00  0.00     0.094 C 
ATOM      7  C   UNL     1      -4.607   0.508   6.821  1.00  0.00     0.014 C 
ATOM      8  C   UNL     1      -4.438   1.007   8.259  1.00  0.00     0.001 C 
ATOM      9  C   UNL     1      -3.438   3.182   7.370  1.00  0.00     0.016 C 
ATOM     10  C   UNL     1      -4.366   2.523   8.394  1.00  0.00     0.001 C 
BRANCH   6  11
ATOM     11  C   UNL     1      -2.290   0.636   5.905  1.00  0.00     0.242 C 
ATOM     12  N   UNL     1      -1.527   0.353   4.809  1.00  0.00    -0.267 N 
ATOM     13  H   UNL     1      -0.799  -0.297   4.942  1.00  0.00     0.191 HD
ATOM     14  O   UNL     1      -1.793   0.363   7.004  1.00  0.00    -0.273 OA
BRANCH  12  15
ATOM     15  N   UNL     1      -1.659   0.877   3.524  1.00  0.00    -0.265 N 
ATOM     16  C   UNL     1      -0.563   1.366   2.835  1.00  0.00     0.276 C 
ATOM     17  O   UNL     1      -0.630   1.776   1.676  1.00  0.00    -0.269 OA
ATOM     18  H   UNL     1      -2.546   0.899   3.100  1.00  0.00     0.191 HD
BRANCH  16  19
ATOM     19  C   UNL     1       0.805   1.330   3.538  1.00  0.00     0.331 C 
BRANCH  19  20
ATOM     20  O   UNL     1       0.915   1.922   4.820  1.00  0.00    -0.484 OA
BRANCH  20  21
ATOM     21  C   UNL     1       0.837   3.285   4.891  1.00  0.00     0.120 A 
ATOM     22  C   UNL     1       0.599   7.540   5.556  1.00  0.00     0.044 C 
ATOM     23  C   UNL     1       0.684   6.062   5.323  1.00  0.00    -0.051 A 
ATOM     24  C   UNL     1       0.860   5.187   6.399  1.00  0.00     0.007 A 
ATOM     25  C   UNL     1       0.595   5.537   4.032  1.00  0.00     0.007 A 
ATOM     26  C   UNL     1       0.931   3.808   6.182  1.00  0.00     0.047 A 
ATOM     27  C   UNL     1       0.674   4.158   3.816  1.00  0.00     0.047 A 
ENDBRANCH  20  21
ENDBRANCH  19  20
ENDBRANCH  16  19
ENDBRANCH  12  15
ENDBRANCH   6  11
ENDBRANCH   3   5
ENDBRANCH   2   3
ENDBRANCH   1   2
BRANCH   1  28
ATOM     28  C   UNL     1      -6.093   5.926   3.124  1.00  0.00     0.275 C 
BRANCH  28  29
ATOM     29  O   UNL     1      -6.228   5.157   1.911  1.00  0.00    -0.458 OA
BRANCH  29  30
ATOM     30  C   UNL     1      -5.512   3.999   1.866  1.00  0.00     0.338 C 
ATOM     31  O   UNL     1      -4.298   3.950   1.892  1.00  0.00    -0.246 OA
BRANCH  30  32
ATOM     32  C   UNL     1      -6.467   2.898   2.184  1.00  0.00     0.060 A 
ATOM     33  C   UNL     1      -5.976   1.788   2.873  1.00  0.00     0.016 A 
ATOM     34  C   UNL     1      -7.845   3.143   2.135  1.00  0.00     0.016 A 
ATOM     35  C   UNL     1      -6.836   1.027   3.664  1.00  0.00     0.010 A 
ATOM     36  C   UNL     1      -8.691   2.418   2.953  1.00  0.00     0.010 A 
ATOM     37  C   UNL     1      -8.179   1.397   3.764  1.00  0.00    -0.014 A 
BRANCH  37  38
ATOM     38  C   UNL     1      -9.150   0.624   4.529  1.00  0.00     0.031 A 
ATOM     39  C   UNL     1      -9.205   0.603   6.011  1.00  0.00     0.074 A 
ATOM     40  C   UNL     1      -9.919  -0.201   3.791  1.00  0.00     0.049 A 
ATOM     41  N   UNL     1      -9.461  -0.464   6.698  1.00  0.00    -0.248 NA
ATOM     42  C   UNL     1      -8.939   1.771   6.850  1.00  0.00     0.031 C 
ATOM     43  C   UNL     1     -11.032  -1.034   4.210  1.00  0.00     0.029 A 
ATOM     44  N   UNL     1      -9.616  -0.643   2.497  1.00  0.00    -0.354 N 
ATOM     45  C   UNL     1      -9.632  -0.080   8.012  1.00  0.00     0.074 A 
ATOM     46  C   UNL     1      -9.191   1.293   8.078  1.00  0.00     0.031 C 
ATOM     47  C   UNL     1     -11.123  -2.064   3.348  1.00  0.00     0.029 A 
ATOM     48  C   UNL     1      -9.959  -1.990   2.466  1.00  0.00     0.049 A 
ATOM     49  H   UNL     1      -9.238  -0.110   1.761  1.00  0.00     0.167 HD
ATOM     50  C   UNL     1     -10.299  -0.882   8.890  1.00  0.00     0.031 A 
ATOM     51  C   UNL     1      -9.054  -2.987   2.253  1.00  0.00     0.031 A 
ATOM     52  C   UNL     1     -10.833  -2.062   8.227  1.00  0.00     0.049 A 
ATOM     53  C   UNL     1      -9.151  -4.062   3.300  1.00  0.00     0.074 A 
ATOM     54  C   UNL     1     -12.067  -2.288   7.641  1.00  0.00     0.029 A 
ATOM     55  N   UNL     1      -9.994  -3.081   7.806  1.00  0.00    -0.354 N 
ATOM     56  N   UNL     1      -9.501  -3.852   4.536  1.00  0.00    -0.248 NA
ATOM     57  C   UNL     1      -8.800  -5.448   3.033  1.00  0.00     0.031 C 
ATOM     58  C   UNL     1     -11.969  -3.451   6.846  1.00  0.00     0.029 A 
ATOM     59  C   UNL     1     -10.683  -3.942   6.971  1.00  0.00     0.049 A 
ATOM     60  H   UNL     1      -9.049  -3.177   8.062  1.00  0.00     0.167 HD
ATOM     61  C   UNL     1      -9.549  -5.055   5.197  1.00  0.00     0.074 A 
ATOM     62  C   UNL     1      -9.023  -6.007   4.234  1.00  0.00     0.031 C 
ATOM     63  C   UNL     1     -10.054  -5.153   6.463  1.00  0.00     0.031 A 
BRANCH  50  64
ATOM     64  C   UNL     1     -10.791  -0.404  10.237  1.00  0.00    -0.014 A 
ATOM     65  C   UNL     1     -12.099  -0.742  10.647  1.00  0.00     0.010 A 
ATOM     66  C   UNL     1     -10.039   0.393  11.121  1.00  0.00     0.010 A 
ATOM     67  C   UNL     1     -12.673  -0.230  11.815  1.00  0.00     0.020 A 
ATOM     68  C   UNL     1     -10.609   0.923  12.297  1.00  0.00     0.020 A 
ATOM     69  C   UNL     1     -11.934   0.628  12.622  1.00  0.00     0.054 A 
BRANCH  69  70
ATOM     70  S   UNL     1     -12.753   1.368  14.062  1.00  0.00     0.124 S 
ATOM     71  O   UNL     1     -13.867   2.090  13.451  1.00  0.00    -0.237 OA
ATOM     72  O   UNL     1     -13.124   0.199  14.855  1.00  0.00    -0.237 OA
ATOM     73  O   UNL     1     -11.720   2.218  14.652  1.00  0.00    -0.744 OA
ENDBRANCH  69  70
ENDBRANCH  50  64
BRANCH  51  74
ATOM     74  C   UNL     1      -7.752  -2.612   1.622  1.00  0.00    -0.014 A 
ATOM     75  C   UNL     1      -7.732  -2.000   0.350  1.00  0.00     0.010 A 
ATOM     76  C   UNL     1      -6.570  -2.614   2.383  1.00  0.00     0.010 A 
ATOM     77  C   UNL     1      -6.596  -1.315  -0.099  1.00  0.00     0.020 A 
ATOM     78  C   UNL     1      -5.425  -1.951   1.928  1.00  0.00     0.020 A 
ATOM     79  C   UNL     1      -5.457  -1.274   0.707  1.00  0.00     0.054 A 
BRANCH  79  80
ATOM     80  S   UNL     1      -4.091  -0.158   0.263  1.00  0.00     0.124 S 
ATOM     81  O   UNL     1      -3.363  -0.953  -0.719  1.00  0.00    -0.237 OA
ATOM     82  O   UNL     1      -4.804   1.006  -0.255  1.00  0.00    -0.237 OA
ATOM     83  O   UNL     1      -3.418   0.048   1.550  1.00  0.00    -0.744 OA
ENDBRANCH  79  80
ENDBRANCH  51  74
BRANCH  63  84
ATOM     84  C   UNL     1     -10.135  -6.381   7.346  1.00  0.00    -0.014 A 
ATOM     85  C   UNL     1      -9.905  -7.699   6.935  1.00  0.00     0.010 A 
ATOM     86  C   UNL     1     -10.501  -6.205   8.707  1.00  0.00     0.010 A 
ATOM     87  C   UNL     1      -9.972  -8.771   7.837  1.00  0.00     0.020 A 
ATOM     88  C   UNL     1     -10.586  -7.263   9.614  1.00  0.00     0.020 A 
ATOM     89  C   UNL     1     -10.305  -8.545   9.172  1.00  0.00     0.054 A 
BRANCH  89  90
ATOM     90  S   UNL     1     -10.348  -9.947  10.310  1.00  0.00     0.124 S 
ATOM     91  O   UNL     1     -11.450 -10.742   9.776  1.00  0.00    -0.237 OA
ATOM     92  O   UNL     1      -9.017 -10.525  10.138  1.00  0.00    -0.237 OA
ATOM     93  O   UNL     1     -10.594  -9.335  11.614  1.00  0.00    -0.744 OA
ENDBRANCH  89  90
ENDBRANCH  63  84
ENDBRANCH  37  38
ENDBRANCH  30  32
ENDBRANCH  29  30
ENDBRANCH  28  29
ENDBRANCH   1  28
TORSDOF 19
