REMARK SMILES COc1ccc([C@H]2[C@H](C(=O)OCCOC(=O)c3ccc(-c4c5nc(c(-c6ccc(S(=O)(=O)[O-])cc6)c6ccc([nH]6)c(-c6ccc(S(=O)(=O)[O-])cc6)c6nc(c(-c7ccc(S(=O)(=O)[O-])cc7)c7ccc4[nH]7)C=C6)C=C5)cc3)CCN2c2ccc(F)cc2)cc1
REMARK SMILES IDX 13 1 12 2 11 3 9 4 10 5 8 6 7 7 79 8 77 9 78 10 6 11 3 12
REMARK SMILES IDX 4 13 88 14 5 15 87 16 2 17 1 18 80 19 81 20 86 21 82 22
REMARK SMILES IDX 85 23 83 24 84 25 14 26 15 27 16 28 17 29 18 30 76 31 19 32
REMARK SMILES IDX 75 33 20 34 21 35 22 36 69 37 23 38 74 39 68 40 70 41 24 42
REMARK SMILES IDX 73 43 67 44 66 45 25 47 55 48 36 49 54 50 37 51 40 52 53 53
REMARK SMILES IDX 71 54 38 55 39 56 52 58 72 59 41 60 26 61 27 62 35 63 28 64
REMARK SMILES IDX 34 65 29 66 30 67 31 68 32 69 33 70 56 71 57 72 65 73 58 74
REMARK SMILES IDX 64 75 59 76 60 77 61 78 62 79 63 80 42 81 43 82 51 83 44 84
REMARK SMILES IDX 50 85 45 86 46 87 47 88 48 89 49 90
REMARK H PARENT 70 46 40 57
REMARK Flexibility Score: inf
ROOT
ATOM      1  C   UNL     1       5.193   1.957   2.897  1.00  0.00     0.275 C 
ENDROOT
BRANCH   1   2
ATOM      2  C   UNL     1       5.705   1.623   4.300  1.00  0.00     0.274 C 
BRANCH   2   3
ATOM      3  O   UNL     1       4.622   1.521   5.246  1.00  0.00    -0.462 OA
BRANCH   3   4
ATOM      4  C   UNL     1       4.478   2.535   6.133  1.00  0.00     0.311 C 
ATOM      5  O   UNL     1       5.228   3.504   6.197  1.00  0.00    -0.252 OA
BRANCH   4   6
ATOM      6  C   UNL     1       3.328   2.359   7.105  1.00  0.00     0.128 C 
ATOM      7  C   UNL     1       2.199   1.431   6.623  1.00  0.00     0.127 C 
ATOM      8  N   UNL     1       2.634   0.109   7.108  1.00  0.00    -0.364 N 
ATOM      9  C   UNL     1       3.814   1.706   8.395  1.00  0.00     0.039 C 
ATOM     10  C   UNL     1       3.683   0.211   8.120  1.00  0.00     0.118 C 
BRANCH   7  11
ATOM     11  C   UNL     1       0.855   1.836   7.245  1.00  0.00    -0.024 A 
ATOM     12  C   UNL     1      -1.538   2.729   8.470  1.00  0.00     0.118 A 
ATOM     13  C   UNL     1      -0.955   3.464   7.441  1.00  0.00     0.047 A 
ATOM     14  C   UNL     1      -0.964   1.519   8.849  1.00  0.00     0.047 A 
ATOM     15  C   UNL     1       0.225   3.022   6.832  1.00  0.00     0.010 A 
ATOM     16  C   UNL     1       0.220   1.081   8.244  1.00  0.00     0.010 A 
BRANCH  12  17
ATOM     17  O   UNL     1      -2.675   3.264   9.008  1.00  0.00    -0.497 OA
ATOM     18  C   UNL     1      -2.957   2.880  10.349  1.00  0.00     0.278 C 
ENDBRANCH  12  17
ENDBRANCH   7  11
BRANCH   8  19
ATOM     19  C   UNL     1       2.474  -1.071   6.415  1.00  0.00     0.037 A 
ATOM     20  C   UNL     1       2.280  -2.273   7.116  1.00  0.00     0.029 A 
ATOM     21  C   UNL     1       2.518  -1.141   5.015  1.00  0.00     0.029 A 
ATOM     22  C   UNL     1       2.133  -3.493   6.451  1.00  0.00     0.041 A 
ATOM     23  C   UNL     1       2.397  -2.360   4.341  1.00  0.00     0.041 A 
ATOM     24  C   UNL     1       2.203  -3.525   5.067  1.00  0.00     0.123 A 
ATOM     25  F   UNL     1       2.084  -4.695   4.426  1.00  0.00    -0.207 F 
ENDBRANCH   8  19
ENDBRANCH   4   6
ENDBRANCH   3   4
ENDBRANCH   2   3
ENDBRANCH   1   2
BRANCH   1  26
ATOM     26  O   UNL     1       4.647   3.287   2.842  1.00  0.00    -0.458 OA
BRANCH  26  27
ATOM     27  C   UNL     1       3.317   3.363   3.075  1.00  0.00     0.338 C 
ATOM     28  O   UNL     1       2.547   2.439   3.275  1.00  0.00    -0.246 OA
BRANCH  27  29
ATOM     29  C   UNL     1       2.919   4.769   3.210  1.00  0.00     0.060 A 
ATOM     30  C   UNL     1       2.546   5.220   4.477  1.00  0.00     0.016 A 
ATOM     31  C   UNL     1       2.818   5.604   2.098  1.00  0.00     0.016 A 
ATOM     32  C   UNL     1       2.030   6.500   4.639  1.00  0.00     0.010 A 
ATOM     33  C   UNL     1       2.323   6.901   2.265  1.00  0.00     0.010 A 
ATOM     34  C   UNL     1       1.909   7.349   3.533  1.00  0.00    -0.014 A 
BRANCH  34  35
ATOM     35  C   UNL     1       1.317   8.697   3.705  1.00  0.00     0.031 A 
ATOM     36  C   UNL     1      -0.061   8.983   3.181  1.00  0.00     0.074 A 
ATOM     37  C   UNL     1       2.013   9.652   4.349  1.00  0.00     0.049 A 
ATOM     38  N   UNL     1      -0.716  10.114   3.161  1.00  0.00    -0.248 NA
ATOM     39  C   UNL     1      -0.799   7.848   2.603  1.00  0.00     0.031 C 
ATOM     40  C   UNL     1       3.340   9.477   4.943  1.00  0.00     0.029 A 
ATOM     41  N   UNL     1       1.699  10.961   4.611  1.00  0.00    -0.354 N 
ATOM     42  C   UNL     1      -1.931   9.838   2.545  1.00  0.00     0.074 A 
ATOM     43  C   UNL     1      -1.920   8.432   2.200  1.00  0.00     0.031 C 
ATOM     44  C   UNL     1       3.725  10.635   5.503  1.00  0.00     0.029 A 
ATOM     45  C   UNL     1       2.696  11.643   5.266  1.00  0.00     0.049 A 
ATOM     46  H   UNL     1       0.842  11.372   4.355  1.00  0.00     0.167 HD
ATOM     47  C   UNL     1      -2.959  10.681   2.289  1.00  0.00     0.031 A 
ATOM     48  C   UNL     1       2.785  12.942   5.611  1.00  0.00     0.031 A 
ATOM     49  C   UNL     1      -2.966  12.076   2.641  1.00  0.00     0.049 A 
ATOM     50  C   UNL     1       1.649  13.868   5.275  1.00  0.00     0.074 A 
ATOM     51  C   UNL     1      -3.962  13.014   2.428  1.00  0.00     0.029 A 
ATOM     52  N   UNL     1      -1.929  12.735   3.284  1.00  0.00    -0.354 N 
ATOM     53  N   UNL     1       0.513  13.593   4.678  1.00  0.00    -0.248 NA
ATOM     54  C   UNL     1       1.807  15.278   5.657  1.00  0.00     0.031 C 
ATOM     55  C   UNL     1      -3.510  14.248   2.907  1.00  0.00     0.029 A 
ATOM     56  C   UNL     1      -2.252  14.069   3.460  1.00  0.00     0.049 A 
ATOM     57  H   UNL     1      -1.086  12.315   3.572  1.00  0.00     0.167 HD
ATOM     58  C   UNL     1      -0.186  14.794   4.627  1.00  0.00     0.074 A 
ATOM     59  C   UNL     1       0.648  15.792   5.266  1.00  0.00     0.031 C 
ATOM     60  C   UNL     1      -1.407  15.047   4.098  1.00  0.00     0.031 A 
BRANCH  47  61
ATOM     61  C   UNL     1      -4.147  10.123   1.554  1.00  0.00    -0.014 A 
ATOM     62  C   UNL     1      -5.076   9.285   2.196  1.00  0.00     0.010 A 
ATOM     63  C   UNL     1      -4.354  10.472   0.207  1.00  0.00     0.010 A 
ATOM     64  C   UNL     1      -6.172   8.777   1.493  1.00  0.00     0.020 A 
ATOM     65  C   UNL     1      -5.460   9.983  -0.493  1.00  0.00     0.020 A 
ATOM     66  C   UNL     1      -6.354   9.124   0.150  1.00  0.00     0.054 A 
BRANCH  66  67
ATOM     67  S   UNL     1      -7.793   8.467  -0.738  1.00  0.00     0.124 S 
ATOM     68  O   UNL     1      -7.383   7.088  -0.994  1.00  0.00    -0.237 OA
ATOM     69  O   UNL     1      -8.874   8.631   0.230  1.00  0.00    -0.237 OA
ATOM     70  O   UNL     1      -7.888   9.318  -1.921  1.00  0.00    -0.744 OA
ENDBRANCH  66  67
ENDBRANCH  47  61
BRANCH  48  71
ATOM     71  C   UNL     1       4.012  13.446   6.282  1.00  0.00    -0.014 A 
ATOM     72  C   UNL     1       3.990  13.809   7.639  1.00  0.00     0.010 A 
ATOM     73  C   UNL     1       5.218  13.546   5.565  1.00  0.00     0.010 A 
ATOM     74  C   UNL     1       5.151  14.274   8.265  1.00  0.00     0.020 A 
ATOM     75  C   UNL     1       6.386  13.987   6.193  1.00  0.00     0.020 A 
ATOM     76  C   UNL     1       6.342  14.359   7.538  1.00  0.00     0.054 A 
BRANCH  76  77
ATOM     77  S   UNL     1       7.853  14.906   8.381  1.00  0.00     0.124 S 
ATOM     78  O   UNL     1       7.666  16.352   8.428  1.00  0.00    -0.237 OA
ATOM     79  O   UNL     1       7.769  14.215   9.666  1.00  0.00    -0.237 OA
ATOM     80  O   UNL     1       8.921  14.439   7.501  1.00  0.00    -0.744 OA
ENDBRANCH  76  77
ENDBRANCH  48  71
BRANCH  60  81
ATOM     81  C   UNL     1      -1.928  16.452   4.212  1.00  0.00    -0.014 A 
ATOM     82  C   UNL     1      -1.438  17.477   3.384  1.00  0.00     0.010 A 
ATOM     83  C   UNL     1      -2.959  16.738   5.125  1.00  0.00     0.010 A 
ATOM     84  C   UNL     1      -1.952  18.772   3.486  1.00  0.00     0.020 A 
ATOM     85  C   UNL     1      -3.490  18.027   5.216  1.00  0.00     0.020 A 
ATOM     86  C   UNL     1      -2.973  19.040   4.404  1.00  0.00     0.054 A 
BRANCH  86  87
ATOM     87  S   UNL     1      -3.658  20.717   4.490  1.00  0.00     0.124 S 
ATOM     88  O   UNL     1      -2.632  21.424   5.252  1.00  0.00    -0.237 OA
ATOM     89  O   UNL     1      -3.768  21.095   3.083  1.00  0.00    -0.237 OA
ATOM     90  O   UNL     1      -4.933  20.534   5.180  1.00  0.00    -0.744 OA
ENDBRANCH  86  87
ENDBRANCH  60  81
ENDBRANCH  34  35
ENDBRANCH  27  29
ENDBRANCH  26  27
ENDBRANCH   1  26
TORSDOF 17
