REMARK SMILES Cc1ccc(S(=O)(=O)N(c2ccccc2)[C@H](C)C(=O)OCCOC(=O)c2ccc(-c3c4nc(c(-c5ccc(S(=O)(=O)[O-])cc5)c5ccc([nH]5)c(-c5ccc(S(=O)(=O)[O-])cc5)c5nc(c(-c6ccc(S(=O)(=O)[O-])cc6)c6ccc3[nH]6)C=C5)C=C4)cc2)cc1
REMARK SMILES IDX 21 1 20 2 18 3 19 4 16 5 17 6 9 7 6 8 7 9 8 10 5 11 1 12
REMARK SMILES IDX 2 13 3 14 87 15 4 16 86 17 10 18 11 19 15 20 12 21 14 22
REMARK SMILES IDX 13 23 22 24 23 25 24 26 25 27 26 28 27 29 85 30 28 31 84 32
REMARK SMILES IDX 29 33 30 34 31 35 78 36 32 37 83 38 77 39 79 40 33 41 82 42
REMARK SMILES IDX 76 43 75 44 34 46 64 47 45 48 63 49 46 50 49 51 62 52 80 53
REMARK SMILES IDX 47 54 48 55 61 57 81 58 50 59 35 60 36 61 44 62 37 63 43 64
REMARK SMILES IDX 38 65 39 66 40 67 41 68 42 69 65 70 66 71 74 72 67 73 73 74
REMARK SMILES IDX 68 75 69 76 70 77 71 78 72 79 51 80 52 81 60 82 53 83 59 84
REMARK SMILES IDX 54 85 55 86 56 87 57 88 58 89
REMARK H PARENT 79 45 49 56
REMARK Flexibility Score: inf
ROOT
ATOM      1  C   UNL     1      -7.045   0.226   3.921  1.00  0.00     0.274 C 
ENDROOT
BRANCH   1   2
ATOM      2  O   UNL     1      -7.566   0.795   2.711  1.00  0.00    -0.461 OA
BRANCH   2   3
ATOM      3  C   UNL     1      -6.835   1.814   2.211  1.00  0.00     0.329 C 
ATOM      4  O   UNL     1      -6.509   2.744   2.926  1.00  0.00    -0.250 OA
BRANCH   3   5
ATOM      5  C   UNL     1      -6.080   1.543   0.725  1.00  0.00     0.206 C 
ATOM      6  C   UNL     1      -4.241   0.435   0.156  1.00  0.00     0.045 C 
BRANCH   5   7
ATOM      7  N   UNL     1      -6.623   0.868  -0.146  1.00  0.00    -0.252 N 
BRANCH   7   8
ATOM      8  S   UNL     1      -7.920   2.215  -1.452  1.00  0.00     0.265 S 
ATOM      9  O   UNL     1      -7.215   3.486  -1.591  1.00  0.00    -0.201 OA
ATOM     10  O   UNL     1      -9.295   2.228  -1.018  1.00  0.00    -0.201 OA
BRANCH   8  11
ATOM     11  C   UNL     1      -8.022   1.546  -3.460  1.00  0.00     0.088 A 
ATOM     12  C   UNL     1      -8.519  -0.217  -7.469  1.00  0.00     0.044 C 
ATOM     13  C   UNL     1      -8.274   0.517  -6.177  1.00  0.00    -0.051 A 
ATOM     14  C   UNL     1      -8.820   1.759  -5.792  1.00  0.00     0.005 A 
ATOM     15  C   UNL     1      -7.485  -0.116  -5.252  1.00  0.00     0.005 A 
ATOM     16  C   UNL     1      -8.695   2.286  -4.445  1.00  0.00     0.022 A 
ATOM     17  C   UNL     1      -7.403   0.380  -3.948  1.00  0.00     0.022 A 
ENDBRANCH   8  11
ENDBRANCH   7   8
BRANCH   7  18
ATOM     18  C   UNL     1      -5.432  -0.686  -0.985  1.00  0.00     0.053 A 
ATOM     19  C   UNL     1      -5.157  -2.056  -0.387  1.00  0.00     0.027 A 
ATOM     20  C   UNL     1      -4.864  -0.793  -2.384  1.00  0.00     0.027 A 
ATOM     21  C   UNL     1      -4.703  -3.216  -1.052  1.00  0.00     0.002 A 
ATOM     22  C   UNL     1      -4.395  -1.959  -3.034  1.00  0.00     0.002 A 
ATOM     23  C   UNL     1      -4.370  -3.174  -2.385  1.00  0.00     0.000 A 
ENDBRANCH   7  18
ENDBRANCH   5   7
ENDBRANCH   3   5
ENDBRANCH   2   3
ENDBRANCH   1   2
BRANCH   1  24
ATOM     24  C   UNL     1      -5.608   0.572   4.505  1.00  0.00     0.275 C 
BRANCH  24  25
ATOM     25  O   UNL     1      -4.389   1.243   3.895  1.00  0.00    -0.458 OA
BRANCH  25  26
ATOM     26  C   UNL     1      -3.861   1.869   2.797  1.00  0.00     0.338 C 
ATOM     27  O   UNL     1      -2.799   2.473   2.799  1.00  0.00    -0.246 OA
BRANCH  26  28
ATOM     28  C   UNL     1      -4.518   1.558   1.527  1.00  0.00     0.060 A 
ATOM     29  C   UNL     1      -4.690   2.194  -0.354  1.00  0.00     0.016 A 
ATOM     30  C   UNL     1      -5.546  -0.085   1.699  1.00  0.00     0.016 A 
ATOM     31  C   UNL     1      -5.835   1.262  -1.660  1.00  0.00     0.010 A 
ATOM     32  C   UNL     1      -6.880  -0.821   0.555  1.00  0.00     0.010 A 
ATOM     33  C   UNL     1      -7.207  -0.207  -1.273  1.00  0.00    -0.014 A 
BRANCH  33  34
ATOM     34  C   UNL     1      -8.729  -0.557  -1.090  1.00  0.00     0.031 A 
ATOM     35  C   UNL     1      -9.021  -1.596  -2.031  1.00  0.00     0.074 A 
ATOM     36  C   UNL     1      -9.548  -0.427   0.006  1.00  0.00     0.049 A 
ATOM     37  N   UNL     1      -9.634  -1.396  -3.149  1.00  0.00    -0.248 NA
ATOM     38  C   UNL     1      -8.207  -2.809  -1.909  1.00  0.00     0.031 C 
ATOM     39  C   UNL     1     -10.570  -1.383   0.454  1.00  0.00     0.029 A 
ATOM     40  N   UNL     1      -9.590   0.514   1.031  1.00  0.00    -0.354 N 
ATOM     41  C   UNL     1      -9.456  -2.603  -3.765  1.00  0.00     0.074 A 
ATOM     42  C   UNL     1      -8.207  -3.109  -3.200  1.00  0.00     0.031 C 
ATOM     43  C   UNL     1     -11.267  -0.873   1.490  1.00  0.00     0.029 A 
ATOM     44  C   UNL     1     -10.788   0.476   1.753  1.00  0.00     0.049 A 
ATOM     45  H   UNL     1      -8.856   1.140   1.226  1.00  0.00     0.167 HD
ATOM     46  C   UNL     1     -10.503  -3.470  -3.874  1.00  0.00     0.031 A 
ATOM     47  C   UNL     1     -11.589   1.582   1.788  1.00  0.00     0.031 A 
ATOM     48  C   UNL     1     -11.627  -3.094  -3.001  1.00  0.00     0.049 A 
ATOM     49  C   UNL     1     -12.631   1.478   0.680  1.00  0.00     0.074 A 
ATOM     50  C   UNL     1     -12.131  -3.626  -1.823  1.00  0.00     0.029 A 
ATOM     51  N   UNL     1     -12.154  -1.805  -3.075  1.00  0.00    -0.354 N 
ATOM     52  N   UNL     1     -12.595   0.531  -0.226  1.00  0.00    -0.248 NA
ATOM     53  C   UNL     1     -13.835   2.293   0.545  1.00  0.00     0.031 C 
ATOM     54  C   UNL     1     -13.014  -2.665  -1.236  1.00  0.00     0.029 A 
ATOM     55  C   UNL     1     -13.038  -1.540  -2.045  1.00  0.00     0.049 A 
ATOM     56  H   UNL     1     -11.922  -1.158  -3.779  1.00  0.00     0.167 HD
ATOM     57  C   UNL     1     -13.685   0.577  -1.038  1.00  0.00     0.074 A 
ATOM     58  C   UNL     1     -14.447   1.695  -0.498  1.00  0.00     0.031 C 
ATOM     59  C   UNL     1     -13.841  -0.308  -2.072  1.00  0.00     0.031 A 
BRANCH  46  60
ATOM     60  C   UNL     1     -10.178  -4.837  -4.420  1.00  0.00    -0.014 A 
ATOM     61  C   UNL     1     -11.049  -5.911  -4.231  1.00  0.00     0.010 A 
ATOM     62  C   UNL     1      -8.996  -5.089  -5.172  1.00  0.00     0.010 A 
ATOM     63  C   UNL     1     -10.741  -7.179  -4.742  1.00  0.00     0.020 A 
ATOM     64  C   UNL     1      -8.637  -6.361  -5.609  1.00  0.00     0.020 A 
ATOM     65  C   UNL     1      -9.537  -7.396  -5.421  1.00  0.00     0.054 A 
BRANCH  65  66
ATOM     66  S   UNL     1      -9.206  -9.015  -6.150  1.00  0.00     0.124 S 
ATOM     67  O   UNL     1      -9.343  -9.910  -5.005  1.00  0.00    -0.237 OA
ATOM     68  O   UNL     1     -10.253  -9.109  -7.163  1.00  0.00    -0.237 OA
ATOM     69  O   UNL     1      -7.846  -8.888  -6.673  1.00  0.00    -0.744 OA
ENDBRANCH  65  66
ENDBRANCH  46  60
BRANCH  47  70
ATOM     70  C   UNL     1     -10.897   2.777   2.385  1.00  0.00    -0.014 A 
ATOM     71  C   UNL     1     -10.675   2.756   3.786  1.00  0.00     0.010 A 
ATOM     72  C   UNL     1     -10.106   3.663   1.633  1.00  0.00     0.010 A 
ATOM     73  C   UNL     1      -9.637   3.493   4.389  1.00  0.00     0.020 A 
ATOM     74  C   UNL     1      -9.050   4.395   2.229  1.00  0.00     0.020 A 
ATOM     75  C   UNL     1      -8.815   4.303   3.606  1.00  0.00     0.054 A 
BRANCH  75  76
ATOM     76  S   UNL     1      -7.346   5.090   4.396  1.00  0.00     0.124 S 
ATOM     77  O   UNL     1      -7.944   6.258   5.037  1.00  0.00    -0.237 OA
ATOM     78  O   UNL     1      -6.879   4.064   5.334  1.00  0.00    -0.237 OA
ATOM     79  O   UNL     1      -6.453   5.405   3.281  1.00  0.00    -0.744 OA
ENDBRANCH  75  76
ENDBRANCH  47  70
BRANCH  59  80
ATOM     80  C   UNL     1     -14.790  -0.136  -3.241  1.00  0.00    -0.014 A 
ATOM     81  C   UNL     1     -15.615   0.976  -3.435  1.00  0.00     0.010 A 
ATOM     82  C   UNL     1     -14.787  -1.101  -4.285  1.00  0.00     0.010 A 
ATOM     83  C   UNL     1     -16.423   1.096  -4.569  1.00  0.00     0.020 A 
ATOM     84  C   UNL     1     -15.524  -0.956  -5.457  1.00  0.00     0.020 A 
ATOM     85  C   UNL     1     -16.365   0.135  -5.575  1.00  0.00     0.054 A 
BRANCH  85  86
ATOM     86  S   UNL     1     -17.404   0.342  -7.031  1.00  0.00     0.124 S 
ATOM     87  O   UNL     1     -18.740   0.161  -6.471  1.00  0.00    -0.237 OA
ATOM     88  O   UNL     1     -17.078   1.701  -7.456  1.00  0.00    -0.237 OA
ATOM     89  O   UNL     1     -16.956  -0.714  -7.935  1.00  0.00    -0.744 OA
ENDBRANCH  85  86
ENDBRANCH  59  80
ENDBRANCH  33  34
ENDBRANCH  26  28
ENDBRANCH  25  26
ENDBRANCH  24  25
ENDBRANCH   1  24
TORSDOF 18
