REMARK SMILES CCn1cccc1C(=O)N(C)c1snc(C)c1C(=O)OCCOC(=O)c1ccc(-c2c3nc(c(-c4ccc(S(=O)(=O)[O-])cc4)c4ccc([nH]4)c(-c4ccc(S(=O)(=O)[O-])cc4)c4nc(c(-c5ccc(S(=O)(=O)[O-])cc5)c5ccc2[nH]5)C=C4)C=C3)cc1
REMARK SMILES IDX 21 1 20 2 18 3 19 4 17 5 12 6 13 7 14 8 15 9 16 10 10 11
REMARK SMILES IDX 11 12 8 13 9 14 7 15 3 16 4 17 5 18 6 19 2 20 1 21 22 22
REMARK SMILES IDX 23 23 24 24 25 25 26 26 27 27 85 28 28 29 84 30 29 31 30 32
REMARK SMILES IDX 31 33 78 34 32 35 83 36 77 37 79 38 33 39 82 40 76 41 75 42
REMARK SMILES IDX 34 44 64 45 45 46 63 47 46 48 49 49 62 50 80 51 47 52 48 53
REMARK SMILES IDX 61 55 81 56 50 57 35 58 36 59 44 60 37 61 43 62 38 63 39 64
REMARK SMILES IDX 40 65 41 66 42 67 65 68 66 69 74 70 67 71 73 72 68 73 69 74
REMARK SMILES IDX 70 75 71 76 72 77 51 78 52 79 60 80 53 81 59 82 54 83 55 84
REMARK SMILES IDX 56 85 57 86 58 87
REMARK H PARENT 79 43 49 54
REMARK Flexibility Score: inf
ROOT
ATOM      1  C   UNL     1       0.684   0.047   6.927  1.00  0.00     0.275 C 
ENDROOT
BRANCH   1   2
ATOM      2  O   UNL     1       1.453  -0.711   5.984  1.00  0.00    -0.458 OA
BRANCH   2   3
ATOM      3  C   UNL     1       2.507  -1.425   6.488  1.00  0.00     0.343 C 
ATOM      4  O   UNL     1       2.899  -1.329   7.635  1.00  0.00    -0.246 OA
BRANCH   3   5
ATOM      5  C   UNL     1       3.025  -2.424   5.549  1.00  0.00     0.117 A 
ATOM      6  C   UNL     1       2.963  -2.398   4.152  1.00  0.00     0.133 A 
ATOM      7  S   UNL     1       3.530  -3.920   3.585  1.00  0.00    -0.017 S 
ATOM      8  N   UNL     1       4.000  -4.522   5.030  1.00  0.00    -0.195 NA
ATOM      9  C   UNL     1       3.646  -3.669   5.989  1.00  0.00     0.068 A 
ATOM     10  C   UNL     1       3.899  -4.121   7.391  1.00  0.00     0.069 C 
BRANCH   6  11
ATOM     11  N   UNL     1       2.568  -1.433   3.177  1.00  0.00    -0.300 N 
ATOM     12  C   UNL     1       2.376  -1.802   1.785  1.00  0.00     0.154 C 
BRANCH  11  13
ATOM     13  C   UNL     1       2.680  -0.080   3.560  1.00  0.00     0.275 C 
ATOM     14  O   UNL     1       3.535   0.205   4.413  1.00  0.00    -0.267 OA
BRANCH  13  15
ATOM     15  C   UNL     1       1.879   1.043   3.003  1.00  0.00     0.107 A 
ATOM     16  N   UNL     1       0.854   1.210   2.073  1.00  0.00    -0.344 N 
ATOM     17  C   UNL     1       0.520   2.553   1.970  1.00  0.00     0.086 A 
ATOM     18  C   UNL     1       1.243   3.265   2.883  1.00  0.00     0.020 A 
ATOM     19  C   UNL     1       2.073   2.335   3.524  1.00  0.00     0.033 A 
BRANCH  16  20
ATOM     20  C   UNL     1       0.091   0.256   1.284  1.00  0.00     0.119 C 
ATOM     21  C   UNL     1       0.509   0.249  -0.186  1.00  0.00     0.027 C 
ENDBRANCH  16  20
ENDBRANCH  13  15
ENDBRANCH  11  13
ENDBRANCH   6  11
ENDBRANCH   3   5
ENDBRANCH   2   3
ENDBRANCH   1   2
BRANCH   1  22
ATOM     22  C   UNL     1      -0.661  -0.629   7.183  1.00  0.00     0.275 C 
BRANCH  22  23
ATOM     23  O   UNL     1      -0.546  -1.931   7.774  1.00  0.00    -0.458 OA
BRANCH  23  24
ATOM     24  C   UNL     1      -0.431  -2.940   6.878  1.00  0.00     0.338 C 
ATOM     25  O   UNL     1      -0.118  -2.845   5.701  1.00  0.00    -0.246 OA
BRANCH  24  26
ATOM     26  C   UNL     1      -0.867  -4.218   7.453  1.00  0.00     0.060 A 
ATOM     27  C   UNL     1      -0.366  -5.390   6.873  1.00  0.00     0.016 A 
ATOM     28  C   UNL     1      -1.900  -4.259   8.397  1.00  0.00     0.016 A 
ATOM     29  C   UNL     1      -0.934  -6.609   7.205  1.00  0.00     0.010 A 
ATOM     30  C   UNL     1      -2.489  -5.479   8.706  1.00  0.00     0.010 A 
ATOM     31  C   UNL     1      -2.008  -6.650   8.103  1.00  0.00    -0.014 A 
BRANCH  31  32
ATOM     32  C   UNL     1      -2.509  -7.970   8.533  1.00  0.00     0.031 A 
ATOM     33  C   UNL     1      -1.779  -8.479   9.785  1.00  0.00     0.074 A 
ATOM     34  C   UNL     1      -3.480  -8.549   7.761  1.00  0.00     0.049 A 
ATOM     35  N   UNL     1      -1.739  -9.675  10.283  1.00  0.00    -0.248 NA
ATOM     36  C   UNL     1      -0.935  -7.543  10.585  1.00  0.00     0.031 C 
ATOM     37  C   UNL     1      -4.101  -7.922   6.568  1.00  0.00     0.029 A 
ATOM     38  N   UNL     1      -4.144  -9.760   7.804  1.00  0.00    -0.354 N 
ATOM     39  C   UNL     1      -1.055  -9.602  11.516  1.00  0.00     0.074 A 
ATOM     40  C   UNL     1      -0.514  -8.284  11.612  1.00  0.00     0.031 C 
ATOM     41  C   UNL     1      -4.977  -8.765   5.975  1.00  0.00     0.029 A 
ATOM     42  C   UNL     1      -5.050  -9.998   6.736  1.00  0.00     0.049 A 
ATOM     43  H   UNL     1      -3.999 -10.413   8.527  1.00  0.00     0.167 HD
ATOM     44  C   UNL     1      -1.078 -10.604  12.440  1.00  0.00     0.031 A 
ATOM     45  C   UNL     1      -5.808 -11.106   6.472  1.00  0.00     0.031 A 
ATOM     46  C   UNL     1      -1.752 -11.740  11.916  1.00  0.00     0.049 A 
ATOM     47  C   UNL     1      -5.694 -11.963   7.657  1.00  0.00     0.074 A 
ATOM     48  C   UNL     1      -1.411 -12.651  10.952  1.00  0.00     0.029 A 
ATOM     49  N   UNL     1      -3.100 -11.820  12.168  1.00  0.00    -0.354 N 
ATOM     50  N   UNL     1      -6.294 -11.734   8.783  1.00  0.00    -0.248 NA
ATOM     51  C   UNL     1      -4.887 -13.187   7.590  1.00  0.00     0.031 C 
ATOM     52  C   UNL     1      -2.637 -12.925  10.316  1.00  0.00     0.029 A 
ATOM     53  C   UNL     1      -3.679 -12.319  11.030  1.00  0.00     0.049 A 
ATOM     54  H   UNL     1      -3.560 -11.570  13.001  1.00  0.00     0.167 HD
ATOM     55  C   UNL     1      -5.595 -12.531   9.648  1.00  0.00     0.074 A 
ATOM     56  C   UNL     1      -5.029 -13.599   8.849  1.00  0.00     0.031 C 
ATOM     57  C   UNL     1      -5.049 -11.959  10.751  1.00  0.00     0.031 A 
BRANCH  44  58
ATOM     58  C   UNL     1      -0.750 -10.614  13.905  1.00  0.00    -0.014 A 
ATOM     59  C   UNL     1      -0.640 -11.885  14.527  1.00  0.00     0.010 A 
ATOM     60  C   UNL     1      -0.913  -9.495  14.734  1.00  0.00     0.010 A 
ATOM     61  C   UNL     1      -0.843 -12.051  15.896  1.00  0.00     0.020 A 
ATOM     62  C   UNL     1      -1.077  -9.652  16.120  1.00  0.00     0.020 A 
ATOM     63  C   UNL     1      -1.102 -10.933  16.679  1.00  0.00     0.054 A 
BRANCH  63  64
ATOM     64  S   UNL     1      -1.563 -11.191  18.413  1.00  0.00     0.124 S 
ATOM     65  O   UNL     1      -2.909 -11.742  18.293  1.00  0.00    -0.237 OA
ATOM     66  O   UNL     1      -0.542 -12.130  18.876  1.00  0.00    -0.237 OA
ATOM     67  O   UNL     1      -1.477  -9.854  18.993  1.00  0.00    -0.744 OA
ENDBRANCH  63  64
ENDBRANCH  44  58
BRANCH  45  68
ATOM     68  C   UNL     1      -6.674 -11.698   5.382  1.00  0.00    -0.014 A 
ATOM     69  C   UNL     1      -6.788 -11.233   4.069  1.00  0.00     0.010 A 
ATOM     70  C   UNL     1      -7.285 -12.962   5.646  1.00  0.00     0.010 A 
ATOM     71  C   UNL     1      -7.346 -12.055   3.056  1.00  0.00     0.020 A 
ATOM     72  C   UNL     1      -7.779 -13.805   4.651  1.00  0.00     0.020 A 
ATOM     73  C   UNL     1      -7.783 -13.355   3.345  1.00  0.00     0.054 A 
BRANCH  73  74
ATOM     74  S   UNL     1      -8.207 -14.529   2.025  1.00  0.00     0.124 S 
ATOM     75  O   UNL     1      -9.635 -14.294   1.841  1.00  0.00    -0.237 OA
ATOM     76  O   UNL     1      -7.349 -14.103   0.921  1.00  0.00    -0.237 OA
ATOM     77  O   UNL     1      -7.854 -15.827   2.601  1.00  0.00    -0.744 OA
ENDBRANCH  73  74
ENDBRANCH  45  68
BRANCH  57  78
ATOM     78  C   UNL     1      -5.764 -10.700  11.241  1.00  0.00    -0.014 A 
ATOM     79  C   UNL     1      -7.139 -10.753  11.546  1.00  0.00     0.010 A 
ATOM     80  C   UNL     1      -5.147  -9.434  11.293  1.00  0.00     0.010 A 
ATOM     81  C   UNL     1      -7.871  -9.598  11.865  1.00  0.00     0.020 A 
ATOM     82  C   UNL     1      -5.869  -8.269  11.620  1.00  0.00     0.020 A 
ATOM     83  C   UNL     1      -7.232  -8.358  11.899  1.00  0.00     0.054 A 
BRANCH  83  84
ATOM     84  S   UNL     1      -8.213  -6.878  12.292  1.00  0.00     0.124 S 
ATOM     85  O   UNL     1      -9.220  -6.864  11.233  1.00  0.00    -0.237 OA
ATOM     86  O   UNL     1      -8.720  -7.179  13.629  1.00  0.00    -0.237 OA
ATOM     87  O   UNL     1      -7.244  -5.785  12.229  1.00  0.00    -0.744 OA
ENDBRANCH  83  84
ENDBRANCH  57  78
ENDBRANCH  31  32
ENDBRANCH  24  26
ENDBRANCH  23  24
ENDBRANCH  22  23
ENDBRANCH   1  22
TORSDOF 18
