REMARK SMILES CCOc1ccccc1[C@H](C(=O)OCCOC(=O)c1ccc(-c2c3nc(c(-c4ccc(S(=O)(=O)[O-])cc4)c4ccc([nH]4)c(-c4ccc(S(=O)(=O)[O-])cc4)c4nc(c(-c5ccc(S(=O)(=O)[O-])cc5)c5ccc2[nH]5)C=C4)C=C3)cc1)[NH+]1CCC([NH+]2CCSCC2)CC1
REMARK SMILES IDX 14 1 13 2 11 3 12 4 10 5 9 6 4 7 5 8 6 9 8 10 7 11 3 12 2 13
REMARK SMILES IDX 1 14 79 15 80 16 90 17 81 19 89 20 82 21 83 22 84 23 88 24
REMARK SMILES IDX 85 26 87 27 86 28 15 29 16 30 17 31 18 32 19 33 20 34 78 35
REMARK SMILES IDX 21 36 77 37 22 38 23 39 24 40 71 41 25 42 76 43 70 44 72 45
REMARK SMILES IDX 26 46 75 47 69 48 68 49 27 51 57 52 38 53 56 54 39 55 42 56
REMARK SMILES IDX 55 57 73 58 40 59 41 60 54 62 74 63 43 64 28 65 29 66 37 67
REMARK SMILES IDX 30 68 36 69 31 70 32 71 33 72 34 73 35 74 58 75 59 76 67 77
REMARK SMILES IDX 60 78 66 79 61 80 62 81 63 82 64 83 65 84 44 85 45 86 53 87
REMARK SMILES IDX 46 88 52 89 47 90 48 91 49 92 50 93 51 94
REMARK H PARENT 79 18 83 25 72 50 42 61
REMARK Flexibility Score: inf
ROOT
ATOM      1  C   UNL     1       2.376  -0.904  -3.701  1.00  0.00     0.274 C 
ENDROOT
BRANCH   1   2
ATOM      2  O   UNL     1       1.751  -0.891  -2.397  1.00  0.00    -0.457 OA
BRANCH   2   3
ATOM      3  C   UNL     1       2.607  -0.623  -1.368  1.00  0.00     0.370 C 
ATOM      4  O   UNL     1       3.740  -0.196  -1.544  1.00  0.00    -0.245 OA
BRANCH   3   5
ATOM      5  C   UNL     1       2.034  -0.997   0.010  1.00  0.00     0.330 C 
BRANCH   5   6
ATOM      6  C   UNL     1       2.309  -2.461   0.416  1.00  0.00     0.063 A 
ATOM      7  C   UNL     1       3.265  -3.307  -0.196  1.00  0.00     0.129 A 
ATOM      8  C   UNL     1       3.538  -4.563   0.356  1.00  0.00     0.047 A 
ATOM      9  C   UNL     1       2.920  -4.972   1.538  1.00  0.00     0.004 A 
ATOM     10  C   UNL     1       1.667  -2.918   1.590  1.00  0.00     0.014 A 
ATOM     11  C   UNL     1       1.984  -4.151   2.154  1.00  0.00     0.001 A 
BRANCH   7  12
ATOM     12  O   UNL     1       3.848  -2.908  -1.367  1.00  0.00    -0.493 OA
BRANCH  12  13
ATOM     13  C   UNL     1       5.245  -3.154  -1.569  1.00  0.00     0.226 C 
ATOM     14  C   UNL     1       6.119  -2.048  -0.998  1.00  0.00     0.049 C 
ENDBRANCH  12  13
ENDBRANCH   7  12
ENDBRANCH   5   6
BRANCH   5  15
ATOM     15  N   UNL     1       2.476  -0.050   1.117  1.00  0.00    -0.319 N 
ATOM     16  C   UNL     1       3.869  -0.280   1.527  1.00  0.00     0.269 C 
ATOM     17  C   UNL     1       2.213   1.366   0.809  1.00  0.00     0.269 C 
ATOM     18  H   UNL     1       1.890  -0.274   1.921  1.00  0.00     0.349 HD
ATOM     19  C   UNL     1       4.288   0.602   2.700  1.00  0.00     0.126 C 
ATOM     20  C   UNL     1       2.707   2.338   1.899  1.00  0.00     0.126 C 
ATOM     21  C   UNL     1       4.178   2.067   2.277  1.00  0.00     0.195 C 
BRANCH  21  22
ATOM     22  N   UNL     1       4.803   3.063   3.176  1.00  0.00    -0.331 N 
ATOM     23  C   UNL     1       6.223   2.739   3.468  1.00  0.00     0.273 C 
ATOM     24  C   UNL     1       4.049   3.349   4.407  1.00  0.00     0.273 C 
ATOM     25  H   UNL     1       4.776   3.933   2.645  1.00  0.00     0.348 HD
ATOM     26  C   UNL     1       7.013   3.820   4.217  1.00  0.00     0.131 C 
ATOM     27  C   UNL     1       4.618   4.516   5.232  1.00  0.00     0.131 C 
ATOM     28  S   UNL     1       6.286   4.155   5.845  1.00  0.00    -0.150 SA
ENDBRANCH  21  22
ENDBRANCH   5  15
ENDBRANCH   3   5
ENDBRANCH   2   3
ENDBRANCH   1   2
BRANCH   1  29
ATOM     29  C   UNL     1       2.541   0.488  -4.325  1.00  0.00     0.275 C 
BRANCH  29  30
ATOM     30  O   UNL     1       3.672   1.184  -3.761  1.00  0.00    -0.458 OA
BRANCH  30  31
ATOM     31  C   UNL     1       3.498   2.509  -3.541  1.00  0.00     0.338 C 
ATOM     32  O   UNL     1       2.524   3.169  -3.866  1.00  0.00    -0.246 OA
BRANCH  31  33
ATOM     33  C   UNL     1       4.654   3.112  -2.830  1.00  0.00     0.060 A 
ATOM     34  C   UNL     1       5.113   2.574  -1.632  1.00  0.00     0.016 A 
ATOM     35  C   UNL     1       5.151   4.350  -3.247  1.00  0.00     0.016 A 
ATOM     36  C   UNL     1       5.957   3.308  -0.804  1.00  0.00     0.010 A 
ATOM     37  C   UNL     1       6.034   5.074  -2.426  1.00  0.00     0.010 A 
ATOM     38  C   UNL     1       6.382   4.590  -1.155  1.00  0.00    -0.014 A 
BRANCH  38  39
ATOM     39  C   UNL     1       6.976   5.451  -0.089  1.00  0.00     0.031 A 
ATOM     40  C   UNL     1       6.172   6.620   0.438  1.00  0.00     0.074 A 
ATOM     41  C   UNL     1       8.098   5.091   0.569  1.00  0.00     0.049 A 
ATOM     42  N   UNL     1       6.499   7.513   1.337  1.00  0.00    -0.248 NA
ATOM     43  C   UNL     1       4.813   6.792  -0.105  1.00  0.00     0.031 C 
ATOM     44  C   UNL     1       8.860   3.865   0.331  1.00  0.00     0.029 A 
ATOM     45  N   UNL     1       8.734   5.669   1.643  1.00  0.00    -0.354 N 
ATOM     46  C   UNL     1       5.428   8.399   1.399  1.00  0.00     0.074 A 
ATOM     47  C   UNL     1       4.419   7.910   0.487  1.00  0.00     0.031 C 
ATOM     48  C   UNL     1       9.769   3.718   1.310  1.00  0.00     0.029 A 
ATOM     49  C   UNL     1       9.735   4.890   2.181  1.00  0.00     0.049 A 
ATOM     50  H   UNL     1       8.497   6.558   1.994  1.00  0.00     0.167 HD
ATOM     51  C   UNL     1       5.311   9.540   2.120  1.00  0.00     0.031 A 
ATOM     52  C   UNL     1      10.521   5.091   3.259  1.00  0.00     0.031 A 
ATOM     53  C   UNL     1       6.294  10.007   3.058  1.00  0.00     0.049 A 
ATOM     54  C   UNL     1      10.407   6.388   4.019  1.00  0.00     0.074 A 
ATOM     55  C   UNL     1       6.348  11.220   3.723  1.00  0.00     0.029 A 
ATOM     56  N   UNL     1       7.378   9.264   3.494  1.00  0.00    -0.354 N 
ATOM     57  N   UNL     1       9.498   7.328   3.922  1.00  0.00    -0.248 NA
ATOM     58  C   UNL     1      11.458   6.667   5.011  1.00  0.00     0.031 C 
ATOM     59  C   UNL     1       7.494  11.228   4.526  1.00  0.00     0.029 A 
ATOM     60  C   UNL     1       8.118   9.998   4.404  1.00  0.00     0.049 A 
ATOM     61  H   UNL     1       7.591   8.349   3.199  1.00  0.00     0.167 HD
ATOM     62  C   UNL     1       9.872   8.310   4.836  1.00  0.00     0.074 A 
ATOM     63  C   UNL     1      11.059   7.829   5.510  1.00  0.00     0.031 C 
ATOM     64  C   UNL     1       9.299   9.516   5.073  1.00  0.00     0.031 A 
BRANCH  51  65
ATOM     65  C   UNL     1       4.146  10.437   1.801  1.00  0.00    -0.014 A 
ATOM     66  C   UNL     1       2.847  10.190   2.272  1.00  0.00     0.010 A 
ATOM     67  C   UNL     1       4.385  11.573   1.004  1.00  0.00     0.010 A 
ATOM     68  C   UNL     1       1.799  11.048   1.921  1.00  0.00     0.020 A 
ATOM     69  C   UNL     1       3.347  12.444   0.670  1.00  0.00     0.020 A 
ATOM     70  C   UNL     1       2.055  12.165   1.116  1.00  0.00     0.054 A 
BRANCH  70  71
ATOM     71  S   UNL     1       0.684  13.267   0.672  1.00  0.00     0.124 S 
ATOM     72  O   UNL     1      -0.032  12.471  -0.322  1.00  0.00    -0.237 OA
ATOM     73  O   UNL     1      -0.007  13.450   1.946  1.00  0.00    -0.237 OA
ATOM     74  O   UNL     1       1.350  14.459   0.152  1.00  0.00    -0.744 OA
ENDBRANCH  70  71
ENDBRANCH  51  65
BRANCH  52  75
ATOM     75  C   UNL     1      11.507   4.059   3.697  1.00  0.00    -0.014 A 
ATOM     76  C   UNL     1      11.411   3.485   4.979  1.00  0.00     0.010 A 
ATOM     77  C   UNL     1      12.573   3.675   2.863  1.00  0.00     0.010 A 
ATOM     78  C   UNL     1      12.372   2.572   5.426  1.00  0.00     0.020 A 
ATOM     79  C   UNL     1      13.514   2.734   3.291  1.00  0.00     0.020 A 
ATOM     80  C   UNL     1      13.420   2.204   4.579  1.00  0.00     0.054 A 
BRANCH  80  81
ATOM     81  S   UNL     1      14.647   0.999   5.155  1.00  0.00     0.124 S 
ATOM     82  O   UNL     1      15.531   1.831   5.965  1.00  0.00    -0.237 OA
ATOM     83  O   UNL     1      13.832   0.035   5.891  1.00  0.00    -0.237 OA
ATOM     84  O   UNL     1      15.227   0.490   3.914  1.00  0.00    -0.744 OA
ENDBRANCH  80  81
ENDBRANCH  52  75
BRANCH  64  85
ATOM     85  C   UNL     1       9.948  10.418   6.091  1.00  0.00    -0.014 A 
ATOM     86  C   UNL     1      11.179  11.042   5.818  1.00  0.00     0.010 A 
ATOM     87  C   UNL     1       9.288  10.707   7.299  1.00  0.00     0.010 A 
ATOM     88  C   UNL     1      11.752  11.915   6.746  1.00  0.00     0.020 A 
ATOM     89  C   UNL     1       9.846  11.601   8.219  1.00  0.00     0.020 A 
ATOM     90  C   UNL     1      11.082  12.190   7.942  1.00  0.00     0.054 A 
BRANCH  90  91
ATOM     91  S   UNL     1      11.821  13.371   9.104  1.00  0.00     0.124 S 
ATOM     92  O   UNL     1      12.906  12.587   9.687  1.00  0.00    -0.237 OA
ATOM     93  O   UNL     1      12.237  14.466   8.231  1.00  0.00    -0.237 OA
ATOM     94  O   UNL     1      10.725  13.693  10.016  1.00  0.00    -0.744 OA
ENDBRANCH  90  91
ENDBRANCH  64  85
ENDBRANCH  38  39
ENDBRANCH  31  33
ENDBRANCH  30  31
ENDBRANCH  29  30
ENDBRANCH   1  29
TORSDOF 19
