REMARK SMILES O=C(OCCOC(=O)c1ccc(-c2c3nc(c(-c4ccc(S(=O)(=O)[O-])cc4)c4ccc([nH]4)c(-c4ccc(S(=O)(=O)[O-])cc4)c4nc(c(-c5ccc(S(=O)(=O)[O-])cc5)c5ccc2[nH]5)C=C4)C=C3)cc1)C1=Cc2cc(Cl)cc(Cl)c2O[C@@H]1C(F)(F)F
REMARK SMILES IDX 5 1 4 2 3 3 2 4 1 5 69 6 70 7 80 8 71 9 79 10 72 11 78 12
REMARK SMILES IDX 73 13 76 14 74 15 75 16 77 17 81 18 82 19 83 20 84 21 6 22
REMARK SMILES IDX 7 23 8 24 9 25 10 26 68 27 11 28 67 29 12 30 13 31 14 32
REMARK SMILES IDX 61 33 15 34 66 35 60 36 62 37 16 38 65 39 59 40 58 41 17 43
REMARK SMILES IDX 47 44 28 45 46 46 29 47 32 48 45 49 63 50 30 51 31 52 44 54
REMARK SMILES IDX 64 55 33 56 18 57 19 58 27 59 20 60 26 61 21 62 22 63 23 64
REMARK SMILES IDX 24 65 25 66 48 67 49 68 57 69 50 70 56 71 51 72 52 73 53 74
REMARK SMILES IDX 54 75 55 76 34 77 35 78 43 79 36 80 42 81 37 82 38 83 39 84
REMARK SMILES IDX 40 85 41 86
REMARK H PARENT 62 42 32 53
REMARK Flexibility Score: inf
ROOT
ATOM      1  C   UNL     1       4.666  -0.310   0.762  1.00  0.00     0.275 C 
ENDROOT
BRANCH   1   2
ATOM      2  C   UNL     1       3.859  -0.085  -1.250  1.00  0.00     0.275 C 
BRANCH   2   3
ATOM      3  O   UNL     1       3.081  -1.163  -2.049  1.00  0.00    -0.459 OA
BRANCH   3   4
ATOM      4  C   UNL     1       3.335  -2.414  -1.648  1.00  0.00     0.338 C 
ATOM      5  O   UNL     1       2.838  -3.457  -1.982  1.00  0.00    -0.246 OA
BRANCH   4   6
ATOM      6  C   UNL     1       4.121  -2.026  -0.504  1.00  0.00     0.087 C 
ATOM      7  C   UNL     1       5.482  -1.610  -0.907  1.00  0.00     0.027 C 
ATOM      8  C   UNL     1       2.789  -0.868   0.285  1.00  0.00     0.316 C 
ATOM      9  C   UNL     1       6.039   0.115  -0.878  1.00  0.00     0.020 A 
ATOM     10  O   UNL     1       3.353   0.973   0.288  1.00  0.00    -0.474 OA
ATOM     11  C   UNL     1       7.212   0.418  -1.512  1.00  0.00     0.032 A 
ATOM     12  C   UNL     1       4.997   1.416  -0.372  1.00  0.00     0.146 A 
ATOM     13  C   UNL     1       7.443   1.791  -1.699  1.00  0.00     0.043 A 
ATOM     14  C   UNL     1       5.325   2.725  -0.591  1.00  0.00     0.085 A 
ATOM     15  Cl  UNL     1       8.875   2.215  -2.585  1.00  0.00    -0.084 Cl
ATOM     16  C   UNL     1       6.564   2.874  -1.268  1.00  0.00     0.045 A 
ATOM     17  Cl  UNL     1       4.359   4.066  -0.205  1.00  0.00    -0.080 Cl
BRANCH   8  18
ATOM     18  C   UNL     1       2.282  -1.834   1.413  1.00  0.00     0.430 C 
ATOM     19  F   UNL     1       1.048  -1.524   1.825  1.00  0.00    -0.167 F 
ATOM     20  F   UNL     1       2.153  -3.082   0.866  1.00  0.00    -0.167 F 
ATOM     21  F   UNL     1       3.109  -2.047   2.450  1.00  0.00    -0.167 F 
ENDBRANCH   8  18
ENDBRANCH   4   6
ENDBRANCH   3   4
ENDBRANCH   2   3
ENDBRANCH   1   2
BRANCH   1  22
ATOM     22  O   UNL     1       3.854   0.061   2.201  1.00  0.00    -0.458 OA
BRANCH  22  23
ATOM     23  C   UNL     1       3.074   1.004   2.812  1.00  0.00     0.338 C 
ATOM     24  O   UNL     1       2.765   2.121   2.446  1.00  0.00    -0.246 OA
BRANCH  23  25
ATOM     25  C   UNL     1       2.364   0.248   3.886  1.00  0.00     0.060 A 
ATOM     26  C   UNL     1       0.979   0.044   3.773  1.00  0.00     0.016 A 
ATOM     27  C   UNL     1       3.119  -0.546   4.754  1.00  0.00     0.016 A 
ATOM     28  C   UNL     1       0.389  -1.073   4.389  1.00  0.00     0.010 A 
ATOM     29  C   UNL     1       2.531  -1.657   5.361  1.00  0.00     0.010 A 
ATOM     30  C   UNL     1       1.172  -1.956   5.151  1.00  0.00    -0.014 A 
BRANCH  30  31
ATOM     31  C   UNL     1       0.524  -2.982   6.007  1.00  0.00     0.031 A 
ATOM     32  C   UNL     1       0.131  -2.495   7.372  1.00  0.00     0.074 A 
ATOM     33  C   UNL     1       0.328  -4.268   5.648  1.00  0.00     0.049 A 
ATOM     34  N   UNL     1      -0.461  -3.125   8.348  1.00  0.00    -0.248 NA
ATOM     35  C   UNL     1       0.483  -1.095   7.680  1.00  0.00     0.031 C 
ATOM     36  C   UNL     1       0.685  -4.875   4.364  1.00  0.00     0.029 A 
ATOM     37  N   UNL     1      -0.229  -5.312   6.356  1.00  0.00    -0.354 N 
ATOM     38  C   UNL     1      -0.560  -2.193   9.372  1.00  0.00     0.074 A 
ATOM     39  C   UNL     1       0.103  -0.989   8.937  1.00  0.00     0.031 C 
ATOM     40  C   UNL     1       0.333  -6.178   4.377  1.00  0.00     0.029 A 
ATOM     41  C   UNL     1      -0.272  -6.507   5.667  1.00  0.00     0.049 A 
ATOM     42  H   UNL     1      -0.568  -5.213   7.275  1.00  0.00     0.167 HD
ATOM     43  C   UNL     1      -1.181  -2.308  10.565  1.00  0.00     0.031 A 
ATOM     44  C   UNL     1      -0.760  -7.711   6.042  1.00  0.00     0.031 A 
ATOM     45  C   UNL     1      -1.802  -3.515  11.013  1.00  0.00     0.049 A 
ATOM     46  C   UNL     1      -1.403  -7.837   7.410  1.00  0.00     0.074 A 
ATOM     47  C   UNL     1      -2.459  -3.756  12.203  1.00  0.00     0.029 A 
ATOM     48  N   UNL     1      -1.825  -4.694  10.284  1.00  0.00    -0.354 N 
ATOM     49  N   UNL     1      -1.566  -6.920   8.338  1.00  0.00    -0.248 NA
ATOM     50  C   UNL     1      -1.953  -9.153   7.771  1.00  0.00     0.031 C 
ATOM     51  C   UNL     1      -2.838  -5.101  12.215  1.00  0.00     0.029 A 
ATOM     52  C   UNL     1      -2.477  -5.675  11.004  1.00  0.00     0.049 A 
ATOM     53  H   UNL     1      -1.436  -4.814   9.388  1.00  0.00     0.167 HD
ATOM     54  C   UNL     1      -2.284  -7.534   9.362  1.00  0.00     0.074 A 
ATOM     55  C   UNL     1      -2.525  -8.898   8.940  1.00  0.00     0.031 C 
ATOM     56  C   UNL     1      -2.718  -7.018  10.541  1.00  0.00     0.031 A 
BRANCH  43  57
ATOM     57  C   UNL     1      -1.171  -1.087  11.439  1.00  0.00    -0.014 A 
ATOM     58  C   UNL     1      -1.885   0.070  11.068  1.00  0.00     0.010 A 
ATOM     59  C   UNL     1      -0.379  -1.065  12.598  1.00  0.00     0.010 A 
ATOM     60  C   UNL     1      -1.757   1.246  11.807  1.00  0.00     0.020 A 
ATOM     61  C   UNL     1      -0.277   0.100  13.360  1.00  0.00     0.020 A 
ATOM     62  C   UNL     1      -0.949   1.254  12.947  1.00  0.00     0.054 A 
BRANCH  62  63
ATOM     63  S   UNL     1      -0.797   2.795  13.889  1.00  0.00     0.124 S 
ATOM     64  O   UNL     1       0.042   3.605  13.009  1.00  0.00    -0.237 OA
ATOM     65  O   UNL     1      -2.186   3.232  14.010  1.00  0.00    -0.237 OA
ATOM     66  O   UNL     1      -0.167   2.376  15.138  1.00  0.00    -0.744 OA
ENDBRANCH  62  63
ENDBRANCH  43  57
BRANCH  44  67
ATOM     67  C   UNL     1      -0.719  -8.897   5.126  1.00  0.00    -0.014 A 
ATOM     68  C   UNL     1      -1.909  -9.446   4.607  1.00  0.00     0.010 A 
ATOM     69  C   UNL     1       0.498  -9.533   4.819  1.00  0.00     0.010 A 
ATOM     70  C   UNL     1      -1.887 -10.615   3.833  1.00  0.00     0.020 A 
ATOM     71  C   UNL     1       0.528 -10.688   4.023  1.00  0.00     0.020 A 
ATOM     72  C   UNL     1      -0.667 -11.231   3.546  1.00  0.00     0.054 A 
BRANCH  72  73
ATOM     73  S   UNL     1      -0.662 -12.733   2.522  1.00  0.00     0.124 S 
ATOM     74  O   UNL     1      -1.250 -13.720   3.421  1.00  0.00    -0.237 OA
ATOM     75  O   UNL     1      -1.490 -12.342   1.384  1.00  0.00    -0.237 OA
ATOM     76  O   UNL     1       0.753 -12.933   2.215  1.00  0.00    -0.744 OA
ENDBRANCH  72  73
ENDBRANCH  44  67
BRANCH  56  77
ATOM     77  C   UNL     1      -3.563  -7.896  11.425  1.00  0.00    -0.014 A 
ATOM     78  C   UNL     1      -3.019  -8.987  12.124  1.00  0.00     0.010 A 
ATOM     79  C   UNL     1      -4.916  -7.559  11.622  1.00  0.00     0.010 A 
ATOM     80  C   UNL     1      -3.824  -9.748  12.976  1.00  0.00     0.020 A 
ATOM     81  C   UNL     1      -5.714  -8.296  12.498  1.00  0.00     0.020 A 
ATOM     82  C   UNL     1      -5.166  -9.397  13.157  1.00  0.00     0.054 A 
BRANCH  82  83
ATOM     83  S   UNL     1      -6.179 -10.375  14.299  1.00  0.00     0.124 S 
ATOM     84  O   UNL     1      -6.395 -11.602  13.538  1.00  0.00    -0.237 OA
ATOM     85  O   UNL     1      -5.313 -10.503  15.468  1.00  0.00    -0.237 OA
ATOM     86  O   UNL     1      -7.369  -9.550  14.501  1.00  0.00    -0.744 OA
ENDBRANCH  82  83
ENDBRANCH  56  77
ENDBRANCH  30  31
ENDBRANCH  23  25
ENDBRANCH  22  23
ENDBRANCH   1  22
TORSDOF 15
