REMARK SMILES CC[C@]1(C(=O)OCCOC(=O)c2ccc(-c3c4nc(c(-c5ccc(S(=O)(=O)[O-])cc5)c5ccc([nH]5)c(-c5ccc(S(=O)(=O)[O-])cc5)c5nc(c(-c6ccc(S(=O)(=O)[O-])cc6)c6ccc3[nH]6)C=C5)C=C4)cc2)CCC[N@@H+]([C@@H]2CCC[C@H](S(C)(=O)=O)C2)C1
REMARK SMILES IDX 8 1 7 2 6 3 4 4 5 5 3 6 72 7 86 8 73 9 75 10 74 11 2 13 1 14
REMARK SMILES IDX 76 15 77 16 85 17 78 18 80 19 79 20 81 21 82 22 83 23 84 24
REMARK SMILES IDX 9 25 10 26 11 27 12 28 13 29 71 30 14 31 70 32 15 33 16 34
REMARK SMILES IDX 17 35 64 36 18 37 69 38 63 39 65 40 19 41 68 42 62 43 61 44
REMARK SMILES IDX 20 46 50 47 31 48 49 49 32 50 35 51 48 52 66 53 33 54 34 55
REMARK SMILES IDX 47 57 67 58 36 59 21 60 22 61 30 62 23 63 29 64 24 65 25 66
REMARK SMILES IDX 26 67 27 68 28 69 51 70 52 71 60 72 53 73 59 74 54 75 55 76
REMARK SMILES IDX 56 77 57 78 58 79 37 80 38 81 46 82 39 83 45 84 40 85 41 86
REMARK SMILES IDX 42 87 43 88 44 89
REMARK H PARENT 75 12 65 45 35 56
REMARK Flexibility Score: inf
ROOT
ATOM      1  C   UNL     1       5.260  -2.587   1.772  1.00  0.00     0.275 C 
ENDROOT
BRANCH   1   2
ATOM      2  C   UNL     1       4.492  -1.706   2.752  1.00  0.00     0.274 C 
BRANCH   2   3
ATOM      3  O   UNL     1       3.076  -1.953   2.620  1.00  0.00    -0.461 OA
BRANCH   3   4
ATOM      4  C   UNL     1       2.323  -0.971   2.051  1.00  0.00     0.317 C 
ATOM      5  O   UNL     1       2.778   0.112   1.706  1.00  0.00    -0.251 OA
BRANCH   4   6
ATOM      6  C   UNL     1       0.827  -1.331   1.999  1.00  0.00     0.117 C 
ATOM      7  C   UNL     1       0.601  -2.861   2.160  1.00  0.00     0.030 C 
ATOM      8  C   UNL     1       0.214  -0.623   3.219  1.00  0.00     0.281 C 
ATOM      9  C   UNL     1      -0.859  -3.205   2.443  1.00  0.00     0.063 C 
ATOM     10  N   UNL     1      -1.221  -0.926   3.350  1.00  0.00    -0.332 N 
ATOM     11  C   UNL     1      -1.431  -2.360   3.587  1.00  0.00     0.262 C 
ATOM     12  H   UNL     1      -1.691  -0.747   2.463  1.00  0.00     0.348 HD
BRANCH   6  13
ATOM     13  C   UNL     1       0.132  -0.871   0.675  1.00  0.00     0.021 C 
ATOM     14  C   UNL     1       0.262   0.596   0.277  1.00  0.00     0.005 C 
ENDBRANCH   6  13
BRANCH  10  15
ATOM     15  C   UNL     1      -1.900  -0.001   4.271  1.00  0.00     0.185 C 
ATOM     16  C   UNL     1      -1.388  -0.054   5.720  1.00  0.00     0.065 C 
ATOM     17  C   UNL     1      -3.428  -0.166   4.207  1.00  0.00     0.084 C 
ATOM     18  C   UNL     1      -2.112   0.962   6.595  1.00  0.00     0.007 C 
ATOM     19  C   UNL     1      -4.168   0.811   5.129  1.00  0.00     0.114 C 
ATOM     20  C   UNL     1      -3.620   0.751   6.558  1.00  0.00     0.020 C 
BRANCH  19  21
ATOM     21  S   UNL     1      -5.935   0.433   5.080  1.00  0.00     0.150 S 
ATOM     22  C   UNL     1      -6.676   1.584   6.210  1.00  0.00     0.158 C 
ATOM     23  O   UNL     1      -6.428   0.771   3.759  1.00  0.00    -0.229 OA
ATOM     24  O   UNL     1      -6.141  -0.894   5.631  1.00  0.00    -0.229 OA
ENDBRANCH  19  21
ENDBRANCH  10  15
ENDBRANCH   4   6
ENDBRANCH   3   4
ENDBRANCH   2   3
ENDBRANCH   1   2
BRANCH   1  25
ATOM     25  O   UNL     1       4.883  -2.211   0.438  1.00  0.00    -0.458 OA
BRANCH  25  26
ATOM     26  C   UNL     1       4.489  -3.211  -0.380  1.00  0.00     0.338 C 
ATOM     27  O   UNL     1       4.545  -4.414  -0.166  1.00  0.00    -0.246 OA
BRANCH  26  28
ATOM     28  C   UNL     1       3.924  -2.619  -1.603  1.00  0.00     0.060 A 
ATOM     29  C   UNL     1       2.894  -1.688  -1.490  1.00  0.00     0.016 A 
ATOM     30  C   UNL     1       4.351  -3.036  -2.860  1.00  0.00     0.016 A 
ATOM     31  C   UNL     1       2.234  -1.218  -2.622  1.00  0.00     0.010 A 
ATOM     32  C   UNL     1       3.752  -2.491  -4.001  1.00  0.00     0.010 A 
ATOM     33  C   UNL     1       2.670  -1.595  -3.895  1.00  0.00    -0.014 A 
BRANCH  33  34
ATOM     34  C   UNL     1       1.984  -1.088  -5.114  1.00  0.00     0.031 A 
ATOM     35  C   UNL     1       1.367  -2.065  -6.079  1.00  0.00     0.074 A 
ATOM     36  C   UNL     1       1.916   0.234  -5.372  1.00  0.00     0.049 A 
ATOM     37  N   UNL     1       0.955  -1.867  -7.304  1.00  0.00    -0.248 NA
ATOM     38  C   UNL     1       1.202  -3.449  -5.604  1.00  0.00     0.031 C 
ATOM     39  C   UNL     1       2.390   1.304  -4.490  1.00  0.00     0.029 A 
ATOM     40  N   UNL     1       1.423   0.905  -6.465  1.00  0.00    -0.354 N 
ATOM     41  C   UNL     1       0.545  -3.112  -7.769  1.00  0.00     0.074 A 
ATOM     42  C   UNL     1       0.743  -4.055  -6.690  1.00  0.00     0.031 C 
ATOM     43  C   UNL     1       2.152   2.491  -5.069  1.00  0.00     0.029 A 
ATOM     44  C   UNL     1       1.600   2.268  -6.400  1.00  0.00     0.049 A 
ATOM     45  H   UNL     1       0.985   0.454  -7.223  1.00  0.00     0.167 HD
ATOM     46  C   UNL     1       0.063  -3.437  -8.992  1.00  0.00     0.031 A 
ATOM     47  C   UNL     1       1.406   3.227  -7.326  1.00  0.00     0.031 A 
ATOM     48  C   UNL     1      -0.170  -2.487 -10.046  1.00  0.00     0.049 A 
ATOM     49  C   UNL     1       0.939   2.834  -8.700  1.00  0.00     0.074 A 
ATOM     50  C   UNL     1      -0.665  -2.717 -11.318  1.00  0.00     0.029 A 
ATOM     51  N   UNL     1       0.065  -1.125  -9.947  1.00  0.00    -0.354 N 
ATOM     52  N   UNL     1       0.617   1.645  -9.151  1.00  0.00    -0.248 NA
ATOM     53  C   UNL     1       0.839   3.907  -9.699  1.00  0.00     0.031 C 
ATOM     54  C   UNL     1      -0.688  -1.498 -12.003  1.00  0.00     0.029 A 
ATOM     55  C   UNL     1      -0.250  -0.504 -11.143  1.00  0.00     0.049 A 
ATOM     56  H   UNL     1       0.405  -0.667  -9.145  1.00  0.00     0.167 HD
ATOM     57  C   UNL     1       0.272   1.829 -10.484  1.00  0.00     0.074 A 
ATOM     58  C   UNL     1       0.404   3.244 -10.763  1.00  0.00     0.031 C 
ATOM     59  C   UNL     1      -0.113   0.906 -11.399  1.00  0.00     0.031 A 
BRANCH  46  60
ATOM     60  C   UNL     1      -0.184  -4.892  -9.279  1.00  0.00    -0.014 A 
ATOM     61  C   UNL     1      -1.304  -5.567  -8.766  1.00  0.00     0.010 A 
ATOM     62  C   UNL     1       0.712  -5.584 -10.116  1.00  0.00     0.010 A 
ATOM     63  C   UNL     1      -1.508  -6.919  -9.060  1.00  0.00     0.020 A 
ATOM     64  C   UNL     1       0.501  -6.929 -10.429  1.00  0.00     0.020 A 
ATOM     65  C   UNL     1      -0.600  -7.593  -9.886  1.00  0.00     0.054 A 
BRANCH  65  66
ATOM     66  S   UNL     1      -0.896  -9.341 -10.272  1.00  0.00     0.124 S 
ATOM     67  O   UNL     1      -0.494  -9.995  -9.029  1.00  0.00    -0.237 OA
ATOM     68  O   UNL     1      -2.327  -9.370 -10.562  1.00  0.00    -0.237 OA
ATOM     69  O   UNL     1      -0.026  -9.594 -11.418  1.00  0.00    -0.744 OA
ENDBRANCH  65  66
ENDBRANCH  46  60
BRANCH  47  70
ATOM     70  C   UNL     1       1.745   4.643  -7.015  1.00  0.00    -0.014 A 
ATOM     71  C   UNL     1       0.737   5.615  -6.897  1.00  0.00     0.010 A 
ATOM     72  C   UNL     1       3.088   5.026  -6.837  1.00  0.00     0.010 A 
ATOM     73  C   UNL     1       1.066   6.946  -6.619  1.00  0.00     0.020 A 
ATOM     74  C   UNL     1       3.419   6.348  -6.532  1.00  0.00     0.020 A 
ATOM     75  C   UNL     1       2.406   7.304  -6.438  1.00  0.00     0.054 A 
BRANCH  75  76
ATOM     76  S   UNL     1       2.814   9.024  -6.031  1.00  0.00     0.124 S 
ATOM     77  O   UNL     1       2.732   9.672  -7.336  1.00  0.00    -0.237 OA
ATOM     78  O   UNL     1       1.767   9.385  -5.078  1.00  0.00    -0.237 OA
ATOM     79  O   UNL     1       4.156   8.928  -5.461  1.00  0.00    -0.744 OA
ENDBRANCH  75  76
ENDBRANCH  47  70
BRANCH  59  80
ATOM     80  C   UNL     1      -0.439   1.398 -12.781  1.00  0.00    -0.014 A 
ATOM     81  C   UNL     1       0.582   1.733 -13.687  1.00  0.00     0.010 A 
ATOM     82  C   UNL     1      -1.781   1.458 -13.200  1.00  0.00     0.010 A 
ATOM     83  C   UNL     1       0.266   2.135 -14.987  1.00  0.00     0.020 A 
ATOM     84  C   UNL     1      -2.099   1.841 -14.505  1.00  0.00     0.020 A 
ATOM     85  C   UNL     1      -1.073   2.185 -15.388  1.00  0.00     0.054 A 
BRANCH  85  86
ATOM     86  S   UNL     1      -1.458   2.648 -17.100  1.00  0.00     0.124 S 
ATOM     87  O   UNL     1      -1.276   4.096 -17.071  1.00  0.00    -0.237 OA
ATOM     88  O   UNL     1      -0.461   1.905 -17.867  1.00  0.00    -0.237 OA
ATOM     89  O   UNL     1      -2.836   2.195 -17.278  1.00  0.00    -0.744 OA
ENDBRANCH  85  86
ENDBRANCH  59  80
ENDBRANCH  33  34
ENDBRANCH  26  28
ENDBRANCH  25  26
ENDBRANCH   1  25
TORSDOF 17
