REMARK SMILES O=C(OCCOC(=O)c1ccc(-c2c3nc(c(-c4ccc(S(=O)(=O)[O-])cc4)c4ccc([nH]4)c(-c4ccc(S(=O)(=O)[O-])cc4)c4nc(c(-c5ccc(S(=O)(=O)[O-])cc5)c5ccc2[nH]5)C=C4)C=C3)cc1)C1=Cc2cc(Cl)cc(C#Cc3ccccc3)c2O[C@@H]1C(F)(F)F
REMARK SMILES IDX 5 1 4 2 3 3 2 4 1 5 69 6 70 7 87 8 71 9 86 10 72 11 85 12
REMARK SMILES IDX 73 13 76 14 74 15 75 16 88 17 89 18 90 19 91 20 77 21 78 22
REMARK SMILES IDX 79 23 80 24 84 25 81 26 83 27 82 28 6 29 7 30 8 31 9 32
REMARK SMILES IDX 10 33 68 34 11 35 67 36 12 37 13 38 14 39 61 40 15 41 66 42
REMARK SMILES IDX 60 43 62 44 16 45 65 46 59 47 58 48 17 50 47 51 28 52 46 53
REMARK SMILES IDX 29 54 32 55 45 56 63 57 30 58 31 59 44 61 64 62 33 63 18 64
REMARK SMILES IDX 19 65 27 66 20 67 26 68 21 69 22 70 23 71 24 72 25 73 48 74
REMARK SMILES IDX 49 75 57 76 50 77 56 78 51 79 52 80 53 81 54 82 55 83 34 84
REMARK SMILES IDX 35 85 43 86 36 87 42 88 37 89 38 90 39 91 40 92 41 93
REMARK H PARENT 62 49 32 60
REMARK Flexibility Score: inf
ROOT
ATOM      1  C   UNL     1       4.681  -0.679  -0.426  1.00  0.00     0.275 C 
ENDROOT
BRANCH   1   2
ATOM      2  C   UNL     1       3.928   1.354  -0.238  1.00  0.00     0.275 C 
BRANCH   2   3
ATOM      3  O   UNL     1       3.173   2.158  -1.339  1.00  0.00    -0.459 OA
BRANCH   3   4
ATOM      4  C   UNL     1       3.422   1.730  -2.582  1.00  0.00     0.338 C 
ATOM      5  O   UNL     1       2.961   2.074  -3.638  1.00  0.00    -0.246 OA
BRANCH   4   6
ATOM      6  C   UNL     1       4.169   0.571  -2.166  1.00  0.00     0.087 C 
ATOM      7  C   UNL     1       5.535   0.953  -1.764  1.00  0.00     0.027 C 
ATOM      8  C   UNL     1       2.825  -0.165  -0.988  1.00  0.00     0.316 C 
ATOM      9  C   UNL     1       6.105   0.921  -0.050  1.00  0.00     0.020 A 
ATOM     10  O   UNL     1       3.401  -0.146   0.856  1.00  0.00    -0.474 OA
ATOM     11  C   UNL     1       7.352   1.423   0.205  1.00  0.00     0.032 A 
ATOM     12  C   UNL     1       5.057   0.491   1.276  1.00  0.00     0.143 A 
ATOM     13  C   UNL     1       7.666   1.545   1.562  1.00  0.00     0.043 A 
ATOM     14  C   UNL     1       5.454   0.688   2.574  1.00  0.00     0.069 A 
ATOM     15  Cl  UNL     1       9.225   2.203   1.948  1.00  0.00    -0.084 Cl
ATOM     16  C   UNL     1       6.781   1.210   2.664  1.00  0.00     0.041 A 
BRANCH   8  17
ATOM     17  C   UNL     1       2.314  -1.304  -1.943  1.00  0.00     0.430 C 
ATOM     18  F   UNL     1       1.115  -1.770  -1.578  1.00  0.00    -0.167 F 
ATOM     19  F   UNL     1       2.096  -0.746  -3.174  1.00  0.00    -0.167 F 
ATOM     20  F   UNL     1       3.171  -2.308  -2.207  1.00  0.00    -0.167 F 
ENDBRANCH   8  17
BRANCH  14  21
ATOM     21  C   UNL     1       4.719   0.574   3.774  1.00  0.00    -0.058 C 
ATOM     22  C   UNL     1       4.321   0.631   4.920  1.00  0.00    -0.062 C 
BRANCH  22  23
ATOM     23  C   UNL     1       4.003   0.739   6.304  1.00  0.00     0.025 A 
ATOM     24  C   UNL     1       3.911   1.991   6.925  1.00  0.00     0.017 A 
ATOM     25  C   UNL     1       3.818  -0.420   7.059  1.00  0.00     0.017 A 
ATOM     26  C   UNL     1       3.604   2.078   8.286  1.00  0.00     0.001 A 
ATOM     27  C   UNL     1       3.512  -0.332   8.418  1.00  0.00     0.001 A 
ATOM     28  C   UNL     1       3.398   0.916   9.030  1.00  0.00     0.000 A 
ENDBRANCH  22  23
ENDBRANCH  14  21
ENDBRANCH   4   6
ENDBRANCH   3   4
ENDBRANCH   2   3
ENDBRANCH   1   2
BRANCH   1  29
ATOM     29  O   UNL     1       3.825  -2.103  -0.051  1.00  0.00    -0.458 OA
BRANCH  29  30
ATOM     30  C   UNL     1       2.978  -2.686   0.853  1.00  0.00     0.338 C 
ATOM     31  O   UNL     1       2.539  -2.258   1.901  1.00  0.00    -0.246 OA
BRANCH  30  32
ATOM     32  C   UNL     1       2.407  -3.863   0.131  1.00  0.00     0.060 A 
ATOM     33  C   UNL     1       1.062  -3.832  -0.271  1.00  0.00     0.016 A 
ATOM     34  C   UNL     1       3.288  -4.770  -0.453  1.00  0.00     0.016 A 
ATOM     35  C   UNL     1       0.676  -4.503  -1.444  1.00  0.00     0.010 A 
ATOM     36  C   UNL     1       2.885  -5.479  -1.581  1.00  0.00     0.010 A 
ATOM     37  C   UNL     1       1.608  -5.285  -2.137  1.00  0.00    -0.014 A 
BRANCH  37  38
ATOM     38  C   UNL     1       1.237  -6.129  -3.300  1.00  0.00     0.031 A 
ATOM     39  C   UNL     1       0.713  -7.489  -2.963  1.00  0.00     0.074 A 
ATOM     40  C   UNL     1       1.532  -5.799  -4.574  1.00  0.00     0.049 A 
ATOM     41  N   UNL     1       0.576  -8.540  -3.722  1.00  0.00    -0.248 NA
ATOM     42  C   UNL     1       0.360  -7.699  -1.549  1.00  0.00     0.031 C 
ATOM     43  C   UNL     1       2.050  -4.509  -5.031  1.00  0.00     0.029 A 
ATOM     44  N   UNL     1       1.473  -6.555  -5.724  1.00  0.00    -0.354 N 
ATOM     45  C   UNL     1       0.168  -9.550  -2.863  1.00  0.00     0.074 A 
ATOM     46  C   UNL     1       0.119  -8.995  -1.531  1.00  0.00     0.031 C 
ATOM     47  C   UNL     1       2.286  -4.573  -6.357  1.00  0.00     0.029 A 
ATOM     48  C   UNL     1       1.973  -5.918  -6.841  1.00  0.00     0.049 A 
ATOM     49  H   UNL     1       1.108  -7.469  -5.747  1.00  0.00     0.167 HD
ATOM     50  C   UNL     1      -0.137 -10.835  -3.151  1.00  0.00     0.031 A 
ATOM     51  C   UNL     1       2.174  -6.381  -8.095  1.00  0.00     0.031 A 
ATOM     52  C   UNL     1      -0.043 -11.393  -4.465  1.00  0.00     0.049 A 
ATOM     53  C   UNL     1       1.831  -7.824  -8.405  1.00  0.00     0.074 A 
ATOM     54  C   UNL     1      -0.338 -12.676  -4.880  1.00  0.00     0.029 A 
ATOM     55  N   UNL     1       0.394 -10.692  -5.580  1.00  0.00    -0.354 N 
ATOM     56  N   UNL     1       1.385  -8.758  -7.597  1.00  0.00    -0.248 NA
ATOM     57  C   UNL     1       2.014  -8.276  -9.794  1.00  0.00     0.031 C 
ATOM     58  C   UNL     1      -0.039 -12.764  -6.243  1.00  0.00     0.029 A 
ATOM     59  C   UNL     1       0.383 -11.518  -6.687  1.00  0.00     0.049 A 
ATOM     60  H   UNL     1       0.671  -9.747  -5.582  1.00  0.00     0.167 HD
ATOM     61  C   UNL     1       1.197  -9.892  -8.384  1.00  0.00     0.074 A 
ATOM     62  C   UNL     1       1.580  -9.530  -9.733  1.00  0.00     0.031 C 
ATOM     63  C   UNL     1       0.743 -11.119  -8.026  1.00  0.00     0.031 A 
BRANCH  50  64
ATOM     64  C   UNL     1      -0.534 -11.691  -1.982  1.00  0.00    -0.014 A 
ATOM     65  C   UNL     1      -1.722 -11.433  -1.270  1.00  0.00     0.010 A 
ATOM     66  C   UNL     1       0.352 -12.674  -1.511  1.00  0.00     0.010 A 
ATOM     67  C   UNL     1      -1.965 -12.069  -0.053  1.00  0.00     0.020 A 
ATOM     68  C   UNL     1       0.090 -13.343  -0.313  1.00  0.00     0.020 A 
ATOM     69  C   UNL     1      -1.047 -13.007   0.426  1.00  0.00     0.054 A 
BRANCH  69  70
ATOM     70  S   UNL     1      -1.351 -13.772   2.040  1.00  0.00     0.124 S 
ATOM     71  O   UNL     1      -0.976 -12.697   2.956  1.00  0.00    -0.237 OA
ATOM     72  O   UNL     1      -2.777 -14.080   1.987  1.00  0.00    -0.237 OA
ATOM     73  O   UNL     1      -0.465 -14.933   2.045  1.00  0.00    -0.744 OA
ENDBRANCH  69  70
ENDBRANCH  50  64
BRANCH  51  74
ATOM     74  C   UNL     1       2.720  -5.489  -9.165  1.00  0.00    -0.014 A 
ATOM     75  C   UNL     1       1.896  -5.049 -10.219  1.00  0.00     0.010 A 
ATOM     76  C   UNL     1       4.066  -5.077  -9.149  1.00  0.00     0.010 A 
ATOM     77  C   UNL     1       2.404  -4.225 -11.232  1.00  0.00     0.020 A 
ATOM     78  C   UNL     1       4.573  -4.234 -10.148  1.00  0.00     0.020 A 
ATOM     79  C   UNL     1       3.739  -3.816 -11.187  1.00  0.00     0.054 A 
BRANCH  79  80
ATOM     80  S   UNL     1       4.353  -2.685 -12.471  1.00  0.00     0.124 S 
ATOM     81  O   UNL     1       4.399  -3.550 -13.646  1.00  0.00    -0.237 OA
ATOM     82  O   UNL     1       3.327  -1.646 -12.492  1.00  0.00    -0.237 OA
ATOM     83  O   UNL     1       5.652  -2.257 -11.959  1.00  0.00    -0.744 OA
ENDBRANCH  79  80
ENDBRANCH  51  74
BRANCH  63  84
ATOM     84  C   UNL     1       0.557 -12.158  -9.101  1.00  0.00    -0.014 A 
ATOM     85  C   UNL     1       1.649 -12.847  -9.654  1.00  0.00     0.010 A 
ATOM     86  C   UNL     1      -0.751 -12.555  -9.439  1.00  0.00     0.010 A 
ATOM     87  C   UNL     1       1.434 -13.921 -10.524  1.00  0.00     0.020 A 
ATOM     88  C   UNL     1      -0.969 -13.643 -10.286  1.00  0.00     0.020 A 
ATOM     89  C   UNL     1       0.127 -14.319 -10.825  1.00  0.00     0.054 A 
BRANCH  89  90
ATOM     90  S   UNL     1      -0.125 -15.784 -11.865  1.00  0.00     0.124 S 
ATOM     91  O   UNL     1       0.241 -15.285 -13.188  1.00  0.00    -0.237 OA
ATOM     92  O   UNL     1       0.798 -16.754 -11.281  1.00  0.00    -0.237 OA
ATOM     93  O   UNL     1      -1.542 -16.097 -11.687  1.00  0.00    -0.744 OA
ENDBRANCH  89  90
ENDBRANCH  63  84
ENDBRANCH  37  38
ENDBRANCH  30  32
ENDBRANCH  29  30
ENDBRANCH   1  29
TORSDOF 17
