REMARK SMILES O=C(OCCOC(=O)c1ccc(-c2c3nc(c(-c4ccc(S(=O)(=O)[O-])cc4)c4ccc([nH]4)c(-c4ccc(S(=O)(=O)[O-])cc4)c4nc(c(-c5ccc(S(=O)(=O)[O-])cc5)c5ccc2[nH]5)C=C4)C=C3)cc1)C1=Cc2c(Cl)ccc(Cl)c2O[C@@H]1C(F)(F)F
REMARK SMILES IDX 5 1 4 2 3 3 2 4 1 5 69 6 70 7 80 8 71 9 79 10 72 11 78 12
REMARK SMILES IDX 73 13 74 14 76 15 75 16 77 17 81 18 82 19 83 20 84 21 6 22
REMARK SMILES IDX 7 23 8 24 9 25 10 26 68 27 11 28 67 29 12 30 13 31 14 32
REMARK SMILES IDX 61 33 15 34 66 35 60 36 62 37 16 38 65 39 59 40 58 41 17 43
REMARK SMILES IDX 47 44 28 45 46 46 29 47 32 48 45 49 63 50 30 51 31 52 44 54
REMARK SMILES IDX 64 55 33 56 18 57 19 58 27 59 20 60 26 61 21 62 22 63 23 64
REMARK SMILES IDX 24 65 25 66 48 67 49 68 57 69 50 70 56 71 51 72 52 73 53 74
REMARK SMILES IDX 54 75 55 76 34 77 35 78 43 79 36 80 42 81 37 82 38 83 39 84
REMARK SMILES IDX 40 85 41 86
REMARK H PARENT 62 42 32 53
REMARK Flexibility Score: inf
ROOT
ATOM      1  C   UNL     1       4.618   0.201   0.826  1.00  0.00     0.275 C 
ENDROOT
BRANCH   1   2
ATOM      2  C   UNL     1       3.853  -1.107  -0.710  1.00  0.00     0.275 C 
BRANCH   2   3
ATOM      3  O   UNL     1       3.066  -2.436  -0.486  1.00  0.00    -0.459 OA
BRANCH   3   4
ATOM      4  C   UNL     1       3.276  -2.982   0.718  1.00  0.00     0.338 C 
ATOM      5  O   UNL     1       2.750  -3.924   1.250  1.00  0.00    -0.246 OA
BRANCH   4   6
ATOM      6  C   UNL     1       4.052  -1.879   1.222  1.00  0.00     0.087 C 
ATOM      7  C   UNL     1       5.426  -1.904   0.670  1.00  0.00     0.029 C 
ATOM      8  C   UNL     1       2.740  -0.508   0.868  1.00  0.00     0.316 C 
ATOM      9  C   UNL     1       6.034  -0.713  -0.567  1.00  0.00     0.037 A 
ATOM     10  O   UNL     1       3.345   0.737  -0.464  1.00  0.00    -0.474 OA
ATOM     11  C   UNL     1       7.239  -0.921  -1.194  1.00  0.00     0.052 A 
ATOM     12  C   UNL     1       5.004   0.547  -1.195  1.00  0.00     0.148 A 
ATOM     13  Cl  UNL     1       8.341  -2.153  -0.744  1.00  0.00    -0.084 Cl
ATOM     14  C   UNL     1       7.506  -0.092  -2.299  1.00  0.00     0.023 A 
ATOM     15  C   UNL     1       5.358   1.311  -2.277  1.00  0.00     0.083 A 
ATOM     16  C   UNL     1       6.622   0.953  -2.808  1.00  0.00     0.026 A 
ATOM     17  Cl  UNL     1       4.402   2.512  -2.998  1.00  0.00    -0.080 Cl
BRANCH   8  18
ATOM     18  C   UNL     1       2.169  -0.315   2.314  1.00  0.00     0.430 C 
ATOM     19  F   UNL     1       0.924   0.184   2.294  1.00  0.00    -0.167 F 
ATOM     20  F   UNL     1       2.033  -1.552   2.879  1.00  0.00    -0.167 F 
ATOM     21  F   UNL     1       2.943   0.336   3.196  1.00  0.00    -0.167 F 
ENDBRANCH   8  18
ENDBRANCH   4   6
ENDBRANCH   3   4
ENDBRANCH   2   3
ENDBRANCH   1   2
BRANCH   1  22
ATOM     22  O   UNL     1       3.811   1.542   1.509  1.00  0.00    -0.458 OA
BRANCH  22  23
ATOM     23  C   UNL     1       3.009   2.616   1.222  1.00  0.00     0.338 C 
ATOM     24  O   UNL     1       2.654   3.061   0.148  1.00  0.00    -0.246 OA
BRANCH  23  25
ATOM     25  C   UNL     1       2.332   2.942   2.514  1.00  0.00     0.060 A 
ATOM     26  C   UNL     1       0.961   2.664   2.644  1.00  0.00     0.016 A 
ATOM     27  C   UNL     1       3.112   3.133   3.655  1.00  0.00     0.016 A 
ATOM     28  C   UNL     1       0.434   2.338   3.907  1.00  0.00     0.010 A 
ATOM     29  C   UNL     1       2.575   2.837   4.911  1.00  0.00     0.010 A 
ATOM     30  C   UNL     1       1.257   2.363   5.042  1.00  0.00    -0.014 A 
BRANCH  30  31
ATOM     31  C   UNL     1       0.713   2.135   6.407  1.00  0.00     0.031 A 
ATOM     32  C   UNL     1       0.179   3.351   7.104  1.00  0.00     0.074 A 
ATOM     33  C   UNL     1       0.765   0.950   7.052  1.00  0.00     0.049 A 
ATOM     34  N   UNL     1      -0.252   3.489   8.327  1.00  0.00    -0.248 NA
ATOM     35  C   UNL     1       0.164   4.590   6.306  1.00  0.00     0.031 C 
ATOM     36  C   UNL     1       1.256  -0.314   6.500  1.00  0.00     0.029 A 
ATOM     37  N   UNL     1       0.410   0.622   8.344  1.00  0.00    -0.354 N 
ATOM     38  C   UNL     1      -0.585   4.831   8.445  1.00  0.00     0.074 A 
ATOM     39  C   UNL     1      -0.255   5.472   7.193  1.00  0.00     0.031 C 
ATOM     40  C   UNL     1       1.183  -1.271   7.448  1.00  0.00     0.029 A 
ATOM     41  C   UNL     1       0.659  -0.693   8.685  1.00  0.00     0.049 A 
ATOM     42  H   UNL     1       0.013   1.270   8.970  1.00  0.00     0.167 HD
ATOM     43  C   UNL     1      -1.132   5.482   9.495  1.00  0.00     0.031 A 
ATOM     44  C   UNL     1       0.487  -1.341   9.860  1.00  0.00     0.031 A 
ATOM     45  C   UNL     1      -1.420   4.865  10.754  1.00  0.00     0.049 A 
ATOM     46  C   UNL     1      -0.070  -0.577  11.046  1.00  0.00     0.074 A 
ATOM     47  C   UNL     1      -1.969   5.436  11.886  1.00  0.00     0.029 A 
ATOM     48  N   UNL     1      -1.168   3.534  11.050  1.00  0.00    -0.354 N 
ATOM     49  N   UNL     1      -0.443   0.680  11.120  1.00  0.00    -0.248 NA
ATOM     50  C   UNL     1      -0.241  -1.323  12.304  1.00  0.00     0.031 C 
ATOM     51  C   UNL     1      -2.009   4.457  12.884  1.00  0.00     0.029 A 
ATOM     52  C   UNL     1      -1.539   3.265  12.353  1.00  0.00     0.049 A 
ATOM     53  H   UNL     1      -0.782   2.879  10.424  1.00  0.00     0.167 HD
ATOM     54  C   UNL     1      -0.930   0.860  12.414  1.00  0.00     0.074 A 
ATOM     55  C   UNL     1      -0.811  -0.416  13.086  1.00  0.00     0.031 C 
ATOM     56  C   UNL     1      -1.435   1.978  12.993  1.00  0.00     0.031 A 
BRANCH  43  57
ATOM     57  C   UNL     1      -1.416   6.942   9.294  1.00  0.00    -0.014 A 
ATOM     58  C   UNL     1      -2.427   7.357   8.406  1.00  0.00     0.010 A 
ATOM     59  C   UNL     1      -0.621   7.905   9.935  1.00  0.00     0.010 A 
ATOM     60  C   UNL     1      -2.594   8.710   8.113  1.00  0.00     0.020 A 
ATOM     61  C   UNL     1      -0.808   9.264   9.669  1.00  0.00     0.020 A 
ATOM     62  C   UNL     1      -1.776   9.654   8.741  1.00  0.00     0.054 A 
BRANCH  62  63
ATOM     63  S   UNL     1      -2.003  11.404   8.329  1.00  0.00     0.124 S 
ATOM     64  O   UNL     1      -1.417  11.477   6.993  1.00  0.00    -0.237 OA
ATOM     65  O   UNL     1      -3.454  11.561   8.386  1.00  0.00    -0.237 OA
ATOM     66  O   UNL     1      -1.262  12.105   9.374  1.00  0.00    -0.744 OA
ENDBRANCH  62  63
ENDBRANCH  43  57
BRANCH  44  67
ATOM     67  C   UNL     1       0.827  -2.793  10.012  1.00  0.00    -0.014 A 
ATOM     68  C   UNL     1      -0.189  -3.746  10.229  1.00  0.00     0.010 A 
ATOM     69  C   UNL     1       2.165  -3.228  10.018  1.00  0.00     0.010 A 
ATOM     70  C   UNL     1       0.125  -5.089  10.478  1.00  0.00     0.020 A 
ATOM     71  C   UNL     1       2.483  -4.576  10.242  1.00  0.00     0.020 A 
ATOM     72  C   UNL     1       1.461  -5.496  10.485  1.00  0.00     0.054 A 
BRANCH  72  73
ATOM     73  S   UNL     1       1.843  -7.247  10.790  1.00  0.00     0.124 S 
ATOM     74  O   UNL     1       1.543  -7.384  12.211  1.00  0.00    -0.237 OA
ATOM     75  O   UNL     1       0.927  -7.933   9.882  1.00  0.00    -0.237 OA
ATOM     76  O   UNL     1       3.257  -7.356  10.436  1.00  0.00    -0.744 OA
ENDBRANCH  72  73
ENDBRANCH  44  67
BRANCH  56  77
ATOM     77  C   UNL     1      -1.958   1.876  14.402  1.00  0.00    -0.014 A 
ATOM     78  C   UNL     1      -1.091   1.767  15.502  1.00  0.00     0.010 A 
ATOM     79  C   UNL     1      -3.342   2.007  14.629  1.00  0.00     0.010 A 
ATOM     80  C   UNL     1      -1.600   1.777  16.804  1.00  0.00     0.020 A 
ATOM     81  C   UNL     1      -3.851   2.046  15.929  1.00  0.00     0.020 A 
ATOM     82  C   UNL     1      -2.976   1.923  17.009  1.00  0.00     0.054 A 
BRANCH  82  83
ATOM     83  S   UNL     1      -3.603   2.013  18.709  1.00  0.00     0.124 S 
ATOM     84  O   UNL     1      -3.488   0.626  19.150  1.00  0.00    -0.237 OA
ATOM     85  O   UNL     1      -2.680   2.953  19.342  1.00  0.00    -0.237 OA
ATOM     86  O   UNL     1      -4.970   2.505  18.550  1.00  0.00    -0.744 OA
ENDBRANCH  82  83
ENDBRANCH  56  77
ENDBRANCH  30  31
ENDBRANCH  23  25
ENDBRANCH  22  23
ENDBRANCH   1  22
TORSDOF 15
