REMARK SMILES COc1ccc(-n2c(SCc3cn(-c4ccc(C(=O)OCCOC(=O)c5ccc(-c6c7nc(c(-c8ccc(S(=O)(=O)[O-])cc8)c8ccc([nH]8)c(-c8ccc(S(=O)(=O)[O-])cc8)c8nc(c(-c9ccc(S(=O)(=O)[O-])cc9)c9ccc6[nH]9)C=C8)C=C7)cc5)cc4)nn3)nc3ccccc3c2=O)cc1
REMARK SMILES IDX 20 1 18 2 19 3 17 4 14 5 15 6 87 7 16 8 86 9 13 10 11 11
REMARK SMILES IDX 12 12 89 13 88 14 10 15 9 16 8 17 7 18 97 19 90 20 96 21
REMARK SMILES IDX 98 22 91 23 95 24 92 25 94 26 93 27 6 28 3 29 4 30 100 31
REMARK SMILES IDX 5 32 99 33 2 34 1 35 21 36 22 37 23 38 24 39 25 40 26 41
REMARK SMILES IDX 27 42 85 43 28 44 84 45 29 46 30 47 31 48 78 49 32 50 83 51
REMARK SMILES IDX 77 52 79 53 33 54 82 55 76 56 75 57 34 59 64 60 45 61 63 62
REMARK SMILES IDX 46 63 49 64 62 65 80 66 47 67 48 68 61 70 81 71 50 72 35 73
REMARK SMILES IDX 36 74 44 75 37 76 43 77 38 78 39 79 40 80 41 81 42 82 65 83
REMARK SMILES IDX 66 84 74 85 67 86 73 87 68 88 69 89 70 90 71 91 72 92 51 93
REMARK SMILES IDX 52 94 60 95 53 96 59 97 54 98 55 99 56 100 57 101 58 102
REMARK H PARENT 79 58 49 69
REMARK Flexibility Score: inf
ROOT
ATOM      1  O   UNL     1      -5.755  -0.320  -4.040  1.00  0.00    -0.458 OA
ENDROOT
BRANCH   1   2
ATOM      2  C   UNL     1      -4.986  -0.149  -5.152  1.00  0.00     0.338 C 
ATOM      3  O   UNL     1      -5.375  -0.084  -6.291  1.00  0.00    -0.246 OA
BRANCH   2   4
ATOM      4  C   UNL     1      -3.569   0.077  -4.755  1.00  0.00     0.060 A 
ATOM      5  C   UNL     1      -0.931   0.619  -4.113  1.00  0.00     0.066 A 
ATOM      6  C   UNL     1      -1.390   0.911  -5.398  1.00  0.00     0.029 A 
ATOM      7  C   UNL     1      -1.771   0.078  -3.136  1.00  0.00     0.029 A 
ATOM      8  C   UNL     1      -2.722   0.664  -5.708  1.00  0.00     0.018 A 
ATOM      9  C   UNL     1      -3.091  -0.213  -3.470  1.00  0.00     0.018 A 
BRANCH   5  10
ATOM     10  N   UNL     1       0.443   0.689  -3.869  1.00  0.00    -0.220 N 
ATOM     11  C   UNL     1       2.515   0.061  -3.745  1.00  0.00     0.093 A 
ATOM     12  C   UNL     1       1.360  -0.136  -4.461  1.00  0.00     0.141 A 
ATOM     13  N   UNL     1       2.282   1.020  -2.792  1.00  0.00    -0.134 NA
ATOM     14  N   UNL     1       0.999   1.351  -2.841  1.00  0.00    -0.062 NA
BRANCH  11  15
ATOM     15  C   UNL     1       3.820  -0.620  -3.785  1.00  0.00     0.138 C 
BRANCH  15  16
ATOM     16  S   UNL     1       4.254  -1.401  -5.324  1.00  0.00    -0.081 SA
BRANCH  16  17
ATOM     17  C   UNL     1       2.978  -2.577  -5.718  1.00  0.00     0.176 A 
ATOM     18  N   UNL     1       2.934  -3.716  -4.928  1.00  0.00    -0.255 N 
ATOM     19  C   UNL     1       3.311  -4.920  -5.512  1.00  0.00     0.266 A 
ATOM     20  N   UNL     1       2.733  -2.650  -6.992  1.00  0.00    -0.223 NA
ATOM     21  C   UNL     1       3.961  -4.746  -6.838  1.00  0.00     0.066 A 
ATOM     22  O   UNL     1       3.190  -6.042  -5.032  1.00  0.00    -0.268 OA
ATOM     23  C   UNL     1       3.560  -3.626  -7.582  1.00  0.00     0.079 A 
ATOM     24  C   UNL     1       5.077  -5.490  -7.213  1.00  0.00     0.016 A 
ATOM     25  C   UNL     1       4.235  -3.293  -8.754  1.00  0.00     0.029 A 
ATOM     26  C   UNL     1       5.803  -5.092  -8.338  1.00  0.00     0.001 A 
ATOM     27  C   UNL     1       5.373  -4.011  -9.117  1.00  0.00     0.002 A 
BRANCH  18  28
ATOM     28  C   UNL     1       2.194  -3.687  -3.721  1.00  0.00     0.052 A 
ATOM     29  C   UNL     1       0.891  -2.777  -1.437  1.00  0.00     0.119 A 
ATOM     30  C   UNL     1       0.148  -3.057  -2.581  1.00  0.00     0.048 A 
ATOM     31  C   UNL     1       2.242  -3.120  -1.379  1.00  0.00     0.048 A 
ATOM     32  C   UNL     1       0.804  -3.489  -3.738  1.00  0.00     0.030 A 
ATOM     33  C   UNL     1       2.890  -3.603  -2.516  1.00  0.00     0.030 A 
BRANCH  29  34
ATOM     34  O   UNL     1       0.264  -2.189  -0.373  1.00  0.00    -0.497 OA
ATOM     35  C   UNL     1       0.789  -0.878  -0.114  1.00  0.00     0.278 C 
ENDBRANCH  29  34
ENDBRANCH  18  28
ENDBRANCH  16  17
ENDBRANCH  15  16
ENDBRANCH  11  15
ENDBRANCH   5  10
ENDBRANCH   2   4
ENDBRANCH   1   2
BRANCH   1  36
ATOM     36  C   UNL     1      -7.156  -0.081  -4.232  1.00  0.00     0.275 C 
BRANCH  36  37
ATOM     37  C   UNL     1      -7.494   1.375  -3.942  1.00  0.00     0.275 C 
BRANCH  37  38
ATOM     38  O   UNL     1      -6.920   2.256  -4.910  1.00  0.00    -0.458 OA
BRANCH  38  39
ATOM     39  C   UNL     1      -5.758   2.834  -4.526  1.00  0.00     0.338 C 
ATOM     40  O   UNL     1      -4.987   2.435  -3.669  1.00  0.00    -0.246 OA
BRANCH  39  41
ATOM     41  C   UNL     1      -5.661   4.171  -5.117  1.00  0.00     0.060 A 
ATOM     42  C   UNL     1      -4.452   4.859  -4.982  1.00  0.00     0.016 A 
ATOM     43  C   UNL     1      -6.838   4.816  -5.523  1.00  0.00     0.016 A 
ATOM     44  C   UNL     1      -4.457   6.233  -5.120  1.00  0.00     0.010 A 
ATOM     45  C   UNL     1      -6.845   6.186  -5.637  1.00  0.00     0.010 A 
ATOM     46  C   UNL     1      -5.670   6.884  -5.373  1.00  0.00    -0.014 A 
BRANCH  46  47
ATOM     47  C   UNL     1      -5.673   8.328  -5.463  1.00  0.00     0.031 A 
ATOM     48  C   UNL     1      -5.090   8.842  -6.720  1.00  0.00     0.074 A 
ATOM     49  C   UNL     1      -6.285   9.121  -4.565  1.00  0.00     0.049 A 
ATOM     50  N   UNL     1      -3.973   9.470  -6.870  1.00  0.00    -0.248 NA
ATOM     51  C   UNL     1      -5.751   8.469  -7.980  1.00  0.00     0.031 C 
ATOM     52  C   UNL     1      -7.168   8.732  -3.464  1.00  0.00     0.029 A 
ATOM     53  N   UNL     1      -6.336  10.478  -4.538  1.00  0.00    -0.354 N 
ATOM     54  C   UNL     1      -3.886   9.754  -8.227  1.00  0.00     0.074 A 
ATOM     55  C   UNL     1      -4.893   8.953  -8.877  1.00  0.00     0.031 C 
ATOM     56  C   UNL     1      -7.846   9.823  -3.037  1.00  0.00     0.029 A 
ATOM     57  C   UNL     1      -7.346  10.995  -3.740  1.00  0.00     0.049 A 
ATOM     58  H   UNL     1      -5.710  11.047  -5.043  1.00  0.00     0.167 HD
ATOM     59  C   UNL     1      -3.164  10.809  -8.693  1.00  0.00     0.031 A 
ATOM     60  C   UNL     1      -7.783  12.280  -3.733  1.00  0.00     0.031 A 
ATOM     61  C   UNL     1      -2.301  11.359  -7.682  1.00  0.00     0.049 A 
ATOM     62  C   UNL     1      -6.715  13.114  -4.343  1.00  0.00     0.074 A 
ATOM     63  C   UNL     1      -1.253  10.871  -6.927  1.00  0.00     0.029 A 
ATOM     64  N   UNL     1      -2.738  12.497  -7.044  1.00  0.00    -0.354 N 
ATOM     65  N   UNL     1      -5.550  13.308  -3.791  1.00  0.00    -0.248 NA
ATOM     66  C   UNL     1      -6.771  13.371  -5.775  1.00  0.00     0.031 C 
ATOM     67  C   UNL     1      -1.413  11.471  -5.644  1.00  0.00     0.029 A 
ATOM     68  C   UNL     1      -2.510  12.334  -5.702  1.00  0.00     0.049 A 
ATOM     69  H   UNL     1      -3.142  13.286  -7.474  1.00  0.00     0.167 HD
ATOM     70  C   UNL     1      -4.646  13.286  -4.844  1.00  0.00     0.074 A 
ATOM     71  C   UNL     1      -5.463  13.427  -6.046  1.00  0.00     0.031 C 
ATOM     72  C   UNL     1      -3.355  12.878  -4.659  1.00  0.00     0.031 A 
BRANCH  59  73
ATOM     73  C   UNL     1      -3.538  11.585  -9.928  1.00  0.00    -0.014 A 
ATOM     74  C   UNL     1      -2.663  12.585 -10.393  1.00  0.00     0.010 A 
ATOM     75  C   UNL     1      -4.833  11.553 -10.485  1.00  0.00     0.010 A 
ATOM     76  C   UNL     1      -3.087  13.542 -11.324  1.00  0.00     0.020 A 
ATOM     77  C   UNL     1      -5.250  12.471 -11.448  1.00  0.00     0.020 A 
ATOM     78  C   UNL     1      -4.384  13.482 -11.836  1.00  0.00     0.054 A 
BRANCH  78  79
ATOM     79  S   UNL     1      -4.955  14.778 -12.959  1.00  0.00     0.124 S 
ATOM     80  O   UNL     1      -4.977  15.946 -12.083  1.00  0.00    -0.237 OA
ATOM     81  O   UNL     1      -3.919  14.774 -13.988  1.00  0.00    -0.237 OA
ATOM     82  O   UNL     1      -6.264  14.298 -13.398  1.00  0.00    -0.744 OA
ENDBRANCH  78  79
ENDBRANCH  59  73
BRANCH  60  83
ATOM     83  C   UNL     1      -9.172  12.770  -3.545  1.00  0.00    -0.014 A 
ATOM     84  C   UNL     1      -9.436  14.139  -3.353  1.00  0.00     0.010 A 
ATOM     85  C   UNL     1     -10.266  11.928  -3.837  1.00  0.00     0.010 A 
ATOM     86  C   UNL     1     -10.733  14.656  -3.517  1.00  0.00     0.020 A 
ATOM     87  C   UNL     1     -11.562  12.434  -3.991  1.00  0.00     0.020 A 
ATOM     88  C   UNL     1     -11.785  13.802  -3.857  1.00  0.00     0.054 A 
BRANCH  88  89
ATOM     89  S   UNL     1     -13.415  14.500  -4.257  1.00  0.00     0.124 S 
ATOM     90  O   UNL     1     -13.894  14.940  -2.950  1.00  0.00    -0.237 OA
ATOM     91  O   UNL     1     -13.083  15.563  -5.201  1.00  0.00    -0.237 OA
ATOM     92  O   UNL     1     -14.141  13.369  -4.835  1.00  0.00    -0.744 OA
ENDBRANCH  88  89
ENDBRANCH  60  83
BRANCH  72  93
ATOM     93  C   UNL     1      -2.834  12.753  -3.246  1.00  0.00    -0.014 A 
ATOM     94  C   UNL     1      -3.375  11.879  -2.283  1.00  0.00     0.010 A 
ATOM     95  C   UNL     1      -1.648  13.441  -2.935  1.00  0.00     0.010 A 
ATOM     96  C   UNL     1      -2.759  11.722  -1.032  1.00  0.00     0.020 A 
ATOM     97  C   UNL     1      -1.019  13.275  -1.700  1.00  0.00     0.020 A 
ATOM     98  C   UNL     1      -1.582  12.423  -0.750  1.00  0.00     0.054 A 
BRANCH  98  99
ATOM     99  S   UNL     1      -0.761  12.184   0.851  1.00  0.00     0.124 S 
ATOM    100  O   UNL     1      -1.689  12.818   1.782  1.00  0.00    -0.237 OA
ATOM    101  O   UNL     1      -0.662  10.730   0.953  1.00  0.00    -0.237 OA
ATOM    102  O   UNL     1       0.520  12.872   0.692  1.00  0.00    -0.744 OA
ENDBRANCH  98  99
ENDBRANCH  72  93
ENDBRANCH  46  47
ENDBRANCH  39  41
ENDBRANCH  38  39
ENDBRANCH  37  38
ENDBRANCH  36  37
ENDBRANCH   1  36
TORSDOF 20
