REMARK SMILES CC[C@@H](C(=O)OCCOC(=O)c1ccc(-c2c3nc(c(-c4ccc(S(=O)(=O)[O-])cc4)c4ccc([nH]4)c(-c4ccc(S(=O)(=O)[O-])cc4)c4nc(c(-c5ccc(S(=O)(=O)[O-])cc5)c5ccc2[nH]5)C=C4)C=C3)cc1)N(C)C(=O)N(C)C[C@@H]1CCC[N@H+]1C
REMARK SMILES IDX 7 1 6 2 4 3 5 4 3 5 2 6 1 7 72 8 73 9 74 10 75 11 76 12
REMARK SMILES IDX 77 13 78 14 79 15 80 16 83 17 81 18 82 19 84 20 8 22 9 23
REMARK SMILES IDX 10 24 11 25 12 26 13 27 71 28 14 29 70 30 15 31 16 32 17 33
REMARK SMILES IDX 64 34 18 35 69 36 63 37 65 38 19 39 68 40 62 41 61 42 20 44
REMARK SMILES IDX 50 45 31 46 49 47 32 48 35 49 48 50 66 51 33 52 34 53 47 55
REMARK SMILES IDX 67 56 36 57 21 58 22 59 30 60 23 61 29 62 24 63 25 64 26 65
REMARK SMILES IDX 27 66 28 67 51 68 52 69 60 70 53 71 59 72 54 73 55 74 56 75
REMARK SMILES IDX 57 76 58 77 37 78 38 79 46 80 39 81 45 82 40 83 41 84 42 85
REMARK SMILES IDX 43 86 44 87
REMARK H PARENT 83 21 65 43 35 54
REMARK Flexibility Score: inf
ROOT
ATOM      1  C   UNL     1      -0.269 -12.544  -0.020  1.00  0.00     0.274 C 
ENDROOT
BRANCH   1   2
ATOM      2  O   UNL     1      -1.468 -12.027  -0.636  1.00  0.00    -0.461 OA
BRANCH   2   3
ATOM      3  C   UNL     1      -2.483 -11.737   0.232  1.00  0.00     0.329 C 
ATOM      4  O   UNL     1      -2.426 -11.944   1.424  1.00  0.00    -0.250 OA
BRANCH   3   5
ATOM      5  C   UNL     1      -3.748 -11.152  -0.448  1.00  0.00     0.196 C 
BRANCH   5   6
ATOM      6  C   UNL     1      -3.945 -11.408  -1.948  1.00  0.00     0.034 C 
ATOM      7  C   UNL     1      -3.797 -12.883  -2.334  1.00  0.00     0.007 C 
ENDBRANCH   5   6
BRANCH   5   8
ATOM      8  N   UNL     1      -4.169  -9.797   0.059  1.00  0.00    -0.314 N 
ATOM      9  C   UNL     1      -4.882  -9.922   1.341  1.00  0.00     0.149 C 
BRANCH   8  10
ATOM     10  C   UNL     1      -3.769  -8.594  -0.616  1.00  0.00     0.320 C 
ATOM     11  O   UNL     1      -2.947  -8.637  -1.531  1.00  0.00    -0.248 OA
BRANCH  10  12
ATOM     12  N   UNL     1      -4.429  -7.354  -0.309  1.00  0.00    -0.322 N 
ATOM     13  C   UNL     1      -5.821  -7.538   0.063  1.00  0.00     0.149 C 
BRANCH  12  14
ATOM     14  C   UNL     1      -4.096  -6.005  -1.067  1.00  0.00     0.185 C 
BRANCH  14  15
ATOM     15  C   UNL     1      -3.278  -4.492  -0.768  1.00  0.00     0.203 C 
ATOM     16  C   UNL     1      -2.506  -3.867   0.462  1.00  0.00     0.073 C 
ATOM     17  N   UNL     1      -4.047  -3.279  -1.170  1.00  0.00    -0.333 N 
ATOM     18  C   UNL     1      -2.601  -2.361   0.458  1.00  0.00     0.068 C 
ATOM     19  C   UNL     1      -3.236  -2.082  -0.861  1.00  0.00     0.262 C 
ATOM     20  C   UNL     1      -4.422  -3.230  -2.573  1.00  0.00     0.333 C 
ATOM     21  H   UNL     1      -4.919  -3.311  -0.643  1.00  0.00     0.348 HD
ENDBRANCH  14  15
ENDBRANCH  12  14
ENDBRANCH  10  12
ENDBRANCH   8  10
ENDBRANCH   5   8
ENDBRANCH   3   5
ENDBRANCH   2   3
ENDBRANCH   1   2
BRANCH   1  22
ATOM     22  C   UNL     1       0.681 -11.428   0.429  1.00  0.00     0.275 C 
BRANCH  22  23
ATOM     23  O   UNL     1       0.068 -10.600   1.452  1.00  0.00    -0.458 OA
BRANCH  23  24
ATOM     24  C   UNL     1      -0.545  -9.523   0.913  1.00  0.00     0.338 C 
ATOM     25  O   UNL     1      -0.469  -9.252  -0.285  1.00  0.00    -0.246 OA
BRANCH  24  26
ATOM     26  C   UNL     1      -1.337  -8.630   1.808  1.00  0.00     0.060 A 
ATOM     27  C   UNL     1      -2.231  -8.915   2.848  1.00  0.00     0.016 A 
ATOM     28  C   UNL     1      -1.399  -7.361   1.308  1.00  0.00     0.016 A 
ATOM     29  C   UNL     1      -3.226  -7.930   3.290  1.00  0.00     0.010 A 
ATOM     30  C   UNL     1      -2.428  -6.508   1.712  1.00  0.00     0.010 A 
ATOM     31  C   UNL     1      -3.392  -6.660   2.692  1.00  0.00    -0.014 A 
BRANCH  31  32
ATOM     32  C   UNL     1      -4.289  -5.442   3.146  1.00  0.00     0.031 A 
ATOM     33  C   UNL     1      -5.185  -4.391   2.341  1.00  0.00     0.074 A 
ATOM     34  C   UNL     1      -4.133  -5.032   4.418  1.00  0.00     0.049 A 
ATOM     35  N   UNL     1      -5.300  -3.067   2.451  1.00  0.00    -0.248 NA
ATOM     36  C   UNL     1      -6.156  -4.875   1.374  1.00  0.00     0.031 C 
ATOM     37  C   UNL     1      -3.352  -5.714   5.438  1.00  0.00     0.029 A 
ATOM     38  N   UNL     1      -4.626  -3.913   5.052  1.00  0.00    -0.354 N 
ATOM     39  C   UNL     1      -6.100  -2.607   1.369  1.00  0.00     0.074 A 
ATOM     40  C   UNL     1      -6.553  -3.799   0.700  1.00  0.00     0.031 C 
ATOM     41  C   UNL     1      -3.465  -5.044   6.588  1.00  0.00     0.029 A 
ATOM     42  C   UNL     1      -4.238  -3.825   6.361  1.00  0.00     0.049 A 
ATOM     43  H   UNL     1      -5.199  -3.246   4.609  1.00  0.00     0.167 HD
ATOM     44  C   UNL     1      -6.517  -1.352   1.003  1.00  0.00     0.031 A 
ATOM     45  C   UNL     1      -4.429  -2.875   7.292  1.00  0.00     0.031 A 
ATOM     46  C   UNL     1      -6.582  -0.234   1.921  1.00  0.00     0.049 A 
ATOM     47  C   UNL     1      -5.166  -1.605   7.014  1.00  0.00     0.074 A 
ATOM     48  C   UNL     1      -7.065   1.053   1.705  1.00  0.00     0.029 A 
ATOM     49  N   UNL     1      -6.330  -0.329   3.273  1.00  0.00    -0.354 N 
ATOM     50  N   UNL     1      -5.573  -1.119   5.871  1.00  0.00    -0.248 NA
ATOM     51  C   UNL     1      -5.473  -0.758   8.176  1.00  0.00     0.031 C 
ATOM     52  C   UNL     1      -7.142   1.718   2.934  1.00  0.00     0.029 A 
ATOM     53  C   UNL     1      -6.736   0.830   3.911  1.00  0.00     0.049 A 
ATOM     54  H   UNL     1      -5.922  -1.107   3.719  1.00  0.00     0.167 HD
ATOM     55  C   UNL     1      -6.191   0.089   6.181  1.00  0.00     0.074 A 
ATOM     56  C   UNL     1      -6.133   0.246   7.615  1.00  0.00     0.031 C 
ATOM     57  C   UNL     1      -6.739   0.992   5.335  1.00  0.00     0.031 A 
BRANCH  44  58
ATOM     58  C   UNL     1      -6.981  -1.026  -0.429  1.00  0.00    -0.014 A 
ATOM     59  C   UNL     1      -8.180  -1.460  -1.016  1.00  0.00     0.010 A 
ATOM     60  C   UNL     1      -6.230  -0.061  -1.151  1.00  0.00     0.010 A 
ATOM     61  C   UNL     1      -8.571  -1.004  -2.294  1.00  0.00     0.020 A 
ATOM     62  C   UNL     1      -6.620   0.416  -2.410  1.00  0.00     0.020 A 
ATOM     63  C   UNL     1      -7.782  -0.079  -2.989  1.00  0.00     0.054 A 
BRANCH  63  64
ATOM     64  S   UNL     1      -8.312   0.542  -4.615  1.00  0.00     0.124 S 
ATOM     65  O   UNL     1      -7.765  -0.468  -5.517  1.00  0.00    -0.237 OA
ATOM     66  O   UNL     1      -9.769   0.561  -4.507  1.00  0.00    -0.237 OA
ATOM     67  O   UNL     1      -7.684   1.859  -4.702  1.00  0.00    -0.744 OA
ENDBRANCH  63  64
ENDBRANCH  44  58
BRANCH  45  68
ATOM     68  C   UNL     1      -3.921  -3.165   8.648  1.00  0.00    -0.014 A 
ATOM     69  C   UNL     1      -4.809  -3.666   9.614  1.00  0.00     0.010 A 
ATOM     70  C   UNL     1      -2.546  -3.080   8.923  1.00  0.00     0.010 A 
ATOM     71  C   UNL     1      -4.324  -4.082  10.848  1.00  0.00     0.020 A 
ATOM     72  C   UNL     1      -2.057  -3.528  10.147  1.00  0.00     0.020 A 
ATOM     73  C   UNL     1      -2.951  -4.019  11.103  1.00  0.00     0.054 A 
BRANCH  73  74
ATOM     74  S   UNL     1      -2.330  -4.671  12.672  1.00  0.00     0.124 S 
ATOM     75  O   UNL     1      -2.585  -3.557  13.579  1.00  0.00    -0.237 OA
ATOM     76  O   UNL     1      -3.158  -5.857  12.876  1.00  0.00    -0.237 OA
ATOM     77  O   UNL     1      -0.923  -4.946  12.390  1.00  0.00    -0.744 OA
ENDBRANCH  73  74
ENDBRANCH  45  68
BRANCH  57  78
ATOM     78  C   UNL     1      -7.405   2.203   5.923  1.00  0.00    -0.014 A 
ATOM     79  C   UNL     1      -6.651   3.279   6.421  1.00  0.00     0.010 A 
ATOM     80  C   UNL     1      -8.809   2.276   5.950  1.00  0.00     0.010 A 
ATOM     81  C   UNL     1      -7.292   4.393   6.972  1.00  0.00     0.020 A 
ATOM     82  C   UNL     1      -9.454   3.394   6.487  1.00  0.00     0.020 A 
ATOM     83  C   UNL     1      -8.689   4.440   7.010  1.00  0.00     0.054 A 
BRANCH  83  84
ATOM     84  S   UNL     1      -9.495   5.902   7.720  1.00  0.00     0.124 S 
ATOM     85  O   UNL     1      -9.263   5.713   9.149  1.00  0.00    -0.237 OA
ATOM     86  O   UNL     1      -8.761   7.005   7.104  1.00  0.00    -0.237 OA
ATOM     87  O   UNL     1     -10.887   5.773   7.293  1.00  0.00    -0.744 OA
ENDBRANCH  83  84
ENDBRANCH  57  78
ENDBRANCH  31  32
ENDBRANCH  24  26
ENDBRANCH  23  24
ENDBRANCH  22  23
ENDBRANCH   1  22
TORSDOF 20
