REMARK SMILES O=C(OCCOC(=O)c1ccc(-n2cc(CSc3nc4ccccc4c(=O)n3-c3ccc(Cl)cc3)nn2)cc1)c1ccc(-c2c3nc(c(-c4ccc(S(=O)(=O)[O-])cc4)c4ccc([nH]4)c(-c4ccc(S(=O)(=O)[O-])cc4)c4nc(c(-c5ccc(S(=O)(=O)[O-])cc5)c5ccc2[nH]5)C=C4)C=C3)cc1
REMARK SMILES IDX 5 1 4 2 3 3 2 4 1 5 40 6 41 7 99 8 42 9 98 10 43 11 44 12
REMARK SMILES IDX 45 13 92 14 46 15 97 16 91 17 93 18 47 19 96 20 90 21 89 22
REMARK SMILES IDX 48 24 78 25 59 26 77 27 60 28 63 29 76 30 94 31 61 32 62 33
REMARK SMILES IDX 75 35 95 36 64 37 49 38 50 39 58 40 51 41 57 42 52 43 53 44
REMARK SMILES IDX 54 45 55 46 56 47 79 48 80 49 88 50 81 51 87 52 82 53 83 54
REMARK SMILES IDX 84 55 85 56 86 57 65 58 66 59 74 60 67 61 73 62 68 63 69 64
REMARK SMILES IDX 70 65 71 66 72 67 6 68 7 69 8 70 9 71 10 72 39 73 11 74
REMARK SMILES IDX 38 75 12 76 13 77 14 78 37 79 15 80 36 81 16 82 17 83 18 84
REMARK SMILES IDX 19 85 28 86 20 87 26 88 21 89 25 90 27 91 22 92 24 93 23 94
REMARK SMILES IDX 29 95 30 96 35 97 31 98 34 99 32 100 33 101
REMARK H PARENT 93 23 63 34
REMARK Flexibility Score: inf
ROOT
ATOM      1  C   UNL     1       4.340  -1.324   0.267  1.00  0.00     0.275 C 
ENDROOT
BRANCH   1   2
ATOM      2  C   UNL     1       4.532   0.045   0.920  1.00  0.00     0.275 C 
BRANCH   2   3
ATOM      3  O   UNL     1       3.350   0.823   1.206  1.00  0.00    -0.458 OA
BRANCH   3   4
ATOM      4  C   UNL     1       2.267   0.705   0.408  1.00  0.00     0.338 C 
ATOM      5  O   UNL     1       1.375  -0.110   0.580  1.00  0.00    -0.246 OA
BRANCH   4   6
ATOM      6  C   UNL     1       2.156   1.829  -0.554  1.00  0.00     0.060 A 
ATOM      7  C   UNL     1       3.277   2.497  -1.054  1.00  0.00     0.016 A 
ATOM      8  C   UNL     1       0.873   2.207  -0.975  1.00  0.00     0.016 A 
ATOM      9  C   UNL     1       3.110   3.575  -1.913  1.00  0.00     0.010 A 
ATOM     10  C   UNL     1       0.708   3.278  -1.847  1.00  0.00     0.010 A 
ATOM     11  C   UNL     1       1.824   3.988  -2.287  1.00  0.00    -0.014 A 
BRANCH  11  12
ATOM     12  C   UNL     1       1.705   5.109  -3.218  1.00  0.00     0.031 A 
ATOM     13  C   UNL     1       2.400   4.923  -4.522  1.00  0.00     0.074 A 
ATOM     14  C   UNL     1       0.961   6.216  -3.012  1.00  0.00     0.049 A 
ATOM     15  N   UNL     1       3.500   5.475  -4.918  1.00  0.00    -0.248 NA
ATOM     16  C   UNL     1       1.871   3.913  -5.446  1.00  0.00     0.031 C 
ATOM     17  C   UNL     1      -0.007   6.488  -1.949  1.00  0.00     0.029 A 
ATOM     18  N   UNL     1       0.866   7.326  -3.799  1.00  0.00    -0.354 N 
ATOM     19  C   UNL     1       3.702   5.040  -6.226  1.00  0.00     0.074 A 
ATOM     20  C   UNL     1       2.762   3.970  -6.438  1.00  0.00     0.031 C 
ATOM     21  C   UNL     1      -0.745   7.575  -2.281  1.00  0.00     0.029 A 
ATOM     22  C   UNL     1      -0.197   8.166  -3.491  1.00  0.00     0.049 A 
ATOM     23  H   UNL     1       1.501   7.517  -4.526  1.00  0.00     0.167 HD
ATOM     24  C   UNL     1       4.482   5.727  -7.109  1.00  0.00     0.031 A 
ATOM     25  C   UNL     1      -0.607   9.251  -4.197  1.00  0.00     0.031 A 
ATOM     26  C   UNL     1       5.274   6.732  -6.450  1.00  0.00     0.049 A 
ATOM     27  C   UNL     1       0.541   9.701  -5.021  1.00  0.00     0.074 A 
ATOM     28  C   UNL     1       6.227   6.721  -5.450  1.00  0.00     0.029 A 
ATOM     29  N   UNL     1       4.828   8.030  -6.532  1.00  0.00    -0.354 N 
ATOM     30  N   UNL     1       1.628  10.209  -4.511  1.00  0.00    -0.248 NA
ATOM     31  C   UNL     1       0.671   9.178  -6.371  1.00  0.00     0.031 C 
ATOM     32  C   UNL     1       5.921   7.862  -4.652  1.00  0.00     0.029 A 
ATOM     33  C   UNL     1       4.866   8.543  -5.262  1.00  0.00     0.049 A 
ATOM     34  H   UNL     1       4.538   8.501  -7.347  1.00  0.00     0.167 HD
ATOM     35  C   UNL     1       2.657   9.678  -5.273  1.00  0.00     0.074 A 
ATOM     36  C   UNL     1       2.003   9.126  -6.459  1.00  0.00     0.031 C 
ATOM     37  C   UNL     1       3.906   9.495  -4.749  1.00  0.00     0.031 A 
BRANCH  24  38
ATOM     38  C   UNL     1       4.252   5.764  -8.603  1.00  0.00    -0.014 A 
ATOM     39  C   UNL     1       5.155   6.488  -9.411  1.00  0.00     0.010 A 
ATOM     40  C   UNL     1       3.043   5.359  -9.204  1.00  0.00     0.010 A 
ATOM     41  C   UNL     1       4.827   6.857 -10.723  1.00  0.00     0.020 A 
ATOM     42  C   UNL     1       2.725   5.685 -10.526  1.00  0.00     0.020 A 
ATOM     43  C   UNL     1       3.605   6.464 -11.265  1.00  0.00     0.054 A 
BRANCH  43  44
ATOM     44  S   UNL     1       3.149   7.034 -12.921  1.00  0.00     0.124 S 
ATOM     45  O   UNL     1       3.023   8.474 -12.721  1.00  0.00    -0.237 OA
ATOM     46  O   UNL     1       4.291   6.603 -13.722  1.00  0.00    -0.237 OA
ATOM     47  O   UNL     1       1.900   6.327 -13.196  1.00  0.00    -0.744 OA
ENDBRANCH  43  44
ENDBRANCH  24  38
BRANCH  25  48
ATOM     48  C   UNL     1      -1.987   9.749  -4.426  1.00  0.00    -0.014 A 
ATOM     49  C   UNL     1      -2.218  11.024  -4.981  1.00  0.00     0.010 A 
ATOM     50  C   UNL     1      -3.070   8.848  -4.385  1.00  0.00     0.010 A 
ATOM     51  C   UNL     1      -3.466  11.357  -5.538  1.00  0.00     0.020 A 
ATOM     52  C   UNL     1      -4.316   9.175  -4.935  1.00  0.00     0.020 A 
ATOM     53  C   UNL     1      -4.501  10.419  -5.534  1.00  0.00     0.054 A 
BRANCH  53  54
ATOM     54  S   UNL     1      -6.043  10.780  -6.429  1.00  0.00     0.124 S 
ATOM     55  O   UNL     1      -6.658  11.806  -5.591  1.00  0.00    -0.237 OA
ATOM     56  O   UNL     1      -5.559  11.233  -7.730  1.00  0.00    -0.237 OA
ATOM     57  O   UNL     1      -6.741   9.495  -6.446  1.00  0.00    -0.744 OA
ENDBRANCH  53  54
ENDBRANCH  25  48
BRANCH  37  58
ATOM     58  C   UNL     1       4.249  10.151  -3.432  1.00  0.00    -0.014 A 
ATOM     59  C   UNL     1       3.536   9.954  -2.233  1.00  0.00     0.010 A 
ATOM     60  C   UNL     1       5.437  10.902  -3.387  1.00  0.00     0.010 A 
ATOM     61  C   UNL     1       3.979  10.534  -1.034  1.00  0.00     0.020 A 
ATOM     62  C   UNL     1       5.896  11.461  -2.194  1.00  0.00     0.020 A 
ATOM     63  C   UNL     1       5.155  11.290  -1.026  1.00  0.00     0.054 A 
BRANCH  63  64
ATOM     64  S   UNL     1       5.732  12.036   0.524  1.00  0.00     0.124 S 
ATOM     65  O   UNL     1       4.712  13.048   0.787  1.00  0.00    -0.237 OA
ATOM     66  O   UNL     1       5.747  10.902   1.445  1.00  0.00    -0.237 OA
ATOM     67  O   UNL     1       7.053  12.565   0.186  1.00  0.00    -0.744 OA
ENDBRANCH  63  64
ENDBRANCH  37  58
ENDBRANCH  11  12
ENDBRANCH   4   6
ENDBRANCH   3   4
ENDBRANCH   2   3
ENDBRANCH   1   2
BRANCH   1  68
ATOM     68  O   UNL     1       3.878  -1.156  -1.081  1.00  0.00    -0.458 OA
BRANCH  68  69
ATOM     69  C   UNL     1       2.825  -1.931  -1.450  1.00  0.00     0.338 C 
ATOM     70  O   UNL     1       2.291  -2.822  -0.827  1.00  0.00    -0.246 OA
BRANCH  69  71
ATOM     71  C   UNL     1       2.376  -1.435  -2.762  1.00  0.00     0.060 A 
ATOM     72  C   UNL     1       1.127  -0.813  -2.864  1.00  0.00     0.018 A 
ATOM     73  C   UNL     1       3.211  -1.566  -3.876  1.00  0.00     0.018 A 
ATOM     74  C   UNL     1       0.713  -0.295  -4.090  1.00  0.00     0.029 A 
ATOM     75  C   UNL     1       2.815  -1.023  -5.098  1.00  0.00     0.029 A 
ATOM     76  C   UNL     1       1.569  -0.388  -5.194  1.00  0.00     0.066 A 
BRANCH  76  77
ATOM     77  N   UNL     1       1.129   0.073  -6.446  1.00  0.00    -0.220 N 
ATOM     78  C   UNL     1       0.027  -0.400  -7.122  1.00  0.00     0.141 A 
ATOM     79  N   UNL     1       1.893   0.797  -7.275  1.00  0.00    -0.062 NA
ATOM     80  C   UNL     1       0.167   0.041  -8.416  1.00  0.00     0.093 A 
ATOM     81  N   UNL     1       1.268   0.874  -8.441  1.00  0.00    -0.134 NA
BRANCH  80  82
ATOM     82  C   UNL     1      -0.354  -0.402  -9.737  1.00  0.00     0.138 C 
BRANCH  82  83
ATOM     83  S   UNL     1      -2.006  -0.902 -10.180  1.00  0.00    -0.081 SA
BRANCH  83  84
ATOM     84  C   UNL     1      -3.014  -1.384  -8.854  1.00  0.00     0.176 A 
ATOM     85  N   UNL     1      -4.242  -0.985  -9.017  1.00  0.00    -0.223 NA
ATOM     86  N   UNL     1      -2.632  -2.114  -7.740  1.00  0.00    -0.255 N 
ATOM     87  C   UNL     1      -5.148  -1.151  -7.968  1.00  0.00     0.079 A 
ATOM     88  C   UNL     1      -3.265  -1.698  -6.557  1.00  0.00     0.266 A 
ATOM     89  C   UNL     1      -6.519  -1.014  -8.169  1.00  0.00     0.029 A 
ATOM     90  C   UNL     1      -4.677  -1.322  -6.677  1.00  0.00     0.066 A 
ATOM     91  O   UNL     1      -2.737  -1.594  -5.450  1.00  0.00    -0.268 OA
ATOM     92  C   UNL     1      -7.389  -0.976  -7.072  1.00  0.00     0.002 A 
ATOM     93  C   UNL     1      -5.519  -1.217  -5.567  1.00  0.00     0.016 A 
ATOM     94  C   UNL     1      -6.883  -1.034  -5.771  1.00  0.00     0.001 A 
BRANCH  86  95
ATOM     95  C   UNL     1      -1.597  -3.132  -7.653  1.00  0.00     0.051 A 
ATOM     96  C   UNL     1      -1.395  -3.827  -6.440  1.00  0.00     0.028 A 
ATOM     97  C   UNL     1      -0.725  -3.469  -8.693  1.00  0.00     0.028 A 
ATOM     98  C   UNL     1      -0.246  -4.587  -6.199  1.00  0.00     0.022 A 
ATOM     99  C   UNL     1       0.459  -4.182  -8.449  1.00  0.00     0.022 A 
ATOM    100  C   UNL     1       0.714  -4.700  -7.188  1.00  0.00     0.041 A 
ATOM    101  Cl  UNL     1       2.207  -5.479  -6.854  1.00  0.00    -0.084 Cl
ENDBRANCH  86  95
ENDBRANCH  83  84
ENDBRANCH  82  83
ENDBRANCH  80  82
ENDBRANCH  76  77
ENDBRANCH  69  71
ENDBRANCH  68  69
ENDBRANCH   1  68
TORSDOF 19
