REMARK SMILES O=C(OCCOC(=O)c1ccc2c(=O)n(CCC[NH+]3CCOCC3)c(=O)[nH]c2c1)c1ccc(-c2c3nc(c(-c4ccc(S(=O)(=O)[O-])cc4)c4ccc([nH]4)c(-c4ccc(S(=O)(=O)[O-])cc4)c4nc(c(-c5ccc(S(=O)(=O)[O-])cc5)c5ccc2[nH]5)C=C4)C=C3)cc1
REMARK SMILES IDX 5 1 4 2 3 3 2 4 1 5 30 6 31 7 89 8 32 9 88 10 33 11 34 12
REMARK SMILES IDX 35 13 82 14 36 15 87 16 81 17 83 18 37 19 86 20 80 21 79 22
REMARK SMILES IDX 38 24 68 25 49 26 67 27 50 28 53 29 66 30 84 31 51 32 52 33
REMARK SMILES IDX 65 35 85 36 54 37 39 38 40 39 48 40 41 41 47 42 42 43 43 44
REMARK SMILES IDX 44 45 45 46 46 47 69 48 70 49 78 50 71 51 77 52 72 53 73 54
REMARK SMILES IDX 74 55 75 56 76 57 55 58 56 59 64 60 57 61 63 62 58 63 59 64
REMARK SMILES IDX 60 65 61 66 62 67 6 68 7 69 8 70 9 71 10 72 29 73 11 74
REMARK SMILES IDX 28 75 12 76 27 77 13 78 25 79 14 81 15 82 26 83 16 84 17 85
REMARK SMILES IDX 18 86 19 87 20 88 24 89 21 91 23 92 22 93
REMARK H PARENT 83 23 53 34 27 80 19 90
REMARK Flexibility Score: inf
ROOT
ATOM      1  C   UNL     1       3.844   1.861   1.245  1.00  0.00     0.275 C 
ENDROOT
BRANCH   1   2
ATOM      2  C   UNL     1       4.264   1.600  -0.201  1.00  0.00     0.275 C 
BRANCH   2   3
ATOM      3  O   UNL     1       3.285   0.894  -0.982  1.00  0.00    -0.458 OA
BRANCH   3   4
ATOM      4  C   UNL     1       3.132  -0.432  -1.204  1.00  0.00     0.338 C 
ATOM      5  O   UNL     1       2.337  -0.787  -2.073  1.00  0.00    -0.246 OA
BRANCH   4   6
ATOM      6  C   UNL     1       3.754  -1.502  -0.359  1.00  0.00     0.060 A 
ATOM      7  C   UNL     1       3.014  -2.692  -0.245  1.00  0.00     0.016 A 
ATOM      8  C   UNL     1       4.995  -1.452   0.281  1.00  0.00     0.016 A 
ATOM      9  C   UNL     1       3.459  -3.751   0.551  1.00  0.00     0.010 A 
ATOM     10  C   UNL     1       5.454  -2.521   1.069  1.00  0.00     0.010 A 
ATOM     11  C   UNL     1       4.685  -3.675   1.224  1.00  0.00    -0.014 A 
BRANCH  11  12
ATOM     12  C   UNL     1       5.228  -4.878   1.903  1.00  0.00     0.031 A 
ATOM     13  C   UNL     1       5.381  -4.976   3.393  1.00  0.00     0.074 A 
ATOM     14  C   UNL     1       5.577  -5.918   1.123  1.00  0.00     0.049 A 
ATOM     15  N   UNL     1       5.644  -6.033   4.120  1.00  0.00    -0.248 NA
ATOM     16  C   UNL     1       5.225  -3.740   4.172  1.00  0.00     0.031 C 
ATOM     17  C   UNL     1       5.518  -5.917  -0.340  1.00  0.00     0.029 A 
ATOM     18  N   UNL     1       6.033  -7.169   1.442  1.00  0.00    -0.354 N 
ATOM     19  C   UNL     1       5.568  -5.613   5.443  1.00  0.00     0.074 A 
ATOM     20  C   UNL     1       5.332  -4.186   5.419  1.00  0.00     0.031 C 
ATOM     21  C   UNL     1       5.884  -7.122  -0.792  1.00  0.00     0.029 A 
ATOM     22  C   UNL     1       6.242  -7.966   0.344  1.00  0.00     0.049 A 
ATOM     23  H   UNL     1       6.194  -7.467   2.366  1.00  0.00     0.167 HD
ATOM     24  C   UNL     1       5.670  -6.357   6.570  1.00  0.00     0.031 A 
ATOM     25  C   UNL     1       6.673  -9.237   0.249  1.00  0.00     0.031 A 
ATOM     26  C   UNL     1       6.030  -7.753   6.575  1.00  0.00     0.049 A 
ATOM     27  C   UNL     1       6.938 -10.004   1.506  1.00  0.00     0.074 A 
ATOM     28  C   UNL     1       6.184  -8.600   7.658  1.00  0.00     0.029 A 
ATOM     29  N   UNL     1       6.339  -8.493   5.442  1.00  0.00    -0.354 N 
ATOM     30  N   UNL     1       6.764  -9.620   2.748  1.00  0.00    -0.248 NA
ATOM     31  C   UNL     1       7.451 -11.370   1.356  1.00  0.00     0.031 C 
ATOM     32  C   UNL     1       6.678  -9.821   7.188  1.00  0.00     0.029 A 
ATOM     33  C   UNL     1       6.758  -9.762   5.804  1.00  0.00     0.049 A 
ATOM     34  H   UNL     1       6.270  -8.164   4.517  1.00  0.00     0.167 HD
ATOM     35  C   UNL     1       7.160 -10.692   3.534  1.00  0.00     0.074 A 
ATOM     36  C   UNL     1       7.549 -11.753   2.624  1.00  0.00     0.031 C 
ATOM     37  C   UNL     1       7.201 -10.785   4.887  1.00  0.00     0.031 A 
BRANCH  24  38
ATOM     38  C   UNL     1       5.404  -5.688   7.895  1.00  0.00    -0.014 A 
ATOM     39  C   UNL     1       6.449  -5.480   8.813  1.00  0.00     0.010 A 
ATOM     40  C   UNL     1       4.088  -5.363   8.276  1.00  0.00     0.010 A 
ATOM     41  C   UNL     1       6.184  -4.972  10.090  1.00  0.00     0.020 A 
ATOM     42  C   UNL     1       3.821  -4.837   9.545  1.00  0.00     0.020 A 
ATOM     43  C   UNL     1       4.870  -4.659  10.450  1.00  0.00     0.054 A 
BRANCH  43  44
ATOM     44  S   UNL     1       4.550  -3.999  12.112  1.00  0.00     0.124 S 
ATOM     45  O   UNL     1       4.688  -5.185  12.950  1.00  0.00    -0.237 OA
ATOM     46  O   UNL     1       5.600  -2.994  12.262  1.00  0.00    -0.237 OA
ATOM     47  O   UNL     1       3.197  -3.457  12.010  1.00  0.00    -0.744 OA
ENDBRANCH  43  44
ENDBRANCH  24  38
BRANCH  25  48
ATOM     48  C   UNL     1       6.832  -9.818  -1.110  1.00  0.00    -0.014 A 
ATOM     49  C   UNL     1       7.832  -9.319  -1.969  1.00  0.00     0.010 A 
ATOM     50  C   UNL     1       5.868 -10.704  -1.618  1.00  0.00     0.010 A 
ATOM     51  C   UNL     1       7.806  -9.618  -3.332  1.00  0.00     0.020 A 
ATOM     52  C   UNL     1       5.857 -11.028  -2.978  1.00  0.00     0.020 A 
ATOM     53  C   UNL     1       6.799 -10.447  -3.832  1.00  0.00     0.054 A 
BRANCH  53  54
ATOM     54  S   UNL     1       6.697 -10.707  -5.625  1.00  0.00     0.124 S 
ATOM     55  O   UNL     1       6.096  -9.454  -6.073  1.00  0.00    -0.237 OA
ATOM     56  O   UNL     1       8.094 -10.904  -6.001  1.00  0.00    -0.237 OA
ATOM     57  O   UNL     1       5.848 -11.889  -5.750  1.00  0.00    -0.744 OA
ENDBRANCH  53  54
ENDBRANCH  25  48
BRANCH  37  58
ATOM     58  C   UNL     1       7.754 -12.055   5.472  1.00  0.00    -0.014 A 
ATOM     59  C   UNL     1       6.912 -12.944   6.164  1.00  0.00     0.010 A 
ATOM     60  C   UNL     1       9.132 -12.328   5.401  1.00  0.00     0.010 A 
ATOM     61  C   UNL     1       7.441 -14.074   6.791  1.00  0.00     0.020 A 
ATOM     62  C   UNL     1       9.660 -13.473   6.002  1.00  0.00     0.020 A 
ATOM     63  C   UNL     1       8.812 -14.329   6.710  1.00  0.00     0.054 A 
BRANCH  63  64
ATOM     64  S   UNL     1       9.482 -15.808   7.518  1.00  0.00     0.124 S 
ATOM     65  O   UNL     1       9.569 -15.384   8.912  1.00  0.00    -0.237 OA
ATOM     66  O   UNL     1       8.469 -16.821   7.229  1.00  0.00    -0.237 OA
ATOM     67  O   UNL     1      10.763 -16.013   6.845  1.00  0.00    -0.744 OA
ENDBRANCH  63  64
ENDBRANCH  37  58
ENDBRANCH  11  12
ENDBRANCH   4   6
ENDBRANCH   3   4
ENDBRANCH   2   3
ENDBRANCH   1   2
BRANCH   1  68
ATOM     68  O   UNL     1       3.313   0.699   1.891  1.00  0.00    -0.458 OA
BRANCH  68  69
ATOM     69  C   UNL     1       1.953   0.619   1.935  1.00  0.00     0.338 C 
ATOM     70  O   UNL     1       1.152   1.421   1.511  1.00  0.00    -0.246 OA
BRANCH  69  71
ATOM     71  C   UNL     1       1.598  -0.717   2.459  1.00  0.00     0.062 A 
ATOM     72  C   UNL     1       2.247  -1.231   3.587  1.00  0.00     0.016 A 
ATOM     73  C   UNL     1       0.681  -1.498   1.738  1.00  0.00     0.042 A 
ATOM     74  C   UNL     1       2.056  -2.565   3.931  1.00  0.00     0.017 A 
ATOM     75  C   UNL     1       0.534  -2.844   2.071  1.00  0.00     0.056 A 
ATOM     76  C   UNL     1       1.258  -3.379   3.123  1.00  0.00     0.064 A 
ATOM     77  N   UNL     1      -0.276  -3.688   1.320  1.00  0.00    -0.307 N 
ATOM     78  C   UNL     1       1.283  -4.840   3.279  1.00  0.00     0.264 A 
ATOM     79  C   UNL     1      -0.446  -5.021   1.585  1.00  0.00     0.328 A 
ATOM     80  H   UNL     1      -0.757  -3.304   0.551  1.00  0.00     0.171 HD
ATOM     81  O   UNL     1       2.199  -5.295   3.948  1.00  0.00    -0.268 OA
ATOM     82  N   UNL     1       0.333  -5.576   2.599  1.00  0.00    -0.260 N 
ATOM     83  O   UNL     1      -1.268  -5.647   0.915  1.00  0.00    -0.248 OA
BRANCH  82  84
ATOM     84  C   UNL     1       0.066  -6.983   2.920  1.00  0.00     0.137 C 
BRANCH  84  85
ATOM     85  C   UNL     1       1.062  -7.912   3.630  1.00  0.00     0.083 C 
BRANCH  85  86
ATOM     86  C   UNL     1       1.454  -7.754   5.113  1.00  0.00     0.264 C 
BRANCH  86  87
ATOM     87  N   UNL     1       0.466  -7.383   6.099  1.00  0.00    -0.331 N 
ATOM     88  C   UNL     1      -0.656  -8.238   6.418  1.00  0.00     0.291 C 
ATOM     89  C   UNL     1       0.315  -5.998   6.503  1.00  0.00     0.291 C 
ATOM     90  H   UNL     1       1.158  -7.761   6.747  1.00  0.00     0.348 HD
ATOM     91  C   UNL     1      -2.005  -7.595   6.058  1.00  0.00     0.221 C 
ATOM     92  C   UNL     1      -1.041  -5.431   6.074  1.00  0.00     0.221 C 
ATOM     93  O   UNL     1      -2.129  -6.246   6.535  1.00  0.00    -0.370 OA
ENDBRANCH  86  87
ENDBRANCH  85  86
ENDBRANCH  84  85
ENDBRANCH  82  84
ENDBRANCH  69  71
ENDBRANCH  68  69
ENDBRANCH   1  68
TORSDOF 18
