REMARK SMILES CC[C@@H](C)[C@@H](C(=O)OCCOC(=O)c1ccc(-c2c3nc(c(-c4ccc(S(=O)(=O)[O-])cc4)c4ccc([nH]4)c(-c4ccc(S(=O)(=O)[O-])cc4)c4nc(c(-c5ccc(S(=O)(=O)[O-])cc5)c5ccc2[nH]5)C=C4)C=C3)cc1)S(=O)(=O)c1ccc(OC)cc1
REMARK SMILES IDX 9 1 8 2 6 3 7 4 5 5 3 6 4 7 2 8 1 9 74 10 75 11 76 12 77 13
REMARK SMILES IDX 78 14 84 15 79 16 83 17 80 18 81 19 82 20 10 21 11 22 12 23
REMARK SMILES IDX 13 24 14 25 15 26 73 27 16 28 72 29 17 30 18 31 19 32 66 33
REMARK SMILES IDX 20 34 71 35 65 36 67 37 21 38 70 39 64 40 63 41 22 43 52 44
REMARK SMILES IDX 33 45 51 46 34 47 37 48 50 49 68 50 35 51 36 52 49 54 69 55
REMARK SMILES IDX 38 56 23 57 24 58 32 59 25 60 31 61 26 62 27 63 28 64 29 65
REMARK SMILES IDX 30 66 53 67 54 68 62 69 55 70 61 71 56 72 57 73 58 74 59 75
REMARK SMILES IDX 60 76 39 77 40 78 48 79 41 80 47 81 42 82 43 83 44 84 45 85
REMARK SMILES IDX 46 86
REMARK H PARENT 67 42 37 53
REMARK Flexibility Score: inf
ROOT
ATOM      1  C   UNL     1       1.183   3.412   3.279  1.00  0.00     0.274 C 
ENDROOT
BRANCH   1   2
ATOM      2  O   UNL     1       1.305   3.055   1.878  1.00  0.00    -0.461 OA
BRANCH   2   3
ATOM      3  C   UNL     1       0.495   3.727   1.015  1.00  0.00     0.325 C 
ATOM      4  O   UNL     1      -0.170   4.703   1.345  1.00  0.00    -0.251 OA
BRANCH   3   5
ATOM      5  C   UNL     1       0.376   3.080  -0.352  1.00  0.00     0.225 C 
BRANCH   5   6
ATOM      6  C   UNL     1       0.652   1.557  -0.445  1.00  0.00     0.015 C 
ATOM      7  C   UNL     1       0.366   1.024  -1.864  1.00  0.00     0.009 C 
BRANCH   6   8
ATOM      8  C   UNL     1      -0.166   0.710   0.560  1.00  0.00     0.002 C 
ATOM      9  C   UNL     1       0.343  -0.731   0.630  1.00  0.00     0.004 C 
ENDBRANCH   6   8
ENDBRANCH   5   6
BRANCH   5  10
ATOM     10  S   UNL     1       1.205   4.112  -1.556  1.00  0.00     0.192 S 
ATOM     11  O   UNL     1       0.760   3.727  -2.884  1.00  0.00    -0.223 OA
ATOM     12  O   UNL     1       1.012   5.497  -1.158  1.00  0.00    -0.223 OA
BRANCH  10  13
ATOM     13  C   UNL     1       2.969   3.829  -1.534  1.00  0.00     0.068 A 
ATOM     14  C   UNL     1       3.571   2.574  -1.535  1.00  0.00     0.024 A 
ATOM     15  C   UNL     1       3.791   4.947  -1.545  1.00  0.00     0.024 A 
ATOM     16  C   UNL     1       4.962   2.449  -1.389  1.00  0.00     0.048 A 
ATOM     17  C   UNL     1       5.172   4.815  -1.377  1.00  0.00     0.048 A 
ATOM     18  C   UNL     1       5.771   3.573  -1.270  1.00  0.00     0.118 A 
BRANCH  18  19
ATOM     19  O   UNL     1       7.105   3.354  -1.079  1.00  0.00    -0.497 OA
ATOM     20  C   UNL     1       7.911   4.504  -0.821  1.00  0.00     0.278 C 
ENDBRANCH  18  19
ENDBRANCH  10  13
ENDBRANCH   5  10
ENDBRANCH   3   5
ENDBRANCH   2   3
ENDBRANCH   1   2
BRANCH   1  21
ATOM     21  C   UNL     1       2.534   3.771   3.885  1.00  0.00     0.275 C 
BRANCH  21  22
ATOM     22  O   UNL     1       2.987   5.019   3.334  1.00  0.00    -0.458 OA
BRANCH  22  23
ATOM     23  C   UNL     1       3.851   4.886   2.308  1.00  0.00     0.338 C 
ATOM     24  O   UNL     1       4.324   3.837   1.884  1.00  0.00    -0.246 OA
BRANCH  23  25
ATOM     25  C   UNL     1       4.138   6.187   1.690  1.00  0.00     0.060 A 
ATOM     26  C   UNL     1       3.120   6.862   1.016  1.00  0.00     0.016 A 
ATOM     27  C   UNL     1       5.467   6.594   1.552  1.00  0.00     0.016 A 
ATOM     28  C   UNL     1       3.457   7.865   0.099  1.00  0.00     0.010 A 
ATOM     29  C   UNL     1       5.790   7.638   0.674  1.00  0.00     0.010 A 
ATOM     30  C   UNL     1       4.796   8.250  -0.106  1.00  0.00    -0.014 A 
BRANCH  30  31
ATOM     31  C   UNL     1       5.175   9.285  -1.107  1.00  0.00     0.031 A 
ATOM     32  C   UNL     1       6.141   8.998  -2.223  1.00  0.00     0.074 A 
ATOM     33  C   UNL     1       4.670  10.525  -1.036  1.00  0.00     0.049 A 
ATOM     34  N   UNL     1       7.114   9.726  -2.703  1.00  0.00    -0.248 NA
ATOM     35  C   UNL     1       5.995   7.707  -2.892  1.00  0.00     0.031 C 
ATOM     36  C   UNL     1       3.613  10.970  -0.131  1.00  0.00     0.029 A 
ATOM     37  N   UNL     1       5.006  11.644  -1.750  1.00  0.00    -0.354 N 
ATOM     38  C   UNL     1       7.795   8.904  -3.603  1.00  0.00     0.074 A 
ATOM     39  C   UNL     1       7.105   7.635  -3.619  1.00  0.00     0.031 C 
ATOM     40  C   UNL     1       3.376  12.271  -0.350  1.00  0.00     0.029 A 
ATOM     41  C   UNL     1       4.354  12.766  -1.310  1.00  0.00     0.049 A 
ATOM     42  H   UNL     1       5.646  11.642  -2.498  1.00  0.00     0.167 HD
ATOM     43  C   UNL     1       8.867   9.216  -4.372  1.00  0.00     0.031 A 
ATOM     44  C   UNL     1       4.587  14.062  -1.578  1.00  0.00     0.031 A 
ATOM     45  C   UNL     1       9.286  10.579  -4.584  1.00  0.00     0.049 A 
ATOM     46  C   UNL     1       5.728  14.423  -2.480  1.00  0.00     0.074 A 
ATOM     47  C   UNL     1      10.338  11.065  -5.341  1.00  0.00     0.029 A 
ATOM     48  N   UNL     1       8.568  11.682  -4.143  1.00  0.00    -0.354 N 
ATOM     49  N   UNL     1       6.621  13.634  -3.032  1.00  0.00    -0.248 NA
ATOM     50  C   UNL     1       5.900  15.846  -2.785  1.00  0.00     0.031 C 
ATOM     51  C   UNL     1      10.229  12.461  -5.389  1.00  0.00     0.029 A 
ATOM     52  C   UNL     1       9.102  12.838  -4.675  1.00  0.00     0.049 A 
ATOM     53  H   UNL     1       7.792  11.645  -3.539  1.00  0.00     0.167 HD
ATOM     54  C   UNL     1       7.455  14.468  -3.766  1.00  0.00     0.074 A 
ATOM     55  C   UNL     1       6.950  15.817  -3.595  1.00  0.00     0.031 C 
ATOM     56  C   UNL     1       8.546  14.155  -4.508  1.00  0.00     0.031 A 
BRANCH  43  57
ATOM     57  C   UNL     1       9.654   8.113  -5.042  1.00  0.00    -0.014 A 
ATOM     58  C   UNL     1       9.172   7.381  -6.140  1.00  0.00     0.010 A 
ATOM     59  C   UNL     1      10.971   7.866  -4.597  1.00  0.00     0.010 A 
ATOM     60  C   UNL     1       9.970   6.402  -6.751  1.00  0.00     0.020 A 
ATOM     61  C   UNL     1      11.783   6.914  -5.224  1.00  0.00     0.020 A 
ATOM     62  C   UNL     1      11.269   6.172  -6.287  1.00  0.00     0.054 A 
BRANCH  62  63
ATOM     63  S   UNL     1      12.308   4.936  -7.120  1.00  0.00     0.124 S 
ATOM     64  O   UNL     1      11.828   3.690  -6.526  1.00  0.00    -0.237 OA
ATOM     65  O   UNL     1      11.976   5.126  -8.530  1.00  0.00    -0.237 OA
ATOM     66  O   UNL     1      13.667   5.320  -6.748  1.00  0.00    -0.744 OA
ENDBRANCH  62  63
ENDBRANCH  43  57
BRANCH  44  67
ATOM     67  C   UNL     1       3.755  15.085  -0.900  1.00  0.00    -0.014 A 
ATOM     68  C   UNL     1       2.756  15.771  -1.607  1.00  0.00     0.010 A 
ATOM     69  C   UNL     1       3.887  15.290   0.486  1.00  0.00     0.010 A 
ATOM     70  C   UNL     1       1.898  16.645  -0.936  1.00  0.00     0.020 A 
ATOM     71  C   UNL     1       3.011  16.138   1.164  1.00  0.00     0.020 A 
ATOM     72  C   UNL     1       2.026  16.817   0.446  1.00  0.00     0.054 A 
BRANCH  72  73
ATOM     73  S   UNL     1       0.841  17.878   1.316  1.00  0.00     0.124 S 
ATOM     74  O   UNL     1       1.374  19.209   1.043  1.00  0.00    -0.237 OA
ATOM     75  O   UNL     1      -0.423  17.554   0.659  1.00  0.00    -0.237 OA
ATOM     76  O   UNL     1       0.943  17.433   2.704  1.00  0.00    -0.744 OA
ENDBRANCH  72  73
ENDBRANCH  44  67
BRANCH  56  77
ATOM     77  C   UNL     1       9.207  15.279  -5.247  1.00  0.00    -0.014 A 
ATOM     78  C   UNL     1      10.094  16.148  -4.591  1.00  0.00     0.010 A 
ATOM     79  C   UNL     1       8.973  15.430  -6.625  1.00  0.00     0.010 A 
ATOM     80  C   UNL     1      10.722  17.172  -5.302  1.00  0.00     0.020 A 
ATOM     81  C   UNL     1       9.612  16.443  -7.341  1.00  0.00     0.020 A 
ATOM     82  C   UNL     1      10.474  17.314  -6.671  1.00  0.00     0.054 A 
BRANCH  82  83
ATOM     83  S   UNL     1      11.337  18.624  -7.581  1.00  0.00     0.124 S 
ATOM     84  O   UNL     1      10.602  19.816  -7.165  1.00  0.00    -0.237 OA
ATOM     85  O   UNL     1      12.704  18.520  -7.075  1.00  0.00    -0.237 OA
ATOM     86  O   UNL     1      11.166  18.243  -8.981  1.00  0.00    -0.744 OA
ENDBRANCH  82  83
ENDBRANCH  56  77
ENDBRANCH  30  31
ENDBRANCH  23  25
ENDBRANCH  22  23
ENDBRANCH  21  22
ENDBRANCH   1  21
TORSDOF 19
