REMARK SMILES O=C(OCCOC(=O)c1ccccc1/C=N\NC(=S)NCc1ccccc1)c1ccc(-c2c3nc(c(-c4ccc(S(=O)(=O)[O-])cc4)c4ccc([nH]4)c(-c4ccc(S(=O)(=O)[O-])cc4)c4nc(c(-c5ccc(S(=O)(=O)[O-])cc5)c5ccc2[nH]5)C=C4)C=C3)cc1
REMARK SMILES IDX 6 1 5 2 4 3 3 4 2 5 1 6 28 7 29 8 87 9 30 10 86 11 31 12
REMARK SMILES IDX 32 13 33 14 80 15 34 16 85 17 79 18 81 19 35 20 84 21 78 22
REMARK SMILES IDX 77 23 36 25 66 26 47 27 65 28 48 29 51 30 64 31 82 32 49 33
REMARK SMILES IDX 50 34 63 36 83 37 52 38 37 39 38 40 46 41 39 42 45 43 40 44
REMARK SMILES IDX 41 45 42 46 43 47 44 48 67 49 68 50 76 51 69 52 75 53 70 54
REMARK SMILES IDX 71 55 72 56 73 57 74 58 53 59 54 60 62 61 55 62 61 63 56 64
REMARK SMILES IDX 57 65 58 66 59 67 60 68 7 69 8 70 9 71 10 72 14 73 11 74
REMARK SMILES IDX 13 75 12 76 15 77 16 78 17 79 18 81 19 82 20 83 21 85 22 86
REMARK SMILES IDX 23 87 27 88 24 89 26 90 25 91
REMARK H PARENT 81 24 51 35 17 80 20 84
REMARK Flexibility Score: inf
ROOT
ATOM      1  O   UNL     1       3.441   0.891   3.020  1.00  0.00    -0.458 OA
ENDROOT
BRANCH   1   2
ATOM      2  C   UNL     1       3.755   2.148   2.376  1.00  0.00     0.275 C 
BRANCH   2   3
ATOM      3  C   UNL     1       3.673   2.093   0.837  1.00  0.00     0.275 C 
BRANCH   3   4
ATOM      4  O   UNL     1       2.372   1.671   0.392  1.00  0.00    -0.458 OA
BRANCH   4   5
ATOM      5  C   UNL     1       1.940   0.450   0.008  1.00  0.00     0.338 C 
ATOM      6  O   UNL     1       0.776   0.320  -0.366  1.00  0.00    -0.246 OA
BRANCH   5   7
ATOM      7  C   UNL     1       2.784  -0.781   0.005  1.00  0.00     0.060 A 
ATOM      8  C   UNL     1       4.362  -0.892   0.825  1.00  0.00     0.016 A 
ATOM      9  C   UNL     1       2.078  -2.148  -0.864  1.00  0.00     0.016 A 
ATOM     10  C   UNL     1       5.378  -2.310   0.815  1.00  0.00     0.010 A 
ATOM     11  C   UNL     1       3.015  -3.696  -0.955  1.00  0.00     0.010 A 
ATOM     12  C   UNL     1       4.808  -3.809  -0.001  1.00  0.00    -0.014 A 
BRANCH  12  13
ATOM     13  C   UNL     1       5.812  -4.903   0.776  1.00  0.00     0.031 A 
ATOM     14  C   UNL     1       6.648  -5.822  -0.039  1.00  0.00     0.074 A 
ATOM     15  C   UNL     1       6.133  -4.983   2.110  1.00  0.00     0.049 A 
ATOM     16  N   UNL     1       6.967  -7.069   0.165  1.00  0.00    -0.248 NA
ATOM     17  C   UNL     1       7.157  -5.244  -1.280  1.00  0.00     0.031 C 
ATOM     18  C   UNL     1       5.954  -3.985   3.166  1.00  0.00     0.029 A 
ATOM     19  N   UNL     1       6.699  -6.031   2.837  1.00  0.00    -0.354 N 
ATOM     20  C   UNL     1       7.545  -7.467  -1.027  1.00  0.00     0.074 A 
ATOM     21  C   UNL     1       7.430  -6.354  -1.945  1.00  0.00     0.031 C 
ATOM     22  C   UNL     1       6.237  -4.493   4.376  1.00  0.00     0.029 A 
ATOM     23  C   UNL     1       6.613  -5.874   4.215  1.00  0.00     0.049 A 
ATOM     24  H   UNL     1       7.120  -6.812   2.411  1.00  0.00     0.167 HD
ATOM     25  C   UNL     1       8.193  -8.617  -1.311  1.00  0.00     0.031 A 
ATOM     26  C   UNL     1       6.785  -6.723   5.250  1.00  0.00     0.031 A 
ATOM     27  C   UNL     1       8.614  -9.552  -0.307  1.00  0.00     0.049 A 
ATOM     28  C   UNL     1       7.410  -8.050   4.949  1.00  0.00     0.074 A 
ATOM     29  C   UNL     1       9.391 -10.683  -0.465  1.00  0.00     0.029 A 
ATOM     30  N   UNL     1       8.405  -9.391   1.055  1.00  0.00    -0.354 N 
ATOM     31  N   UNL     1       7.750  -8.536   3.781  1.00  0.00    -0.248 NA
ATOM     32  C   UNL     1       7.777  -8.893   6.094  1.00  0.00     0.031 C 
ATOM     33  C   UNL     1       9.655 -11.208   0.804  1.00  0.00     0.029 A 
ATOM     34  C   UNL     1       9.062 -10.389   1.752  1.00  0.00     0.049 A 
ATOM     35  H   UNL     1       7.869  -8.674   1.465  1.00  0.00     0.167 HD
ATOM     36  C   UNL     1       8.470  -9.687   4.056  1.00  0.00     0.074 A 
ATOM     37  C   UNL     1       8.484  -9.843   5.497  1.00  0.00     0.031 C 
ATOM     38  C   UNL     1       9.096 -10.514   3.187  1.00  0.00     0.031 A 
BRANCH  25  39
ATOM     39  C   UNL     1       8.513  -8.872  -2.754  1.00  0.00    -0.014 A 
ATOM     40  C   UNL     1       9.395  -8.049  -3.475  1.00  0.00     0.010 A 
ATOM     41  C   UNL     1       7.856  -9.924  -3.418  1.00  0.00     0.010 A 
ATOM     42  C   UNL     1       9.532  -8.200  -4.853  1.00  0.00     0.020 A 
ATOM     43  C   UNL     1       8.041 -10.119  -4.788  1.00  0.00     0.020 A 
ATOM     44  C   UNL     1       8.853  -9.234  -5.501  1.00  0.00     0.054 A 
BRANCH  44  45
ATOM     45  S   UNL     1       9.074  -9.421  -7.287  1.00  0.00     0.124 S 
ATOM     46  O   UNL     1       8.256  -8.328  -7.806  1.00  0.00    -0.237 OA
ATOM     47  O   UNL     1      10.517  -9.254  -7.447  1.00  0.00    -0.237 OA
ATOM     48  O   UNL     1       8.570 -10.764  -7.559  1.00  0.00    -0.744 OA
ENDBRANCH  44  45
ENDBRANCH  25  39
BRANCH  26  49
ATOM     49  C   UNL     1       6.417  -6.368   6.663  1.00  0.00    -0.014 A 
ATOM     50  C   UNL     1       7.402  -6.111   7.636  1.00  0.00     0.010 A 
ATOM     51  C   UNL     1       5.068  -6.394   7.074  1.00  0.00     0.010 A 
ATOM     52  C   UNL     1       7.055  -5.943   8.986  1.00  0.00     0.020 A 
ATOM     53  C   UNL     1       4.715  -6.207   8.421  1.00  0.00     0.020 A 
ATOM     54  C   UNL     1       5.714  -6.002   9.373  1.00  0.00     0.054 A 
BRANCH  54  55
ATOM     55  S   UNL     1       5.301  -5.813  11.135  1.00  0.00     0.124 S 
ATOM     56  O   UNL     1       5.853  -7.035  11.712  1.00  0.00    -0.237 OA
ATOM     57  O   UNL     1       5.996  -4.579  11.491  1.00  0.00    -0.237 OA
ATOM     58  O   UNL     1       3.842  -5.725  11.140  1.00  0.00    -0.744 OA
ENDBRANCH  54  55
ENDBRANCH  26  49
BRANCH  38  59
ATOM     59  C   UNL     1       9.925 -11.619   3.770  1.00  0.00    -0.014 A 
ATOM     60  C   UNL     1       9.326 -12.728   4.388  1.00  0.00     0.010 A 
ATOM     61  C   UNL     1      11.325 -11.568   3.638  1.00  0.00     0.010 A 
ATOM     62  C   UNL     1      10.118 -13.765   4.881  1.00  0.00     0.020 A 
ATOM     63  C   UNL     1      12.117 -12.620   4.099  1.00  0.00     0.020 A 
ATOM     64  C   UNL     1      11.507 -13.708   4.725  1.00  0.00     0.054 A 
BRANCH  64  65
ATOM     65  S   UNL     1      12.501 -15.107   5.304  1.00  0.00     0.124 S 
ATOM     66  O   UNL     1      12.433 -14.948   6.754  1.00  0.00    -0.237 OA
ATOM     67  O   UNL     1      11.778 -16.255   4.762  1.00  0.00    -0.237 OA
ATOM     68  O   UNL     1      13.814 -14.868   4.711  1.00  0.00    -0.744 OA
ENDBRANCH  64  65
ENDBRANCH  38  59
ENDBRANCH  12  13
ENDBRANCH   5   7
ENDBRANCH   4   5
ENDBRANCH   3   4
ENDBRANCH   2   3
ENDBRANCH   1   2
BRANCH   1  69
ATOM     69  C   UNL     1       2.176   0.730   3.493  1.00  0.00     0.338 C 
ATOM     70  O   UNL     1       1.287   1.558   3.507  1.00  0.00    -0.246 OA
BRANCH  69  71
ATOM     71  C   UNL     1       1.969  -0.719   3.639  1.00  0.00     0.068 A 
ATOM     72  C   UNL     1       0.692  -1.421   2.559  1.00  0.00     0.016 A 
ATOM     73  C   UNL     1       3.251  -1.793   4.318  1.00  0.00     0.009 A 
ATOM     74  C   UNL     1       0.681  -3.182   2.184  1.00  0.00     0.001 A 
ATOM     75  C   UNL     1       3.200  -3.610   4.000  1.00  0.00     0.010 A 
ATOM     76  C   UNL     1       1.873  -4.276   2.976  1.00  0.00     0.001 A 
BRANCH  73  77
ATOM     77  C   UNL     1       3.848  -1.442   5.558  1.00  0.00     0.142 C 
ATOM     78  N   UNL     1       3.382  -2.025   6.601  1.00  0.00    -0.181 NA
BRANCH  78  79
ATOM     79  N   UNL     1       2.259  -2.820   6.445  1.00  0.00    -0.254 N 
ATOM     80  H   UNL     1       2.110  -3.439   7.197  1.00  0.00     0.193 HD
BRANCH  79  81
ATOM     81  C   UNL     1       1.310  -2.922   5.456  1.00  0.00     0.187 C 
ATOM     82  S   UNL     1      -0.197  -3.513   5.939  1.00  0.00    -0.039 S 
BRANCH  81  83
ATOM     83  N   UNL     1       1.456  -2.647   4.052  1.00  0.00    -0.357 N 
ATOM     84  H   UNL     1       0.537  -2.539   3.717  1.00  0.00     0.163 HD
BRANCH  83  85
ATOM     85  C   UNL     1       2.680  -2.364   2.375  1.00  0.00     0.151 C 
BRANCH  85  86
ATOM     86  C   UNL     1       3.229  -3.053   0.792  1.00  0.00    -0.029 A 
ATOM     87  C   UNL     1       3.103  -4.887   0.732  1.00  0.00     0.005 A 
ATOM     88  C   UNL     1       4.150  -2.252  -0.837  1.00  0.00     0.005 A 
ATOM     89  C   UNL     1       3.724  -5.766  -0.672  1.00  0.00     0.000 A 
ATOM     90  C   UNL     1       4.717  -3.288  -2.170  1.00  0.00     0.000 A 
ATOM     91  C   UNL     1       4.463  -4.982  -2.050  1.00  0.00     0.000 A 
ENDBRANCH  85  86
ENDBRANCH  83  85
ENDBRANCH  81  83
ENDBRANCH  79  81
ENDBRANCH  78  79
ENDBRANCH  73  77
ENDBRANCH  69  71
ENDBRANCH   1  69
TORSDOF 20
