REMARK SMILES O=C(C[C@H](NC(=O)[C@]12C[C@H]3C[C@H](C[C@H](C3)C1)C2)c1cccc([N+](=O)[O-])c1)OCCOC(=O)c1ccc(-c2c3nc(c(-c4ccc(S(=O)(=O)[O-])cc4)c4ccc([nH]4)c(-c4ccc(S(=O)(=O)[O-])cc4)c4nc(c(-c5ccc(S(=O)(=O)[O-])cc5)c5ccc2[nH]5)C=C4)C=C3)cc1
REMARK SMILES IDX 28 1 27 2 2 3 1 4 3 5 4 6 18 7 19 8 26 9 20 10 22 11 21 12
REMARK SMILES IDX 23 13 24 14 25 15 5 16 6 17 7 19 8 20 9 21 16 22 17 23 10 24
REMARK SMILES IDX 14 25 12 26 11 27 15 28 13 29 29 30 30 31 31 32 32 33 33 34
REMARK SMILES IDX 34 35 92 36 35 37 91 38 36 39 37 40 38 41 85 42 39 43 90 44
REMARK SMILES IDX 84 45 86 46 40 47 89 48 83 49 82 50 41 52 71 53 52 54 70 55
REMARK SMILES IDX 53 56 56 57 69 58 87 59 54 60 55 61 68 63 88 64 57 65 42 66
REMARK SMILES IDX 43 67 51 68 44 69 50 70 45 71 46 72 47 73 48 74 49 75 72 76
REMARK SMILES IDX 73 77 81 78 74 79 80 80 75 81 76 82 77 83 78 84 79 85 58 86
REMARK SMILES IDX 59 87 67 88 60 89 66 90 61 91 62 92 63 93 64 94 65 95
REMARK H PARENT 5 18 86 51 56 62
REMARK Flexibility Score: inf
ROOT
ATOM      1  C   UNL     1       2.913   0.667   1.247  1.00  0.00     0.274 C 
ENDROOT
BRANCH   1   2
ATOM      2  O   UNL     1       3.961  -0.322   1.384  1.00  0.00    -0.462 OA
BRANCH   2   3
ATOM      3  C   UNL     1       4.624  -0.875   0.340  1.00  0.00     0.308 C 
ATOM      4  O   UNL     1       5.108  -2.000   0.428  1.00  0.00    -0.252 OA
BRANCH   3   5
ATOM      5  C   UNL     1       4.779  -0.058  -0.907  1.00  0.00     0.152 C 
BRANCH   5   6
ATOM      6  C   UNL     1       4.030  -0.574  -2.133  1.00  0.00     0.123 C 
BRANCH   6   7
ATOM      7  C   UNL     1       4.917  -1.329  -3.112  1.00  0.00    -0.018 A 
ATOM      8  C   UNL     1       4.711  -2.675  -3.452  1.00  0.00     0.006 A 
ATOM      9  C   UNL     1       5.927  -0.618  -3.788  1.00  0.00     0.091 A 
ATOM     10  C   UNL     1       5.451  -3.281  -4.476  1.00  0.00     0.007 A 
ATOM     11  C   UNL     1       6.670  -1.238  -4.799  1.00  0.00     0.269 A 
ATOM     12  C   UNL     1       6.426  -2.562  -5.165  1.00  0.00     0.085 A 
BRANCH  11  13
ATOM     13  N   UNL     1       7.728  -0.487  -5.465  1.00  0.00     0.062 N 
ATOM     14  O   UNL     1       7.923  -0.714  -6.665  1.00  0.00    -0.258 OA
ATOM     15  O   UNL     1       8.366   0.313  -4.767  1.00  0.00    -0.258 OA
ENDBRANCH  11  13
ENDBRANCH   6   7
BRANCH   6  16
ATOM     16  N   UNL     1       2.787  -1.260  -1.813  1.00  0.00    -0.348 N 
ATOM     17  C   UNL     1       1.552  -1.233  -2.378  1.00  0.00     0.226 C 
ATOM     18  H   UNL     1       2.855  -1.861  -1.036  1.00  0.00     0.164 HD
ATOM     19  O   UNL     1       0.721  -1.982  -1.852  1.00  0.00    -0.274 OA
BRANCH  17  20
ATOM     20  C   UNL     1       1.160  -0.294  -3.539  1.00  0.00     0.050 C 
ATOM     21  C   UNL     1      -0.256  -0.716  -4.045  1.00  0.00     0.020 C 
ATOM     22  C   UNL     1       2.106  -0.380  -4.760  1.00  0.00     0.020 C 
ATOM     23  C   UNL     1       1.049   1.169  -3.051  1.00  0.00     0.020 C 
ATOM     24  C   UNL     1      -0.737   0.190  -5.190  1.00  0.00    -0.010 C 
ATOM     25  C   UNL     1       1.642   0.546  -5.893  1.00  0.00    -0.010 C 
ATOM     26  C   UNL     1       0.586   2.088  -4.198  1.00  0.00    -0.010 C 
ATOM     27  C   UNL     1      -0.801   1.640  -4.686  1.00  0.00     0.007 C 
ATOM     28  C   UNL     1       0.252   0.102  -6.360  1.00  0.00     0.007 C 
ATOM     29  C   UNL     1       1.583   1.990  -5.364  1.00  0.00     0.007 C 
ENDBRANCH  17  20
ENDBRANCH   6  16
ENDBRANCH   5   6
ENDBRANCH   3   5
ENDBRANCH   2   3
ENDBRANCH   1   2
BRANCH   1  30
ATOM     30  C   UNL     1       3.341   2.035   1.789  1.00  0.00     0.275 C 
BRANCH  30  31
ATOM     31  O   UNL     1       4.118   2.760   0.816  1.00  0.00    -0.458 OA
BRANCH  31  32
ATOM     32  C   UNL     1       5.466   2.640   0.914  1.00  0.00     0.338 C 
ATOM     33  O   UNL     1       6.074   2.030   1.777  1.00  0.00    -0.246 OA
BRANCH  32  34
ATOM     34  C   UNL     1       6.096   3.167  -0.324  1.00  0.00     0.060 A 
ATOM     35  C   UNL     1       7.255   2.532  -0.795  1.00  0.00     0.016 A 
ATOM     36  C   UNL     1       5.542   4.230  -1.044  1.00  0.00     0.016 A 
ATOM     37  C   UNL     1       7.862   2.960  -1.978  1.00  0.00     0.010 A 
ATOM     38  C   UNL     1       6.163   4.673  -2.216  1.00  0.00     0.010 A 
ATOM     39  C   UNL     1       7.336   4.053  -2.677  1.00  0.00    -0.014 A 
BRANCH  39  40
ATOM     40  C   UNL     1       8.099   4.664  -3.791  1.00  0.00     0.031 A 
ATOM     41  C   UNL     1       9.078   5.757  -3.472  1.00  0.00     0.074 A 
ATOM     42  C   UNL     1       7.904   4.282  -5.066  1.00  0.00     0.049 A 
ATOM     43  N   UNL     1       9.808   6.478  -4.281  1.00  0.00    -0.248 NA
ATOM     44  C   UNL     1       9.237   6.093  -2.047  1.00  0.00     0.031 C 
ATOM     45  C   UNL     1       6.994   3.226  -5.499  1.00  0.00     0.029 A 
ATOM     46  N   UNL     1       8.467   4.743  -6.229  1.00  0.00    -0.354 N 
ATOM     47  C   UNL     1      10.489   7.377  -3.469  1.00  0.00     0.074 A 
ATOM     48  C   UNL     1      10.087   7.106  -2.105  1.00  0.00     0.031 C 
ATOM     49  C   UNL     1       7.077   3.101  -6.835  1.00  0.00     0.029 A 
ATOM     50  C   UNL     1       8.010   4.100  -7.355  1.00  0.00     0.049 A 
ATOM     51  H   UNL     1       9.134   5.466  -6.256  1.00  0.00     0.167 HD
ATOM     52  C   UNL     1      11.351   8.357  -3.828  1.00  0.00     0.031 A 
ATOM     53  C   UNL     1       8.300   4.304  -8.656  1.00  0.00     0.031 A 
ATOM     54  C   UNL     1      11.722   8.647  -5.186  1.00  0.00     0.049 A 
ATOM     55  C   UNL     1       9.265   5.396  -9.036  1.00  0.00     0.074 A 
ATOM     56  C   UNL     1      12.582   9.625  -5.652  1.00  0.00     0.029 A 
ATOM     57  N   UNL     1      11.243   7.968  -6.297  1.00  0.00    -0.354 N 
ATOM     58  N   UNL     1       9.916   6.227  -8.257  1.00  0.00    -0.248 NA
ATOM     59  C   UNL     1       9.528   5.587 -10.470  1.00  0.00     0.031 C 
ATOM     60  C   UNL     1      12.583   9.572  -7.050  1.00  0.00     0.029 A 
ATOM     61  C   UNL     1      11.768   8.524  -7.451  1.00  0.00     0.049 A 
ATOM     62  H   UNL     1      10.623   7.205  -6.269  1.00  0.00     0.167 HD
ATOM     63  C   UNL     1      10.667   7.036  -9.104  1.00  0.00     0.074 A 
ATOM     64  C   UNL     1      10.406   6.583 -10.455  1.00  0.00     0.031 C 
ATOM     65  C   UNL     1      11.492   8.066  -8.790  1.00  0.00     0.031 A 
BRANCH  52  66
ATOM     66  C   UNL     1      11.872   9.236  -2.725  1.00  0.00    -0.014 A 
ATOM     67  C   UNL     1      12.809   8.764  -1.789  1.00  0.00     0.010 A 
ATOM     68  C   UNL     1      11.381  10.549  -2.606  1.00  0.00     0.010 A 
ATOM     69  C   UNL     1      13.195   9.568  -0.713  1.00  0.00     0.020 A 
ATOM     70  C   UNL     1      11.785  11.364  -1.547  1.00  0.00     0.020 A 
ATOM     71  C   UNL     1      12.667  10.857  -0.591  1.00  0.00     0.054 A 
BRANCH  71  72
ATOM     72  S   UNL     1      13.147  11.869   0.836  1.00  0.00     0.124 S 
ATOM     73  O   UNL     1      12.345  11.278   1.904  1.00  0.00    -0.237 OA
ATOM     74  O   UNL     1      14.586  11.636   0.929  1.00  0.00    -0.237 OA
ATOM     75  O   UNL     1      12.763  13.223   0.445  1.00  0.00    -0.744 OA
ENDBRANCH  71  72
ENDBRANCH  52  66
BRANCH  53  76
ATOM     76  C   UNL     1       7.644   3.461  -9.694  1.00  0.00    -0.014 A 
ATOM     77  C   UNL     1       8.372   2.476 -10.382  1.00  0.00     0.010 A 
ATOM     78  C   UNL     1       6.271   3.611  -9.964  1.00  0.00     0.010 A 
ATOM     79  C   UNL     1       7.738   1.650 -11.318  1.00  0.00     0.020 A 
ATOM     80  C   UNL     1       5.630   2.772 -10.880  1.00  0.00     0.020 A 
ATOM     81  C   UNL     1       6.369   1.799 -11.555  1.00  0.00     0.054 A 
BRANCH  81  82
ATOM     82  S   UNL     1       5.539   0.657 -12.698  1.00  0.00     0.124 S 
ATOM     83  O   UNL     1       5.901   1.213 -13.998  1.00  0.00    -0.237 OA
ATOM     84  O   UNL     1       6.148  -0.629 -12.368  1.00  0.00    -0.237 OA
ATOM     85  O   UNL     1       4.129   0.779 -12.334  1.00  0.00    -0.744 OA
ENDBRANCH  81  82
ENDBRANCH  53  76
BRANCH  65  86
ATOM     86  C   UNL     1      12.184   8.784  -9.918  1.00  0.00    -0.014 A 
ATOM     87  C   UNL     1      11.489   9.697 -10.730  1.00  0.00     0.010 A 
ATOM     88  C   UNL     1      13.572   8.629 -10.092  1.00  0.00     0.010 A 
ATOM     89  C   UNL     1      12.168  10.438 -11.701  1.00  0.00     0.020 A 
ATOM     90  C   UNL     1      14.258   9.384 -11.048  1.00  0.00     0.020 A 
ATOM     91  C   UNL     1      13.550  10.281 -11.850  1.00  0.00     0.054 A 
BRANCH  91  92
ATOM     92  S   UNL     1      14.423  11.318 -13.057  1.00  0.00     0.124 S 
ATOM     93  O   UNL     1      14.045  10.696 -14.323  1.00  0.00    -0.237 OA
ATOM     94  O   UNL     1      13.857  12.642 -12.813  1.00  0.00    -0.237 OA
ATOM     95  O   UNL     1      15.829  11.171 -12.686  1.00  0.00    -0.744 OA
ENDBRANCH  91  92
ENDBRANCH  65  86
ENDBRANCH  39  40
ENDBRANCH  32  34
ENDBRANCH  31  32
ENDBRANCH  30  31
ENDBRANCH   1  30
TORSDOF 19
