REMARK SMILES O=C(OCCOC(=O)[C@@H]1C[NH2+]CCN1C(=O)N[C@@H]1CCOC1)c1ccc(-c2c3nc(c(-c4ccc(S(=O)(=O)[O-])cc4)c4ccc([nH]4)c(-c4ccc(S(=O)(=O)[O-])cc4)c4nc(c(-c5ccc(S(=O)(=O)[O-])cc5)c5ccc2[nH]5)C=C4)C=C3)cc1
REMARK SMILES IDX 4 1 3 2 2 3 1 4 23 5 24 6 82 7 25 8 81 9 26 10 27 11 28 12
REMARK SMILES IDX 75 13 29 14 80 15 74 16 76 17 30 18 79 19 73 20 72 21 31 23
REMARK SMILES IDX 61 24 42 25 60 26 43 27 46 28 59 29 77 30 44 31 45 32 58 34
REMARK SMILES IDX 78 35 47 36 32 37 33 38 41 39 34 40 40 41 35 42 36 43 37 44
REMARK SMILES IDX 38 45 39 46 62 47 63 48 71 49 64 50 70 51 65 52 66 53 67 54
REMARK SMILES IDX 68 55 69 56 48 57 49 58 57 59 50 60 56 61 51 62 52 63 53 64
REMARK SMILES IDX 54 65 55 66 5 67 6 68 7 69 8 70 9 71 10 72 14 73 11 74 13 75
REMARK SMILES IDX 12 76 15 79 16 80 17 81 18 83 19 84 22 85 20 86 21 87
REMARK H PARENT 76 22 46 33 11 77 11 78 17 82
REMARK Flexibility Score: inf
ROOT
ATOM      1  C   UNL     1       4.756  -1.042   0.340  1.00  0.00     0.275 C 
ENDROOT
BRANCH   1   2
ATOM      2  O   UNL     1       3.545  -1.286   1.080  1.00  0.00    -0.458 OA
BRANCH   2   3
ATOM      3  C   UNL     1       3.054  -0.671   2.184  1.00  0.00     0.338 C 
ATOM      4  O   UNL     1       2.088  -1.121   2.790  1.00  0.00    -0.246 OA
BRANCH   3   5
ATOM      5  C   UNL     1       3.590   0.654   2.555  1.00  0.00     0.060 A 
ATOM      6  C   UNL     1       4.958   0.911   2.540  1.00  0.00     0.016 A 
ATOM      7  C   UNL     1       2.678   1.690   2.829  1.00  0.00     0.016 A 
ATOM      8  C   UNL     1       5.410   2.217   2.576  1.00  0.00     0.010 A 
ATOM      9  C   UNL     1       3.142   2.998   2.996  1.00  0.00     0.010 A 
ATOM     10  C   UNL     1       4.512   3.257   2.843  1.00  0.00    -0.014 A 
BRANCH  10  11
ATOM     11  C   UNL     1       5.149   4.466   3.387  1.00  0.00     0.031 A 
ATOM     12  C   UNL     1       5.614   4.319   4.804  1.00  0.00     0.074 A 
ATOM     13  C   UNL     1       5.553   5.485   2.610  1.00  0.00     0.049 A 
ATOM     14  N   UNL     1       6.545   4.981   5.424  1.00  0.00    -0.248 NA
ATOM     15  C   UNL     1       5.078   3.166   5.557  1.00  0.00     0.031 C 
ATOM     16  C   UNL     1       5.367   5.575   1.165  1.00  0.00     0.029 A 
ATOM     17  N   UNL     1       6.242   6.624   2.922  1.00  0.00    -0.354 N 
ATOM     18  C   UNL     1       6.778   4.262   6.587  1.00  0.00     0.074 A 
ATOM     19  C   UNL     1       5.883   3.132   6.602  1.00  0.00     0.031 C 
ATOM     20  C   UNL     1       5.840   6.756   0.726  1.00  0.00     0.029 A 
ATOM     21  C   UNL     1       6.419   7.475   1.855  1.00  0.00     0.049 A 
ATOM     22  H   UNL     1       6.580   6.818   3.826  1.00  0.00     0.167 HD
ATOM     23  C   UNL     1       7.670   4.530   7.561  1.00  0.00     0.031 A 
ATOM     24  C   UNL     1       7.009   8.685   1.814  1.00  0.00     0.031 A 
ATOM     25  C   UNL     1       8.409   5.755   7.598  1.00  0.00     0.049 A 
ATOM     26  C   UNL     1       7.739   9.130   3.055  1.00  0.00     0.074 A 
ATOM     27  C   UNL     1       9.200   6.255   8.610  1.00  0.00     0.029 A 
ATOM     28  N   UNL     1       8.382   6.708   6.585  1.00  0.00    -0.354 N 
ATOM     29  N   UNL     1       7.940   8.460   4.169  1.00  0.00    -0.248 NA
ATOM     30  C   UNL     1       8.362  10.457   3.026  1.00  0.00     0.031 C 
ATOM     31  C   UNL     1       9.578   7.552   8.246  1.00  0.00     0.029 A 
ATOM     32  C   UNL     1       9.101   7.820   6.969  1.00  0.00     0.049 A 
ATOM     33  H   UNL     1       7.919   6.603   5.723  1.00  0.00     0.167 HD
ATOM     34  C   UNL     1       8.769   9.256   4.948  1.00  0.00     0.074 A 
ATOM     35  C   UNL     1       9.015  10.464   4.181  1.00  0.00     0.031 C 
ATOM     36  C   UNL     1       9.304   9.004   6.170  1.00  0.00     0.031 A 
BRANCH  23  37
ATOM     37  C   UNL     1       7.718   3.554   8.696  1.00  0.00    -0.014 A 
ATOM     38  C   UNL     1       8.298   2.279   8.546  1.00  0.00     0.010 A 
ATOM     39  C   UNL     1       7.056   3.873   9.893  1.00  0.00     0.010 A 
ATOM     40  C   UNL     1       8.177   1.327   9.562  1.00  0.00     0.020 A 
ATOM     41  C   UNL     1       6.950   2.931  10.917  1.00  0.00     0.020 A 
ATOM     42  C   UNL     1       7.495   1.658  10.738  1.00  0.00     0.054 A 
BRANCH  42  43
ATOM     43  S   UNL     1       7.323   0.400  12.032  1.00  0.00     0.124 S 
ATOM     44  O   UNL     1       6.364  -0.522  11.430  1.00  0.00    -0.237 OA
ATOM     45  O   UNL     1       8.686  -0.108  12.164  1.00  0.00    -0.237 OA
ATOM     46  O   UNL     1       6.827   1.152  13.182  1.00  0.00    -0.744 OA
ENDBRANCH  42  43
ENDBRANCH  23  37
BRANCH  24  47
ATOM     47  C   UNL     1       6.938   9.539   0.593  1.00  0.00    -0.014 A 
ATOM     48  C   UNL     1       8.084   9.870  -0.150  1.00  0.00     0.010 A 
ATOM     49  C   UNL     1       5.697  10.071   0.190  1.00  0.00     0.010 A 
ATOM     50  C   UNL     1       7.997  10.737  -1.249  1.00  0.00     0.020 A 
ATOM     51  C   UNL     1       5.601  10.922  -0.918  1.00  0.00     0.020 A 
ATOM     52  C   UNL     1       6.756  11.261  -1.624  1.00  0.00     0.054 A 
BRANCH  52  53
ATOM     53  S   UNL     1       6.667  12.383  -3.050  1.00  0.00     0.124 S 
ATOM     54  O   UNL     1       7.373  13.562  -2.556  1.00  0.00    -0.237 OA
ATOM     55  O   UNL     1       7.355  11.623  -4.090  1.00  0.00    -0.237 OA
ATOM     56  O   UNL     1       5.232  12.559  -3.261  1.00  0.00    -0.744 OA
ENDBRANCH  52  53
ENDBRANCH  24  47
BRANCH  36  57
ATOM     57  C   UNL     1      10.247  10.031   6.726  1.00  0.00    -0.014 A 
ATOM     58  C   UNL     1       9.791  11.277   7.184  1.00  0.00     0.010 A 
ATOM     59  C   UNL     1      11.607   9.694   6.865  1.00  0.00     0.010 A 
ATOM     60  C   UNL     1      10.690  12.187   7.741  1.00  0.00     0.020 A 
ATOM     61  C   UNL     1      12.499  10.585   7.456  1.00  0.00     0.020 A 
ATOM     62  C   UNL     1      12.037  11.833   7.876  1.00  0.00     0.054 A 
BRANCH  62  63
ATOM     63  S   UNL     1      13.173  13.011   8.651  1.00  0.00     0.124 S 
ATOM     64  O   UNL     1      13.335  14.011   7.599  1.00  0.00    -0.237 OA
ATOM     65  O   UNL     1      12.425  13.449   9.827  1.00  0.00    -0.237 OA
ATOM     66  O   UNL     1      14.360  12.209   8.938  1.00  0.00    -0.744 OA
ENDBRANCH  62  63
ENDBRANCH  36  57
ENDBRANCH  10  11
ENDBRANCH   3   5
ENDBRANCH   2   3
ENDBRANCH   1   2
BRANCH   1  67
ATOM     67  C   UNL     1       5.020   0.289  -0.384  1.00  0.00     0.274 C 
BRANCH  67  68
ATOM     68  O   UNL     1       4.170   1.437  -0.244  1.00  0.00    -0.460 OA
BRANCH  68  69
ATOM     69  C   UNL     1       2.817   1.451  -0.395  1.00  0.00     0.334 C 
ATOM     70  O   UNL     1       2.070   0.490  -0.337  1.00  0.00    -0.250 OA
BRANCH  69  71
ATOM     71  C   UNL     1       2.347   2.893  -0.521  1.00  0.00     0.252 C 
ATOM     72  C   UNL     1       0.823   3.080  -0.492  1.00  0.00     0.298 C 
ATOM     73  N   UNL     1       2.927   3.771  -1.543  1.00  0.00    -0.300 N 
ATOM     74  N   UNL     1       0.458   4.471  -0.115  1.00  0.00    -0.343 N 
ATOM     75  C   UNL     1       2.650   5.187  -1.253  1.00  0.00     0.183 C 
ATOM     76  C   UNL     1       1.147   5.451  -0.991  1.00  0.00     0.282 C 
ATOM     77  H   UNL     1       0.731   4.638   0.853  1.00  0.00     0.346 HD
ATOM     78  H   UNL     1      -0.550   4.587  -0.224  1.00  0.00     0.346 HD
BRANCH  73  79
ATOM     79  C   UNL     1       3.893   3.428  -2.449  1.00  0.00     0.318 C 
ATOM     80  O   UNL     1       4.726   4.238  -2.853  1.00  0.00    -0.249 OA
ATOM     81  N   UNL     1       3.989   2.149  -2.917  1.00  0.00    -0.333 N 
ATOM     82  H   UNL     1       4.883   1.741  -2.864  1.00  0.00     0.165 HD
BRANCH  81  83
ATOM     83  C   UNL     1       2.930   1.298  -3.492  1.00  0.00     0.112 C 
ATOM     84  C   UNL     1       2.949  -0.162  -3.057  1.00  0.00     0.056 C 
ATOM     85  C   UNL     1       3.187   1.087  -4.988  1.00  0.00     0.185 C 
ATOM     86  C   UNL     1       3.972  -0.832  -3.942  1.00  0.00     0.162 C 
ATOM     87  O   UNL     1       4.116  -0.012  -5.101  1.00  0.00    -0.379 OA
ENDBRANCH  81  83
ENDBRANCH  73  79
ENDBRANCH  69  71
ENDBRANCH  68  69
ENDBRANCH  67  68
ENDBRANCH   1  67
TORSDOF 16
