REMARK SMILES O=C1C[C@@H](C(=O)Nc2cccc(C(=O)OCCOC(=O)c3ccc(-c4c5nc(c(-c6ccc(S(=O)(=O)[O-])cc6)c6ccc([nH]6)c(-c6ccc(S(=O)(=O)[O-])cc6)c6nc(c(-c7ccc(S(=O)(=O)[O-])cc7)c7ccc4[nH]7)C=C6)C=C5)cc3)c2)[C@H](c2ccccc2)O1
REMARK SMILES IDX 16 1 15 2 13 3 14 4 12 5 8 6 9 7 81 8 10 9 11 10 7 11 5 12
REMARK SMILES IDX 6 13 4 15 1 16 2 17 3 18 89 19 82 20 83 21 84 22 88 23 85 24
REMARK SMILES IDX 87 25 86 26 17 27 18 28 19 29 20 30 21 31 22 32 80 33 23 34
REMARK SMILES IDX 79 35 24 36 25 37 26 38 73 39 27 40 78 41 72 42 74 43 28 44
REMARK SMILES IDX 77 45 71 46 70 47 29 49 59 50 40 51 58 52 41 53 44 54 57 55
REMARK SMILES IDX 75 56 42 57 43 58 56 60 76 61 45 62 30 63 31 64 39 65 32 66
REMARK SMILES IDX 38 67 33 68 34 69 35 70 36 71 37 72 60 73 61 74 69 75 62 76
REMARK SMILES IDX 68 77 63 78 64 79 65 80 66 81 67 82 46 83 47 84 55 85 48 86
REMARK SMILES IDX 54 87 49 88 50 89 51 90 52 91 53 92
REMARK H PARENT 7 14 74 48 44 59
REMARK Flexibility Score: inf
ROOT
ATOM      1  C   UNL     1       4.648   3.398  -3.432  1.00  0.00     0.275 C 
ENDROOT
BRANCH   1   2
ATOM      2  O   UNL     1       4.688   2.790  -2.127  1.00  0.00    -0.458 OA
BRANCH   2   3
ATOM      3  C   UNL     1       5.120   1.505  -2.097  1.00  0.00     0.338 C 
ATOM      4  O   UNL     1       5.385   0.812  -3.062  1.00  0.00    -0.246 OA
BRANCH   3   5
ATOM      5  C   UNL     1       5.221   1.007  -0.702  1.00  0.00     0.062 A 
ATOM      6  C   UNL     1       4.100   0.673   1.397  1.00  0.00     0.042 A 
ATOM      7  C   UNL     1       5.074  -0.240   1.799  1.00  0.00     0.026 A 
ATOM      8  C   UNL     1       4.259   1.399   0.221  1.00  0.00     0.041 A 
ATOM      9  C   UNL     1       6.089  -0.587   0.912  1.00  0.00     0.003 A 
ATOM     10  C   UNL     1       6.114  -0.017  -0.360  1.00  0.00     0.016 A 
BRANCH   6  11
ATOM     11  N   UNL     1       2.928   0.765   2.151  1.00  0.00    -0.326 N 
ATOM     12  C   UNL     1       1.632   0.865   1.708  1.00  0.00     0.232 C 
ATOM     13  O   UNL     1       0.752   1.039   2.554  1.00  0.00    -0.274 OA
ATOM     14  H   UNL     1       3.046   0.758   3.128  1.00  0.00     0.169 HD
BRANCH  12  15
ATOM     15  C   UNL     1       1.273   0.620   0.232  1.00  0.00     0.135 C 
ATOM     16  O   UNL     1      -2.201   0.003   0.172  1.00  0.00    -0.252 OA
ATOM     17  C   UNL     1      -0.981  -0.025   0.135  1.00  0.00     0.307 C 
ATOM     18  C   UNL     1      -0.103   1.164  -0.085  1.00  0.00     0.140 C 
ATOM     19  O   UNL     1      -0.243  -1.169   0.202  1.00  0.00    -0.457 OA
ATOM     20  C   UNL     1       1.139  -0.875  -0.046  1.00  0.00     0.220 C 
BRANCH  20  21
ATOM     21  C   UNL     1       1.533  -1.283  -1.463  1.00  0.00    -0.007 A 
ATOM     22  C   UNL     1       0.595  -1.595  -2.460  1.00  0.00     0.007 A 
ATOM     23  C   UNL     1       2.891  -1.369  -1.804  1.00  0.00     0.007 A 
ATOM     24  C   UNL     1       1.005  -1.935  -3.756  1.00  0.00     0.000 A 
ATOM     25  C   UNL     1       3.302  -1.681  -3.104  1.00  0.00     0.000 A 
ATOM     26  C   UNL     1       2.357  -1.959  -4.083  1.00  0.00     0.000 A 
ENDBRANCH  20  21
ENDBRANCH  12  15
ENDBRANCH   6  11
ENDBRANCH   3   5
ENDBRANCH   2   3
ENDBRANCH   1   2
BRANCH   1  27
ATOM     27  C   UNL     1       5.903   4.237  -3.679  1.00  0.00     0.275 C 
BRANCH  27  28
ATOM     28  O   UNL     1       7.071   3.404  -3.805  1.00  0.00    -0.458 OA
BRANCH  28  29
ATOM     29  C   UNL     1       7.798   3.265  -2.674  1.00  0.00     0.338 C 
ATOM     30  O   UNL     1       7.587   3.787  -1.590  1.00  0.00    -0.246 OA
BRANCH  29  31
ATOM     31  C   UNL     1       8.872   2.284  -2.874  1.00  0.00     0.060 A 
ATOM     32  C   UNL     1       8.571   0.937  -2.712  1.00  0.00     0.016 A 
ATOM     33  C   UNL     1      10.193   2.683  -3.030  1.00  0.00     0.016 A 
ATOM     34  C   UNL     1       9.575  -0.009  -2.571  1.00  0.00     0.010 A 
ATOM     35  C   UNL     1      11.202   1.712  -3.023  1.00  0.00     0.010 A 
ATOM     36  C   UNL     1      10.907   0.359  -2.756  1.00  0.00    -0.014 A 
BRANCH  36  37
ATOM     37  C   UNL     1      11.987  -0.658  -2.653  1.00  0.00     0.031 A 
ATOM     38  C   UNL     1      13.120  -0.441  -1.686  1.00  0.00     0.074 A 
ATOM     39  C   UNL     1      11.967  -1.758  -3.436  1.00  0.00     0.049 A 
ATOM     40  N   UNL     1      14.276  -1.046  -1.624  1.00  0.00    -0.248 NA
ATOM     41  C   UNL     1      12.937   0.608  -0.666  1.00  0.00     0.031 C 
ATOM     42  C   UNL     1      10.891  -2.134  -4.360  1.00  0.00     0.029 A 
ATOM     43  N   UNL     1      12.892  -2.763  -3.592  1.00  0.00    -0.354 N 
ATOM     44  C   UNL     1      14.987  -0.401  -0.619  1.00  0.00     0.074 A 
ATOM     45  C   UNL     1      14.128   0.631  -0.083  1.00  0.00     0.031 C 
ATOM     46  C   UNL     1      11.212  -3.281  -4.975  1.00  0.00     0.029 A 
ATOM     47  C   UNL     1      12.559  -3.666  -4.577  1.00  0.00     0.049 A 
ATOM     48  H   UNL     1      13.712  -2.830  -3.052  1.00  0.00     0.167 HD
ATOM     49  C   UNL     1      16.251  -0.643  -0.201  1.00  0.00     0.031 A 
ATOM     50  C   UNL     1      13.279  -4.646  -5.155  1.00  0.00     0.031 A 
ATOM     51  C   UNL     1      17.070  -1.709  -0.712  1.00  0.00     0.049 A 
ATOM     52  C   UNL     1      14.699  -4.857  -4.708  1.00  0.00     0.074 A 
ATOM     53  C   UNL     1      18.350  -2.066  -0.325  1.00  0.00     0.029 A 
ATOM     54  N   UNL     1      16.691  -2.592  -1.712  1.00  0.00    -0.354 N 
ATOM     55  N   UNL     1      15.368  -4.226  -3.774  1.00  0.00    -0.248 NA
ATOM     56  C   UNL     1      15.467  -5.902  -5.400  1.00  0.00     0.031 C 
ATOM     57  C   UNL     1      18.769  -3.124  -1.135  1.00  0.00     0.029 A 
ATOM     58  C   UNL     1      17.723  -3.474  -1.974  1.00  0.00     0.049 A 
ATOM     59  H   UNL     1      15.818  -2.591  -2.166  1.00  0.00     0.167 HD
ATOM     60  C   UNL     1      16.623  -4.822  -3.741  1.00  0.00     0.074 A 
ATOM     61  C   UNL     1      16.618  -5.867  -4.742  1.00  0.00     0.031 C 
ATOM     62  C   UNL     1      17.684  -4.530  -2.952  1.00  0.00     0.031 A 
BRANCH  49  63
ATOM     63  C   UNL     1      16.862   0.282   0.817  1.00  0.00    -0.014 A 
ATOM     64  C   UNL     1      16.486   0.251   2.170  1.00  0.00     0.010 A 
ATOM     65  C   UNL     1      17.915   1.129   0.418  1.00  0.00     0.010 A 
ATOM     66  C   UNL     1      17.146   1.057   3.103  1.00  0.00     0.020 A 
ATOM     67  C   UNL     1      18.594   1.915   1.351  1.00  0.00     0.020 A 
ATOM     68  C   UNL     1      18.201   1.878   2.689  1.00  0.00     0.054 A 
BRANCH  68  69
ATOM     69  S   UNL     1      19.088   2.855   3.934  1.00  0.00     0.124 S 
ATOM     70  O   UNL     1      18.097   3.869   4.284  1.00  0.00    -0.237 OA
ATOM     71  O   UNL     1      19.369   1.867   4.973  1.00  0.00    -0.237 OA
ATOM     72  O   UNL     1      20.260   3.352   3.217  1.00  0.00    -0.744 OA
ENDBRANCH  68  69
ENDBRANCH  49  63
BRANCH  50  73
ATOM     73  C   UNL     1      12.707  -5.439  -6.281  1.00  0.00    -0.014 A 
ATOM     74  C   UNL     1      12.484  -6.820  -6.149  1.00  0.00     0.010 A 
ATOM     75  C   UNL     1      12.408  -4.815  -7.508  1.00  0.00     0.010 A 
ATOM     76  C   UNL     1      12.011  -7.568  -7.232  1.00  0.00     0.020 A 
ATOM     77  C   UNL     1      11.898  -5.551  -8.580  1.00  0.00     0.020 A 
ATOM     78  C   UNL     1      11.726  -6.928  -8.442  1.00  0.00     0.054 A 
BRANCH  78  79
ATOM     79  S   UNL     1      11.112  -7.916  -9.834  1.00  0.00     0.124 S 
ATOM     80  O   UNL     1      12.316  -8.625 -10.254  1.00  0.00    -0.237 OA
ATOM     81  O   UNL     1      10.079  -8.737  -9.208  1.00  0.00    -0.237 OA
ATOM     82  O   UNL     1      10.616  -6.912 -10.773  1.00  0.00    -0.744 OA
ENDBRANCH  78  79
ENDBRANCH  50  73
BRANCH  62  83
ATOM     83  C   UNL     1      18.906  -5.397  -3.073  1.00  0.00    -0.014 A 
ATOM     84  C   UNL     1      19.776  -5.290  -4.171  1.00  0.00     0.010 A 
ATOM     85  C   UNL     1      19.236  -6.261  -2.012  1.00  0.00     0.010 A 
ATOM     86  C   UNL     1      20.954  -6.040  -4.208  1.00  0.00     0.020 A 
ATOM     87  C   UNL     1      20.426  -6.988  -2.032  1.00  0.00     0.020 A 
ATOM     88  C   UNL     1      21.276  -6.877  -3.133  1.00  0.00     0.054 A 
BRANCH  88  89
ATOM     89  S   UNL     1      22.855  -7.768  -3.164  1.00  0.00     0.124 S 
ATOM     90  O   UNL     1      22.609  -8.787  -4.181  1.00  0.00    -0.237 OA
ATOM     91  O   UNL     1      23.804  -6.722  -3.539  1.00  0.00    -0.237 OA
ATOM     92  O   UNL     1      22.997  -8.271  -1.800  1.00  0.00    -0.744 OA
ENDBRANCH  88  89
ENDBRANCH  62  83
ENDBRANCH  36  37
ENDBRANCH  29  31
ENDBRANCH  28  29
ENDBRANCH  27  28
ENDBRANCH   1  27
TORSDOF 17
