REMARK SMILES Cc1nccc(CNC(=O)N2CC[C@@H](C(=O)OCCOC(=O)c3ccc(-c4c5nc(c(-c6ccc(S(=O)(=O)[O-])cc6)c6ccc([nH]6)c(-c6ccc(S(=O)(=O)[O-])cc6)c6nc(c(-c7ccc(S(=O)(=O)[O-])cc7)c7ccc4[nH]7)C=C6)C=C5)cc3)[C@H]2C)n1
REMARK SMILES IDX 18 1 17 2 15 3 16 4 14 5 11 6 12 7 83 8 13 9 84 10 9 11 8 12
REMARK SMILES IDX 10 14 7 15 6 16 1 17 2 18 3 19 85 20 4 21 5 22 19 23 20 24
REMARK SMILES IDX 21 25 22 26 23 27 24 28 82 29 25 30 81 31 26 32 27 33 28 34
REMARK SMILES IDX 75 35 29 36 80 37 74 38 76 39 30 40 79 41 73 42 72 43 31 45
REMARK SMILES IDX 61 46 42 47 60 48 43 49 46 50 59 51 77 52 44 53 45 54 58 56
REMARK SMILES IDX 78 57 47 58 32 59 33 60 41 61 34 62 40 63 35 64 36 65 37 66
REMARK SMILES IDX 38 67 39 68 62 69 63 70 71 71 64 72 70 73 65 74 66 75 67 76
REMARK SMILES IDX 68 77 69 78 48 79 49 80 57 81 50 82 56 83 51 84 52 85 53 86
REMARK SMILES IDX 54 87 55 88
REMARK H PARENT 8 13 76 44 46 55
REMARK Flexibility Score: inf
ROOT
ATOM      1  C   UNL     1       4.404   3.303  -6.100  1.00  0.00     0.274 C 
ENDROOT
BRANCH   1   2
ATOM      2  O   UNL     1       4.536   2.785  -4.760  1.00  0.00    -0.462 OA
BRANCH   2   3
ATOM      3  C   UNL     1       5.545   3.287  -4.013  1.00  0.00     0.311 C 
ATOM      4  O   UNL     1       6.476   3.935  -4.476  1.00  0.00    -0.252 OA
BRANCH   3   5
ATOM      5  C   UNL     1       5.458   2.942  -2.541  1.00  0.00     0.123 C 
ATOM      6  N   UNL     1       4.374   2.171  -0.558  1.00  0.00    -0.321 N 
ATOM      7  C   UNL     1       5.615   1.429  -0.772  1.00  0.00     0.122 C 
ATOM      8  C   UNL     1       4.153   3.108  -1.711  1.00  0.00     0.098 C 
ATOM      9  C   UNL     1       5.889   1.513  -2.256  1.00  0.00     0.039 C 
ATOM     10  C   UNL     1       2.859   2.824  -2.465  1.00  0.00     0.032 C 
BRANCH   6  11
ATOM     11  C   UNL     1       4.047   2.382   0.756  1.00  0.00     0.317 C 
ATOM     12  N   UNL     1       2.783   2.577   1.163  1.00  0.00    -0.332 N 
ATOM     13  H   UNL     1       2.725   2.906   2.089  1.00  0.00     0.165 HD
ATOM     14  O   UNL     1       4.883   2.274   1.657  1.00  0.00    -0.249 OA
BRANCH  12  15
ATOM     15  C   UNL     1       1.488   2.412   0.545  1.00  0.00     0.174 C 
BRANCH  15  16
ATOM     16  C   UNL     1       0.895   1.022   0.550  1.00  0.00     0.063 A 
ATOM     17  C   UNL     1      -2.524  -0.282   0.199  1.00  0.00     0.089 C 
ATOM     18  C   UNL     1      -1.035  -0.237   0.344  1.00  0.00     0.125 A 
ATOM     19  N   UNL     1      -0.366  -1.402   0.311  1.00  0.00    -0.242 NA
ATOM     20  N   UNL     1      -0.458   0.971   0.466  1.00  0.00    -0.236 NA
ATOM     21  C   UNL     1       0.974  -1.314   0.398  1.00  0.00     0.115 A 
ATOM     22  C   UNL     1       1.661  -0.125   0.510  1.00  0.00     0.046 A 
ENDBRANCH  15  16
ENDBRANCH  12  15
ENDBRANCH   6  11
ENDBRANCH   3   5
ENDBRANCH   2   3
ENDBRANCH   1   2
BRANCH   1  23
ATOM     23  C   UNL     1       3.578   4.599  -6.134  1.00  0.00     0.275 C 
BRANCH  23  24
ATOM     24  O   UNL     1       4.342   5.736  -5.688  1.00  0.00    -0.458 OA
BRANCH  24  25
ATOM     25  C   UNL     1       4.155   6.111  -4.403  1.00  0.00     0.338 C 
ATOM     26  O   UNL     1       3.371   5.618  -3.599  1.00  0.00    -0.246 OA
BRANCH  25  27
ATOM     27  C   UNL     1       5.151   7.115  -4.013  1.00  0.00     0.060 A 
ATOM     28  C   UNL     1       6.034   6.792  -2.978  1.00  0.00     0.016 A 
ATOM     29  C   UNL     1       5.175   8.382  -4.595  1.00  0.00     0.016 A 
ATOM     30  C   UNL     1       6.950   7.730  -2.519  1.00  0.00     0.010 A 
ATOM     31  C   UNL     1       6.093   9.329  -4.130  1.00  0.00     0.010 A 
ATOM     32  C   UNL     1       6.977   9.010  -3.084  1.00  0.00    -0.014 A 
BRANCH  32  33
ATOM     33  C   UNL     1       7.893  10.029  -2.523  1.00  0.00     0.031 A 
ATOM     34  C   UNL     1       7.346  11.102  -1.627  1.00  0.00     0.074 A 
ATOM     35  C   UNL     1       9.211   9.960  -2.783  1.00  0.00     0.049 A 
ATOM     36  N   UNL     1       7.966  12.114  -1.079  1.00  0.00    -0.248 NA
ATOM     37  C   UNL     1       5.912  11.023  -1.305  1.00  0.00     0.031 C 
ATOM     38  C   UNL     1       9.862   8.923  -3.586  1.00  0.00     0.029 A 
ATOM     39  N   UNL     1      10.240  10.777  -2.391  1.00  0.00    -0.354 N 
ATOM     40  C   UNL     1       6.996  12.805  -0.362  1.00  0.00     0.074 A 
ATOM     41  C   UNL     1       5.745  12.105  -0.559  1.00  0.00     0.031 C 
ATOM     42  C   UNL     1      11.183   9.162  -3.619  1.00  0.00     0.029 A 
ATOM     43  C   UNL     1      11.465  10.389  -2.880  1.00  0.00     0.049 A 
ATOM     44  H   UNL     1      10.114  11.565  -1.815  1.00  0.00     0.167 HD
ATOM     45  C   UNL     1       7.138  13.924   0.389  1.00  0.00     0.031 A 
ATOM     46  C   UNL     1      12.674  10.971  -2.761  1.00  0.00     0.031 A 
ATOM     47  C   UNL     1       8.386  14.617   0.572  1.00  0.00     0.049 A 
ATOM     48  C   UNL     1      12.796  12.245  -1.971  1.00  0.00     0.074 A 
ATOM     49  C   UNL     1       8.634  15.771   1.294  1.00  0.00     0.029 A 
ATOM     50  N   UNL     1       9.598  14.215   0.030  1.00  0.00    -0.354 N 
ATOM     51  N   UNL     1      11.864  12.908  -1.327  1.00  0.00    -0.248 NA
ATOM     52  C   UNL     1      14.132  12.850  -1.891  1.00  0.00     0.031 C 
ATOM     53  C   UNL     1       9.991  16.087   1.158  1.00  0.00     0.029 A 
ATOM     54  C   UNL     1      10.597  15.103   0.392  1.00  0.00     0.049 A 
ATOM     55  H   UNL     1       9.729  13.416  -0.530  1.00  0.00     0.167 HD
ATOM     56  C   UNL     1      12.506  13.994  -0.745  1.00  0.00     0.074 A 
ATOM     57  C   UNL     1      13.906  13.895  -1.106  1.00  0.00     0.031 C 
ATOM     58  C   UNL     1      11.984  14.984   0.022  1.00  0.00     0.031 A 
BRANCH  45  59
ATOM     59  C   UNL     1       5.896  14.486   1.025  1.00  0.00    -0.014 A 
ATOM     60  C   UNL     1       5.289  13.855   2.126  1.00  0.00     0.010 A 
ATOM     61  C   UNL     1       5.328  15.666   0.512  1.00  0.00     0.010 A 
ATOM     62  C   UNL     1       4.109  14.369   2.671  1.00  0.00     0.020 A 
ATOM     63  C   UNL     1       4.161  16.196   1.070  1.00  0.00     0.020 A 
ATOM     64  C   UNL     1       3.547  15.531   2.133  1.00  0.00     0.054 A 
BRANCH  64  65
ATOM     65  S   UNL     1       2.010  16.175   2.851  1.00  0.00     0.124 S 
ATOM     66  O   UNL     1       1.016  15.255   2.304  1.00  0.00    -0.237 OA
ATOM     67  O   UNL     1       2.250  16.058   4.287  1.00  0.00    -0.237 OA
ATOM     68  O   UNL     1       1.938  17.543   2.344  1.00  0.00    -0.744 OA
ENDBRANCH  64  65
ENDBRANCH  45  59
BRANCH  46  69
ATOM     69  C   UNL     1      13.858  10.359  -3.421  1.00  0.00    -0.014 A 
ATOM     70  C   UNL     1      14.861   9.737  -2.659  1.00  0.00     0.010 A 
ATOM     71  C   UNL     1      13.975  10.377  -4.824  1.00  0.00     0.010 A 
ATOM     72  C   UNL     1      15.964   9.150  -3.286  1.00  0.00     0.020 A 
ATOM     73  C   UNL     1      15.064   9.770  -5.455  1.00  0.00     0.020 A 
ATOM     74  C   UNL     1      16.057   9.168  -4.681  1.00  0.00     0.054 A 
BRANCH  74  75
ATOM     75  S   UNL     1      17.464   8.345  -5.479  1.00  0.00     0.124 S 
ATOM     76  O   UNL     1      18.541   9.305  -5.261  1.00  0.00    -0.237 OA
ATOM     77  O   UNL     1      17.568   7.095  -4.731  1.00  0.00    -0.237 OA
ATOM     78  O   UNL     1      17.028   8.195  -6.866  1.00  0.00    -0.744 OA
ENDBRANCH  74  75
ENDBRANCH  46  69
BRANCH  58  79
ATOM     79  C   UNL     1      12.941  16.015   0.555  1.00  0.00    -0.014 A 
ATOM     80  C   UNL     1      13.470  17.017  -0.276  1.00  0.00     0.010 A 
ATOM     81  C   UNL     1      13.277  16.004   1.921  1.00  0.00     0.010 A 
ATOM     82  C   UNL     1      14.347  17.973   0.245  1.00  0.00     0.020 A 
ATOM     83  C   UNL     1      14.134  16.971   2.450  1.00  0.00     0.020 A 
ATOM     84  C   UNL     1      14.676  17.941   1.604  1.00  0.00     0.054 A 
BRANCH  84  85
ATOM     85  S   UNL     1      15.786  19.214   2.268  1.00  0.00     0.124 S 
ATOM     86  O   UNL     1      17.092  18.744   1.813  1.00  0.00    -0.237 OA
ATOM     87  O   UNL     1      15.299  20.434   1.627  1.00  0.00    -0.237 OA
ATOM     88  O   UNL     1      15.566  19.146   3.710  1.00  0.00    -0.744 OA
ENDBRANCH  84  85
ENDBRANCH  58  79
ENDBRANCH  32  33
ENDBRANCH  25  27
ENDBRANCH  24  25
ENDBRANCH  23  24
ENDBRANCH   1  23
TORSDOF 17
