REMARK SMILES CCOC(=O)c1noc(C)c1C(=O)OCCOC(=O)c1ccc(-c2c3nc(c(-c4ccc(S(=O)(=O)[O-])cc4)c4ccc([nH]4)c(-c4ccc(S(=O)(=O)[O-])cc4)c4nc(c(-c5ccc(S(=O)(=O)[O-])cc5)c5ccc2[nH]5)C=C4)C=C3)cc1
REMARK SMILES IDX 15 1 14 2 12 3 13 4 11 5 6 6 7 7 8 8 9 9 10 10 4 11 5 12
REMARK SMILES IDX 3 13 2 14 1 15 16 16 17 17 18 18 19 19 20 20 21 21 79 22
REMARK SMILES IDX 22 23 78 24 23 25 24 26 25 27 72 28 26 29 77 30 71 31 73 32
REMARK SMILES IDX 27 33 76 34 70 35 69 36 28 38 58 39 39 40 57 41 40 42 43 43
REMARK SMILES IDX 56 44 74 45 41 46 42 47 55 49 75 50 44 51 29 52 30 53 38 54
REMARK SMILES IDX 31 55 37 56 32 57 33 58 34 59 35 60 36 61 59 62 60 63 68 64
REMARK SMILES IDX 61 65 67 66 62 67 63 68 64 69 65 70 66 71 45 72 46 73 54 74
REMARK SMILES IDX 47 75 53 76 48 77 49 78 50 79 51 80 52 81
REMARK H PARENT 73 37 43 48
REMARK Flexibility Score: inf
ROOT
ATOM      1  C   UNL     1       0.297  -5.935  -4.961  1.00  0.00     0.275 C 
ENDROOT
BRANCH   1   2
ATOM      2  O   UNL     1       0.790  -6.052  -3.604  1.00  0.00    -0.458 OA
BRANCH   2   3
ATOM      3  C   UNL     1       1.669  -5.074  -3.213  1.00  0.00     0.344 C 
ATOM      4  O   UNL     1       2.232  -4.335  -4.011  1.00  0.00    -0.246 OA
BRANCH   3   5
ATOM      5  C   UNL     1       1.966  -5.089  -1.793  1.00  0.00     0.137 A 
ATOM      6  C   UNL     1       1.666  -4.284  -0.588  1.00  0.00     0.206 A 
ATOM      7  N   UNL     1       2.358  -4.856   0.432  1.00  0.00    -0.072 NA
ATOM      8  O   UNL     1       3.012  -5.960  -0.030  1.00  0.00    -0.360 OA
ATOM      9  C   UNL     1       2.770  -6.120  -1.342  1.00  0.00     0.149 A 
ATOM     10  C   UNL     1       3.394  -7.295  -1.998  1.00  0.00     0.092 C 
BRANCH   6  11
ATOM     11  C   UNL     1       0.771  -3.100  -0.108  1.00  0.00     0.361 C 
ATOM     12  O   UNL     1       0.324  -3.156   1.044  1.00  0.00    -0.244 OA
BRANCH  11  13
ATOM     13  O   UNL     1       0.410  -1.884  -0.847  1.00  0.00    -0.461 OA
BRANCH  13  14
ATOM     14  C   UNL     1       0.162  -0.414  -2.207  1.00  0.00     0.230 C 
ATOM     15  C   UNL     1       1.191   0.083  -3.389  1.00  0.00     0.049 C 
ENDBRANCH  13  14
ENDBRANCH  11  13
ENDBRANCH   6  11
ENDBRANCH   3   5
ENDBRANCH   2   3
ENDBRANCH   1   2
BRANCH   1  16
ATOM     16  C   UNL     1      -0.960  -5.061  -4.999  1.00  0.00     0.275 C 
BRANCH  16  17
ATOM     17  O   UNL     1      -0.650  -3.763  -4.463  1.00  0.00    -0.458 OA
BRANCH  17  18
ATOM     18  C   UNL     1      -0.787  -3.736  -3.127  1.00  0.00     0.338 C 
ATOM     19  O   UNL     1      -1.275  -4.599  -2.411  1.00  0.00    -0.246 OA
BRANCH  18  20
ATOM     20  C   UNL     1      -0.223  -2.551  -2.514  1.00  0.00     0.060 A 
ATOM     21  C   UNL     1       1.539  -2.076  -2.343  1.00  0.00     0.016 A 
ATOM     22  C   UNL     1      -1.448  -1.830  -1.407  1.00  0.00     0.016 A 
ATOM     23  C   UNL     1       2.010  -0.858  -1.057  1.00  0.00     0.010 A 
ATOM     24  C   UNL     1      -0.960  -0.628  -0.196  1.00  0.00     0.010 A 
ATOM     25  C   UNL     1       0.748  -0.131   0.008  1.00  0.00    -0.014 A 
BRANCH  25  26
ATOM     26  C   UNL     1       1.018   1.053   0.914  1.00  0.00     0.031 A 
ATOM     27  C   UNL     1       0.476   1.153   2.328  1.00  0.00     0.074 A 
ATOM     28  C   UNL     1       1.564   2.180   0.406  1.00  0.00     0.049 A 
ATOM     29  N   UNL     1       0.551   2.163   3.167  1.00  0.00    -0.248 NA
ATOM     30  C   UNL     1      -0.332   0.034   2.828  1.00  0.00     0.031 C 
ATOM     31  C   UNL     1       1.831   2.417  -1.002  1.00  0.00     0.029 A 
ATOM     32  N   UNL     1       1.983   3.355   0.990  1.00  0.00    -0.354 N 
ATOM     33  C   UNL     1      -0.277   1.844   4.242  1.00  0.00     0.074 A 
ATOM     34  C   UNL     1      -0.848   0.546   3.939  1.00  0.00     0.031 C 
ATOM     35  C   UNL     1       2.509   3.555  -1.172  1.00  0.00     0.029 A 
ATOM     36  C   UNL     1       2.671   4.182   0.123  1.00  0.00     0.049 A 
ATOM     37  H   UNL     1       1.810   3.583   1.932  1.00  0.00     0.167 HD
ATOM     38  C   UNL     1      -0.542   2.564   5.366  1.00  0.00     0.031 A 
ATOM     39  C   UNL     1       3.375   5.310   0.325  1.00  0.00     0.031 A 
ATOM     40  C   UNL     1       0.080   3.829   5.688  1.00  0.00     0.049 A 
ATOM     41  C   UNL     1       3.360   5.917   1.687  1.00  0.00     0.074 A 
ATOM     42  C   UNL     1      -0.039   4.586   6.845  1.00  0.00     0.029 A 
ATOM     43  N   UNL     1       0.959   4.517   4.862  1.00  0.00    -0.354 N 
ATOM     44  N   UNL     1       2.650   5.550   2.724  1.00  0.00    -0.248 NA
ATOM     45  C   UNL     1       4.207   7.093   1.906  1.00  0.00     0.031 C 
ATOM     46  C   UNL     1       0.758   5.732   6.712  1.00  0.00     0.029 A 
ATOM     47  C   UNL     1       1.405   5.672   5.489  1.00  0.00     0.049 A 
ATOM     48  H   UNL     1       1.227   4.226   3.961  1.00  0.00     0.167 HD
ATOM     49  C   UNL     1       2.932   6.476   3.713  1.00  0.00     0.074 A 
ATOM     50  C   UNL     1       3.931   7.378   3.172  1.00  0.00     0.031 C 
ATOM     51  C   UNL     1       2.377   6.585   4.943  1.00  0.00     0.031 A 
BRANCH  38  52
ATOM     52  C   UNL     1      -1.556   2.000   6.341  1.00  0.00    -0.014 A 
ATOM     53  C   UNL     1      -1.305   0.818   7.061  1.00  0.00     0.010 A 
ATOM     54  C   UNL     1      -2.772   2.677   6.564  1.00  0.00     0.010 A 
ATOM     55  C   UNL     1      -2.272   0.283   7.920  1.00  0.00     0.020 A 
ATOM     56  C   UNL     1      -3.730   2.165   7.448  1.00  0.00     0.020 A 
ATOM     57  C   UNL     1      -3.486   0.954   8.098  1.00  0.00     0.054 A 
BRANCH  57  58
ATOM     58  S   UNL     1      -4.732   0.232   9.203  1.00  0.00     0.124 S 
ATOM     59  O   UNL     1      -5.293  -0.831   8.373  1.00  0.00    -0.237 OA
ATOM     60  O   UNL     1      -3.937  -0.217  10.343  1.00  0.00    -0.237 OA
ATOM     61  O   UNL     1      -5.635   1.346   9.482  1.00  0.00    -0.744 OA
ENDBRANCH  57  58
ENDBRANCH  38  52
BRANCH  39  62
ATOM     62  C   UNL     1       4.230   5.853  -0.767  1.00  0.00    -0.014 A 
ATOM     63  C   UNL     1       5.622   5.652  -0.706  1.00  0.00     0.010 A 
ATOM     64  C   UNL     1       3.682   6.476  -1.902  1.00  0.00     0.010 A 
ATOM     65  C   UNL     1       6.450   6.061  -1.755  1.00  0.00     0.020 A 
ATOM     66  C   UNL     1       4.504   6.857  -2.969  1.00  0.00     0.020 A 
ATOM     67  C   UNL     1       5.884   6.655  -2.884  1.00  0.00     0.054 A 
BRANCH  67  68
ATOM     68  S   UNL     1       6.960   7.088  -4.282  1.00  0.00     0.124 S 
ATOM     69  O   UNL     1       7.502   8.374  -3.859  1.00  0.00    -0.237 OA
ATOM     70  O   UNL     1       7.911   5.979  -4.312  1.00  0.00    -0.237 OA
ATOM     71  O   UNL     1       6.038   7.134  -5.414  1.00  0.00    -0.744 OA
ENDBRANCH  67  68
ENDBRANCH  39  62
BRANCH  51  72
ATOM     72  C   UNL     1       2.838   7.747   5.776  1.00  0.00    -0.014 A 
ATOM     73  C   UNL     1       2.438   9.059   5.463  1.00  0.00     0.010 A 
ATOM     74  C   UNL     1       3.704   7.529   6.860  1.00  0.00     0.010 A 
ATOM     75  C   UNL     1       2.942  10.141   6.189  1.00  0.00     0.020 A 
ATOM     76  C   UNL     1       4.192   8.607   7.601  1.00  0.00     0.020 A 
ATOM     77  C   UNL     1       3.826   9.908   7.246  1.00  0.00     0.054 A 
BRANCH  77  78
ATOM     78  S   UNL     1       4.478  11.326   8.169  1.00  0.00     0.124 S 
ATOM     79  O   UNL     1       5.502  11.834   7.260  1.00  0.00    -0.237 OA
ATOM     80  O   UNL     1       3.302  12.177   8.330  1.00  0.00    -0.237 OA
ATOM     81  O   UNL     1       4.981  10.730   9.405  1.00  0.00    -0.744 OA
ENDBRANCH  77  78
ENDBRANCH  51  72
ENDBRANCH  25  26
ENDBRANCH  18  20
ENDBRANCH  17  18
ENDBRANCH  16  17
ENDBRANCH   1  16
TORSDOF 17
