REMARK SMILES CCN1CC(=O)N(C[C@@H]([NH3+])C(=O)OCCOC(=O)c2ccc(-c3c4nc(c(-c5ccc(S(=O)(=O)[O-])cc5)c5ccc([nH]5)c(-c5ccc(S(=O)(=O)[O-])cc5)c5nc(c(-c6ccc(S(=O)(=O)[O-])cc6)c6ccc3[nH]6)C=C5)C=C4)cc2)CC1=O
REMARK SMILES IDX 14 1 13 2 11 3 12 4 9 5 8 6 7 7 3 8 4 9 80 10 5 11 79 12
REMARK SMILES IDX 81 13 6 14 2 15 1 16 10 17 15 21 16 22 17 23 18 24 19 25
REMARK SMILES IDX 20 26 78 27 21 28 77 29 22 30 23 31 24 32 71 33 25 34 76 35
REMARK SMILES IDX 70 36 72 37 26 38 75 39 69 40 68 41 27 43 57 44 38 45 56 46
REMARK SMILES IDX 39 47 42 48 55 49 73 50 40 51 41 52 54 54 74 55 43 56 28 57
REMARK SMILES IDX 29 58 37 59 30 60 36 61 31 62 32 63 33 64 34 65 35 66 58 67
REMARK SMILES IDX 59 68 67 69 60 70 66 71 61 72 62 73 63 74 64 75 65 76 44 77
REMARK SMILES IDX 45 78 53 79 46 80 52 81 47 82 48 83 49 84 50 85 51 86
REMARK H PARENT 10 18 10 19 10 20 72 42 42 53
REMARK Flexibility Score: inf
ROOT
ATOM      1  C   UNL     1       1.465  -9.589   2.295  1.00  0.00     0.274 C 
ENDROOT
BRANCH   1   2
ATOM      2  O   UNL     1       1.577  -8.261   1.746  1.00  0.00    -0.458 OA
BRANCH   2   3
ATOM      3  C   UNL     1       2.710  -8.008   1.041  1.00  0.00     0.366 C 
ATOM      4  O   UNL     1       3.626  -8.813   0.885  1.00  0.00    -0.245 OA
BRANCH   3   5
ATOM      5  C   UNL     1       2.810  -6.571   0.500  1.00  0.00     0.311 C 
BRANCH   5   6
ATOM      6  C   UNL     1       1.492  -5.773   0.595  1.00  0.00     0.197 C 
BRANCH   6   7
ATOM      7  N   UNL     1       1.507  -4.479  -0.108  1.00  0.00    -0.325 N 
ATOM      8  N   UNL     1       1.002  -1.857  -0.929  1.00  0.00    -0.332 N 
ATOM      9  C   UNL     1       0.996  -2.924  -1.941  1.00  0.00     0.219 C 
ATOM     10  C   UNL     1       1.811  -2.018   0.194  1.00  0.00     0.242 C 
ATOM     11  C   UNL     1       0.928  -4.343  -1.363  1.00  0.00     0.242 C 
ATOM     12  C   UNL     1       2.389  -3.421   0.366  1.00  0.00     0.220 C 
ATOM     13  O   UNL     1       2.171  -1.109   0.938  1.00  0.00    -0.273 OA
ATOM     14  O   UNL     1       0.513  -5.294  -2.019  1.00  0.00    -0.273 OA
BRANCH   8  15
ATOM     15  C   UNL     1       0.417  -0.577  -1.336  1.00  0.00     0.116 C 
ATOM     16  C   UNL     1       0.496   0.594  -0.368  1.00  0.00     0.027 C 
ENDBRANCH   8  15
ENDBRANCH   6   7
ENDBRANCH   5   6
BRANCH   5  17
ATOM     17  N   UNL     1       3.967  -5.910   1.172  1.00  0.00    -0.344 N 
ATOM     18  H   UNL     1       3.803  -5.878   2.178  1.00  0.00     0.345 HD
ATOM     19  H   UNL     1       4.071  -4.961   0.814  1.00  0.00     0.345 HD
ATOM     20  H   UNL     1       4.818  -6.440   0.983  1.00  0.00     0.345 HD
ENDBRANCH   5  17
ENDBRANCH   3   5
ENDBRANCH   2   3
ENDBRANCH   1   2
BRANCH   1  21
ATOM     21  C   UNL     1       0.542 -10.482   1.460  1.00  0.00     0.275 C 
BRANCH  21  22
ATOM     22  O   UNL     1       1.051 -10.705   0.132  1.00  0.00    -0.458 OA
BRANCH  22  23
ATOM     23  C   UNL     1       0.634  -9.802  -0.788  1.00  0.00     0.338 C 
ATOM     24  O   UNL     1      -0.116  -8.860  -0.599  1.00  0.00    -0.246 OA
BRANCH  23  25
ATOM     25  C   UNL     1       1.343 -10.020  -2.058  1.00  0.00     0.060 A 
ATOM     26  C   UNL     1       2.207  -9.017  -2.502  1.00  0.00     0.016 A 
ATOM     27  C   UNL     1       1.101 -11.145  -2.847  1.00  0.00     0.016 A 
ATOM     28  C   UNL     1       2.843  -9.130  -3.733  1.00  0.00     0.010 A 
ATOM     29  C   UNL     1       1.734 -11.256  -4.090  1.00  0.00     0.010 A 
ATOM     30  C   UNL     1       2.603 -10.246  -4.542  1.00  0.00    -0.014 A 
BRANCH  30  31
ATOM     31  C   UNL     1       3.222 -10.321  -5.886  1.00  0.00     0.031 A 
ATOM     32  C   UNL     1       2.384 -10.073  -7.107  1.00  0.00     0.074 A 
ATOM     33  C   UNL     1       4.537 -10.583  -6.005  1.00  0.00     0.049 A 
ATOM     34  N   UNL     1       2.712 -10.183  -8.368  1.00  0.00    -0.248 NA
ATOM     35  C   UNL     1       0.995  -9.643  -6.879  1.00  0.00     0.031 C 
ATOM     36  C   UNL     1       5.465 -10.776  -4.890  1.00  0.00     0.029 A 
ATOM     37  N   UNL     1       5.319 -10.731  -7.122  1.00  0.00    -0.354 N 
ATOM     38  C   UNL     1       1.566  -9.863  -9.086  1.00  0.00     0.074 A 
ATOM     39  C   UNL     1       0.532  -9.561  -8.119  1.00  0.00     0.031 C 
ATOM     40  C   UNL     1       6.692 -11.017  -5.380  1.00  0.00     0.029 A 
ATOM     41  C   UNL     1       6.626 -11.048  -6.838  1.00  0.00     0.049 A 
ATOM     42  H   UNL     1       4.978 -10.621  -8.039  1.00  0.00     0.167 HD
ATOM     43  C   UNL     1       1.393  -9.827 -10.429  1.00  0.00     0.031 A 
ATOM     44  C   UNL     1       7.647 -11.361  -7.659  1.00  0.00     0.031 A 
ATOM     45  C   UNL     1       2.428 -10.126 -11.384  1.00  0.00     0.049 A 
ATOM     46  C   UNL     1       7.412 -11.386  -9.144  1.00  0.00     0.074 A 
ATOM     47  C   UNL     1       2.352 -10.120 -12.766  1.00  0.00     0.029 A 
ATOM     48  N   UNL     1       3.727 -10.484 -11.056  1.00  0.00    -0.354 N 
ATOM     49  N   UNL     1       6.316 -11.104  -9.809  1.00  0.00    -0.248 NA
ATOM     50  C   UNL     1       8.548 -11.776  -9.990  1.00  0.00     0.031 C 
ATOM     51  C   UNL     1       3.595 -10.517 -13.273  1.00  0.00     0.029 A 
ATOM     52  C   UNL     1       4.458 -10.721 -12.208  1.00  0.00     0.049 A 
ATOM     53  H   UNL     1       4.078 -10.558 -10.139  1.00  0.00     0.167 HD
ATOM     54  C   UNL     1       6.635 -11.269 -11.151  1.00  0.00     0.074 A 
ATOM     55  C   UNL     1       8.030 -11.659 -11.206  1.00  0.00     0.031 C 
ATOM     56  C   UNL     1       5.844 -11.111 -12.241  1.00  0.00     0.031 A 
BRANCH  43  57
ATOM     57  C   UNL     1       0.019  -9.495 -10.943  1.00  0.00    -0.014 A 
ATOM     58  C   UNL     1      -0.483  -8.183 -10.894  1.00  0.00     0.010 A 
ATOM     59  C   UNL     1      -0.771 -10.510 -11.513  1.00  0.00     0.010 A 
ATOM     60  C   UNL     1      -1.765  -7.898 -11.372  1.00  0.00     0.020 A 
ATOM     61  C   UNL     1      -2.045 -10.226 -12.013  1.00  0.00     0.020 A 
ATOM     62  C   UNL     1      -2.541  -8.924 -11.923  1.00  0.00     0.054 A 
BRANCH  62  63
ATOM     63  S   UNL     1      -4.196  -8.527 -12.551  1.00  0.00     0.124 S 
ATOM     64  O   UNL     1      -4.960  -8.381 -11.315  1.00  0.00    -0.237 OA
ATOM     65  O   UNL     1      -3.970  -7.292 -13.299  1.00  0.00    -0.237 OA
ATOM     66  O   UNL     1      -4.545  -9.688 -13.366  1.00  0.00    -0.744 OA
ENDBRANCH  62  63
ENDBRANCH  43  57
BRANCH  44  67
ATOM     67  C   UNL     1       8.973 -11.720  -7.088  1.00  0.00    -0.014 A 
ATOM     68  C   UNL     1      10.071 -10.854  -7.226  1.00  0.00     0.010 A 
ATOM     69  C   UNL     1       9.138 -12.929  -6.387  1.00  0.00     0.010 A 
ATOM     70  C   UNL     1      11.313 -11.195  -6.681  1.00  0.00     0.020 A 
ATOM     71  C   UNL     1      10.370 -13.262  -5.819  1.00  0.00     0.020 A 
ATOM     72  C   UNL     1      11.454 -12.396  -5.979  1.00  0.00     0.054 A 
BRANCH  72  73
ATOM     73  S   UNL     1      13.056 -12.793  -5.227  1.00  0.00     0.124 S 
ATOM     74  O   UNL     1      13.834 -13.228  -6.382  1.00  0.00    -0.237 OA
ATOM     75  O   UNL     1      13.456 -11.517  -4.639  1.00  0.00    -0.237 OA
ATOM     76  O   UNL     1      12.729 -13.839  -4.260  1.00  0.00    -0.744 OA
ENDBRANCH  72  73
ENDBRANCH  44  67
BRANCH  56  77
ATOM     77  C   UNL     1       6.475 -11.335 -13.588  1.00  0.00    -0.014 A 
ATOM     78  C   UNL     1       6.749 -12.633 -14.055  1.00  0.00     0.010 A 
ATOM     79  C   UNL     1       6.745 -10.233 -14.420  1.00  0.00     0.010 A 
ATOM     80  C   UNL     1       7.306 -12.823 -15.322  1.00  0.00     0.020 A 
ATOM     81  C   UNL     1       7.281 -10.421 -15.696  1.00  0.00     0.020 A 
ATOM     82  C   UNL     1       7.569 -11.715 -16.134  1.00  0.00     0.054 A 
BRANCH  82  83
ATOM     83  S   UNL     1       8.246 -11.989 -17.795  1.00  0.00     0.124 S 
ATOM     84  O   UNL     1       9.646 -12.287 -17.507  1.00  0.00    -0.237 OA
ATOM     85  O   UNL     1       7.452 -13.113 -18.287  1.00  0.00    -0.237 OA
ATOM     86  O   UNL     1       8.006 -10.720 -18.479  1.00  0.00    -0.744 OA
ENDBRANCH  82  83
ENDBRANCH  56  77
ENDBRANCH  30  31
ENDBRANCH  23  25
ENDBRANCH  22  23
ENDBRANCH  21  22
ENDBRANCH   1  21
TORSDOF 18
