REMARK SMILES Cc1ccc(-c2csc(NC(=O)[C@H]3[C@@H](C(=O)OCCOC(=O)c4ccc(-c5c6nc(c(-c7ccc(S(=O)(=O)[O-])cc7)c7ccc([nH]7)c(-c7ccc(S(=O)(=O)[O-])cc7)c7nc(c(-c8ccc(S(=O)(=O)[O-])cc8)c8ccc5[nH]8)C=C7)C=C6)cc4)[C@H]4C=C[C@@H]3C4)c2C(=O)NC2CC2)cc1
REMARK SMILES IDX 18 1 17 2 15 3 16 4 14 5 13 6 86 7 83 8 85 9 87 10 84 11
REMARK SMILES IDX 11 12 10 13 12 15 9 16 6 17 7 18 88 19 8 20 5 21 1 22 2 23
REMARK SMILES IDX 3 24 96 25 4 26 95 27 89 28 90 29 91 30 92 32 93 33 94 34
REMARK SMILES IDX 19 35 20 36 21 37 22 38 23 39 24 40 82 41 25 42 81 43 26 44
REMARK SMILES IDX 27 45 28 46 75 47 29 48 80 49 74 50 76 51 30 52 79 53 73 54
REMARK SMILES IDX 72 55 31 57 61 58 42 59 60 60 43 61 46 62 59 63 77 64 44 65
REMARK SMILES IDX 45 66 58 68 78 69 47 70 32 71 33 72 41 73 34 74 40 75 35 76
REMARK SMILES IDX 36 77 37 78 38 79 39 80 62 81 63 82 71 83 64 84 70 85 65 86
REMARK SMILES IDX 66 87 67 88 68 89 69 90 48 91 49 92 57 93 50 94 56 95 51 96
REMARK SMILES IDX 52 97 53 98 54 99 55 100
REMARK H PARENT 10 14 91 31 76 56 46 67
REMARK Flexibility Score: inf
ROOT
ATOM      1  C   UNL     1      -4.287   0.173  -0.993  1.00  0.00     0.274 C 
ENDROOT
BRANCH   1   2
ATOM      2  O   UNL     1      -5.600   0.542  -0.498  1.00  0.00    -0.462 OA
BRANCH   2   3
ATOM      3  C   UNL     1      -5.942  -0.046   0.669  1.00  0.00     0.310 C 
ATOM      4  O   UNL     1      -5.200  -0.835   1.257  1.00  0.00    -0.252 OA
BRANCH   3   5
ATOM      5  C   UNL     1      -7.232   0.434   1.317  1.00  0.00     0.119 C 
ATOM      6  C   UNL     1      -8.467  -0.536   1.466  1.00  0.00     0.100 C 
ATOM      7  C   UNL     1      -9.611   0.506   1.621  1.00  0.00     0.025 C 
ATOM      8  C   UNL     1      -7.881   1.831   1.078  1.00  0.00     0.027 C 
ATOM      9  C   UNL     1      -9.948   1.104   0.299  1.00  0.00    -0.027 C 
ATOM     10  C   UNL     1      -8.903   1.744   2.220  1.00  0.00     0.017 C 
ATOM     11  C   UNL     1      -8.930   1.911  -0.009  1.00  0.00    -0.027 C 
BRANCH   6  12
ATOM     12  C   UNL     1      -8.474  -1.631   0.379  1.00  0.00     0.229 C 
ATOM     13  N   UNL     1      -9.563  -2.083  -0.293  1.00  0.00    -0.317 N 
ATOM     14  H   UNL     1      -9.358  -2.465  -1.177  1.00  0.00     0.170 HD
ATOM     15  O   UNL     1      -7.401  -2.195   0.123  1.00  0.00    -0.274 OA
BRANCH  13  16
ATOM     16  C   UNL     1     -10.904  -2.109   0.029  1.00  0.00     0.108 A 
ATOM     17  C   UNL     1     -13.224  -2.066  -0.093  1.00  0.00     0.007 A 
ATOM     18  C   UNL     1     -12.964  -1.692   1.216  1.00  0.00     0.076 A 
ATOM     19  C   UNL     1     -11.987  -2.421  -0.799  1.00  0.00     0.082 A 
ATOM     20  S   UNL     1     -11.372  -2.059   1.658  1.00  0.00    -0.125 S 
BRANCH  17  21
ATOM     21  C   UNL     1     -14.641  -2.248  -0.391  1.00  0.00    -0.017 A 
ATOM     22  C   UNL     1     -18.728  -3.189  -1.343  1.00  0.00     0.044 C 
ATOM     23  C   UNL     1     -17.364  -2.763  -0.887  1.00  0.00    -0.051 A 
ATOM     24  C   UNL     1     -16.631  -3.615  -0.059  1.00  0.00     0.004 A 
ATOM     25  C   UNL     1     -16.752  -1.600  -1.384  1.00  0.00     0.004 A 
ATOM     26  C   UNL     1     -15.291  -3.343   0.204  1.00  0.00     0.009 A 
ATOM     27  C   UNL     1     -15.392  -1.339  -1.136  1.00  0.00     0.009 A 
ENDBRANCH  17  21
BRANCH  19  28
ATOM     28  C   UNL     1     -11.714  -3.022  -2.124  1.00  0.00     0.255 C 
ATOM     29  O   UNL     1     -10.654  -3.606  -2.360  1.00  0.00    -0.269 OA
ATOM     30  N   UNL     1     -12.702  -2.994  -3.083  1.00  0.00    -0.349 N 
ATOM     31  H   UNL     1     -12.915  -2.145  -3.534  1.00  0.00     0.164 HD
BRANCH  30  32
ATOM     32  C   UNL     1     -13.430  -4.191  -3.436  1.00  0.00     0.082 C 
ATOM     33  C   UNL     1     -14.134  -5.033  -2.409  1.00  0.00     0.027 C 
ATOM     34  C   UNL     1     -14.925  -4.135  -3.316  1.00  0.00     0.027 C 
ENDBRANCH  30  32
ENDBRANCH  19  28
ENDBRANCH  13  16
ENDBRANCH   6  12
ENDBRANCH   3   5
ENDBRANCH   2   3
ENDBRANCH   1   2
BRANCH   1  35
ATOM     35  C   UNL     1      -4.211  -1.223  -1.656  1.00  0.00     0.275 C 
BRANCH  35  36
ATOM     36  O   UNL     1      -4.694  -1.292  -3.012  1.00  0.00    -0.458 OA
BRANCH  36  37
ATOM     37  C   UNL     1      -6.043  -1.122  -3.144  1.00  0.00     0.338 C 
ATOM     38  O   UNL     1      -6.886  -1.906  -2.780  1.00  0.00    -0.246 OA
BRANCH  37  39
ATOM     39  C   UNL     1      -6.221   0.295  -3.528  1.00  0.00     0.060 A 
ATOM     40  C   UNL     1      -7.209   1.018  -2.858  1.00  0.00     0.016 A 
ATOM     41  C   UNL     1      -5.160   0.934  -4.185  1.00  0.00     0.016 A 
ATOM     42  C   UNL     1      -7.029   2.380  -2.693  1.00  0.00     0.010 A 
ATOM     43  C   UNL     1      -4.951   2.270  -3.953  1.00  0.00     0.010 A 
ATOM     44  C   UNL     1      -5.873   2.975  -3.177  1.00  0.00    -0.014 A 
BRANCH  44  45
ATOM     45  C   UNL     1      -5.726   4.410  -3.182  1.00  0.00     0.031 A 
ATOM     46  C   UNL     1      -5.206   5.155  -2.020  1.00  0.00     0.074 A 
ATOM     47  C   UNL     1      -6.050   4.909  -4.392  1.00  0.00     0.049 A 
ATOM     48  N   UNL     1      -5.386   6.419  -1.849  1.00  0.00    -0.248 NA
ATOM     49  C   UNL     1      -4.506   4.537  -0.887  1.00  0.00     0.031 C 
ATOM     50  C   UNL     1      -5.745   6.186  -4.992  1.00  0.00     0.029 A 
ATOM     51  N   UNL     1      -6.953   4.311  -5.293  1.00  0.00    -0.354 N 
ATOM     52  C   UNL     1      -4.506   6.822  -0.863  1.00  0.00     0.074 A 
ATOM     53  C   UNL     1      -4.128   5.612  -0.178  1.00  0.00     0.031 C 
ATOM     54  C   UNL     1      -6.648   6.407  -5.970  1.00  0.00     0.029 A 
ATOM     55  C   UNL     1      -7.662   5.355  -5.876  1.00  0.00     0.049 A 
ATOM     56  H   UNL     1      -7.060   3.349  -5.474  1.00  0.00     0.167 HD
ATOM     57  C   UNL     1      -4.028   8.098  -0.903  1.00  0.00     0.031 A 
ATOM     58  C   UNL     1      -8.989   5.536  -5.591  1.00  0.00     0.031 A 
ATOM     59  C   UNL     1      -4.673   8.839  -1.986  1.00  0.00     0.049 A 
ATOM     60  C   UNL     1      -9.206   6.845  -4.868  1.00  0.00     0.074 A 
ATOM     61  C   UNL     1      -4.278   9.121  -3.283  1.00  0.00     0.029 A 
ATOM     62  N   UNL     1      -6.037   9.059  -1.931  1.00  0.00    -0.354 N 
ATOM     63  N   UNL     1      -8.275   7.471  -4.201  1.00  0.00    -0.248 NA
ATOM     64  C   UNL     1     -10.491   7.536  -4.817  1.00  0.00     0.031 C 
ATOM     65  C   UNL     1      -5.439   9.474  -4.024  1.00  0.00     0.029 A 
ATOM     66  C   UNL     1      -6.527   9.408  -3.173  1.00  0.00     0.049 A 
ATOM     67  H   UNL     1      -6.585   8.978  -1.117  1.00  0.00     0.167 HD
ATOM     68  C   UNL     1      -8.747   8.690  -3.813  1.00  0.00     0.074 A 
ATOM     69  C   UNL     1     -10.164   8.645  -4.131  1.00  0.00     0.031 C 
ATOM     70  C   UNL     1      -7.944   9.671  -3.314  1.00  0.00     0.031 A 
BRANCH  57  71
ATOM     71  C   UNL     1      -2.756   8.589  -0.239  1.00  0.00    -0.014 A 
ATOM     72  C   UNL     1      -2.098   9.706  -0.804  1.00  0.00     0.010 A 
ATOM     73  C   UNL     1      -2.120   7.993   0.866  1.00  0.00     0.010 A 
ATOM     74  C   UNL     1      -0.839  10.139  -0.373  1.00  0.00     0.020 A 
ATOM     75  C   UNL     1      -0.850   8.416   1.308  1.00  0.00     0.020 A 
ATOM     76  C   UNL     1      -0.207   9.474   0.669  1.00  0.00     0.054 A 
BRANCH  76  77
ATOM     77  S   UNL     1       1.450  10.018   1.163  1.00  0.00     0.124 S 
ATOM     78  O   UNL     1       2.232   9.772  -0.046  1.00  0.00    -0.237 OA
ATOM     79  O   UNL     1       1.235  11.424   1.497  1.00  0.00    -0.237 OA
ATOM     80  O   UNL     1       1.775   9.155   2.296  1.00  0.00    -0.744 OA
ENDBRANCH  76  77
ENDBRANCH  57  71
BRANCH  58  81
ATOM     81  C   UNL     1      -9.791   4.293  -5.344  1.00  0.00    -0.014 A 
ATOM     82  C   UNL     1      -9.905   3.345  -6.386  1.00  0.00     0.010 A 
ATOM     83  C   UNL     1     -10.155   3.894  -4.046  1.00  0.00     0.010 A 
ATOM     84  C   UNL     1     -10.242   2.010  -6.122  1.00  0.00     0.020 A 
ATOM     85  C   UNL     1     -10.508   2.557  -3.779  1.00  0.00     0.020 A 
ATOM     86  C   UNL     1     -10.505   1.613  -4.811  1.00  0.00     0.054 A 
BRANCH  86  87
ATOM     87  S   UNL     1     -10.551  -0.172  -4.438  1.00  0.00     0.124 S 
ATOM     88  O   UNL     1     -11.837  -0.610  -4.977  1.00  0.00    -0.237 OA
ATOM     89  O   UNL     1      -9.376  -0.658  -5.153  1.00  0.00    -0.237 OA
ATOM     90  O   UNL     1     -10.468  -0.213  -2.982  1.00  0.00    -0.744 OA
ENDBRANCH  86  87
ENDBRANCH  58  81
BRANCH  70  91
ATOM     91  C   UNL     1      -8.439  11.028  -2.934  1.00  0.00    -0.014 A 
ATOM     92  C   UNL     1      -9.364  11.738  -3.710  1.00  0.00     0.010 A 
ATOM     93  C   UNL     1      -7.873  11.676  -1.815  1.00  0.00     0.010 A 
ATOM     94  C   UNL     1      -9.787  13.011  -3.320  1.00  0.00     0.020 A 
ATOM     95  C   UNL     1      -8.264  12.956  -1.436  1.00  0.00     0.020 A 
ATOM     96  C   UNL     1      -9.247  13.601  -2.174  1.00  0.00     0.054 A 
BRANCH  96  97
ATOM     97  S   UNL     1      -9.824  15.236  -1.670  1.00  0.00     0.124 S 
ATOM     98  O   UNL     1      -9.882  15.960  -2.938  1.00  0.00    -0.237 OA
ATOM     99  O   UNL     1     -11.116  14.920  -1.067  1.00  0.00    -0.237 OA
ATOM    100  O   UNL     1      -8.795  15.697  -0.741  1.00  0.00    -0.744 OA
ENDBRANCH  96  97
ENDBRANCH  70  91
ENDBRANCH  44  45
ENDBRANCH  37  39
ENDBRANCH  36  37
ENDBRANCH  35  36
ENDBRANCH   1  35
TORSDOF 19
