REMARK SMILES CC[C@@](C)(NS(=O)(=O)c1ccc(F)c(F)c1)C(=O)OCCOC(=O)c1ccc(-c2c3nc(c(-c4ccc(S(=O)(=O)[O-])cc4)c4ccc([nH]4)c(-c4ccc(S(=O)(=O)[O-])cc4)c4nc(c(-c5ccc(S(=O)(=O)[O-])cc5)c5ccc2[nH]5)C=C4)C=C3)cc1
REMARK SMILES IDX 20 1 19 2 17 3 18 4 3 5 4 6 2 7 1 8 5 9 6 11 7 12 8 13 9 14
REMARK SMILES IDX 10 15 16 16 11 17 14 18 12 19 15 20 13 21 21 22 22 23 23 24
REMARK SMILES IDX 24 25 25 26 26 27 84 28 27 29 83 30 28 31 29 32 30 33 77 34
REMARK SMILES IDX 31 35 82 36 76 37 78 38 32 39 81 40 75 41 74 42 33 44 63 45
REMARK SMILES IDX 44 46 62 47 45 48 48 49 61 50 79 51 46 52 47 53 60 55 80 56
REMARK SMILES IDX 49 57 34 58 35 59 43 60 36 61 42 62 37 63 38 64 39 65 40 66
REMARK SMILES IDX 41 67 64 68 65 69 73 70 66 71 72 72 67 73 68 74 69 75 70 76
REMARK SMILES IDX 71 77 50 78 51 79 59 80 52 81 58 82 53 83 54 84 55 85 56 86
REMARK SMILES IDX 57 87
REMARK H PARENT 5 10 78 43 48 54
REMARK Flexibility Score: inf
ROOT
ATOM      1  C   UNL     1       4.545  -1.948   1.196  1.00  0.00     0.274 C 
ENDROOT
BRANCH   1   2
ATOM      2  O   UNL     1       3.164  -2.365   1.304  1.00  0.00    -0.461 OA
BRANCH   2   3
ATOM      3  C   UNL     1       2.298  -1.443   1.803  1.00  0.00     0.327 C 
ATOM      4  O   UNL     1       2.637  -0.308   2.118  1.00  0.00    -0.250 OA
BRANCH   3   5
ATOM      5  C   UNL     1       0.856  -1.981   1.924  1.00  0.00     0.127 C 
ATOM      6  C   UNL     1       0.297  -1.501   3.270  1.00  0.00     0.042 C 
BRANCH   5   7
ATOM      7  C   UNL     1      -0.069  -1.416   0.795  1.00  0.00     0.032 C 
ATOM      8  C   UNL     1      -0.053   0.090   0.558  1.00  0.00     0.006 C 
ENDBRANCH   5   7
BRANCH   5   9
ATOM      9  N   UNL     1       0.744  -3.462   1.778  1.00  0.00    -0.194 NA
ATOM     10  H   UNL     1       1.384  -3.691   1.017  1.00  0.00     0.142 HD
BRANCH   9  11
ATOM     11  S   UNL     1       1.008  -4.647   2.911  1.00  0.00     0.241 S 
ATOM     12  O   UNL     1       0.645  -4.175   4.226  1.00  0.00    -0.207 OA
ATOM     13  O   UNL     1       0.397  -5.842   2.366  1.00  0.00    -0.207 OA
BRANCH  11  14
ATOM     14  C   UNL     1       2.761  -4.942   2.925  1.00  0.00     0.085 A 
ATOM     15  C   UNL     1       3.283  -6.040   2.223  1.00  0.00     0.025 A 
ATOM     16  C   UNL     1       3.589  -4.165   3.740  1.00  0.00     0.064 A 
ATOM     17  C   UNL     1       4.646  -6.338   2.306  1.00  0.00     0.044 A 
ATOM     18  C   UNL     1       4.948  -4.459   3.793  1.00  0.00     0.160 A 
ATOM     19  C   UNL     1       5.474  -5.536   3.084  1.00  0.00     0.158 A 
ATOM     20  F   UNL     1       5.759  -3.675   4.515  1.00  0.00    -0.204 F 
ATOM     21  F   UNL     1       6.787  -5.798   3.132  1.00  0.00    -0.204 F 
ENDBRANCH  11  14
ENDBRANCH   9  11
ENDBRANCH   5   9
ENDBRANCH   3   5
ENDBRANCH   2   3
ENDBRANCH   1   2
BRANCH   1  22
ATOM     22  C   UNL     1       5.304  -2.937   0.304  1.00  0.00     0.275 C 
BRANCH  22  23
ATOM     23  O   UNL     1       4.972  -2.683  -1.071  1.00  0.00    -0.458 OA
BRANCH  23  24
ATOM     24  C   UNL     1       3.795  -3.215  -1.477  1.00  0.00     0.338 C 
ATOM     25  O   UNL     1       3.147  -4.104  -0.951  1.00  0.00    -0.246 OA
BRANCH  24  26
ATOM     26  C   UNL     1       3.245  -2.268  -2.453  1.00  0.00     0.060 A 
ATOM     27  C   UNL     1       2.258  -1.404  -1.981  1.00  0.00     0.016 A 
ATOM     28  C   UNL     1       3.711  -2.169  -3.757  1.00  0.00     0.016 A 
ATOM     29  C   UNL     1       1.684  -0.458  -2.814  1.00  0.00     0.010 A 
ATOM     30  C   UNL     1       3.174  -1.179  -4.584  1.00  0.00     0.010 A 
ATOM     31  C   UNL     1       2.158  -0.318  -4.118  1.00  0.00    -0.014 A 
BRANCH  31  32
ATOM     32  C   UNL     1       1.605   0.735  -5.000  1.00  0.00     0.031 A 
ATOM     33  C   UNL     1       0.860   0.333  -6.237  1.00  0.00     0.074 A 
ATOM     34  C   UNL     1       1.806   2.035  -4.705  1.00  0.00     0.049 A 
ATOM     35  N   UNL     1       0.515   1.064  -7.261  1.00  0.00    -0.248 NA
ATOM     36  C   UNL     1       0.457  -1.080  -6.337  1.00  0.00     0.031 C 
ATOM     37  C   UNL     1       2.445   2.544  -3.487  1.00  0.00     0.029 A 
ATOM     38  N   UNL     1       1.516   3.169  -5.423  1.00  0.00    -0.354 N 
ATOM     39  C   UNL     1      -0.090   0.191  -8.157  1.00  0.00     0.074 A 
ATOM     40  C   UNL     1      -0.083  -1.120  -7.548  1.00  0.00     0.031 C 
ATOM     41  C   UNL     1       2.512   3.883  -3.551  1.00  0.00     0.029 A 
ATOM     42  C   UNL     1       2.008   4.319  -4.848  1.00  0.00     0.049 A 
ATOM     43  H   UNL     1       1.007   3.160  -6.265  1.00  0.00     0.167 HD
ATOM     44  C   UNL     1      -0.584   0.468  -9.385  1.00  0.00     0.031 A 
ATOM     45  C   UNL     1       2.113   5.569  -5.340  1.00  0.00     0.031 A 
ATOM     46  C   UNL     1      -0.595   1.787  -9.959  1.00  0.00     0.049 A 
ATOM     47  C   UNL     1       1.630   5.830  -6.742  1.00  0.00     0.074 A 
ATOM     48  C   UNL     1      -1.098   2.184 -11.185  1.00  0.00     0.029 A 
ATOM     49  N   UNL     1      -0.073   2.920  -9.352  1.00  0.00    -0.354 N 
ATOM     50  N   UNL     1       1.057   5.000  -7.583  1.00  0.00    -0.248 NA
ATOM     51  C   UNL     1       1.821   7.187  -7.271  1.00  0.00     0.031 C 
ATOM     52  C   UNL     1      -0.814   3.542 -11.350  1.00  0.00     0.029 A 
ATOM     53  C   UNL     1      -0.200   4.007 -10.197  1.00  0.00     0.049 A 
ATOM     54  H   UNL     1       0.328   2.945  -8.454  1.00  0.00     0.167 HD
ATOM     55  C   UNL     1       0.806   5.741  -8.732  1.00  0.00     0.074 A 
ATOM     56  C   UNL     1       1.264   7.090  -8.470  1.00  0.00     0.031 C 
ATOM     57  C   UNL     1       0.256   5.342  -9.905  1.00  0.00     0.031 A 
BRANCH  44  58
ATOM     58  C   UNL     1      -1.090  -0.673 -10.223  1.00  0.00    -0.014 A 
ATOM     59  C   UNL     1      -2.312  -1.309  -9.950  1.00  0.00     0.010 A 
ATOM     60  C   UNL     1      -0.357  -1.054 -11.364  1.00  0.00     0.010 A 
ATOM     61  C   UNL     1      -2.788  -2.314 -10.799  1.00  0.00     0.020 A 
ATOM     62  C   UNL     1      -0.841  -2.039 -12.228  1.00  0.00     0.020 A 
ATOM     63  C   UNL     1      -2.053  -2.667 -11.936  1.00  0.00     0.054 A 
BRANCH  63  64
ATOM     64  S   UNL     1      -2.730  -3.922 -13.057  1.00  0.00     0.124 S 
ATOM     65  O   UNL     1      -2.598  -5.140 -12.261  1.00  0.00    -0.237 OA
ATOM     66  O   UNL     1      -4.098  -3.455 -13.267  1.00  0.00    -0.237 OA
ATOM     67  O   UNL     1      -1.861  -3.848 -14.229  1.00  0.00    -0.744 OA
ENDBRANCH  63  64
ENDBRANCH  44  58
BRANCH  45  68
ATOM     68  C   UNL     1       2.792   6.638  -4.555  1.00  0.00    -0.014 A 
ATOM     69  C   UNL     1       2.092   7.780  -4.129  1.00  0.00     0.010 A 
ATOM     70  C   UNL     1       4.166   6.534  -4.258  1.00  0.00     0.010 A 
ATOM     71  C   UNL     1       2.758   8.811  -3.457  1.00  0.00     0.020 A 
ATOM     72  C   UNL     1       4.827   7.544  -3.554  1.00  0.00     0.020 A 
ATOM     73  C   UNL     1       4.122   8.687  -3.176  1.00  0.00     0.054 A 
BRANCH  73  74
ATOM     74  S   UNL     1       4.965  10.033  -2.299  1.00  0.00     0.124 S 
ATOM     75  O   UNL     1       5.038  11.065  -3.327  1.00  0.00    -0.237 OA
ATOM     76  O   UNL     1       4.053  10.305  -1.190  1.00  0.00    -0.237 OA
ATOM     77  O   UNL     1       6.244   9.441  -1.912  1.00  0.00    -0.744 OA
ENDBRANCH  73  74
ENDBRANCH  45  68
BRANCH  57  78
ATOM     78  C   UNL     1       0.090   6.379 -10.982  1.00  0.00    -0.014 A 
ATOM     79  C   UNL     1       1.198   6.867 -11.696  1.00  0.00     0.010 A 
ATOM     80  C   UNL     1      -1.202   6.808 -11.336  1.00  0.00     0.010 A 
ATOM     81  C   UNL     1       1.017   7.779 -12.737  1.00  0.00     0.020 A 
ATOM     82  C   UNL     1      -1.389   7.696 -12.397  1.00  0.00     0.020 A 
ATOM     83  C   UNL     1      -0.276   8.182 -13.086  1.00  0.00     0.054 A 
BRANCH  83  84
ATOM     84  S   UNL     1      -0.486   9.310 -14.490  1.00  0.00     0.124 S 
ATOM     85  O   UNL     1       0.025  10.566 -13.950  1.00  0.00    -0.237 OA
ATOM     86  O   UNL     1       0.337   8.688 -15.524  1.00  0.00    -0.237 OA
ATOM     87  O   UNL     1      -1.925   9.282 -14.746  1.00  0.00    -0.744 OA
ENDBRANCH  83  84
ENDBRANCH  57  78
ENDBRANCH  31  32
ENDBRANCH  24  26
ENDBRANCH  23  24
ENDBRANCH  22  23
ENDBRANCH   1  22
TORSDOF 18
