REMARK SMILES Cc1ccc2c(c1)c(-c1ccnc3c(C)cccc13)c(C)n2CC(=O)OCCOC(=O)c1ccc(-c2c3nc(c(-c4ccc(S(=O)(=O)[O-])cc4)c4ccc([nH]4)c(-c4ccc(S(=O)(=O)[O-])cc4)c4nc(c(-c5ccc(S(=O)(=O)[O-])cc5)c5ccc2[nH]5)C=C4)C=C3)cc1
REMARK SMILES IDX 28 1 27 2 26 3 24 4 25 5 23 6 22 7 1 8 2 9 3 10 7 11 4 12
REMARK SMILES IDX 6 13 5 14 8 15 20 16 21 17 9 18 10 19 19 20 11 21 13 22
REMARK SMILES IDX 18 23 12 24 14 25 17 26 15 27 16 28 29 29 30 30 31 31 32 32
REMARK SMILES IDX 33 33 91 34 34 35 90 36 35 37 36 38 37 39 84 40 38 41 89 42
REMARK SMILES IDX 83 43 85 44 39 45 88 46 82 47 81 48 40 50 70 51 51 52 69 53
REMARK SMILES IDX 52 54 55 55 68 56 86 57 53 58 54 59 67 61 87 62 56 63 41 64
REMARK SMILES IDX 42 65 50 66 43 67 49 68 44 69 45 70 46 71 47 72 48 73 71 74
REMARK SMILES IDX 72 75 80 76 73 77 79 78 74 79 75 80 76 81 77 82 78 83 57 84
REMARK SMILES IDX 58 85 66 86 59 87 65 88 60 89 61 90 62 91 63 92 64 93
REMARK H PARENT 85 49 55 60
REMARK Flexibility Score: inf
ROOT
ATOM      1  C   UNL     1      -3.447   8.531  -0.513  1.00  0.00     0.275 C 
ENDROOT
BRANCH   1   2
ATOM      2  C   UNL     1      -3.717   7.031  -0.678  1.00  0.00     0.274 C 
BRANCH   2   3
ATOM      3  O   UNL     1      -2.505   6.299  -1.011  1.00  0.00    -0.461 OA
BRANCH   3   4
ATOM      4  C   UNL     1      -2.460   5.771  -2.261  1.00  0.00     0.326 C 
ATOM      5  O   UNL     1      -3.340   5.950  -3.101  1.00  0.00    -0.250 OA
BRANCH   4   6
ATOM      6  C   UNL     1      -1.252   4.935  -2.604  1.00  0.00     0.244 C 
BRANCH   6   7
ATOM      7  N   UNL     1      -0.325   4.530  -1.550  1.00  0.00    -0.333 N 
ATOM      8  C   UNL     1       1.127  -0.564   0.398  1.00  0.00     0.044 C 
ATOM      9  C   UNL     1       0.661   0.753  -0.140  1.00  0.00    -0.050 A 
ATOM     10  C   UNL     1      -0.284   0.803  -1.164  1.00  0.00     0.005 A 
ATOM     11  C   UNL     1       1.185   1.943   0.389  1.00  0.00     0.014 A 
ATOM     12  C   UNL     1      -0.716   2.020  -1.690  1.00  0.00     0.027 A 
ATOM     13  C   UNL     1       0.806   3.180  -0.165  1.00  0.00     0.008 A 
ATOM     14  C   UNL     1      -0.146   3.200  -1.186  1.00  0.00     0.049 A 
ATOM     15  C   UNL     1       1.220   4.520   0.044  1.00  0.00     0.011 A 
ATOM     16  C   UNL     1       0.720   5.261  -1.011  1.00  0.00     0.024 A 
ATOM     17  C   UNL     1       1.226   6.569  -1.489  1.00  0.00     0.065 C 
BRANCH  15  18
ATOM     18  C   UNL     1       2.180   5.093   0.975  1.00  0.00    -0.005 A 
ATOM     19  C   UNL     1       3.538   4.899   0.743  1.00  0.00     0.029 A 
ATOM     20  C   UNL     1       1.743   5.929   2.036  1.00  0.00     0.008 A 
ATOM     21  C   UNL     1       4.423   5.529   1.587  1.00  0.00     0.112 A 
ATOM     22  C   UNL     1       2.734   6.505   2.861  1.00  0.00     0.074 A 
ATOM     23  C   UNL     1       0.377   6.218   2.285  1.00  0.00     0.011 A 
ATOM     24  N   UNL     1       4.050   6.296   2.633  1.00  0.00    -0.256 NA
ATOM     25  C   UNL     1       2.322   7.319   3.928  1.00  0.00    -0.025 A 
ATOM     26  C   UNL     1      -0.011   7.039   3.335  1.00  0.00     0.001 A 
ATOM     27  C   UNL     1       3.318   7.925   4.881  1.00  0.00     0.047 C 
ATOM     28  C   UNL     1       0.959   7.578   4.163  1.00  0.00     0.005 A 
ENDBRANCH  15  18
ENDBRANCH   6   7
ENDBRANCH   4   6
ENDBRANCH   3   4
ENDBRANCH   2   3
ENDBRANCH   1   2
BRANCH   1  29
ATOM     29  O   UNL     1      -3.227   9.116  -1.805  1.00  0.00    -0.458 OA
BRANCH  29  30
ATOM     30  C   UNL     1      -1.944   9.418  -2.107  1.00  0.00     0.338 C 
ATOM     31  O   UNL     1      -1.028   9.617  -1.323  1.00  0.00    -0.246 OA
BRANCH  30  32
ATOM     32  C   UNL     1      -1.762   9.037  -3.520  1.00  0.00     0.060 A 
ATOM     33  C   UNL     1      -2.676   9.333  -4.522  1.00  0.00     0.016 A 
ATOM     34  C   UNL     1      -0.724   8.142  -3.765  1.00  0.00     0.016 A 
ATOM     35  C   UNL     1      -2.615   8.607  -5.710  1.00  0.00     0.010 A 
ATOM     36  C   UNL     1      -0.688   7.381  -4.919  1.00  0.00     0.010 A 
ATOM     37  C   UNL     1      -1.677   7.570  -5.867  1.00  0.00    -0.014 A 
BRANCH  37  38
ATOM     38  C   UNL     1      -1.573   6.882  -7.141  1.00  0.00     0.031 A 
ATOM     39  C   UNL     1      -0.841   7.673  -8.148  1.00  0.00     0.074 A 
ATOM     40  C   UNL     1      -1.994   5.655  -7.496  1.00  0.00     0.049 A 
ATOM     41  N   UNL     1      -1.379   8.454  -9.017  1.00  0.00    -0.248 NA
ATOM     42  C   UNL     1       0.622   7.720  -8.095  1.00  0.00     0.031 C 
ATOM     43  C   UNL     1      -2.471   4.530  -6.696  1.00  0.00     0.029 A 
ATOM     44  N   UNL     1      -2.053   5.179  -8.773  1.00  0.00    -0.354 N 
ATOM     45  C   UNL     1      -0.335   8.997  -9.742  1.00  0.00     0.074 A 
ATOM     46  C   UNL     1       0.875   8.621  -9.047  1.00  0.00     0.031 C 
ATOM     47  C   UNL     1      -2.629   3.445  -7.501  1.00  0.00     0.029 A 
ATOM     48  C   UNL     1      -2.434   3.855  -8.885  1.00  0.00     0.049 A 
ATOM     49  H   UNL     1      -1.840   5.736  -9.556  1.00  0.00     0.167 HD
ATOM     50  C   UNL     1      -0.548   9.589 -10.947  1.00  0.00     0.031 A 
ATOM     51  C   UNL     1      -2.615   3.175 -10.044  1.00  0.00     0.031 A 
ATOM     52  C   UNL     1      -1.952   9.810 -11.195  1.00  0.00     0.049 A 
ATOM     53  C   UNL     1      -2.938   4.178 -11.093  1.00  0.00     0.074 A 
ATOM     54  C   UNL     1      -2.939  10.537 -10.555  1.00  0.00     0.029 A 
ATOM     55  N   UNL     1      -2.612   8.898 -11.988  1.00  0.00    -0.354 N 
ATOM     56  N   UNL     1      -4.043   4.869 -11.121  1.00  0.00    -0.248 NA
ATOM     57  C   UNL     1      -1.864   4.689 -11.931  1.00  0.00     0.031 C 
ATOM     58  C   UNL     1      -4.108   9.723 -10.630  1.00  0.00     0.029 A 
ATOM     59  C   UNL     1      -3.783   8.569 -11.349  1.00  0.00     0.049 A 
ATOM     60  H   UNL     1      -2.301   8.547 -12.854  1.00  0.00     0.167 HD
ATOM     61  C   UNL     1      -3.683   6.104 -11.641  1.00  0.00     0.074 A 
ATOM     62  C   UNL     1      -2.358   5.896 -12.216  1.00  0.00     0.031 C 
ATOM     63  C   UNL     1      -4.377   7.242 -11.338  1.00  0.00     0.031 A 
BRANCH  50  64
ATOM     64  C   UNL     1       0.498   9.719 -12.012  1.00  0.00    -0.014 A 
ATOM     65  C   UNL     1       1.676   8.945 -12.027  1.00  0.00     0.010 A 
ATOM     66  C   UNL     1       0.216  10.486 -13.158  1.00  0.00     0.010 A 
ATOM     67  C   UNL     1       2.551   8.956 -13.112  1.00  0.00     0.020 A 
ATOM     68  C   UNL     1       1.064  10.467 -14.273  1.00  0.00     0.020 A 
ATOM     69  C   UNL     1       2.231   9.706 -14.237  1.00  0.00     0.054 A 
BRANCH  69  70
ATOM     70  S   UNL     1       3.324   9.593 -15.672  1.00  0.00     0.124 S 
ATOM     71  O   UNL     1       4.508  10.309 -15.204  1.00  0.00    -0.237 OA
ATOM     72  O   UNL     1       3.481   8.150 -15.832  1.00  0.00    -0.237 OA
ATOM     73  O   UNL     1       2.569  10.258 -16.731  1.00  0.00    -0.744 OA
ENDBRANCH  69  70
ENDBRANCH  50  64
BRANCH  51  74
ATOM     74  C   UNL     1      -2.082   1.834 -10.394  1.00  0.00    -0.014 A 
ATOM     75  C   UNL     1      -0.957   1.325  -9.717  1.00  0.00     0.010 A 
ATOM     76  C   UNL     1      -2.463   1.216 -11.603  1.00  0.00     0.010 A 
ATOM     77  C   UNL     1      -0.182   0.300 -10.274  1.00  0.00     0.020 A 
ATOM     78  C   UNL     1      -1.688   0.189 -12.167  1.00  0.00     0.020 A 
ATOM     79  C   UNL     1      -0.530  -0.234 -11.515  1.00  0.00     0.054 A 
BRANCH  79  80
ATOM     80  S   UNL     1       0.608  -1.415 -12.295  1.00  0.00     0.124 S 
ATOM     81  O   UNL     1       1.772  -0.577 -12.572  1.00  0.00    -0.237 OA
ATOM     82  O   UNL     1       0.791  -2.415 -11.245  1.00  0.00    -0.237 OA
ATOM     83  O   UNL     1      -0.123  -1.879 -13.471  1.00  0.00    -0.744 OA
ENDBRANCH  79  80
ENDBRANCH  51  74
BRANCH  63  84
ATOM     84  C   UNL     1      -5.742   7.125 -10.684  1.00  0.00    -0.014 A 
ATOM     85  C   UNL     1      -6.790   7.898 -11.221  1.00  0.00     0.010 A 
ATOM     86  C   UNL     1      -5.976   6.439  -9.475  1.00  0.00     0.010 A 
ATOM     87  C   UNL     1      -8.015   8.019 -10.558  1.00  0.00     0.020 A 
ATOM     88  C   UNL     1      -7.215   6.533  -8.818  1.00  0.00     0.020 A 
ATOM     89  C   UNL     1      -8.216   7.347  -9.352  1.00  0.00     0.054 A 
BRANCH  89  90
ATOM     90  S   UNL     1      -9.794   7.587  -8.487  1.00  0.00     0.124 S 
ATOM     91  O   UNL     1      -9.672   8.958  -7.997  1.00  0.00    -0.237 OA
ATOM     92  O   UNL     1     -10.779   7.391  -9.549  1.00  0.00    -0.237 OA
ATOM     93  O   UNL     1      -9.792   6.556  -7.451  1.00  0.00    -0.744 OA
ENDBRANCH  89  90
ENDBRANCH  63  84
ENDBRANCH  37  38
ENDBRANCH  30  32
ENDBRANCH  29  30
ENDBRANCH   1  29
TORSDOF 16
