REMARK SMILES Cc1ccc(C)c(-c2csc(C(=O)OCCOC(=O)c3ccc(-c4c5nc(c(-c6ccc(S(=O)(=O)[O-])cc6)c6ccc([nH]6)c(-c6ccc(S(=O)(=O)[O-])cc6)c6nc(c(-c7ccc(S(=O)(=O)[O-])cc7)c7ccc4[nH]7)C=C6)C=C5)cc3)n2)c1
REMARK SMILES IDX 16 1 15 2 14 3 12 4 13 5 11 6 8 7 9 8 80 9 10 10 7 11 1 12
REMARK SMILES IDX 2 13 3 14 81 15 4 16 5 17 6 18 17 19 18 20 19 21 20 22 21 23
REMARK SMILES IDX 79 24 22 25 78 26 23 27 24 28 25 29 72 30 26 31 77 32 71 33
REMARK SMILES IDX 73 34 27 35 76 36 70 37 69 38 28 40 58 41 39 42 57 43 40 44
REMARK SMILES IDX 43 45 56 46 74 47 41 48 42 49 55 51 75 52 44 53 29 54 30 55
REMARK SMILES IDX 38 56 31 57 37 58 32 59 33 60 34 61 35 62 36 63 59 64 60 65
REMARK SMILES IDX 68 66 61 67 67 68 62 69 63 70 64 71 65 72 66 73 45 74 46 75
REMARK SMILES IDX 54 76 47 77 53 78 48 79 49 80 50 81 51 82 52 83
REMARK H PARENT 73 39 43 50
REMARK Flexibility Score: inf
ROOT
ATOM      1  C   UNL     1      -3.569   6.558  -4.368  1.00  0.00     0.275 C 
ENDROOT
BRANCH   1   2
ATOM      2  C   UNL     1      -2.195   5.881  -4.292  1.00  0.00     0.275 C 
BRANCH   2   3
ATOM      3  O   UNL     1      -1.965   5.192  -3.066  1.00  0.00    -0.457 OA
BRANCH   3   4
ATOM      4  C   UNL     1      -2.724   4.085  -2.869  1.00  0.00     0.367 C 
ATOM      5  O   UNL     1      -3.575   3.669  -3.664  1.00  0.00    -0.243 OA
BRANCH   4   6
ATOM      6  C   UNL     1      -2.326   3.456  -1.643  1.00  0.00     0.202 A 
ATOM      7  C   UNL     1      -1.355   2.008  -0.317  1.00  0.00     0.082 A 
ATOM      8  C   UNL     1      -2.024   2.745   0.641  1.00  0.00     0.096 A 
ATOM      9  N   UNL     1      -1.511   2.425  -1.618  1.00  0.00    -0.230 NA
ATOM     10  S   UNL     1      -2.913   3.999  -0.130  1.00  0.00    -0.115 S 
BRANCH   7  11
ATOM     11  C   UNL     1      -0.609   0.801  -0.046  1.00  0.00     0.004 A 
ATOM     12  C   UNL     1       3.064  -0.212   0.100  1.00  0.00     0.044 C 
ATOM     13  C   UNL     1       1.566  -0.280   0.126  1.00  0.00    -0.050 A 
ATOM     14  C   UNL     1       0.921  -1.516   0.226  1.00  0.00     0.004 A 
ATOM     15  C   UNL     1       0.792   0.878  -0.009  1.00  0.00     0.014 A 
ATOM     16  C   UNL     1      -0.473  -1.597   0.191  1.00  0.00     0.004 A 
ATOM     17  C   UNL     1      -1.257  -0.444   0.042  1.00  0.00    -0.042 A 
ATOM     18  C   UNL     1      -2.751  -0.606  -0.057  1.00  0.00     0.045 C 
ENDBRANCH   7  11
ENDBRANCH   4   6
ENDBRANCH   3   4
ENDBRANCH   2   3
ENDBRANCH   1   2
BRANCH   1  19
ATOM     19  O   UNL     1      -4.281   6.799  -3.119  1.00  0.00    -0.458 OA
BRANCH  19  20
ATOM     20  C   UNL     1      -3.868   7.364  -1.958  1.00  0.00     0.338 C 
ATOM     21  O   UNL     1      -4.552   7.299  -0.943  1.00  0.00    -0.246 OA
BRANCH  20  22
ATOM     22  C   UNL     1      -2.534   7.983  -1.907  1.00  0.00     0.060 A 
ATOM     23  C   UNL     1      -1.699   7.707  -0.818  1.00  0.00     0.016 A 
ATOM     24  C   UNL     1      -2.080   8.772  -2.958  1.00  0.00     0.016 A 
ATOM     25  C   UNL     1      -0.368   8.123  -0.844  1.00  0.00     0.010 A 
ATOM     26  C   UNL     1      -0.734   9.094  -3.025  1.00  0.00     0.010 A 
ATOM     27  C   UNL     1       0.134   8.789  -1.969  1.00  0.00    -0.014 A 
BRANCH  27  28
ATOM     28  C   UNL     1       1.569   9.104  -2.049  1.00  0.00     0.031 A 
ATOM     29  C   UNL     1       2.554   8.018  -1.746  1.00  0.00     0.074 A 
ATOM     30  C   UNL     1       2.070  10.245  -2.568  1.00  0.00     0.049 A 
ATOM     31  N   UNL     1       3.431   7.989  -0.793  1.00  0.00    -0.248 NA
ATOM     32  C   UNL     1       2.576   6.826  -2.605  1.00  0.00     0.031 C 
ATOM     33  C   UNL     1       1.349  11.344  -3.217  1.00  0.00     0.029 A 
ATOM     34  N   UNL     1       3.379  10.593  -2.744  1.00  0.00    -0.354 N 
ATOM     35  C   UNL     1       4.243   6.880  -1.029  1.00  0.00     0.074 A 
ATOM     36  C   UNL     1       3.608   6.145  -2.098  1.00  0.00     0.031 C 
ATOM     37  C   UNL     1       2.216  12.074  -3.949  1.00  0.00     0.029 A 
ATOM     38  C   UNL     1       3.562  11.618  -3.658  1.00  0.00     0.049 A 
ATOM     39  H   UNL     1       4.122  10.157  -2.267  1.00  0.00     0.167 HD
ATOM     40  C   UNL     1       5.474   6.737  -0.457  1.00  0.00     0.031 A 
ATOM     41  C   UNL     1       4.730  12.069  -4.166  1.00  0.00     0.031 A 
ATOM     42  C   UNL     1       5.703   7.686   0.601  1.00  0.00     0.049 A 
ATOM     43  C   UNL     1       5.804  11.722  -3.211  1.00  0.00     0.074 A 
ATOM     44  C   UNL     1       5.069   8.027   1.780  1.00  0.00     0.029 A 
ATOM     45  N   UNL     1       6.593   8.706   0.356  1.00  0.00    -0.354 N 
ATOM     46  N   UNL     1       5.893  12.240  -2.018  1.00  0.00    -0.248 NA
ATOM     47  C   UNL     1       6.609  10.532  -3.430  1.00  0.00     0.031 C 
ATOM     48  C   UNL     1       5.245   9.439   1.898  1.00  0.00     0.029 A 
ATOM     49  C   UNL     1       6.003   9.859   0.802  1.00  0.00     0.049 A 
ATOM     50  H   UNL     1       7.482   8.623  -0.060  1.00  0.00     0.167 HD
ATOM     51  C   UNL     1       6.402  11.225  -1.225  1.00  0.00     0.074 A 
ATOM     52  C   UNL     1       6.966  10.267  -2.170  1.00  0.00     0.031 C 
ATOM     53  C   UNL     1       6.064  11.122   0.096  1.00  0.00     0.031 A 
BRANCH  40  54
ATOM     54  C   UNL     1       6.634   5.979  -1.069  1.00  0.00    -0.014 A 
ATOM     55  C   UNL     1       7.807   5.795  -0.302  1.00  0.00     0.010 A 
ATOM     56  C   UNL     1       6.726   5.720  -2.451  1.00  0.00     0.010 A 
ATOM     57  C   UNL     1       9.031   5.471  -0.903  1.00  0.00     0.020 A 
ATOM     58  C   UNL     1       7.935   5.349  -3.053  1.00  0.00     0.020 A 
ATOM     59  C   UNL     1       9.090   5.277  -2.282  1.00  0.00     0.054 A 
BRANCH  59  60
ATOM     60  S   UNL     1      10.699   5.020  -3.074  1.00  0.00     0.124 S 
ATOM     61  O   UNL     1      11.277   6.359  -3.007  1.00  0.00    -0.237 OA
ATOM     62  O   UNL     1      11.320   4.019  -2.211  1.00  0.00    -0.237 OA
ATOM     63  O   UNL     1      10.348   4.551  -4.411  1.00  0.00    -0.744 OA
ENDBRANCH  59  60
ENDBRANCH  40  54
BRANCH  41  64
ATOM     64  C   UNL     1       4.967  12.632  -5.512  1.00  0.00    -0.014 A 
ATOM     65  C   UNL     1       6.132  13.360  -5.802  1.00  0.00     0.010 A 
ATOM     66  C   UNL     1       4.146  12.239  -6.591  1.00  0.00     0.010 A 
ATOM     67  C   UNL     1       6.491  13.640  -7.130  1.00  0.00     0.020 A 
ATOM     68  C   UNL     1       4.489  12.526  -7.915  1.00  0.00     0.020 A 
ATOM     69  C   UNL     1       5.675  13.205  -8.179  1.00  0.00     0.054 A 
BRANCH  69  70
ATOM     70  S   UNL     1       6.237  13.412  -9.893  1.00  0.00     0.124 S 
ATOM     71  O   UNL     1       6.077  14.847 -10.101  1.00  0.00    -0.237 OA
ATOM     72  O   UNL     1       7.614  12.929  -9.836  1.00  0.00    -0.237 OA
ATOM     73  O   UNL     1       5.321  12.567 -10.659  1.00  0.00    -0.744 OA
ENDBRANCH  69  70
ENDBRANCH  41  64
BRANCH  53  74
ATOM     74  C   UNL     1       5.420  12.310   0.777  1.00  0.00    -0.014 A 
ATOM     75  C   UNL     1       4.235  12.919   0.317  1.00  0.00     0.010 A 
ATOM     76  C   UNL     1       5.958  12.747   2.002  1.00  0.00     0.010 A 
ATOM     77  C   UNL     1       3.636  13.964   1.032  1.00  0.00     0.020 A 
ATOM     78  C   UNL     1       5.352  13.774   2.733  1.00  0.00     0.020 A 
ATOM     79  C   UNL     1       4.202  14.389   2.236  1.00  0.00     0.054 A 
BRANCH  79  80
ATOM     80  S   UNL     1       3.397  15.718   3.172  1.00  0.00     0.124 S 
ATOM     81  O   UNL     1       3.680  16.896   2.357  1.00  0.00    -0.237 OA
ATOM     82  O   UNL     1       1.998  15.295   3.203  1.00  0.00    -0.237 OA
ATOM     83  O   UNL     1       4.072  15.687   4.469  1.00  0.00    -0.744 OA
ENDBRANCH  79  80
ENDBRANCH  53  74
ENDBRANCH  27  28
ENDBRANCH  20  22
ENDBRANCH  19  20
ENDBRANCH   1  19
TORSDOF 15
