REMARK SMILES C[C@H](C(=O)OCCOC(=O)c1ccc(-c2c3nc(c(-c4ccc(S(=O)(=O)[O-])cc4)c4ccc([nH]4)c(-c4ccc(S(=O)(=O)[O-])cc4)c4nc(c(-c5ccc(S(=O)(=O)[O-])cc5)c5ccc2[nH]5)C=C4)C=C3)cc1)N1C(=O)C[C@@H](N2C(=O)/C(=C/c3ccccc3)SC2=S)C1=O
REMARK SMILES IDX 6 1 5 2 3 3 4 4 2 5 1 6 71 7 72 8 90 9 73 10 74 11 75 12
REMARK SMILES IDX 91 13 76 14 77 15 88 16 78 17 79 18 87 19 89 20 80 21 81 22
REMARK SMILES IDX 82 23 86 24 83 25 85 26 84 27 7 28 8 29 9 30 10 31 11 32
REMARK SMILES IDX 12 33 70 34 13 35 69 36 14 37 15 38 16 39 63 40 17 41 68 42
REMARK SMILES IDX 62 43 64 44 18 45 67 46 61 47 60 48 19 50 49 51 30 52 48 53
REMARK SMILES IDX 31 54 34 55 47 56 65 57 32 58 33 59 46 61 66 62 35 63 20 64
REMARK SMILES IDX 21 65 29 66 22 67 28 68 23 69 24 70 25 71 26 72 27 73 50 74
REMARK SMILES IDX 51 75 59 76 52 77 58 78 53 79 54 80 55 81 56 82 57 83 36 84
REMARK SMILES IDX 37 85 45 86 38 87 44 88 39 89 40 90 41 91 42 92 43 93
REMARK H PARENT 64 49 34 60
REMARK Flexibility Score: inf
ROOT
ATOM      1  C   UNL     1       1.085  -1.982  -0.496  1.00  0.00     0.274 C 
ENDROOT
BRANCH   1   2
ATOM      2  O   UNL     1       0.452  -0.687  -0.458  1.00  0.00    -0.461 OA
BRANCH   2   3
ATOM      3  C   UNL     1       0.687   0.070   0.651  1.00  0.00     0.329 C 
ATOM      4  O   UNL     1       1.479  -0.218   1.542  1.00  0.00    -0.250 OA
BRANCH   3   5
ATOM      5  C   UNL     1      -0.092   1.391   0.632  1.00  0.00     0.200 C 
ATOM      6  C   UNL     1       0.376   2.240  -0.560  1.00  0.00     0.044 C 
BRANCH   5   7
ATOM      7  N   UNL     1      -1.550   1.275   0.629  1.00  0.00    -0.267 N 
ATOM      8  C   UNL     1      -2.342   2.384   0.744  1.00  0.00     0.232 C 
ATOM      9  C   UNL     1      -2.289   0.129   0.624  1.00  0.00     0.253 C 
ATOM     10  O   UNL     1      -1.981   3.512   1.043  1.00  0.00    -0.274 OA
ATOM     11  C   UNL     1      -3.772   2.017   0.507  1.00  0.00     0.136 C 
ATOM     12  C   UNL     1      -3.737   0.504   0.395  1.00  0.00     0.191 C 
ATOM     13  O   UNL     1      -1.907  -1.025   0.741  1.00  0.00    -0.272 OA
BRANCH  12  14
ATOM     14  N   UNL     1      -4.161  -0.057  -0.897  1.00  0.00    -0.280 N 
ATOM     15  C   UNL     1      -3.546   0.379  -2.062  1.00  0.00     0.266 C 
ATOM     16  C   UNL     1      -5.110  -1.046  -1.044  1.00  0.00     0.149 C 
ATOM     17  O   UNL     1      -2.657   1.216  -2.124  1.00  0.00    -0.268 OA
ATOM     18  C   UNL     1      -4.133  -0.292  -3.246  1.00  0.00     0.081 C 
ATOM     19  S   UNL     1      -5.312  -1.434  -2.747  1.00  0.00    -0.054 SA
ATOM     20  S   UNL     1      -6.023  -1.788   0.138  1.00  0.00    -0.052 S 
ATOM     21  C   UNL     1      -3.768   0.035  -4.494  1.00  0.00     0.029 C 
BRANCH  21  22
ATOM     22  C   UNL     1      -4.401  -0.470  -5.716  1.00  0.00    -0.024 A 
ATOM     23  C   UNL     1      -3.673  -1.235  -6.631  1.00  0.00     0.008 A 
ATOM     24  C   UNL     1      -5.737  -0.151  -5.995  1.00  0.00     0.008 A 
ATOM     25  C   UNL     1      -4.284  -1.698  -7.799  1.00  0.00     0.001 A 
ATOM     26  C   UNL     1      -6.346  -0.616  -7.160  1.00  0.00     0.001 A 
ATOM     27  C   UNL     1      -5.620  -1.392  -8.060  1.00  0.00     0.000 A 
ENDBRANCH  21  22
ENDBRANCH  12  14
ENDBRANCH   5   7
ENDBRANCH   3   5
ENDBRANCH   2   3
ENDBRANCH   1   2
BRANCH   1  28
ATOM     28  C   UNL     1       2.128  -2.024  -1.606  1.00  0.00     0.275 C 
BRANCH  28  29
ATOM     29  O   UNL     1       3.103  -0.996  -1.369  1.00  0.00    -0.458 OA
BRANCH  29  30
ATOM     30  C   UNL     1       3.167  -0.028  -2.310  1.00  0.00     0.338 C 
ATOM     31  O   UNL     1       2.586   0.004  -3.381  1.00  0.00    -0.246 OA
BRANCH  30  32
ATOM     32  C   UNL     1       4.037   1.063  -1.840  1.00  0.00     0.060 A 
ATOM     33  C   UNL     1       3.800   1.659  -0.603  1.00  0.00     0.016 A 
ATOM     34  C   UNL     1       4.995   1.595  -2.701  1.00  0.00     0.016 A 
ATOM     35  C   UNL     1       4.418   2.865  -0.283  1.00  0.00     0.010 A 
ATOM     36  C   UNL     1       5.712   2.731  -2.315  1.00  0.00     0.010 A 
ATOM     37  C   UNL     1       5.402   3.409  -1.123  1.00  0.00    -0.014 A 
BRANCH  37  38
ATOM     38  C   UNL     1       6.094   4.682  -0.773  1.00  0.00     0.031 A 
ATOM     39  C   UNL     1       6.106   5.833  -1.750  1.00  0.00     0.074 A 
ATOM     40  C   UNL     1       6.732   4.809   0.409  1.00  0.00     0.049 A 
ATOM     41  N   UNL     1       6.837   6.919  -1.740  1.00  0.00    -0.248 NA
ATOM     42  C   UNL     1       5.190   5.742  -2.900  1.00  0.00     0.031 C 
ATOM     43  C   UNL     1       6.764   3.803   1.474  1.00  0.00     0.029 A 
ATOM     44  N   UNL     1       7.480   5.843   0.916  1.00  0.00    -0.354 N 
ATOM     45  C   UNL     1       6.525   7.601  -2.911  1.00  0.00     0.074 A 
ATOM     46  C   UNL     1       5.532   6.811  -3.607  1.00  0.00     0.031 C 
ATOM     47  C   UNL     1       7.452   4.284   2.519  1.00  0.00     0.029 A 
ATOM     48  C   UNL     1       8.004   5.584   2.161  1.00  0.00     0.049 A 
ATOM     49  H   UNL     1       7.627   6.689   0.434  1.00  0.00     0.167 HD
ATOM     50  C   UNL     1       7.028   8.774  -3.368  1.00  0.00     0.031 A 
ATOM     51  C   UNL     1       8.876   6.281   2.915  1.00  0.00     0.031 A 
ATOM     52  C   UNL     1       7.978   9.579  -2.644  1.00  0.00     0.049 A 
ATOM     53  C   UNL     1       9.444   7.561   2.376  1.00  0.00     0.074 A 
ATOM     54  C   UNL     1       8.534  10.793  -3.010  1.00  0.00     0.029 A 
ATOM     55  N   UNL     1       8.498   9.261  -1.398  1.00  0.00    -0.354 N 
ATOM     56  N   UNL     1       9.188   8.158   1.237  1.00  0.00    -0.248 NA
ATOM     57  C   UNL     1      10.434   8.249   3.214  1.00  0.00     0.031 C 
ATOM     58  C   UNL     1       9.422  11.188  -2.003  1.00  0.00     0.029 A 
ATOM     59  C   UNL     1       9.379  10.247  -0.988  1.00  0.00     0.049 A 
ATOM     60  H   UNL     1       8.273   8.454  -0.882  1.00  0.00     0.167 HD
ATOM     61  C   UNL     1       9.978   9.301   1.226  1.00  0.00     0.074 A 
ATOM     62  C   UNL     1      10.704   9.320   2.480  1.00  0.00     0.031 C 
ATOM     63  C   UNL     1      10.095  10.247   0.262  1.00  0.00     0.031 A 
BRANCH  50  64
ATOM     64  C   UNL     1       6.601   9.238  -4.737  1.00  0.00    -0.014 A 
ATOM     65  C   UNL     1       5.315   9.749  -4.980  1.00  0.00     0.010 A 
ATOM     66  C   UNL     1       7.532   9.203  -5.794  1.00  0.00     0.010 A 
ATOM     67  C   UNL     1       4.955  10.181  -6.261  1.00  0.00     0.020 A 
ATOM     68  C   UNL     1       7.184   9.657  -7.070  1.00  0.00     0.020 A 
ATOM     69  C   UNL     1       5.891  10.128  -7.299  1.00  0.00     0.054 A 
BRANCH  69  70
ATOM     70  S   UNL     1       5.406  10.714  -8.947  1.00  0.00     0.124 S 
ATOM     71  O   UNL     1       4.554   9.625  -9.416  1.00  0.00    -0.237 OA
ATOM     72  O   UNL     1       4.717  11.968  -8.653  1.00  0.00    -0.237 OA
ATOM     73  O   UNL     1       6.677  10.857  -9.652  1.00  0.00    -0.744 OA
ENDBRANCH  69  70
ENDBRANCH  50  64
BRANCH  51  74
ATOM     74  C   UNL     1       9.305   5.744   4.235  1.00  0.00    -0.014 A 
ATOM     75  C   UNL     1       8.895   6.366   5.426  1.00  0.00     0.010 A 
ATOM     76  C   UNL     1      10.099   4.584   4.307  1.00  0.00     0.010 A 
ATOM     77  C   UNL     1       9.275   5.841   6.665  1.00  0.00     0.020 A 
ATOM     78  C   UNL     1      10.456   4.039   5.543  1.00  0.00     0.020 A 
ATOM     79  C   UNL     1      10.049   4.678   6.715  1.00  0.00     0.054 A 
BRANCH  79  80
ATOM     80  S   UNL     1      10.474   3.973   8.332  1.00  0.00     0.124 S 
ATOM     81  O   UNL     1      11.545   4.859   8.777  1.00  0.00    -0.237 OA
ATOM     82  O   UNL     1       9.216   4.082   9.067  1.00  0.00    -0.237 OA
ATOM     83  O   UNL     1      10.882   2.607   8.011  1.00  0.00    -0.744 OA
ENDBRANCH  79  80
ENDBRANCH  51  74
BRANCH  63  84
ATOM     84  C   UNL     1      11.018  11.399   0.545  1.00  0.00    -0.014 A 
ATOM     85  C   UNL     1      12.414  11.242   0.492  1.00  0.00     0.010 A 
ATOM     86  C   UNL     1      10.477  12.665   0.832  1.00  0.00     0.010 A 
ATOM     87  C   UNL     1      13.255  12.326   0.753  1.00  0.00     0.020 A 
ATOM     88  C   UNL     1      11.314  13.757   1.070  1.00  0.00     0.020 A 
ATOM     89  C   UNL     1      12.699  13.577   1.043  1.00  0.00     0.054 A 
BRANCH  89  90
ATOM     90  S   UNL     1      13.809  14.979   1.344  1.00  0.00     0.124 S 
ATOM     91  O   UNL     1      14.286  14.704   2.697  1.00  0.00    -0.237 OA
ATOM     92  O   UNL     1      14.806  14.834   0.285  1.00  0.00    -0.237 OA
ATOM     93  O   UNL     1      12.938  16.144   1.215  1.00  0.00    -0.744 OA
ENDBRANCH  89  90
ENDBRANCH  63  84
ENDBRANCH  37  38
ENDBRANCH  30  32
ENDBRANCH  29  30
ENDBRANCH  28  29
ENDBRANCH   1  28
TORSDOF 17
