REMARK SMILES C[C@@H]1CN(C(=O)Nc2ccc(O)c(C(=O)OCCOC(=O)c3ccc(-c4c5nc(c(-c6ccc(S(=O)(=O)[O-])cc6)c6ccc([nH]6)c(-c6ccc(S(=O)(=O)[O-])cc6)c6nc(c(-c7ccc(S(=O)(=O)[O-])cc7)c7ccc4[nH]7)C=C6)C=C5)cc3)c2)C[C@@H]1C
REMARK SMILES IDX 18 1 17 2 16 3 14 4 15 5 13 6 8 7 9 8 82 9 10 10 11 11 7 12
REMARK SMILES IDX 5 13 6 14 4 16 1 17 2 18 3 19 84 20 83 21 85 22 12 23 19 25
REMARK SMILES IDX 20 26 21 27 22 28 23 29 81 30 24 31 80 32 25 33 26 34 27 35
REMARK SMILES IDX 74 36 28 37 79 38 73 39 75 40 29 41 78 42 72 43 71 44 30 46
REMARK SMILES IDX 60 47 41 48 59 49 42 50 45 51 58 52 76 53 43 54 44 55 57 57
REMARK SMILES IDX 77 58 46 59 31 60 32 61 40 62 33 63 39 64 34 65 35 66 36 67
REMARK SMILES IDX 37 68 38 69 61 70 62 71 70 72 63 73 69 74 64 75 65 76 66 77
REMARK SMILES IDX 67 78 68 79 47 80 48 81 56 82 49 83 55 84 50 85 51 86 52 87
REMARK SMILES IDX 53 88 54 89
REMARK H PARENT 7 15 12 24 75 45 45 56
REMARK Flexibility Score: inf
ROOT
ATOM      1  C   UNL     1      -4.828   3.305   6.096  1.00  0.00     0.275 C 
ENDROOT
BRANCH   1   2
ATOM      2  C   UNL     1      -3.577   3.572   5.262  1.00  0.00     0.275 C 
BRANCH   2   3
ATOM      3  O   UNL     1      -3.625   2.804   4.047  1.00  0.00    -0.458 OA
BRANCH   3   4
ATOM      4  C   UNL     1      -2.712   1.810   3.918  1.00  0.00     0.342 C 
ATOM      5  O   UNL     1      -1.851   1.509   4.724  1.00  0.00    -0.246 OA
BRANCH   4   6
ATOM      6  C   UNL     1      -2.997   0.997   2.712  1.00  0.00     0.103 A 
ATOM      7  C   UNL     1      -3.046  -1.220   1.731  1.00  0.00     0.044 A 
ATOM      8  C   UNL     1      -3.529  -0.686   0.539  1.00  0.00     0.030 A 
ATOM      9  C   UNL     1      -2.812  -0.389   2.821  1.00  0.00     0.045 A 
ATOM     10  C   UNL     1      -3.679   0.698   0.407  1.00  0.00     0.049 A 
ATOM     11  C   UNL     1      -3.386   1.539   1.485  1.00  0.00     0.130 A 
BRANCH   7  12
ATOM     12  N   UNL     1      -2.773  -2.581   1.863  1.00  0.00    -0.308 N 
ATOM     13  C   UNL     1      -1.869  -3.377   1.223  1.00  0.00     0.321 C 
ATOM     14  O   UNL     1      -1.953  -4.592   1.416  1.00  0.00    -0.248 OA
ATOM     15  H   UNL     1      -3.326  -3.046   2.531  1.00  0.00     0.171 HD
BRANCH  13  16
ATOM     16  N   UNL     1      -0.832  -2.838   0.509  1.00  0.00    -0.324 N 
ATOM     17  C   UNL     1       1.575  -0.144  -0.294  1.00  0.00     0.010 C 
ATOM     18  C   UNL     1       0.817  -1.447  -0.485  1.00  0.00     0.010 C 
ATOM     19  C   UNL     1      -0.508  -1.443   0.266  1.00  0.00     0.125 C 
ATOM     20  C   UNL     1       1.487  -2.740  -0.001  1.00  0.00     0.010 C 
ATOM     21  C   UNL     1       0.280  -3.689   0.097  1.00  0.00     0.125 C 
ATOM     22  C   UNL     1       2.209  -2.630   1.343  1.00  0.00     0.010 C 
ENDBRANCH  13  16
ENDBRANCH   7  12
BRANCH  11  23
ATOM     23  O   UNL     1      -3.421   2.893   1.303  1.00  0.00    -0.507 OA
ATOM     24  H   UNL     1      -3.683   3.248   0.476  1.00  0.00     0.293 HD
ENDBRANCH  11  23
ENDBRANCH   4   6
ENDBRANCH   3   4
ENDBRANCH   2   3
ENDBRANCH   1   2
BRANCH   1  25
ATOM     25  O   UNL     1      -4.795   1.963   6.615  1.00  0.00    -0.458 OA
BRANCH  25  26
ATOM     26  C   UNL     1      -5.620   1.085   6.003  1.00  0.00     0.338 C 
ATOM     27  O   UNL     1      -6.428   1.310   5.117  1.00  0.00    -0.246 OA
BRANCH  26  28
ATOM     28  C   UNL     1      -5.365  -0.267   6.518  1.00  0.00     0.060 A 
ATOM     29  C   UNL     1      -4.258  -0.958   6.038  1.00  0.00     0.016 A 
ATOM     30  C   UNL     1      -6.286  -0.904   7.345  1.00  0.00     0.016 A 
ATOM     31  C   UNL     1      -4.123  -2.322   6.281  1.00  0.00     0.010 A 
ATOM     32  C   UNL     1      -6.087  -2.249   7.681  1.00  0.00     0.010 A 
ATOM     33  C   UNL     1      -5.030  -2.990   7.117  1.00  0.00    -0.014 A 
BRANCH  33  34
ATOM     34  C   UNL     1      -4.896  -4.455   7.373  1.00  0.00     0.031 A 
ATOM     35  C   UNL     1      -6.042  -5.389   7.061  1.00  0.00     0.074 A 
ATOM     36  C   UNL     1      -3.753  -4.963   7.879  1.00  0.00     0.049 A 
ATOM     37  N   UNL     1      -6.191  -6.652   7.375  1.00  0.00    -0.248 NA
ATOM     38  C   UNL     1      -7.178  -4.825   6.313  1.00  0.00     0.031 C 
ATOM     39  C   UNL     1      -2.543  -4.196   8.188  1.00  0.00     0.029 A 
ATOM     40  N   UNL     1      -3.416  -6.253   8.217  1.00  0.00    -0.354 N 
ATOM     41  C   UNL     1      -7.455  -7.014   6.920  1.00  0.00     0.074 A 
ATOM     42  C   UNL     1      -8.036  -5.835   6.314  1.00  0.00     0.031 C 
ATOM     43  C   UNL     1      -1.589  -5.031   8.624  1.00  0.00     0.029 A 
ATOM     44  C   UNL     1      -2.142  -6.377   8.721  1.00  0.00     0.049 A 
ATOM     45  H   UNL     1      -4.030  -7.015   8.109  1.00  0.00     0.167 HD
ATOM     46  C   UNL     1      -8.078  -8.216   7.002  1.00  0.00     0.031 A 
ATOM     47  C   UNL     1      -1.498  -7.437   9.246  1.00  0.00     0.031 A 
ATOM     48  C   UNL     1      -7.479  -9.399   7.563  1.00  0.00     0.049 A 
ATOM     49  C   UNL     1      -2.216  -8.752   9.354  1.00  0.00     0.074 A 
ATOM     50  C   UNL     1      -8.023 -10.667   7.679  1.00  0.00     0.029 A 
ATOM     51  N   UNL     1      -6.195  -9.468   8.084  1.00  0.00    -0.354 N 
ATOM     52  N   UNL     1      -3.433  -9.059   8.973  1.00  0.00    -0.248 NA
ATOM     53  C   UNL     1      -1.481  -9.860   9.979  1.00  0.00     0.031 C 
ATOM     54  C   UNL     1      -7.085 -11.491   8.311  1.00  0.00     0.029 A 
ATOM     55  C   UNL     1      -5.936 -10.752   8.537  1.00  0.00     0.049 A 
ATOM     56  H   UNL     1      -5.562  -8.716   8.126  1.00  0.00     0.167 HD
ATOM     57  C   UNL     1      -3.603 -10.399   9.297  1.00  0.00     0.074 A 
ATOM     58  C   UNL     1      -2.360 -10.849   9.889  1.00  0.00     0.031 C 
ATOM     59  C   UNL     1      -4.694 -11.185   9.125  1.00  0.00     0.031 A 
BRANCH  46  60
ATOM     60  C   UNL     1      -9.501  -8.304   6.513  1.00  0.00    -0.014 A 
ATOM     61  C   UNL     1      -9.817  -8.262   5.143  1.00  0.00     0.010 A 
ATOM     62  C   UNL     1     -10.541  -8.475   7.447  1.00  0.00     0.010 A 
ATOM     63  C   UNL     1     -11.148  -8.347   4.721  1.00  0.00     0.020 A 
ATOM     64  C   UNL     1     -11.870  -8.588   7.027  1.00  0.00     0.020 A 
ATOM     65  C   UNL     1     -12.167  -8.504   5.666  1.00  0.00     0.054 A 
BRANCH  65  66
ATOM     66  S   UNL     1     -13.884  -8.626   5.091  1.00  0.00     0.124 S 
ATOM     67  O   UNL     1     -14.173  -7.244   4.714  1.00  0.00    -0.237 OA
ATOM     68  O   UNL     1     -13.786  -9.571   3.982  1.00  0.00    -0.237 OA
ATOM     69  O   UNL     1     -14.608  -9.116   6.261  1.00  0.00    -0.744 OA
ENDBRANCH  65  66
ENDBRANCH  46  60
BRANCH  47  70
ATOM     70  C   UNL     1      -0.107  -7.279   9.759  1.00  0.00    -0.014 A 
ATOM     71  C   UNL     1       0.974  -7.890   9.101  1.00  0.00     0.010 A 
ATOM     72  C   UNL     1       0.142  -6.494  10.900  1.00  0.00     0.010 A 
ATOM     73  C   UNL     1       2.279  -7.723   9.579  1.00  0.00     0.020 A 
ATOM     74  C   UNL     1       1.447  -6.300  11.361  1.00  0.00     0.020 A 
ATOM     75  C   UNL     1       2.507  -6.925  10.704  1.00  0.00     0.054 A 
BRANCH  75  76
ATOM     76  S   UNL     1       4.212  -6.668  11.269  1.00  0.00     0.124 S 
ATOM     77  O   UNL     1       4.511  -7.939  11.919  1.00  0.00    -0.237 OA
ATOM     78  O   UNL     1       4.926  -6.412  10.020  1.00  0.00    -0.237 OA
ATOM     79  O   UNL     1       4.105  -5.516  12.162  1.00  0.00    -0.744 OA
ENDBRANCH  75  76
ENDBRANCH  47  70
BRANCH  59  80
ATOM     80  C   UNL     1      -4.581 -12.625   9.548  1.00  0.00    -0.014 A 
ATOM     81  C   UNL     1      -4.580 -12.987  10.907  1.00  0.00     0.010 A 
ATOM     82  C   UNL     1      -4.519 -13.632   8.569  1.00  0.00     0.010 A 
ATOM     83  C   UNL     1      -4.489 -14.331  11.278  1.00  0.00     0.020 A 
ATOM     84  C   UNL     1      -4.453 -14.978   8.936  1.00  0.00     0.020 A 
ATOM     85  C   UNL     1      -4.424 -15.318  10.290  1.00  0.00     0.054 A 
BRANCH  85  86
ATOM     86  S   UNL     1      -4.346 -17.058  10.796  1.00  0.00     0.124 S 
ATOM     87  O   UNL     1      -2.966 -17.179  11.259  1.00  0.00    -0.237 OA
ATOM     88  O   UNL     1      -5.368 -17.137  11.838  1.00  0.00    -0.237 OA
ATOM     89  O   UNL     1      -4.658 -17.790   9.571  1.00  0.00    -0.744 OA
ENDBRANCH  85  86
ENDBRANCH  59  80
ENDBRANCH  33  34
ENDBRANCH  26  28
ENDBRANCH  25  26
ENDBRANCH   1  25
TORSDOF 17
