REMARK SMILES Nc1nc(CC(=O)N(CC(=O)OCCOC(=O)c2ccc(-c3c4nc(c(-c5ccc(S(=O)(=O)[O-])cc5)c5ccc([nH]5)c(-c5ccc(S(=O)(=O)[O-])cc5)c5nc(c(-c6ccc(S(=O)(=O)[O-])cc6)c6ccc3[nH]6)C=C5)C=C4)cc2)CC(F)(F)F)cs1
REMARK SMILES IDX 13 1 12 2 10 3 11 4 9 5 8 6 6 7 7 8 5 9 4 10 2 11 3 12 84 13
REMARK SMILES IDX 83 14 1 15 78 18 79 19 80 20 81 21 82 22 14 23 15 24 16 25
REMARK SMILES IDX 17 26 18 27 19 28 77 29 20 30 76 31 21 32 22 33 23 34 70 35
REMARK SMILES IDX 24 36 75 37 69 38 71 39 25 40 74 41 68 42 67 43 26 45 56 46
REMARK SMILES IDX 37 47 55 48 38 49 41 50 54 51 72 52 39 53 40 54 53 56 73 57
REMARK SMILES IDX 42 58 27 59 28 60 36 61 29 62 35 63 30 64 31 65 32 66 33 67
REMARK SMILES IDX 34 68 57 69 58 70 66 71 59 72 65 73 60 74 61 75 62 76 63 77
REMARK SMILES IDX 64 78 43 79 44 80 52 81 45 82 51 83 46 84 47 85 48 86 49 87
REMARK SMILES IDX 50 88
REMARK H PARENT 1 16 1 17 71 44 41 55
REMARK Flexibility Score: inf
ROOT
ATOM      1  C   UNL     1      -0.075   0.572   3.597  1.00  0.00     0.274 C 
ENDROOT
BRANCH   1   2
ATOM      2  O   UNL     1      -0.888  -0.443   2.980  1.00  0.00    -0.461 OA
BRANCH   2   3
ATOM      3  C   UNL     1      -0.282  -1.628   2.715  1.00  0.00     0.325 C 
ATOM      4  O   UNL     1       0.884  -1.895   2.984  1.00  0.00    -0.250 OA
BRANCH   3   5
ATOM      5  C   UNL     1      -1.233  -2.650   2.086  1.00  0.00     0.242 C 
BRANCH   5   6
ATOM      6  N   UNL     1      -2.632  -2.254   1.833  1.00  0.00    -0.322 N 
BRANCH   6   7
ATOM      7  C   UNL     1      -3.153  -1.990   0.576  1.00  0.00     0.229 C 
ATOM      8  O   UNL     1      -4.364  -1.822   0.410  1.00  0.00    -0.274 OA
BRANCH   7   9
ATOM      9  C   UNL     1      -2.231  -1.938  -0.630  1.00  0.00     0.157 C 
BRANCH   9  10
ATOM     10  C   UNL     1      -1.329  -0.753  -0.579  1.00  0.00     0.063 A 
ATOM     11  C   UNL     1       0.671   0.176  -0.360  1.00  0.00     0.180 A 
ATOM     12  N   UNL     1       0.029  -0.965  -0.397  1.00  0.00    -0.225 NA
ATOM     13  S   UNL     1      -0.306   1.572  -0.558  1.00  0.00    -0.106 S 
ATOM     14  C   UNL     1      -1.693   0.576  -0.687  1.00  0.00     0.093 A 
BRANCH  11  15
ATOM     15  N   UNL     1       1.989   0.262  -0.165  1.00  0.00    -0.375 N 
ATOM     16  H   UNL     1       2.524  -0.557  -0.055  1.00  0.00     0.159 HD
ATOM     17  H   UNL     1       2.425   1.144  -0.132  1.00  0.00     0.159 HD
ENDBRANCH  11  15
ENDBRANCH   9  10
ENDBRANCH   7   9
ENDBRANCH   6   7
BRANCH   6  18
ATOM     18  C   UNL     1      -3.558  -2.248   2.994  1.00  0.00     0.235 C 
BRANCH  18  19
ATOM     19  C   UNL     1      -4.300  -0.938   3.331  1.00  0.00     0.406 C 
ATOM     20  F   UNL     1      -5.305  -0.661   2.473  1.00  0.00    -0.169 F 
ATOM     21  F   UNL     1      -4.870  -1.027   4.559  1.00  0.00    -0.169 F 
ATOM     22  F   UNL     1      -3.477   0.135   3.345  1.00  0.00    -0.169 F 
ENDBRANCH  18  19
ENDBRANCH   6  18
ENDBRANCH   5   6
ENDBRANCH   3   5
ENDBRANCH   2   3
ENDBRANCH   1   2
BRANCH   1  23
ATOM     23  C   UNL     1      -0.417   0.733   5.079  1.00  0.00     0.275 C 
BRANCH  23  24
ATOM     24  O   UNL     1      -0.043  -0.435   5.833  1.00  0.00    -0.458 OA
BRANCH  24  25
ATOM     25  C   UNL     1      -1.058  -1.279   6.125  1.00  0.00     0.338 C 
ATOM     26  O   UNL     1      -2.237  -1.151   5.839  1.00  0.00    -0.246 OA
BRANCH  25  27
ATOM     27  C   UNL     1      -0.528  -2.508   6.726  1.00  0.00     0.060 A 
ATOM     28  C   UNL     1      -0.367  -3.614   5.892  1.00  0.00     0.016 A 
ATOM     29  C   UNL     1      -0.322  -2.617   8.103  1.00  0.00     0.016 A 
ATOM     30  C   UNL     1      -0.024  -4.848   6.432  1.00  0.00     0.010 A 
ATOM     31  C   UNL     1       0.044  -3.857   8.643  1.00  0.00     0.010 A 
ATOM     32  C   UNL     1       0.173  -4.983   7.812  1.00  0.00    -0.014 A 
BRANCH  32  33
ATOM     33  C   UNL     1       0.463  -6.331   8.355  1.00  0.00     0.031 A 
ATOM     34  C   UNL     1      -0.613  -7.113   9.052  1.00  0.00     0.074 A 
ATOM     35  C   UNL     1       1.665  -6.892   8.131  1.00  0.00     0.049 A 
ATOM     36  N   UNL     1      -0.559  -8.322   9.549  1.00  0.00    -0.248 NA
ATOM     37  C   UNL     1      -1.920  -6.454   9.205  1.00  0.00     0.031 C 
ATOM     38  C   UNL     1       2.780  -6.252   7.430  1.00  0.00     0.029 A 
ATOM     39  N   UNL     1       2.134  -8.144   8.435  1.00  0.00    -0.354 N 
ATOM     40  C   UNL     1      -1.810  -8.560  10.101  1.00  0.00     0.074 A 
ATOM     41  C   UNL     1      -2.607  -7.373   9.870  1.00  0.00     0.031 C 
ATOM     42  C   UNL     1       3.788  -7.134   7.317  1.00  0.00     0.029 A 
ATOM     43  C   UNL     1       3.398  -8.387   7.958  1.00  0.00     0.049 A 
ATOM     44  H   UNL     1       1.614  -8.806   8.947  1.00  0.00     0.167 HD
ATOM     45  C   UNL     1      -2.256  -9.662  10.751  1.00  0.00     0.031 A 
ATOM     46  C   UNL     1       4.157  -9.497   8.019  1.00  0.00     0.031 A 
ATOM     47  C   UNL     1      -1.480 -10.851  10.970  1.00  0.00     0.049 A 
ATOM     48  C   UNL     1       3.629 -10.720   8.707  1.00  0.00     0.074 A 
ATOM     49  C   UNL     1      -1.829 -11.997  11.663  1.00  0.00     0.029 A 
ATOM     50  N   UNL     1      -0.199 -11.054  10.481  1.00  0.00    -0.354 N 
ATOM     51  N   UNL     1       2.463 -10.901   9.280  1.00  0.00    -0.248 NA
ATOM     52  C   UNL     1       4.521 -11.886   8.761  1.00  0.00     0.031 C 
ATOM     53  C   UNL     1      -0.755 -12.896  11.593  1.00  0.00     0.029 A 
ATOM     54  C   UNL     1       0.254 -12.310  10.846  1.00  0.00     0.049 A 
ATOM     55  H   UNL     1       0.313 -10.401   9.951  1.00  0.00     0.167 HD
ATOM     56  C   UNL     1       2.487 -12.198   9.776  1.00  0.00     0.074 A 
ATOM     57  C   UNL     1       3.771 -12.765   9.414  1.00  0.00     0.031 C 
ATOM     58  C   UNL     1       1.535 -12.855  10.482  1.00  0.00     0.031 A 
BRANCH  45  59
ATOM     59  C   UNL     1      -3.650  -9.598  11.301  1.00  0.00    -0.014 A 
ATOM     60  C   UNL     1      -4.760  -9.887  10.489  1.00  0.00     0.010 A 
ATOM     61  C   UNL     1      -3.851  -9.222  12.641  1.00  0.00     0.010 A 
ATOM     62  C   UNL     1      -6.055  -9.762  10.998  1.00  0.00     0.020 A 
ATOM     63  C   UNL     1      -5.144  -9.105  13.155  1.00  0.00     0.020 A 
ATOM     64  C   UNL     1      -6.239  -9.355  12.323  1.00  0.00     0.054 A 
BRANCH  64  65
ATOM     65  S   UNL     1      -7.922  -9.175  12.978  1.00  0.00     0.124 S 
ATOM     66  O   UNL     1      -8.227  -7.788  12.636  1.00  0.00    -0.237 OA
ATOM     67  O   UNL     1      -8.677 -10.183  12.239  1.00  0.00    -0.237 OA
ATOM     68  O   UNL     1      -7.759  -9.446  14.405  1.00  0.00    -0.744 OA
ENDBRANCH  64  65
ENDBRANCH  45  59
BRANCH  46  69
ATOM     69  C   UNL     1       5.502  -9.492   7.396  1.00  0.00    -0.014 A 
ATOM     70  C   UNL     1       5.689 -10.037   6.115  1.00  0.00     0.010 A 
ATOM     71  C   UNL     1       6.587  -8.894   8.059  1.00  0.00     0.010 A 
ATOM     72  C   UNL     1       6.943  -9.977   5.500  1.00  0.00     0.020 A 
ATOM     73  C   UNL     1       7.838  -8.824   7.443  1.00  0.00     0.020 A 
ATOM     74  C   UNL     1       8.009  -9.369   6.168  1.00  0.00     0.054 A 
BRANCH  74  75
ATOM     75  S   UNL     1       9.615  -9.202   5.338  1.00  0.00     0.124 S 
ATOM     76  O   UNL     1      10.324 -10.386   5.813  1.00  0.00    -0.237 OA
ATOM     77  O   UNL     1       9.259  -9.205   3.921  1.00  0.00    -0.237 OA
ATOM     78  O   UNL     1      10.112  -7.924   5.842  1.00  0.00    -0.744 OA
ENDBRANCH  74  75
ENDBRANCH  46  69
BRANCH  58  79
ATOM     79  C   UNL     1       1.859 -14.253  10.916  1.00  0.00    -0.014 A 
ATOM     80  C   UNL     1       2.608 -14.476  12.085  1.00  0.00     0.010 A 
ATOM     81  C   UNL     1       1.401 -15.349  10.167  1.00  0.00     0.010 A 
ATOM     82  C   UNL     1       2.917 -15.777  12.486  1.00  0.00     0.020 A 
ATOM     83  C   UNL     1       1.703 -16.653  10.569  1.00  0.00     0.020 A 
ATOM     84  C   UNL     1       2.471 -16.858  11.719  1.00  0.00     0.054 A 
BRANCH  84  85
ATOM     85  S   UNL     1       2.852 -18.549  12.256  1.00  0.00     0.124 S 
ATOM     86  O   UNL     1       4.136 -18.791  11.603  1.00  0.00    -0.237 OA
ATOM     87  O   UNL     1       2.900 -18.434  13.711  1.00  0.00    -0.237 OA
ATOM     88  O   UNL     1       1.729 -19.328  11.738  1.00  0.00    -0.744 OA
ENDBRANCH  84  85
ENDBRANCH  58  79
ENDBRANCH  32  33
ENDBRANCH  25  27
ENDBRANCH  24  25
ENDBRANCH  23  24
ENDBRANCH   1  23
TORSDOF 21
