REMARK SMILES COc1cc2ccccc2cc1C(=O)Nc1cc(C(=O)OCCOC(=O)c2ccc(-c3c4nc(c(-c5ccc(S(=O)(=O)[O-])cc5)c5ccc([nH]5)c(-c5ccc(S(=O)(=O)[O-])cc5)c5nc(c(-c6ccc(S(=O)(=O)[O-])cc6)c6ccc3[nH]6)C=C5)C=C4)cc2)ccc1C
REMARK SMILES IDX 22 1 21 2 19 3 20 4 18 5 16 6 17 7 89 8 88 9 90 10 87 11
REMARK SMILES IDX 15 12 13 13 14 14 12 16 3 17 4 18 5 19 11 20 6 21 10 22 7 23
REMARK SMILES IDX 9 24 8 25 2 26 1 27 23 28 24 29 25 30 26 31 27 32 28 33
REMARK SMILES IDX 86 34 29 35 85 36 30 37 31 38 32 39 79 40 33 41 84 42 78 43
REMARK SMILES IDX 80 44 34 45 83 46 77 47 76 48 35 50 65 51 46 52 64 53 47 54
REMARK SMILES IDX 50 55 63 56 81 57 48 58 49 59 62 61 82 62 51 63 36 64 37 65
REMARK SMILES IDX 45 66 38 67 44 68 39 69 40 70 41 71 42 72 43 73 66 74 67 75
REMARK SMILES IDX 75 76 68 77 74 78 69 79 70 80 71 81 72 82 73 83 52 84 53 85
REMARK SMILES IDX 61 86 54 87 60 88 55 89 56 90 57 91 58 92 59 93
REMARK H PARENT 15 15 80 49 50 60
REMARK Flexibility Score: inf
ROOT
ATOM      1  C   UNL     1       0.842   0.225  -6.566  1.00  0.00     0.275 C 
ENDROOT
BRANCH   1   2
ATOM      2  O   UNL     1       1.290  -0.529  -5.419  1.00  0.00    -0.458 OA
BRANCH   2   3
ATOM      3  C   UNL     1       1.212   0.130  -4.250  1.00  0.00     0.338 C 
ATOM      4  O   UNL     1       0.857   1.305  -4.107  1.00  0.00    -0.246 OA
BRANCH   3   5
ATOM      5  C   UNL     1       1.733  -0.650  -3.123  1.00  0.00     0.062 A 
ATOM      6  C   UNL     1       3.114  -0.523  -1.133  1.00  0.00     0.045 A 
ATOM      7  C   UNL     1       2.792  -0.076  -2.416  1.00  0.00     0.042 A 
ATOM      8  C   UNL     1       2.492  -1.680  -0.622  1.00  0.00    -0.027 A 
ATOM      9  C   UNL     1       1.466  -2.286  -1.376  1.00  0.00     0.006 A 
ATOM     10  C   UNL     1       2.713  -2.169   0.785  1.00  0.00     0.046 C 
ATOM     11  C   UNL     1       1.067  -1.762  -2.611  1.00  0.00     0.016 A 
BRANCH   6  12
ATOM     12  N   UNL     1       3.974   0.237  -0.312  1.00  0.00    -0.322 N 
ATOM     13  C   UNL     1       4.163   1.609  -0.242  1.00  0.00     0.259 C 
ATOM     14  O   UNL     1       5.122   2.038   0.404  1.00  0.00    -0.269 OA
ATOM     15  H   UNL     1       4.527  -0.290   0.309  1.00  0.00     0.170 HD
BRANCH  13  16
ATOM     16  C   UNL     1       3.220   2.590  -0.858  1.00  0.00     0.082 A 
ATOM     17  C   UNL     1       1.841   2.391  -0.951  1.00  0.00     0.132 A 
ATOM     18  C   UNL     1       1.095   3.183  -1.818  1.00  0.00     0.056 A 
ATOM     19  C   UNL     1       1.633   4.331  -2.404  1.00  0.00    -0.015 A 
ATOM     20  C   UNL     1       3.764   3.773  -1.393  1.00  0.00     0.026 A 
ATOM     21  C   UNL     1       0.849   5.158  -3.220  1.00  0.00     0.009 A 
ATOM     22  C   UNL     1       2.966   4.681  -2.124  1.00  0.00    -0.017 A 
ATOM     23  C   UNL     1       1.328   6.389  -3.656  1.00  0.00     0.001 A 
ATOM     24  C   UNL     1       3.445   5.918  -2.592  1.00  0.00     0.009 A 
ATOM     25  C   UNL     1       2.620   6.778  -3.325  1.00  0.00     0.001 A 
BRANCH  17  26
ATOM     26  O   UNL     1       1.141   1.394  -0.324  1.00  0.00    -0.496 OA
ATOM     27  C   UNL     1       1.109   1.573   1.089  1.00  0.00     0.278 C 
ENDBRANCH  17  26
ENDBRANCH  13  16
ENDBRANCH   6  12
ENDBRANCH   3   5
ENDBRANCH   2   3
ENDBRANCH   1   2
BRANCH   1  28
ATOM     28  C   UNL     1      -0.182  -0.581  -7.373  1.00  0.00     0.275 C 
BRANCH  28  29
ATOM     29  O   UNL     1      -1.513  -0.469  -6.828  1.00  0.00    -0.458 OA
BRANCH  29  30
ATOM     30  C   UNL     1      -1.668  -0.898  -5.558  1.00  0.00     0.338 C 
ATOM     31  O   UNL     1      -1.186  -1.944  -5.107  1.00  0.00    -0.246 OA
BRANCH  30  32
ATOM     32  C   UNL     1      -2.175   0.237  -4.742  1.00  0.00     0.060 A 
ATOM     33  C   UNL     1      -2.302   0.137  -3.346  1.00  0.00     0.016 A 
ATOM     34  C   UNL     1      -2.328   1.490  -5.356  1.00  0.00     0.016 A 
ATOM     35  C   UNL     1      -2.568   1.279  -2.578  1.00  0.00     0.010 A 
ATOM     36  C   UNL     1      -2.530   2.620  -4.590  1.00  0.00     0.010 A 
ATOM     37  C   UNL     1      -2.677   2.527  -3.202  1.00  0.00    -0.014 A 
BRANCH  37  38
ATOM     38  C   UNL     1      -3.176   3.766  -2.592  1.00  0.00     0.031 A 
ATOM     39  C   UNL     1      -2.364   4.658  -1.745  1.00  0.00     0.074 A 
ATOM     40  C   UNL     1      -4.449   4.078  -2.912  1.00  0.00     0.049 A 
ATOM     41  N   UNL     1      -2.139   5.918  -1.954  1.00  0.00    -0.248 NA
ATOM     42  C   UNL     1      -1.738   4.123  -0.530  1.00  0.00     0.031 C 
ATOM     43  C   UNL     1      -5.180   5.301  -2.630  1.00  0.00     0.029 A 
ATOM     44  N   UNL     1      -5.435   3.157  -3.287  1.00  0.00    -0.354 N 
ATOM     45  C   UNL     1      -1.369   6.385  -0.890  1.00  0.00     0.074 A 
ATOM     46  C   UNL     1      -1.105   5.203  -0.068  1.00  0.00     0.031 C 
ATOM     47  C   UNL     1      -6.476   4.975  -2.486  1.00  0.00     0.029 A 
ATOM     48  C   UNL     1      -6.558   3.511  -2.540  1.00  0.00     0.049 A 
ATOM     49  H   UNL     1      -5.354   2.421  -3.936  1.00  0.00     0.167 HD
ATOM     50  C   UNL     1      -1.716   7.522  -0.223  1.00  0.00     0.031 A 
ATOM     51  C   UNL     1      -7.020   2.709  -1.532  1.00  0.00     0.031 A 
ATOM     52  C   UNL     1      -3.132   7.621   0.027  1.00  0.00     0.049 A 
ATOM     53  C   UNL     1      -6.977   3.427  -0.208  1.00  0.00     0.074 A 
ATOM     54  C   UNL     1      -4.183   8.244  -0.617  1.00  0.00     0.029 A 
ATOM     55  N   UNL     1      -3.681   6.800   0.997  1.00  0.00    -0.354 N 
ATOM     56  N   UNL     1      -6.106   4.350   0.097  1.00  0.00    -0.248 NA
ATOM     57  C   UNL     1      -7.924   3.160   0.869  1.00  0.00     0.031 C 
ATOM     58  C   UNL     1      -5.385   7.705  -0.090  1.00  0.00     0.029 A 
ATOM     59  C   UNL     1      -5.052   6.788   0.892  1.00  0.00     0.049 A 
ATOM     60  H   UNL     1      -3.164   6.296   1.666  1.00  0.00     0.167 HD
ATOM     61  C   UNL     1      -6.448   4.891   1.309  1.00  0.00     0.074 A 
ATOM     62  C   UNL     1      -7.554   4.077   1.779  1.00  0.00     0.031 C 
ATOM     63  C   UNL     1      -5.846   6.002   1.818  1.00  0.00     0.031 A 
BRANCH  50  64
ATOM     64  C   UNL     1      -0.737   8.658  -0.348  1.00  0.00    -0.014 A 
ATOM     65  C   UNL     1      -1.173   9.989  -0.480  1.00  0.00     0.010 A 
ATOM     66  C   UNL     1       0.658   8.431  -0.356  1.00  0.00     0.010 A 
ATOM     67  C   UNL     1      -0.265  11.040  -0.678  1.00  0.00     0.020 A 
ATOM     68  C   UNL     1       1.574   9.477  -0.544  1.00  0.00     0.020 A 
ATOM     69  C   UNL     1       1.105  10.777  -0.722  1.00  0.00     0.054 A 
BRANCH  69  70
ATOM     70  S   UNL     1       2.250  12.144  -1.058  1.00  0.00     0.124 S 
ATOM     71  O   UNL     1       1.759  12.662  -2.334  1.00  0.00    -0.237 OA
ATOM     72  O   UNL     1       2.047  13.019   0.093  1.00  0.00    -0.237 OA
ATOM     73  O   UNL     1       3.559  11.497  -1.122  1.00  0.00    -0.744 OA
ENDBRANCH  69  70
ENDBRANCH  50  64
BRANCH  51  74
ATOM     74  C   UNL     1      -6.782   1.240  -1.691  1.00  0.00    -0.014 A 
ATOM     75  C   UNL     1      -7.284   0.598  -2.845  1.00  0.00     0.010 A 
ATOM     76  C   UNL     1      -5.867   0.543  -0.885  1.00  0.00     0.010 A 
ATOM     77  C   UNL     1      -6.809  -0.656  -3.241  1.00  0.00     0.020 A 
ATOM     78  C   UNL     1      -5.400  -0.726  -1.269  1.00  0.00     0.020 A 
ATOM     79  C   UNL     1      -5.848  -1.300  -2.462  1.00  0.00     0.054 A 
BRANCH  79  80
ATOM     80  S   UNL     1      -5.075  -2.808  -3.122  1.00  0.00     0.124 S 
ATOM     81  O   UNL     1      -6.142  -3.791  -2.968  1.00  0.00    -0.237 OA
ATOM     82  O   UNL     1      -4.767  -2.416  -4.496  1.00  0.00    -0.237 OA
ATOM     83  O   UNL     1      -3.914  -2.996  -2.255  1.00  0.00    -0.744 OA
ENDBRANCH  79  80
ENDBRANCH  51  74
BRANCH  63  84
ATOM     84  C   UNL     1      -6.034   6.529   3.214  1.00  0.00    -0.014 A 
ATOM     85  C   UNL     1      -6.334   5.708   4.311  1.00  0.00     0.010 A 
ATOM     86  C   UNL     1      -5.744   7.888   3.478  1.00  0.00     0.010 A 
ATOM     87  C   UNL     1      -6.405   6.232   5.607  1.00  0.00     0.020 A 
ATOM     88  C   UNL     1      -5.773   8.412   4.771  1.00  0.00     0.020 A 
ATOM     89  C   UNL     1      -6.127   7.582   5.829  1.00  0.00     0.054 A 
BRANCH  89  90
ATOM     90  S   UNL     1      -6.145   8.242   7.513  1.00  0.00     0.124 S 
ATOM     91  O   UNL     1      -7.513   8.741   7.624  1.00  0.00    -0.237 OA
ATOM     92  O   UNL     1      -5.838   7.070   8.331  1.00  0.00    -0.237 OA
ATOM     93  O   UNL     1      -5.101   9.263   7.485  1.00  0.00    -0.744 OA
ENDBRANCH  89  90
ENDBRANCH  63  84
ENDBRANCH  37  38
ENDBRANCH  30  32
ENDBRANCH  29  30
ENDBRANCH  28  29
ENDBRANCH   1  28
TORSDOF 17
