REMARK SMILES COc1cccc(O[C@@H](C)c2nnc(SCC(=O)OCCOC(=O)c3ccc(-c4c5nc(c(-c6ccc(S(=O)(=O)[O-])cc6)c6ccc([nH]6)c(-c6ccc(S(=O)(=O)[O-])cc6)c6nc(c(-c7ccc(S(=O)(=O)[O-])cc7)c7ccc4[nH]7)C=C6)C=C5)cc3)n2C)c1
REMARK SMILES IDX 19 1 17 2 18 3 16 4 15 5 14 6 11 7 12 8 85 9 13 10 86 11
REMARK SMILES IDX 9 12 10 13 8 14 7 15 3 16 4 17 87 18 5 19 6 20 2 21 1 22
REMARK SMILES IDX 20 23 21 24 22 25 23 26 24 27 25 28 26 29 84 30 27 31 83 32
REMARK SMILES IDX 28 33 29 34 30 35 77 36 31 37 82 38 76 39 78 40 32 41 81 42
REMARK SMILES IDX 75 43 74 44 33 46 63 47 44 48 62 49 45 50 48 51 61 52 79 53
REMARK SMILES IDX 46 54 47 55 60 57 80 58 49 59 34 60 35 61 43 62 36 63 42 64
REMARK SMILES IDX 37 65 38 66 39 67 40 68 41 69 64 70 65 71 73 72 66 73 72 74
REMARK SMILES IDX 67 75 68 76 69 77 70 78 71 79 50 80 51 81 59 82 52 83 58 84
REMARK SMILES IDX 53 85 54 86 55 87 56 88 57 89
REMARK H PARENT 78 45 48 56
REMARK Flexibility Score: inf
ROOT
ATOM      1  O   UNL     1       8.494  -2.252   1.623  1.00  0.00    -0.461 OA
ENDROOT
BRANCH   1   2
ATOM      2  C   UNL     1       7.579  -1.541   2.321  1.00  0.00     0.316 C 
ATOM      3  O   UNL     1       7.711  -0.352   2.608  1.00  0.00    -0.251 OA
BRANCH   2   4
ATOM      4  C   UNL     1       6.389  -2.313   2.828  1.00  0.00     0.200 C 
BRANCH   4   5
ATOM      5  S   UNL     1       6.072  -3.958   2.204  1.00  0.00    -0.074 SA
BRANCH   5   6
ATOM      6  C   UNL     1       5.855  -3.902   0.488  1.00  0.00     0.191 A 
ATOM      7  C   UNL     1       5.089  -3.559  -1.552  1.00  0.00     0.174 A 
ATOM      8  N   UNL     1       5.835  -4.655  -1.542  1.00  0.00    -0.130 NA
ATOM      9  N   UNL     1       5.070  -3.053  -0.262  1.00  0.00    -0.306 N 
ATOM     10  N   UNL     1       6.302  -4.867  -0.279  1.00  0.00    -0.123 NA
ATOM     11  C   UNL     1       4.392  -1.891   0.234  1.00  0.00     0.154 C 
BRANCH   7  12
ATOM     12  C   UNL     1       4.465  -3.044  -2.828  1.00  0.00     0.238 C 
ATOM     13  C   UNL     1       4.469  -1.549  -3.110  1.00  0.00     0.062 C 
BRANCH  12  14
ATOM     14  O   UNL     1       3.254  -3.771  -3.113  1.00  0.00    -0.483 OA
BRANCH  14  15
ATOM     15  C   UNL     1       2.045  -3.163  -2.954  1.00  0.00     0.124 A 
ATOM     16  C   UNL     1       0.332  -2.115  -1.620  1.00  0.00     0.122 A 
ATOM     17  C   UNL     1      -0.552  -2.141  -2.693  1.00  0.00     0.046 A 
ATOM     18  C   UNL     1       1.607  -2.667  -1.734  1.00  0.00     0.092 A 
ATOM     19  C   UNL     1      -0.134  -2.685  -3.908  1.00  0.00     0.008 A 
ATOM     20  C   UNL     1       1.164  -3.191  -4.038  1.00  0.00     0.047 A 
BRANCH  16  21
ATOM     21  O   UNL     1      -0.080  -1.639  -0.404  1.00  0.00    -0.497 OA
ATOM     22  C   UNL     1       0.260  -0.257  -0.281  1.00  0.00     0.278 C 
ENDBRANCH  16  21
ENDBRANCH  14  15
ENDBRANCH  12  14
ENDBRANCH   7  12
ENDBRANCH   5   6
ENDBRANCH   4   5
ENDBRANCH   2   4
ENDBRANCH   1   2
BRANCH   1  23
ATOM     23  C   UNL     1       9.723  -1.560   1.318  1.00  0.00     0.274 C 
BRANCH  23  24
ATOM     24  C   UNL     1       9.719  -0.901  -0.062  1.00  0.00     0.275 C 
BRANCH  24  25
ATOM     25  O   UNL     1       8.765   0.175  -0.149  1.00  0.00    -0.458 OA
BRANCH  25  26
ATOM     26  C   UNL     1       7.627  -0.150  -0.797  1.00  0.00     0.338 C 
ATOM     27  O   UNL     1       7.333  -1.237  -1.265  1.00  0.00    -0.246 OA
BRANCH  26  28
ATOM     28  C   UNL     1       6.684   0.972  -0.882  1.00  0.00     0.060 A 
ATOM     29  C   UNL     1       5.875   1.272   0.214  1.00  0.00     0.016 A 
ATOM     30  C   UNL     1       6.415   1.528  -2.135  1.00  0.00     0.016 A 
ATOM     31  C   UNL     1       4.742   2.064   0.037  1.00  0.00     0.010 A 
ATOM     32  C   UNL     1       5.318   2.377  -2.294  1.00  0.00     0.010 A 
ATOM     33  C   UNL     1       4.453   2.627  -1.218  1.00  0.00    -0.014 A 
BRANCH  33  34
ATOM     34  C   UNL     1       3.293   3.538  -1.381  1.00  0.00     0.031 A 
ATOM     35  C   UNL     1       2.105   3.167  -2.227  1.00  0.00     0.074 A 
ATOM     36  C   UNL     1       3.337   4.741  -0.778  1.00  0.00     0.049 A 
ATOM     37  N   UNL     1       1.041   3.877  -2.504  1.00  0.00    -0.248 NA
ATOM     38  C   UNL     1       2.100   1.826  -2.830  1.00  0.00     0.031 C 
ATOM     39  C   UNL     1       4.438   5.222   0.061  1.00  0.00     0.029 A 
ATOM     40  N   UNL     1       2.449   5.785  -0.797  1.00  0.00    -0.354 N 
ATOM     41  C   UNL     1       0.243   3.076  -3.313  1.00  0.00     0.074 A 
ATOM     42  C   UNL     1       0.949   1.824  -3.491  1.00  0.00     0.031 C 
ATOM     43  C   UNL     1       4.169   6.473   0.460  1.00  0.00     0.029 A 
ATOM     44  C   UNL     1       2.905   6.896  -0.133  1.00  0.00     0.049 A 
ATOM     45  H   UNL     1       1.572   5.742  -1.243  1.00  0.00     0.167 HD
ATOM     46  C   UNL     1      -0.965   3.360  -3.855  1.00  0.00     0.031 A 
ATOM     47  C   UNL     1       2.397   8.139  -0.048  1.00  0.00     0.031 A 
ATOM     48  C   UNL     1      -1.654   4.614  -3.699  1.00  0.00     0.049 A 
ATOM     49  C   UNL     1       1.105   8.457  -0.733  1.00  0.00     0.074 A 
ATOM     50  C   UNL     1      -2.910   4.970  -4.162  1.00  0.00     0.029 A 
ATOM     51  N   UNL     1      -1.137   5.727  -3.057  1.00  0.00    -0.354 N 
ATOM     52  N   UNL     1       0.340   7.665  -1.444  1.00  0.00    -0.248 NA
ATOM     53  C   UNL     1       0.611   9.833  -0.607  1.00  0.00     0.031 C 
ATOM     54  C   UNL     1      -3.131   6.315  -3.842  1.00  0.00     0.029 A 
ATOM     55  C   UNL     1      -2.029   6.783  -3.147  1.00  0.00     0.049 A 
ATOM     56  H   UNL     1      -0.264   5.763  -2.604  1.00  0.00     0.167 HD
ATOM     57  C   UNL     1      -0.731   8.448  -1.852  1.00  0.00     0.074 A 
ATOM     58  C   UNL     1      -0.521   9.770  -1.296  1.00  0.00     0.031 C 
ATOM     59  C   UNL     1      -1.793   8.100  -2.618  1.00  0.00     0.031 A 
BRANCH  46  60
ATOM     60  C   UNL     1      -1.628   2.301  -4.692  1.00  0.00    -0.014 A 
ATOM     61  C   UNL     1      -2.323   1.240  -4.088  1.00  0.00     0.010 A 
ATOM     62  C   UNL     1      -1.639   2.425  -6.093  1.00  0.00     0.010 A 
ATOM     63  C   UNL     1      -3.012   0.312  -4.873  1.00  0.00     0.020 A 
ATOM     64  C   UNL     1      -2.335   1.504  -6.881  1.00  0.00     0.020 A 
ATOM     65  C   UNL     1      -3.012   0.449  -6.265  1.00  0.00     0.054 A 
BRANCH  65  66
ATOM     66  S   UNL     1      -3.947  -0.749  -7.256  1.00  0.00     0.124 S 
ATOM     67  O   UNL     1      -3.097  -1.933  -7.167  1.00  0.00    -0.237 OA
ATOM     68  O   UNL     1      -5.218  -0.832  -6.542  1.00  0.00    -0.237 OA
ATOM     69  O   UNL     1      -4.017  -0.127  -8.576  1.00  0.00    -0.744 OA
ENDBRANCH  65  66
ENDBRANCH  46  60
BRANCH  47  70
ATOM     70  C   UNL     1       3.175   9.182   0.665  1.00  0.00    -0.014 A 
ATOM     71  C   UNL     1       2.813   9.589   1.959  1.00  0.00     0.010 A 
ATOM     72  C   UNL     1       4.337   9.709   0.071  1.00  0.00     0.010 A 
ATOM     73  C   UNL     1       3.611  10.501   2.655  1.00  0.00     0.020 A 
ATOM     74  C   UNL     1       5.146  10.603   0.771  1.00  0.00     0.020 A 
ATOM     75  C   UNL     1       4.776  10.997   2.059  1.00  0.00     0.054 A 
BRANCH  75  76
ATOM     76  S   UNL     1       5.866  12.092   3.010  1.00  0.00     0.124 S 
ATOM     77  O   UNL     1       5.274  13.401   2.757  1.00  0.00    -0.237 OA
ATOM     78  O   UNL     1       5.726  11.585   4.373  1.00  0.00    -0.237 OA
ATOM     79  O   UNL     1       7.177  11.864   2.405  1.00  0.00    -0.744 OA
ENDBRANCH  75  76
ENDBRANCH  47  70
BRANCH  59  80
ATOM     80  C   UNL     1      -2.804   9.174  -2.898  1.00  0.00    -0.014 A 
ATOM     81  C   UNL     1      -2.548  10.165  -3.862  1.00  0.00     0.010 A 
ATOM     82  C   UNL     1      -4.021   9.190  -2.195  1.00  0.00     0.010 A 
ATOM     83  C   UNL     1      -3.480  11.179  -4.093  1.00  0.00     0.020 A 
ATOM     84  C   UNL     1      -4.962  10.194  -2.436  1.00  0.00     0.020 A 
ATOM     85  C   UNL     1      -4.677  11.193  -3.370  1.00  0.00     0.054 A 
BRANCH  85  86
ATOM     86  S   UNL     1      -5.883  12.510  -3.687  1.00  0.00     0.124 S 
ATOM     87  O   UNL     1      -5.355  13.603  -2.875  1.00  0.00    -0.237 OA
ATOM     88  O   UNL     1      -5.789  12.700  -5.133  1.00  0.00    -0.237 OA
ATOM     89  O   UNL     1      -7.144  11.938  -3.221  1.00  0.00    -0.744 OA
ENDBRANCH  85  86
ENDBRANCH  59  80
ENDBRANCH  33  34
ENDBRANCH  26  28
ENDBRANCH  25  26
ENDBRANCH  24  25
ENDBRANCH  23  24
ENDBRANCH   1  23
TORSDOF 20
