REMARK SMILES O=C(OCCOC(=O)c1ccc(N2C(=O)[C@@H]3N=NC(c4ccccc4)=C3[C@H]2c2cccc(Br)c2)cc1)c1ccc(-c2c3nc(c(-c4ccc(S(=O)(=O)[O-])cc4)c4ccc([nH]4)c(-c4ccc(S(=O)(=O)[O-])cc4)c4nc(c(-c5ccc(S(=O)(=O)[O-])cc5)c5ccc2[nH]5)C=C4)C=C3)cc1
REMARK SMILES IDX 4 1 3 2 2 3 1 4 37 5 38 6 96 7 39 8 95 9 40 10 41 11 42 12
REMARK SMILES IDX 89 13 43 14 94 15 88 16 90 17 44 18 93 19 87 20 86 21 45 23
REMARK SMILES IDX 75 24 56 25 74 26 57 27 60 28 73 29 91 30 58 31 59 32 72 34
REMARK SMILES IDX 92 35 61 36 46 37 47 38 55 39 48 40 54 41 49 42 50 43 51 44
REMARK SMILES IDX 52 45 53 46 76 47 77 48 85 49 78 50 84 51 79 52 80 53 81 54
REMARK SMILES IDX 82 55 83 56 62 57 63 58 71 59 64 60 70 61 65 62 66 63 67 64
REMARK SMILES IDX 68 65 69 66 5 67 6 68 7 69 8 70 9 71 10 72 36 73 11 74 35 75
REMARK SMILES IDX 12 76 13 77 14 78 27 79 16 80 15 81 26 82 17 83 19 84 18 85
REMARK SMILES IDX 28 86 29 87 34 88 30 89 32 90 31 91 33 92 20 93 21 94 25 95
REMARK SMILES IDX 22 96 24 97 23 98
REMARK H PARENT 90 22 60 33
REMARK Flexibility Score: inf
ROOT
ATOM      1  C   UNL     1       4.553   0.927  -0.179  1.00  0.00     0.275 C 
ENDROOT
BRANCH   1   2
ATOM      2  O   UNL     1       3.370   0.951  -1.003  1.00  0.00    -0.458 OA
BRANCH   2   3
ATOM      3  C   UNL     1       2.272   0.287  -0.584  1.00  0.00     0.338 C 
ATOM      4  O   UNL     1       1.379   0.791   0.079  1.00  0.00    -0.246 OA
BRANCH   3   5
ATOM      5  C   UNL     1       2.162  -1.058  -1.196  1.00  0.00     0.060 A 
ATOM      6  C   UNL     1       3.279  -1.780  -1.627  1.00  0.00     0.016 A 
ATOM      7  C   UNL     1       0.881  -1.608  -1.327  1.00  0.00     0.016 A 
ATOM      8  C   UNL     1       3.114  -3.007  -2.252  1.00  0.00     0.010 A 
ATOM      9  C   UNL     1       0.718  -2.848  -1.930  1.00  0.00     0.010 A 
ATOM     10  C   UNL     1       1.830  -3.523  -2.440  1.00  0.00    -0.014 A 
BRANCH  10  11
ATOM     11  C   UNL     1       1.704  -4.804  -3.135  1.00  0.00     0.031 A 
ATOM     12  C   UNL     1       2.415  -5.964  -2.518  1.00  0.00     0.074 A 
ATOM     13  C   UNL     1       0.877  -4.998  -4.181  1.00  0.00     0.049 A 
ATOM     14  N   UNL     1       3.363  -6.701  -3.000  1.00  0.00    -0.248 NA
ATOM     15  C   UNL     1       2.055  -6.291  -1.137  1.00  0.00     0.031 C 
ATOM     16  C   UNL     1      -0.120  -4.082  -4.741  1.00  0.00     0.029 A 
ATOM     17  N   UNL     1       0.682  -6.137  -4.898  1.00  0.00    -0.354 N 
ATOM     18  C   UNL     1       3.611  -7.694  -2.046  1.00  0.00     0.074 A 
ATOM     19  C   UNL     1       2.861  -7.321  -0.879  1.00  0.00     0.031 C 
ATOM     20  C   UNL     1      -0.969  -4.777  -5.531  1.00  0.00     0.029 A 
ATOM     21  C   UNL     1      -0.477  -6.137  -5.660  1.00  0.00     0.049 A 
ATOM     22  H   UNL     1       1.308  -6.896  -4.878  1.00  0.00     0.167 HD
ATOM     23  C   UNL     1       4.282  -8.848  -2.322  1.00  0.00     0.031 A 
ATOM     24  C   UNL     1      -1.021  -7.199  -6.304  1.00  0.00     0.031 A 
ATOM     25  C   UNL     1       4.994  -8.768  -3.565  1.00  0.00     0.049 A 
ATOM     26  C   UNL     1       0.053  -8.207  -6.475  1.00  0.00     0.074 A 
ATOM     27  C   UNL     1       6.019  -7.981  -4.046  1.00  0.00     0.029 A 
ATOM     28  N   UNL     1       4.404  -9.341  -4.666  1.00  0.00    -0.354 N 
ATOM     29  N   UNL     1       1.110  -8.014  -7.215  1.00  0.00    -0.248 NA
ATOM     30  C   UNL     1       0.172  -9.262  -5.481  1.00  0.00     0.031 C 
ATOM     31  C   UNL     1       5.660  -7.718  -5.399  1.00  0.00     0.029 A 
ATOM     32  C   UNL     1       4.479  -8.414  -5.672  1.00  0.00     0.049 A 
ATOM     33  H   UNL     1       4.006 -10.239  -4.721  1.00  0.00     0.167 HD
ATOM     34  C   UNL     1       2.148  -8.620  -6.522  1.00  0.00     0.074 A 
ATOM     35  C   UNL     1       1.494  -9.451  -5.513  1.00  0.00     0.031 C 
ATOM     36  C   UNL     1       3.439  -8.193  -6.654  1.00  0.00     0.031 A 
BRANCH  23  37
ATOM     37  C   UNL     1       4.024 -10.177  -1.646  1.00  0.00    -0.014 A 
ATOM     38  C   UNL     1       4.830 -11.284  -1.992  1.00  0.00     0.010 A 
ATOM     39  C   UNL     1       2.850 -10.447  -0.914  1.00  0.00     0.010 A 
ATOM     40  C   UNL     1       4.433 -12.597  -1.704  1.00  0.00     0.020 A 
ATOM     41  C   UNL     1       2.466 -11.752  -0.586  1.00  0.00     0.020 A 
ATOM     42  C   UNL     1       3.239 -12.821  -1.020  1.00  0.00     0.054 A 
BRANCH  42  43
ATOM     43  S   UNL     1       2.665 -14.522  -0.780  1.00  0.00     0.124 S 
ATOM     44  O   UNL     1       2.384 -14.942  -2.150  1.00  0.00    -0.237 OA
ATOM     45  O   UNL     1       3.820 -15.155  -0.149  1.00  0.00    -0.237 OA
ATOM     46  O   UNL     1       1.496 -14.372   0.083  1.00  0.00    -0.744 OA
ENDBRANCH  42  43
ENDBRANCH  23  37
BRANCH  24  47
ATOM     47  C   UNL     1      -2.462  -7.510  -6.470  1.00  0.00    -0.014 A 
ATOM     48  C   UNL     1      -2.900  -8.465  -7.404  1.00  0.00     0.010 A 
ATOM     49  C   UNL     1      -3.391  -7.058  -5.508  1.00  0.00     0.010 A 
ATOM     50  C   UNL     1      -4.205  -8.987  -7.346  1.00  0.00     0.020 A 
ATOM     51  C   UNL     1      -4.693  -7.568  -5.448  1.00  0.00     0.020 A 
ATOM     52  C   UNL     1      -5.087  -8.547  -6.355  1.00  0.00     0.054 A 
BRANCH  52  53
ATOM     53  S   UNL     1      -6.710  -9.348  -6.182  1.00  0.00     0.124 S 
ATOM     54  O   UNL     1      -7.419  -8.873  -7.367  1.00  0.00    -0.237 OA
ATOM     55  O   UNL     1      -6.367 -10.767  -6.178  1.00  0.00    -0.237 OA
ATOM     56  O   UNL     1      -7.217  -8.833  -4.911  1.00  0.00    -0.744 OA
ENDBRANCH  52  53
ENDBRANCH  24  47
BRANCH  36  57
ATOM     57  C   UNL     1       3.777  -7.206  -7.747  1.00  0.00    -0.014 A 
ATOM     58  C   UNL     1       3.257  -5.897  -7.797  1.00  0.00     0.010 A 
ATOM     59  C   UNL     1       4.822  -7.546  -8.623  1.00  0.00     0.010 A 
ATOM     60  C   UNL     1       3.773  -4.957  -8.702  1.00  0.00     0.020 A 
ATOM     61  C   UNL     1       5.352  -6.610  -9.513  1.00  0.00     0.020 A 
ATOM     62  C   UNL     1       4.825  -5.319  -9.550  1.00  0.00     0.054 A 
BRANCH  62  63
ATOM     63  S   UNL     1       5.558  -4.074 -10.650  1.00  0.00     0.124 S 
ATOM     64  O   UNL     1       4.511  -3.874 -11.646  1.00  0.00    -0.237 OA
ATOM     65  O   UNL     1       5.798  -2.946  -9.753  1.00  0.00    -0.237 OA
ATOM     66  O   UNL     1       6.771  -4.722 -11.149  1.00  0.00    -0.744 OA
ENDBRANCH  62  63
ENDBRANCH  36  57
ENDBRANCH  10  11
ENDBRANCH   3   5
ENDBRANCH   2   3
ENDBRANCH   1   2
BRANCH   1  67
ATOM     67  C   UNL     1       4.351   0.759   1.328  1.00  0.00     0.275 C 
BRANCH  67  68
ATOM     68  O   UNL     1       3.839  -0.550   1.647  1.00  0.00    -0.458 OA
BRANCH  68  69
ATOM     69  C   UNL     1       2.832  -0.570   2.558  1.00  0.00     0.338 C 
ATOM     70  O   UNL     1       2.340   0.379   3.144  1.00  0.00    -0.246 OA
BRANCH  69  71
ATOM     71  C   UNL     1       2.414  -1.959   2.812  1.00  0.00     0.060 A 
ATOM     72  C   UNL     1       1.236  -2.452   2.252  1.00  0.00     0.018 A 
ATOM     73  C   UNL     1       3.149  -2.741   3.707  1.00  0.00     0.018 A 
ATOM     74  C   UNL     1       0.800  -3.743   2.579  1.00  0.00     0.027 A 
ATOM     75  C   UNL     1       2.692  -4.020   4.055  1.00  0.00     0.027 A 
ATOM     76  C   UNL     1       1.507  -4.521   3.509  1.00  0.00     0.045 A 
BRANCH  76  77
ATOM     77  N   UNL     1       1.057  -5.826   3.843  1.00  0.00    -0.299 N 
ATOM     78  C   UNL     1       0.836  -6.761   2.791  1.00  0.00     0.259 C 
ATOM     79  C   UNL     1       0.132  -6.066   4.964  1.00  0.00     0.152 C 
ATOM     80  C   UNL     1      -0.220  -7.735   3.246  1.00  0.00     0.248 C 
ATOM     81  O   UNL     1       1.383  -6.759   1.715  1.00  0.00    -0.271 OA
ATOM     82  C   UNL     1      -0.895  -6.814   4.193  1.00  0.00     0.021 C 
ATOM     83  N   UNL     1      -1.271  -8.018   2.266  1.00  0.00    -0.170 NA
ATOM     84  C   UNL     1      -2.167  -6.755   3.799  1.00  0.00     0.097 C 
ATOM     85  N   UNL     1      -2.368  -7.559   2.692  1.00  0.00    -0.154 NA
BRANCH  79  86
ATOM     86  C   UNL     1       0.767  -6.945   6.063  1.00  0.00    -0.020 A 
ATOM     87  C   UNL     1       0.189  -8.171   6.464  1.00  0.00     0.006 A 
ATOM     88  C   UNL     1       1.968  -6.575   6.690  1.00  0.00     0.022 A 
ATOM     89  C   UNL     1       0.821  -9.026   7.371  1.00  0.00     0.002 A 
ATOM     90  C   UNL     1       2.591  -7.427   7.613  1.00  0.00     0.018 A 
ATOM     91  C   UNL     1       2.031  -8.658   7.942  1.00  0.00     0.016 A 
ATOM     92  Br  UNL     1       4.221  -6.909   8.422  1.00  0.00    -0.051 Br
ENDBRANCH  79  86
BRANCH  84  93
ATOM     93  C   UNL     1      -3.236  -5.810   4.121  1.00  0.00     0.002 A 
ATOM     94  C   UNL     1      -4.261  -6.171   5.005  1.00  0.00     0.010 A 
ATOM     95  C   UNL     1      -3.403  -4.684   3.301  1.00  0.00     0.010 A 
ATOM     96  C   UNL     1      -5.463  -5.455   5.012  1.00  0.00     0.001 A 
ATOM     97  C   UNL     1      -4.605  -3.975   3.307  1.00  0.00     0.001 A 
ATOM     98  C   UNL     1      -5.642  -4.375   4.147  1.00  0.00     0.000 A 
ENDBRANCH  84  93
ENDBRANCH  76  77
ENDBRANCH  69  71
ENDBRANCH  68  69
ENDBRANCH  67  68
ENDBRANCH   1  67
TORSDOF 17
