REMARK SMILES O=C(CSc1nc2cccnc2n1CC(F)(F)F)OCCOC(=O)c1ccc(-c2c3nc(c(-c4ccc(S(=O)(=O)[O-])cc4)c4ccc([nH]4)c(-c4ccc(S(=O)(=O)[O-])cc4)c4nc(c(-c5ccc(S(=O)(=O)[O-])cc5)c5ccc2[nH]5)C=C4)C=C3)cc1
REMARK SMILES IDX 20 1 19 2 2 3 1 4 3 5 4 6 5 7 6 8 13 9 7 10 12 11 8 12 11 13
REMARK SMILES IDX 9 14 10 15 14 16 15 17 16 18 17 19 18 20 21 21 22 22 23 23
REMARK SMILES IDX 24 24 25 25 26 26 84 27 27 28 83 29 28 30 29 31 30 32 77 33
REMARK SMILES IDX 31 34 82 35 76 36 78 37 32 38 81 39 75 40 74 41 33 43 63 44
REMARK SMILES IDX 44 45 62 46 45 47 48 48 61 49 79 50 46 51 47 52 60 54 80 55
REMARK SMILES IDX 49 56 34 57 35 58 43 59 36 60 42 61 37 62 38 63 39 64 40 65
REMARK SMILES IDX 41 66 64 67 65 68 73 69 66 70 72 71 67 72 68 73 69 74 70 75
REMARK SMILES IDX 71 76 50 77 51 78 59 79 52 80 58 81 53 82 54 83 55 84 56 85
REMARK SMILES IDX 57 86
REMARK H PARENT 78 42 48 53
REMARK Flexibility Score: inf
ROOT
ATOM      1  C   UNL     1       5.063   0.841  -1.131  1.00  0.00     0.274 C 
ENDROOT
BRANCH   1   2
ATOM      2  O   UNL     1       3.699   0.412  -1.326  1.00  0.00    -0.461 OA
BRANCH   2   3
ATOM      3  C   UNL     1       2.979  -0.144  -0.318  1.00  0.00     0.316 C 
ATOM      4  O   UNL     1       1.779   0.096  -0.214  1.00  0.00    -0.251 OA
BRANCH   3   5
ATOM      5  C   UNL     1       3.645  -1.165   0.574  1.00  0.00     0.200 C 
BRANCH   5   6
ATOM      6  S   UNL     1       4.223  -2.539  -0.428  1.00  0.00    -0.076 SA
BRANCH   6   7
ATOM      7  C   UNL     1       2.969  -3.732  -0.376  1.00  0.00     0.171 A 
ATOM      8  N   UNL     1       3.281  -4.985  -0.106  1.00  0.00    -0.221 NA
ATOM      9  N   UNL     1       1.706  -3.631  -0.913  1.00  0.00    -0.294 N 
ATOM     10  C   UNL     1       2.279  -5.729  -0.658  1.00  0.00     0.109 A 
ATOM     11  C   UNL     1       1.300  -4.910  -1.194  1.00  0.00     0.160 A 
ATOM     12  C   UNL     1       2.129  -7.109  -0.815  1.00  0.00     0.034 A 
ATOM     13  N   UNL     1       0.200  -5.271  -1.879  1.00  0.00    -0.237 NA
ATOM     14  C   UNL     1       1.018  -7.546  -1.542  1.00  0.00     0.022 A 
ATOM     15  C   UNL     1       0.114  -6.610  -2.038  1.00  0.00     0.113 A 
BRANCH   9  16
ATOM     16  C   UNL     1       0.875  -2.492  -1.231  1.00  0.00     0.241 C 
BRANCH  16  17
ATOM     17  C   UNL     1      -0.051  -2.136  -0.082  1.00  0.00     0.406 C 
ATOM     18  F   UNL     1       0.623  -1.919   1.069  1.00  0.00    -0.169 F 
ATOM     19  F   UNL     1      -0.775  -1.030  -0.363  1.00  0.00    -0.169 F 
ATOM     20  F   UNL     1      -0.939  -3.127   0.164  1.00  0.00    -0.169 F 
ENDBRANCH  16  17
ENDBRANCH   9  16
ENDBRANCH   6   7
ENDBRANCH   5   6
ENDBRANCH   3   5
ENDBRANCH   2   3
ENDBRANCH   1   2
BRANCH   1  21
ATOM     21  C   UNL     1       5.109   2.129  -0.324  1.00  0.00     0.275 C 
BRANCH  21  22
ATOM     22  O   UNL     1       4.645   1.830   0.988  1.00  0.00    -0.458 OA
BRANCH  22  23
ATOM     23  C   UNL     1       3.379   2.211   1.284  1.00  0.00     0.338 C 
ATOM     24  O   UNL     1       2.595   2.784   0.559  1.00  0.00    -0.246 OA
BRANCH  23  25
ATOM     25  C   UNL     1       3.138   1.850   2.688  1.00  0.00     0.060 A 
ATOM     26  C   UNL     1       1.841   1.986   3.191  1.00  0.00     0.016 A 
ATOM     27  C   UNL     1       4.258   1.755   3.518  1.00  0.00     0.016 A 
ATOM     28  C   UNL     1       1.699   2.337   4.516  1.00  0.00     0.010 A 
ATOM     29  C   UNL     1       4.125   2.178   4.806  1.00  0.00     0.010 A 
ATOM     30  C   UNL     1       2.862   2.560   5.254  1.00  0.00    -0.014 A 
BRANCH  30  31
ATOM     31  C   UNL     1       2.800   3.302   6.492  1.00  0.00     0.031 A 
ATOM     32  C   UNL     1       2.766   2.442   7.694  1.00  0.00     0.074 A 
ATOM     33  C   UNL     1       2.990   4.637   6.486  1.00  0.00     0.049 A 
ATOM     34  N   UNL     1       1.764   2.228   8.480  1.00  0.00    -0.248 NA
ATOM     35  C   UNL     1       3.920   1.553   7.936  1.00  0.00     0.031 C 
ATOM     36  C   UNL     1       3.372   5.499   5.359  1.00  0.00     0.029 A 
ATOM     37  N   UNL     1       3.010   5.499   7.532  1.00  0.00    -0.354 N 
ATOM     38  C   UNL     1       2.250   1.350   9.440  1.00  0.00     0.074 A 
ATOM     39  C   UNL     1       3.448   0.766   8.899  1.00  0.00     0.031 C 
ATOM     40  C   UNL     1       3.823   6.684   5.836  1.00  0.00     0.029 A 
ATOM     41  C   UNL     1       3.651   6.708   7.279  1.00  0.00     0.049 A 
ATOM     42  H   UNL     1       2.604   5.286   8.403  1.00  0.00     0.167 HD
ATOM     43  C   UNL     1       1.855   1.410  10.740  1.00  0.00     0.031 A 
ATOM     44  C   UNL     1       4.084   7.593   8.218  1.00  0.00     0.031 A 
ATOM     45  C   UNL     1       0.681   2.217  10.914  1.00  0.00     0.049 A 
ATOM     46  C   UNL     1       3.365   7.254   9.478  1.00  0.00     0.074 A 
ATOM     47  C   UNL     1      -0.606   2.167  10.417  1.00  0.00     0.029 A 
ATOM     48  N   UNL     1       0.873   3.506  11.355  1.00  0.00    -0.354 N 
ATOM     49  N   UNL     1       2.073   7.362   9.623  1.00  0.00    -0.248 NA
ATOM     50  C   UNL     1       4.021   6.341  10.404  1.00  0.00     0.031 C 
ATOM     51  C   UNL     1      -0.955   3.523  10.159  1.00  0.00     0.029 A 
ATOM     52  C   UNL     1       0.104   4.334  10.575  1.00  0.00     0.049 A 
ATOM     53  H   UNL     1       1.456   3.785  12.098  1.00  0.00     0.167 HD
ATOM     54  C   UNL     1       1.699   6.242  10.355  1.00  0.00     0.074 A 
ATOM     55  C   UNL     1       2.951   5.692  10.874  1.00  0.00     0.031 C 
ATOM     56  C   UNL     1       0.453   5.698  10.233  1.00  0.00     0.031 A 
BRANCH  43  57
ATOM     57  C   UNL     1       2.795   1.083  11.868  1.00  0.00    -0.014 A 
ATOM     58  C   UNL     1       2.285   0.861  13.156  1.00  0.00     0.010 A 
ATOM     59  C   UNL     1       4.197   1.218  11.741  1.00  0.00     0.010 A 
ATOM     60  C   UNL     1       3.142   0.786  14.263  1.00  0.00     0.020 A 
ATOM     61  C   UNL     1       5.061   1.091  12.824  1.00  0.00     0.020 A 
ATOM     62  C   UNL     1       4.524   0.899  14.086  1.00  0.00     0.054 A 
BRANCH  62  63
ATOM     63  S   UNL     1       5.612   0.887  15.531  1.00  0.00     0.124 S 
ATOM     64  O   UNL     1       5.094   2.007  16.309  1.00  0.00    -0.237 OA
ATOM     65  O   UNL     1       5.367  -0.441  16.085  1.00  0.00    -0.237 OA
ATOM     66  O   UNL     1       6.943   1.085  14.960  1.00  0.00    -0.744 OA
ENDBRANCH  62  63
ENDBRANCH  43  57
BRANCH  44  67
ATOM     67  C   UNL     1       5.344   8.396   8.214  1.00  0.00    -0.014 A 
ATOM     68  C   UNL     1       5.616   9.310   9.254  1.00  0.00     0.010 A 
ATOM     69  C   UNL     1       6.413   8.057   7.360  1.00  0.00     0.010 A 
ATOM     70  C   UNL     1       6.921   9.788   9.485  1.00  0.00     0.020 A 
ATOM     71  C   UNL     1       7.713   8.536   7.577  1.00  0.00     0.020 A 
ATOM     72  C   UNL     1       7.968   9.369   8.663  1.00  0.00     0.054 A 
BRANCH  72  73
ATOM     73  S   UNL     1       9.678   9.828   9.082  1.00  0.00     0.124 S 
ATOM     74  O   UNL     1       9.631  11.286   9.055  1.00  0.00    -0.237 OA
ATOM     75  O   UNL     1       9.846   9.224  10.401  1.00  0.00    -0.237 OA
ATOM     76  O   UNL     1      10.470   9.215   8.017  1.00  0.00    -0.744 OA
ENDBRANCH  72  73
ENDBRANCH  44  67
BRANCH  56  77
ATOM     77  C   UNL     1      -0.605   6.480   9.488  1.00  0.00    -0.014 A 
ATOM     78  C   UNL     1      -0.583   6.703   8.095  1.00  0.00     0.010 A 
ATOM     79  C   UNL     1      -1.761   6.828  10.205  1.00  0.00     0.010 A 
ATOM     80  C   UNL     1      -1.696   7.260   7.442  1.00  0.00     0.020 A 
ATOM     81  C   UNL     1      -2.875   7.369   9.560  1.00  0.00     0.020 A 
ATOM     82  C   UNL     1      -2.841   7.579   8.181  1.00  0.00     0.054 A 
BRANCH  82  83
ATOM     83  S   UNL     1      -4.303   8.242   7.331  1.00  0.00     0.124 S 
ATOM     84  O   UNL     1      -3.784   9.443   6.683  1.00  0.00    -0.237 OA
ATOM     85  O   UNL     1      -4.671   7.151   6.431  1.00  0.00    -0.237 OA
ATOM     86  O   UNL     1      -5.254   8.490   8.414  1.00  0.00    -0.744 OA
ENDBRANCH  82  83
ENDBRANCH  56  77
ENDBRANCH  30  31
ENDBRANCH  23  25
ENDBRANCH  22  23
ENDBRANCH  21  22
ENDBRANCH   1  21
TORSDOF 18
