REMARK SMILES Cc1nnc(S[C@@H](C)CCO)c(C(=O)OCCOC(=O)c2ccc(-c3c4nc(c(-c5ccc(S(=O)(=O)[O-])cc5)c5ccc([nH]5)c(-c5ccc(S(=O)(=O)[O-])cc5)c5nc(c(-c6ccc(S(=O)(=O)[O-])cc6)c6ccc3[nH]6)C=C5)C=C4)cc2)c1C
REMARK SMILES IDX 16 1 15 2 13 3 14 4 12 5 1 6 2 7 3 8 81 9 4 10 82 11 5 12
REMARK SMILES IDX 6 13 7 14 8 15 9 16 10 17 11 18 17 20 18 21 19 22 20 23
REMARK SMILES IDX 21 24 22 25 80 26 23 27 79 28 24 29 25 30 26 31 73 32 27 33
REMARK SMILES IDX 78 34 72 35 74 36 28 37 77 38 71 39 70 40 29 42 59 43 40 44
REMARK SMILES IDX 58 45 41 46 44 47 57 48 75 49 42 50 43 51 56 53 76 54 45 55
REMARK SMILES IDX 30 56 31 57 39 58 32 59 38 60 33 61 34 62 35 63 36 64 37 65
REMARK SMILES IDX 60 66 61 67 69 68 62 69 68 70 63 71 64 72 65 73 66 74 67 75
REMARK SMILES IDX 46 76 47 77 55 78 48 79 54 80 49 81 50 82 51 83 52 84 53 85
REMARK H PARENT 11 19 74 41 44 52
REMARK Flexibility Score: inf
ROOT
ATOM      1  C   UNL     1      -1.454  -1.021  -5.732  1.00  0.00     0.275 C 
ENDROOT
BRANCH   1   2
ATOM      2  O   UNL     1      -1.395  -0.894  -4.312  1.00  0.00    -0.458 OA
BRANCH   2   3
ATOM      3  C   UNL     1      -2.349  -1.499  -3.551  1.00  0.00     0.341 C 
ATOM      4  O   UNL     1      -3.478  -1.753  -3.852  1.00  0.00    -0.246 OA
BRANCH   3   5
ATOM      5  C   UNL     1      -1.588  -1.920  -2.358  1.00  0.00     0.098 A 
ATOM      6  C   UNL     1       1.079  -0.480  -0.034  1.00  0.00     0.069 C 
ATOM      7  C   UNL     1       0.144  -1.396  -0.766  1.00  0.00     0.064 A 
ATOM      8  N   UNL     1       0.230  -2.707  -0.481  1.00  0.00    -0.155 NA
ATOM      9  C   UNL     1      -0.806  -0.946  -1.672  1.00  0.00    -0.011 A 
ATOM     10  N   UNL     1      -0.634  -3.629  -1.077  1.00  0.00    -0.143 NA
ATOM     11  C   UNL     1      -0.971   0.527  -1.949  1.00  0.00     0.047 C 
ATOM     12  C   UNL     1      -1.523  -3.270  -2.031  1.00  0.00     0.134 A 
BRANCH  12  13
ATOM     13  S   UNL     1      -2.800  -4.481  -2.297  1.00  0.00    -0.100 SA
BRANCH  13  14
ATOM     14  C   UNL     1      -2.902  -5.218  -4.029  1.00  0.00     0.052 C 
ATOM     15  C   UNL     1      -4.325  -5.813  -3.955  1.00  0.00     0.020 C 
BRANCH  14  16
ATOM     16  C   UNL     1      -2.855  -4.325  -5.274  1.00  0.00     0.043 C 
BRANCH  16  17
ATOM     17  C   UNL     1      -2.342  -4.938  -6.589  1.00  0.00     0.157 C 
BRANCH  17  18
ATOM     18  O   UNL     1      -2.463  -6.343  -6.652  1.00  0.00    -0.396 OA
ATOM     19  H   UNL     1      -1.925  -6.746  -5.953  1.00  0.00     0.210 HD
ENDBRANCH  17  18
ENDBRANCH  16  17
ENDBRANCH  14  16
ENDBRANCH  13  14
ENDBRANCH  12  13
ENDBRANCH   3   5
ENDBRANCH   2   3
ENDBRANCH   1   2
BRANCH   1  20
ATOM     20  C   UNL     1      -0.108  -1.625  -6.165  1.00  0.00     0.275 C 
BRANCH  20  21
ATOM     21  O   UNL     1       0.067  -2.983  -5.690  1.00  0.00    -0.458 OA
BRANCH  21  22
ATOM     22  C   UNL     1       0.996  -3.236  -4.726  1.00  0.00     0.338 C 
ATOM     23  O   UNL     1       1.672  -2.404  -4.148  1.00  0.00    -0.246 OA
BRANCH  22  24
ATOM     24  C   UNL     1       1.005  -4.702  -4.423  1.00  0.00     0.060 A 
ATOM     25  C   UNL     1       1.209  -5.148  -3.113  1.00  0.00     0.016 A 
ATOM     26  C   UNL     1       0.801  -5.652  -5.429  1.00  0.00     0.016 A 
ATOM     27  C   UNL     1       1.107  -6.514  -2.798  1.00  0.00     0.010 A 
ATOM     28  C   UNL     1       0.696  -7.015  -5.121  1.00  0.00     0.010 A 
ATOM     29  C   UNL     1       0.846  -7.460  -3.801  1.00  0.00    -0.014 A 
BRANCH  29  30
ATOM     30  C   UNL     1       0.977  -8.917  -3.527  1.00  0.00     0.031 A 
ATOM     31  C   UNL     1       2.353  -9.520  -3.615  1.00  0.00     0.074 A 
ATOM     32  C   UNL     1      -0.076  -9.713  -3.253  1.00  0.00     0.049 A 
ATOM     33  N   UNL     1       2.746 -10.737  -3.342  1.00  0.00    -0.248 NA
ATOM     34  C   UNL     1       3.429  -8.628  -4.082  1.00  0.00     0.031 C 
ATOM     35  C   UNL     1      -1.472  -9.289  -3.177  1.00  0.00     0.029 A 
ATOM     36  N   UNL     1      -0.126 -11.066  -2.994  1.00  0.00    -0.354 N 
ATOM     37  C   UNL     1       4.117 -10.742  -3.560  1.00  0.00     0.074 A 
ATOM     38  C   UNL     1       4.480  -9.431  -4.049  1.00  0.00     0.031 C 
ATOM     39  C   UNL     1      -2.242 -10.359  -2.896  1.00  0.00     0.029 A 
ATOM     40  C   UNL     1      -1.395 -11.545  -2.760  1.00  0.00     0.049 A 
ATOM     41  H   UNL     1       0.675 -11.638  -2.977  1.00  0.00     0.167 HD
ATOM     42  C   UNL     1       5.007 -11.738  -3.347  1.00  0.00     0.031 A 
ATOM     43  C   UNL     1      -1.822 -12.789  -2.455  1.00  0.00     0.031 A 
ATOM     44  C   UNL     1       4.657 -13.058  -2.913  1.00  0.00     0.049 A 
ATOM     45  C   UNL     1      -0.822 -13.906  -2.278  1.00  0.00     0.074 A 
ATOM     46  C   UNL     1       5.496 -14.126  -2.654  1.00  0.00     0.029 A 
ATOM     47  N   UNL     1       3.362 -13.496  -2.695  1.00  0.00    -0.354 N 
ATOM     48  N   UNL     1       0.484 -13.867  -2.386  1.00  0.00    -0.248 NA
ATOM     49  C   UNL     1      -1.351 -15.233  -1.917  1.00  0.00     0.031 C 
ATOM     50  C   UNL     1       4.703 -15.226  -2.315  1.00  0.00     0.029 A 
ATOM     51  C   UNL     1       3.375 -14.827  -2.323  1.00  0.00     0.049 A 
ATOM     52  H   UNL     1       2.553 -12.943  -2.791  1.00  0.00     0.167 HD
ATOM     53  C   UNL     1       0.933 -15.147  -2.071  1.00  0.00     0.074 A 
ATOM     54  C   UNL     1      -0.238 -15.945  -1.779  1.00  0.00     0.031 C 
ATOM     55  C   UNL     1       2.205 -15.610  -2.019  1.00  0.00     0.031 A 
BRANCH  42  56
ATOM     56  C   UNL     1       6.454 -11.412  -3.571  1.00  0.00    -0.014 A 
ATOM     57  C   UNL     1       7.148 -10.617  -2.641  1.00  0.00     0.010 A 
ATOM     58  C   UNL     1       7.128 -11.906  -4.700  1.00  0.00     0.010 A 
ATOM     59  C   UNL     1       8.487 -10.292  -2.854  1.00  0.00     0.020 A 
ATOM     60  C   UNL     1       8.475 -11.598  -4.907  1.00  0.00     0.020 A 
ATOM     61  C   UNL     1       9.142 -10.784  -3.988  1.00  0.00     0.054 A 
BRANCH  61  62
ATOM     62  S   UNL     1      10.880 -10.334  -4.237  1.00  0.00     0.124 S 
ATOM     63  O   UNL     1      10.803  -8.880  -4.363  1.00  0.00    -0.237 OA
ATOM     64  O   UNL     1      11.511 -10.826  -3.015  1.00  0.00    -0.237 OA
ATOM     65  O   UNL     1      11.252 -11.042  -5.460  1.00  0.00    -0.744 OA
ENDBRANCH  61  62
ENDBRANCH  42  56
BRANCH  43  66
ATOM     66  C   UNL     1      -3.275 -13.049  -2.245  1.00  0.00    -0.014 A 
ATOM     67  C   UNL     1      -3.789 -13.197  -0.945  1.00  0.00     0.010 A 
ATOM     68  C   UNL     1      -4.149 -13.157  -3.341  1.00  0.00     0.010 A 
ATOM     69  C   UNL     1      -5.150 -13.451  -0.743  1.00  0.00     0.020 A 
ATOM     70  C   UNL     1      -5.515 -13.397  -3.143  1.00  0.00     0.020 A 
ATOM     71  C   UNL     1      -6.006 -13.541  -1.844  1.00  0.00     0.054 A 
BRANCH  71  72
ATOM     72  S   UNL     1      -7.774 -13.832  -1.548  1.00  0.00     0.124 S 
ATOM     73  O   UNL     1      -7.766 -15.118  -0.856  1.00  0.00    -0.237 OA
ATOM     74  O   UNL     1      -8.144 -12.679  -0.732  1.00  0.00    -0.237 OA
ATOM     75  O   UNL     1      -8.352 -13.851  -2.890  1.00  0.00    -0.744 OA
ENDBRANCH  71  72
ENDBRANCH  43  66
BRANCH  55  76
ATOM     76  C   UNL     1       2.443 -17.037  -1.605  1.00  0.00    -0.014 A 
ATOM     77  C   UNL     1       2.307 -18.086  -2.529  1.00  0.00     0.010 A 
ATOM     78  C   UNL     1       2.988 -17.303  -0.335  1.00  0.00     0.010 A 
ATOM     79  C   UNL     1       2.736 -19.375  -2.198  1.00  0.00     0.020 A 
ATOM     80  C   UNL     1       3.432 -18.586  -0.006  1.00  0.00     0.020 A 
ATOM     81  C   UNL     1       3.313 -19.612  -0.945  1.00  0.00     0.054 A 
BRANCH  81  82
ATOM     82  S   UNL     1       3.970 -21.267  -0.593  1.00  0.00     0.124 S 
ATOM     83  O   UNL     1       2.768 -22.096  -0.652  1.00  0.00    -0.237 OA
ATOM     84  O   UNL     1       4.924 -21.465  -1.681  1.00  0.00    -0.237 OA
ATOM     85  O   UNL     1       4.564 -21.132   0.735  1.00  0.00    -0.744 OA
ENDBRANCH  81  82
ENDBRANCH  55  76
ENDBRANCH  29  30
ENDBRANCH  22  24
ENDBRANCH  21  22
ENDBRANCH  20  21
ENDBRANCH   1  20
TORSDOF 19
