REMARK SMILES NC(=O)N[C@@H](Cc1ccc2c(c1)CCCC2)C(=O)OCCOC(=O)c1ccc(-c2c3nc(c(-c4ccc(S(=O)(=O)[O-])cc4)c4ccc([nH]4)c(-c4ccc(S(=O)(=O)[O-])cc4)c4nc(c(-c5ccc(S(=O)(=O)[O-])cc5)c5ccc2[nH]5)C=C4)C=C3)cc1
REMARK SMILES IDX 21 1 20 2 19 3 17 4 18 5 5 6 4 7 1 8 2 9 3 12 6 14 7 15 8 16
REMARK SMILES IDX 12 17 9 18 11 19 10 20 13 21 16 22 14 23 15 24 22 25 23 26
REMARK SMILES IDX 24 27 25 28 26 29 84 30 27 31 83 32 28 33 29 34 30 35 77 36
REMARK SMILES IDX 31 37 82 38 76 39 78 40 32 41 81 42 75 43 74 44 33 46 63 47
REMARK SMILES IDX 44 48 62 49 45 50 48 51 61 52 79 53 46 54 47 55 60 57 80 58
REMARK SMILES IDX 49 59 34 60 35 61 43 62 36 63 42 64 37 65 38 66 39 67 40 68
REMARK SMILES IDX 41 69 64 70 65 71 73 72 66 73 72 74 67 75 68 76 69 77 70 78
REMARK SMILES IDX 71 79 50 80 51 81 59 82 52 83 58 84 53 85 54 86 55 87 56 88
REMARK SMILES IDX 57 89
REMARK H PARENT 1 10 1 11 4 13 78 45 48 56
REMARK Flexibility Score: inf
ROOT
ATOM      1  C   UNL     1       2.805   1.578   5.533  1.00  0.00     0.275 C 
ENDROOT
BRANCH   1   2
ATOM      2  C   UNL     1       3.169   2.775   4.657  1.00  0.00     0.274 C 
BRANCH   2   3
ATOM      3  O   UNL     1       2.492   2.666   3.391  1.00  0.00    -0.461 OA
BRANCH   3   4
ATOM      4  C   UNL     1       3.264   2.714   2.270  1.00  0.00     0.329 C 
ATOM      5  O   UNL     1       4.475   2.900   2.256  1.00  0.00    -0.250 OA
BRANCH   4   6
ATOM      6  C   UNL     1       2.426   2.558   0.989  1.00  0.00     0.198 C 
BRANCH   6   7
ATOM      7  N   UNL     1       1.071   2.037   1.214  1.00  0.00    -0.324 N 
ATOM      8  N   UNL     1       1.004   0.333  -0.342  1.00  0.00    -0.352 N 
ATOM      9  C   UNL     1       0.368   1.093   0.564  1.00  0.00     0.312 C 
ATOM     10  H   UNL     1       0.512  -0.365  -0.832  1.00  0.00     0.161 HD
ATOM     11  H   UNL     1       1.963   0.473  -0.516  1.00  0.00     0.161 HD
ATOM     12  O   UNL     1      -0.826   0.935   0.787  1.00  0.00    -0.249 OA
ATOM     13  H   UNL     1       0.596   2.451   1.970  1.00  0.00     0.166 HD
ENDBRANCH   6   7
BRANCH   6  14
ATOM     14  C   UNL     1       2.419   3.881   0.200  1.00  0.00     0.072 C 
BRANCH  14  15
ATOM     15  C   UNL     1       2.136   5.167   0.953  1.00  0.00    -0.045 A 
ATOM     16  C   UNL     1       1.283   5.245   2.057  1.00  0.00     0.004 A 
ATOM     17  C   UNL     1       2.749   6.348   0.510  1.00  0.00     0.007 A 
ATOM     18  C   UNL     1       1.133   6.437   2.766  1.00  0.00     0.004 A 
ATOM     19  C   UNL     1       2.566   7.566   1.184  1.00  0.00    -0.045 A 
ATOM     20  C   UNL     1       1.792   7.598   2.355  1.00  0.00    -0.045 A 
ATOM     21  C   UNL     1       3.250   8.803   0.659  1.00  0.00     0.036 C 
ATOM     22  C   UNL     1       1.601   8.863   3.151  1.00  0.00     0.036 C 
ATOM     23  C   UNL     1       2.670  10.089   1.247  1.00  0.00     0.005 C 
ATOM     24  C   UNL     1       2.573   9.975   2.763  1.00  0.00     0.005 C 
ENDBRANCH  14  15
ENDBRANCH   6  14
ENDBRANCH   4   6
ENDBRANCH   3   4
ENDBRANCH   2   3
ENDBRANCH   1   2
BRANCH   1  25
ATOM     25  O   UNL     1       3.256   0.364   4.907  1.00  0.00    -0.458 OA
BRANCH  25  26
ATOM     26  C   UNL     1       2.328  -0.258   4.139  1.00  0.00     0.338 C 
ATOM     27  O   UNL     1       1.151   0.022   4.018  1.00  0.00    -0.246 OA
BRANCH  26  28
ATOM     28  C   UNL     1       3.016  -1.267   3.327  1.00  0.00     0.060 A 
ATOM     29  C   UNL     1       3.440  -0.907   2.047  1.00  0.00     0.016 A 
ATOM     30  C   UNL     1       3.213  -2.559   3.805  1.00  0.00     0.016 A 
ATOM     31  C   UNL     1       4.055  -1.840   1.223  1.00  0.00     0.010 A 
ATOM     32  C   UNL     1       3.869  -3.487   2.992  1.00  0.00     0.010 A 
ATOM     33  C   UNL     1       4.292  -3.134   1.697  1.00  0.00    -0.014 A 
BRANCH  33  34
ATOM     34  C   UNL     1       5.000  -4.119   0.846  1.00  0.00     0.031 A 
ATOM     35  C   UNL     1       4.273  -5.328   0.337  1.00  0.00     0.074 A 
ATOM     36  C   UNL     1       6.300  -3.926   0.552  1.00  0.00     0.049 A 
ATOM     37  N   UNL     1       4.752  -6.378  -0.275  1.00  0.00    -0.248 NA
ATOM     38  C   UNL     1       2.816  -5.361   0.545  1.00  0.00     0.031 C 
ATOM     39  C   UNL     1       7.094  -2.757   0.943  1.00  0.00     0.029 A 
ATOM     40  N   UNL     1       7.187  -4.713  -0.136  1.00  0.00    -0.354 N 
ATOM     41  C   UNL     1       3.665  -7.216  -0.493  1.00  0.00     0.074 A 
ATOM     42  C   UNL     1       2.502  -6.552   0.054  1.00  0.00     0.031 C 
ATOM     43  C   UNL     1       8.347  -2.904   0.486  1.00  0.00     0.029 A 
ATOM     44  C   UNL     1       8.465  -4.205  -0.162  1.00  0.00     0.049 A 
ATOM     45  H   UNL     1       6.934  -5.560  -0.570  1.00  0.00     0.167 HD
ATOM     46  C   UNL     1       3.648  -8.432  -1.088  1.00  0.00     0.031 A 
ATOM     47  C   UNL     1       9.614  -4.748  -0.607  1.00  0.00     0.031 A 
ATOM     48  C   UNL     1       4.816  -9.080  -1.625  1.00  0.00     0.049 A 
ATOM     49  C   UNL     1       9.583  -6.135  -1.183  1.00  0.00     0.074 A 
ATOM     50  C   UNL     1       4.907 -10.308  -2.256  1.00  0.00     0.029 A 
ATOM     51  N   UNL     1       6.099  -8.553  -1.588  1.00  0.00    -0.354 N 
ATOM     52  N   UNL     1       8.552  -6.926  -1.366  1.00  0.00    -0.248 NA
ATOM     53  C   UNL     1      10.869  -6.710  -1.596  1.00  0.00     0.031 C 
ATOM     54  C   UNL     1       6.254 -10.546  -2.553  1.00  0.00     0.029 A 
ATOM     55  C   UNL     1       6.994  -9.443  -2.155  1.00  0.00     0.049 A 
ATOM     56  H   UNL     1       6.338  -7.674  -1.213  1.00  0.00     0.167 HD
ATOM     57  C   UNL     1       9.065  -8.092  -1.921  1.00  0.00     0.074 A 
ATOM     58  C   UNL     1      10.493  -7.892  -2.066  1.00  0.00     0.031 C 
ATOM     59  C   UNL     1       8.414  -9.228  -2.274  1.00  0.00     0.031 A 
BRANCH  46  60
ATOM     60  C   UNL     1       2.333  -9.162  -1.142  1.00  0.00    -0.014 A 
ATOM     61  C   UNL     1       1.304  -8.758  -2.012  1.00  0.00     0.010 A 
ATOM     62  C   UNL     1       2.135 -10.292  -0.326  1.00  0.00     0.010 A 
ATOM     63  C   UNL     1       0.090  -9.450  -2.039  1.00  0.00     0.020 A 
ATOM     64  C   UNL     1       0.931 -11.000  -0.368  1.00  0.00     0.020 A 
ATOM     65  C   UNL     1      -0.091 -10.564  -1.213  1.00  0.00     0.054 A 
BRANCH  65  66
ATOM     66  S   UNL     1      -1.671 -11.454  -1.280  1.00  0.00     0.124 S 
ATOM     67  O   UNL     1      -2.564 -10.534  -0.582  1.00  0.00    -0.237 OA
ATOM     68  O   UNL     1      -1.903 -11.587  -2.716  1.00  0.00    -0.237 OA
ATOM     69  O   UNL     1      -1.394 -12.706  -0.579  1.00  0.00    -0.744 OA
ENDBRANCH  65  66
ENDBRANCH  46  60
BRANCH  47  70
ATOM     70  C   UNL     1      10.892  -3.999  -0.465  1.00  0.00    -0.014 A 
ATOM     71  C   UNL     1      11.552  -3.488  -1.594  1.00  0.00     0.010 A 
ATOM     72  C   UNL     1      11.442  -3.771   0.811  1.00  0.00     0.010 A 
ATOM     73  C   UNL     1      12.741  -2.766  -1.451  1.00  0.00     0.020 A 
ATOM     74  C   UNL     1      12.615  -3.027   0.960  1.00  0.00     0.020 A 
ATOM     75  C   UNL     1      13.263  -2.537  -0.174  1.00  0.00     0.054 A 
BRANCH  75  76
ATOM     76  S   UNL     1      14.771  -1.542  -0.008  1.00  0.00     0.124 S 
ATOM     77  O   UNL     1      15.802  -2.481  -0.436  1.00  0.00    -0.237 OA
ATOM     78  O   UNL     1      14.515  -0.425  -0.914  1.00  0.00    -0.237 OA
ATOM     79  O   UNL     1      14.792  -1.190   1.411  1.00  0.00    -0.744 OA
ENDBRANCH  75  76
ENDBRANCH  47  70
BRANCH  59  80
ATOM     80  C   UNL     1       9.244 -10.337  -2.858  1.00  0.00    -0.014 A 
ATOM     81  C   UNL     1      10.081 -11.119  -2.042  1.00  0.00     0.010 A 
ATOM     82  C   UNL     1       9.149 -10.631  -4.230  1.00  0.00     0.010 A 
ATOM     83  C   UNL     1      10.828 -12.161  -2.594  1.00  0.00     0.020 A 
ATOM     84  C   UNL     1       9.875 -11.689  -4.780  1.00  0.00     0.020 A 
ATOM     85  C   UNL     1      10.721 -12.440  -3.960  1.00  0.00     0.054 A 
BRANCH  85  86
ATOM     86  S   UNL     1      11.665 -13.829  -4.644  1.00  0.00     0.124 S 
ATOM     87  O   UNL     1      13.020 -13.286  -4.682  1.00  0.00    -0.237 OA
ATOM     88  O   UNL     1      11.438 -14.887  -3.662  1.00  0.00    -0.237 OA
ATOM     89  O   UNL     1      11.048 -14.057  -5.949  1.00  0.00    -0.744 OA
ENDBRANCH  85  86
ENDBRANCH  59  80
ENDBRANCH  33  34
ENDBRANCH  26  28
ENDBRANCH  25  26
ENDBRANCH   1  25
TORSDOF 17
