REMARK SMILES O=C(OCCOC(=O)[C@H]1[C@H]2CC[C@H](CC2)[C@H]1C(=O)Nc1ccc(C(=O)N2CCCC2)cc1)c1ccc(-c2c3nc(c(-c4ccc(S(=O)(=O)[O-])cc4)c4ccc([nH]4)c(-c4ccc(S(=O)(=O)[O-])cc4)c4nc(c(-c5ccc(S(=O)(=O)[O-])cc5)c5ccc2[nH]5)C=C4)C=C3)cc1
REMARK SMILES IDX 4 1 3 2 2 3 1 4 33 5 34 6 92 7 35 8 91 9 36 10 37 11 38 12
REMARK SMILES IDX 85 13 39 14 90 15 84 16 86 17 40 18 89 19 83 20 82 21 41 23
REMARK SMILES IDX 71 24 52 25 70 26 53 27 56 28 69 29 87 30 54 31 55 32 68 34
REMARK SMILES IDX 88 35 57 36 42 37 43 38 51 39 44 40 50 41 45 42 46 43 47 44
REMARK SMILES IDX 48 45 49 46 72 47 73 48 81 49 74 50 80 51 75 52 76 53 77 54
REMARK SMILES IDX 78 55 79 56 58 57 59 58 67 59 60 60 66 61 61 62 62 63 63 64
REMARK SMILES IDX 64 65 65 66 5 67 6 68 7 69 8 70 9 71 10 72 16 73 15 74 11 75
REMARK SMILES IDX 13 76 14 77 12 78 17 79 18 80 19 81 20 83 21 84 32 85 22 86
REMARK SMILES IDX 31 87 23 88 24 89 25 90 26 91 27 92 30 93 28 94 29 95
REMARK H PARENT 86 22 56 33 19 82
REMARK Flexibility Score: inf
ROOT
ATOM      1  C   UNL     1       2.861  -1.336  -0.085  1.00  0.00     0.275 C 
ENDROOT
BRANCH   1   2
ATOM      2  O   UNL     1       1.688  -0.610   0.380  1.00  0.00    -0.458 OA
BRANCH   2   3
ATOM      3  C   UNL     1       1.421   0.463   1.178  1.00  0.00     0.338 C 
ATOM      4  O   UNL     1       0.310   0.542   1.695  1.00  0.00    -0.246 OA
BRANCH   3   5
ATOM      5  C   UNL     1       2.315   1.664   1.310  1.00  0.00     0.060 A 
ATOM      6  C   UNL     1       3.182   1.911   0.310  1.00  0.00     0.016 A 
ATOM      7  C   UNL     1       2.116   2.779   2.147  1.00  0.00     0.016 A 
ATOM      8  C   UNL     1       3.805   3.169   0.163  1.00  0.00     0.010 A 
ATOM      9  C   UNL     1       2.824   4.058   1.967  1.00  0.00     0.010 A 
ATOM     10  C   UNL     1       3.752   4.289   0.934  1.00  0.00    -0.014 A 
BRANCH  10  11
ATOM     11  C   UNL     1       4.652   5.517   0.449  1.00  0.00     0.031 A 
ATOM     12  C   UNL     1       5.350   6.309   1.520  1.00  0.00     0.074 A 
ATOM     13  C   UNL     1       5.113   5.882  -0.818  1.00  0.00     0.049 A 
ATOM     14  N   UNL     1       6.243   7.257   1.367  1.00  0.00    -0.248 NA
ATOM     15  C   UNL     1       5.125   5.905   2.907  1.00  0.00     0.031 C 
ATOM     16  C   UNL     1       4.994   5.164  -2.075  1.00  0.00     0.029 A 
ATOM     17  N   UNL     1       5.817   7.005  -1.298  1.00  0.00    -0.354 N 
ATOM     18  C   UNL     1       6.750   7.487   2.628  1.00  0.00     0.074 A 
ATOM     19  C   UNL     1       6.006   6.651   3.543  1.00  0.00     0.031 C 
ATOM     20  C   UNL     1       5.392   5.854  -3.147  1.00  0.00     0.029 A 
ATOM     21  C   UNL     1       5.904   7.111  -2.693  1.00  0.00     0.049 A 
ATOM     22  H   UNL     1       6.220   7.670  -0.695  1.00  0.00     0.167 HD
ATOM     23  C   UNL     1       7.769   8.282   3.015  1.00  0.00     0.031 A 
ATOM     24  C   UNL     1       6.341   8.034  -3.584  1.00  0.00     0.031 A 
ATOM     25  C   UNL     1       8.460   9.242   2.211  1.00  0.00     0.049 A 
ATOM     26  C   UNL     1       7.096   9.207  -3.071  1.00  0.00     0.074 A 
ATOM     27  C   UNL     1       9.393  10.174   2.630  1.00  0.00     0.029 A 
ATOM     28  N   UNL     1       8.255   9.462   0.862  1.00  0.00    -0.354 N 
ATOM     29  N   UNL     1       7.520   9.392  -1.852  1.00  0.00    -0.248 NA
ATOM     30  C   UNL     1       7.484  10.256  -4.026  1.00  0.00     0.031 C 
ATOM     31  C   UNL     1       9.658  11.039   1.564  1.00  0.00     0.029 A 
ATOM     32  C   UNL     1       8.960  10.588   0.459  1.00  0.00     0.049 A 
ATOM     33  H   UNL     1       7.694   8.904   0.276  1.00  0.00     0.167 HD
ATOM     34  C   UNL     1       8.255  10.562  -1.893  1.00  0.00     0.074 A 
ATOM     35  C   UNL     1       8.222  11.046  -3.256  1.00  0.00     0.031 C 
ATOM     36  C   UNL     1       8.914  11.144  -0.867  1.00  0.00     0.031 A 
BRANCH  23  37
ATOM     37  C   UNL     1       8.085   8.197   4.470  1.00  0.00    -0.014 A 
ATOM     38  C   UNL     1       8.837   7.125   4.983  1.00  0.00     0.010 A 
ATOM     39  C   UNL     1       7.500   9.135   5.334  1.00  0.00     0.010 A 
ATOM     40  C   UNL     1       8.973   6.979   6.361  1.00  0.00     0.020 A 
ATOM     41  C   UNL     1       7.647   8.997   6.708  1.00  0.00     0.020 A 
ATOM     42  C   UNL     1       8.373   7.914   7.212  1.00  0.00     0.054 A 
BRANCH  42  43
ATOM     43  S   UNL     1       8.562   7.705   8.999  1.00  0.00     0.124 S 
ATOM     44  O   UNL     1       7.740   6.526   9.257  1.00  0.00    -0.237 OA
ATOM     45  O   UNL     1      10.003   7.514   9.143  1.00  0.00    -0.237 OA
ATOM     46  O   UNL     1       8.044   8.956   9.549  1.00  0.00    -0.744 OA
ENDBRANCH  42  43
ENDBRANCH  23  37
BRANCH  24  47
ATOM     47  C   UNL     1       6.061   7.929  -5.065  1.00  0.00    -0.014 A 
ATOM     48  C   UNL     1       7.079   7.721  -6.018  1.00  0.00     0.010 A 
ATOM     49  C   UNL     1       4.748   8.135  -5.536  1.00  0.00     0.010 A 
ATOM     50  C   UNL     1       6.794   7.738  -7.396  1.00  0.00     0.020 A 
ATOM     51  C   UNL     1       4.456   8.140  -6.909  1.00  0.00     0.020 A 
ATOM     52  C   UNL     1       5.483   7.952  -7.834  1.00  0.00     0.054 A 
BRANCH  52  53
ATOM     53  S   UNL     1       5.122   7.941  -9.619  1.00  0.00     0.124 S 
ATOM     54  O   UNL     1       5.638   9.237 -10.045  1.00  0.00    -0.237 OA
ATOM     55  O   UNL     1       5.871   6.777 -10.087  1.00  0.00    -0.237 OA
ATOM     56  O   UNL     1       3.669   7.797  -9.671  1.00  0.00    -0.744 OA
ENDBRANCH  52  53
ENDBRANCH  24  47
BRANCH  36  57
ATOM     57  C   UNL     1       9.657  12.411  -1.155  1.00  0.00    -0.014 A 
ATOM     58  C   UNL     1       8.969  13.609  -1.415  1.00  0.00     0.010 A 
ATOM     59  C   UNL     1      11.062  12.414  -1.125  1.00  0.00     0.010 A 
ATOM     60  C   UNL     1       9.676  14.787  -1.660  1.00  0.00     0.020 A 
ATOM     61  C   UNL     1      11.772  13.595  -1.343  1.00  0.00     0.020 A 
ATOM     62  C   UNL     1      11.074  14.772  -1.621  1.00  0.00     0.054 A 
BRANCH  62  63
ATOM     63  S   UNL     1      11.970  16.325  -1.889  1.00  0.00     0.124 S 
ATOM     64  O   UNL     1      11.876  16.483  -3.336  1.00  0.00    -0.237 OA
ATOM     65  O   UNL     1      11.203  17.281  -1.097  1.00  0.00    -0.237 OA
ATOM     66  O   UNL     1      13.313  16.038  -1.378  1.00  0.00    -0.744 OA
ENDBRANCH  62  63
ENDBRANCH  36  57
ENDBRANCH  10  11
ENDBRANCH   3   5
ENDBRANCH   2   3
ENDBRANCH   1   2
BRANCH   1  67
ATOM     67  C   UNL     1       3.325  -1.107  -1.536  1.00  0.00     0.274 C 
BRANCH  67  68
ATOM     68  O   UNL     1       2.444  -0.643  -2.556  1.00  0.00    -0.462 OA
BRANCH  68  69
ATOM     69  C   UNL     1       1.419   0.157  -2.233  1.00  0.00     0.310 C 
ATOM     70  O   UNL     1       0.311  -0.333  -2.024  1.00  0.00    -0.252 OA
BRANCH  69  71
ATOM     71  C   UNL     1       1.607   1.643  -2.547  1.00  0.00     0.115 C 
ATOM     72  C   UNL     1       0.338   2.469  -2.005  1.00  0.00     0.004 C 
ATOM     73  C   UNL     1       2.941   2.528  -2.620  1.00  0.00     0.096 C 
ATOM     74  C   UNL     1       0.551   3.466  -0.857  1.00  0.00     0.005 C 
ATOM     75  C   UNL     1      -0.109   3.360  -3.168  1.00  0.00     0.005 C 
ATOM     76  C   UNL     1       2.279   4.070  -2.566  1.00  0.00     0.002 C 
ATOM     77  C   UNL     1       1.531   4.535  -1.293  1.00  0.00     0.005 C 
ATOM     78  C   UNL     1       1.109   4.184  -3.617  1.00  0.00     0.005 C 
BRANCH  73  79
ATOM     79  C   UNL     1       4.574   1.726  -2.439  1.00  0.00     0.228 C 
ATOM     80  O   UNL     1       4.791   0.800  -3.242  1.00  0.00    -0.274 OA
ATOM     81  N   UNL     1       5.715   2.103  -1.640  1.00  0.00    -0.326 N 
ATOM     82  H   UNL     1       6.301   2.769  -2.066  1.00  0.00     0.169 HD
BRANCH  81  83
ATOM     83  C   UNL     1       6.169   1.665  -0.278  1.00  0.00     0.041 A 
ATOM     84  C   UNL     1       6.710   2.633   0.593  1.00  0.00     0.027 A 
ATOM     85  C   UNL     1       5.834   0.467   0.354  1.00  0.00     0.027 A 
ATOM     86  C   UNL     1       6.450   2.568   2.000  1.00  0.00     0.016 A 
ATOM     87  C   UNL     1       5.585   0.394   1.771  1.00  0.00     0.016 A 
ATOM     88  C   UNL     1       5.708   1.518   2.580  1.00  0.00     0.040 A 
BRANCH  88  89
ATOM     89  C   UNL     1       4.989   1.816   3.904  1.00  0.00     0.253 C 
ATOM     90  O   UNL     1       5.392   2.807   4.524  1.00  0.00    -0.269 OA
ATOM     91  N   UNL     1       3.803   1.196   4.349  1.00  0.00    -0.339 N 
ATOM     92  C   UNL     1       3.288  -0.148   4.171  1.00  0.00     0.120 C 
ATOM     93  C   UNL     1       2.963   1.909   5.322  1.00  0.00     0.120 C 
ATOM     94  C   UNL     1       1.816  -0.092   4.574  1.00  0.00     0.023 C 
ATOM     95  C   UNL     1       1.668   1.115   5.481  1.00  0.00     0.023 C 
ENDBRANCH  88  89
ENDBRANCH  81  83
ENDBRANCH  73  79
ENDBRANCH  69  71
ENDBRANCH  68  69
ENDBRANCH  67  68
ENDBRANCH   1  67
TORSDOF 17
