REMARK SMILES O=C(CSc1ccc(NC(=O)c2cccc3ccccc23)cc1)OCCOC(=O)c1ccc(-c2c3nc(c(-c4ccc(S(=O)(=O)[O-])cc4)c4ccc([nH]4)c(-c4ccc(S(=O)(=O)[O-])cc4)c4nc(c(-c5ccc(S(=O)(=O)[O-])cc5)c5ccc2[nH]5)C=C4)C=C3)cc1
REMARK SMILES IDX 25 1 24 2 2 3 1 4 3 5 4 6 5 7 6 8 23 9 7 10 22 11 8 12 9 13
REMARK SMILES IDX 10 14 11 16 12 17 13 18 21 19 14 20 16 21 20 22 15 23 17 24
REMARK SMILES IDX 19 25 18 26 26 27 27 28 28 29 29 30 30 31 31 32 89 33 32 34
REMARK SMILES IDX 88 35 33 36 34 37 35 38 82 39 36 40 87 41 81 42 83 43 37 44
REMARK SMILES IDX 86 45 80 46 79 47 38 49 68 50 49 51 67 52 50 53 53 54 66 55
REMARK SMILES IDX 84 56 51 57 52 58 65 60 85 61 54 62 39 63 40 64 48 65 41 66
REMARK SMILES IDX 47 67 42 68 43 69 44 70 45 71 46 72 69 73 70 74 78 75 71 76
REMARK SMILES IDX 77 77 72 78 73 79 74 80 75 81 76 82 55 83 56 84 64 85 57 86
REMARK SMILES IDX 63 87 58 88 59 89 60 90 61 91 62 92
REMARK H PARENT 9 15 83 48 53 59
REMARK Flexibility Score: inf
ROOT
ATOM      1  C   UNL     1       4.586  -0.800  -0.875  1.00  0.00     0.274 C 
ENDROOT
BRANCH   1   2
ATOM      2  O   UNL     1       3.271  -0.928  -0.299  1.00  0.00    -0.461 OA
BRANCH   2   3
ATOM      3  C   UNL     1       2.756  -0.124   0.664  1.00  0.00     0.316 C 
ATOM      4  O   UNL     1       1.597  -0.294   1.040  1.00  0.00    -0.251 OA
BRANCH   3   5
ATOM      5  C   UNL     1       3.617   0.977   1.247  1.00  0.00     0.197 C 
BRANCH   5   6
ATOM      6  S   UNL     1       4.843   0.347   2.435  1.00  0.00    -0.114 SA
BRANCH   6   7
ATOM      7  C   UNL     1       3.747   0.111   3.805  1.00  0.00     0.008 A 
ATOM      8  C   UNL     1       3.453   1.178   4.647  1.00  0.00     0.017 A 
ATOM      9  C   UNL     1       3.126  -1.119   4.006  1.00  0.00     0.017 A 
ATOM     10  C   UNL     1       2.493   1.031   5.650  1.00  0.00     0.027 A 
ATOM     11  C   UNL     1       2.151  -1.252   4.996  1.00  0.00     0.027 A 
ATOM     12  C   UNL     1       1.785  -0.162   5.794  1.00  0.00     0.041 A 
BRANCH  12  13
ATOM     13  N   UNL     1       0.705  -0.366   6.675  1.00  0.00    -0.322 N 
ATOM     14  C   UNL     1      -0.099   0.496   7.392  1.00  0.00     0.256 C 
ATOM     15  H   UNL     1       0.477  -1.315   6.804  1.00  0.00     0.170 HD
ATOM     16  O   UNL     1      -0.944   0.039   8.160  1.00  0.00    -0.269 OA
BRANCH  14  17
ATOM     17  C   UNL     1       0.025   1.954   7.241  1.00  0.00     0.048 A 
ATOM     18  C   UNL     1       0.585   2.643   8.327  1.00  0.00     0.014 A 
ATOM     19  C   UNL     1      -0.295   2.607   6.021  1.00  0.00    -0.006 A 
ATOM     20  C   UNL     1       0.945   3.975   8.181  1.00  0.00     0.001 A 
ATOM     21  C   UNL     1       0.112   3.951   5.888  1.00  0.00    -0.018 A 
ATOM     22  C   UNL     1      -0.972   2.007   4.928  1.00  0.00     0.009 A 
ATOM     23  C   UNL     1       0.746   4.609   6.956  1.00  0.00     0.009 A 
ATOM     24  C   UNL     1      -0.119   4.625   4.684  1.00  0.00     0.009 A 
ATOM     25  C   UNL     1      -1.196   2.701   3.736  1.00  0.00     0.001 A 
ATOM     26  C   UNL     1      -0.749   4.007   3.607  1.00  0.00     0.001 A 
ENDBRANCH  14  17
ENDBRANCH  12  13
ENDBRANCH   6   7
ENDBRANCH   5   6
ENDBRANCH   3   5
ENDBRANCH   2   3
ENDBRANCH   1   2
BRANCH   1  27
ATOM     27  C   UNL     1       4.584   0.038  -2.155  1.00  0.00     0.275 C 
BRANCH  27  28
ATOM     28  O   UNL     1       4.144   1.385  -1.900  1.00  0.00    -0.458 OA
BRANCH  28  29
ATOM     29  C   UNL     1       2.825   1.623  -2.122  1.00  0.00     0.338 C 
ATOM     30  O   UNL     1       2.019   0.837  -2.592  1.00  0.00    -0.246 OA
BRANCH  29  31
ATOM     31  C   UNL     1       2.452   2.933  -1.537  1.00  0.00     0.060 A 
ATOM     32  C   UNL     1       1.239   3.028  -0.845  1.00  0.00     0.016 A 
ATOM     33  C   UNL     1       3.275   4.058  -1.659  1.00  0.00     0.016 A 
ATOM     34  C   UNL     1       0.834   4.253  -0.304  1.00  0.00     0.010 A 
ATOM     35  C   UNL     1       2.865   5.284  -1.119  1.00  0.00     0.010 A 
ATOM     36  C   UNL     1       1.632   5.398  -0.458  1.00  0.00    -0.014 A 
BRANCH  36  37
ATOM     37  C   UNL     1       1.124   6.724  -0.011  1.00  0.00     0.031 A 
ATOM     38  C   UNL     1       0.446   7.631  -0.999  1.00  0.00     0.074 A 
ATOM     39  C   UNL     1       1.278   7.137   1.261  1.00  0.00     0.049 A 
ATOM     40  N   UNL     1      -0.132   8.787  -0.795  1.00  0.00    -0.248 NA
ATOM     41  C   UNL     1       0.463   7.202  -2.406  1.00  0.00     0.031 C 
ATOM     42  C   UNL     1       2.018   6.415   2.290  1.00  0.00     0.029 A 
ATOM     43  N   UNL     1       0.806   8.257   1.909  1.00  0.00    -0.354 N 
ATOM     44  C   UNL     1      -0.509   9.247  -2.050  1.00  0.00     0.074 A 
ATOM     45  C   UNL     1      -0.095   8.243  -3.008  1.00  0.00     0.031 C 
ATOM     46  C   UNL     1       1.905   7.081   3.453  1.00  0.00     0.029 A 
ATOM     47  C   UNL     1       1.051   8.252   3.265  1.00  0.00     0.049 A 
ATOM     48  H   UNL     1       0.339   8.990   1.448  1.00  0.00     0.167 HD
ATOM     49  C   UNL     1      -1.124  10.409  -2.377  1.00  0.00     0.031 A 
ATOM     50  C   UNL     1       0.596   9.067   4.243  1.00  0.00     0.031 A 
ATOM     51  C   UNL     1      -1.517  11.421  -1.431  1.00  0.00     0.049 A 
ATOM     52  C   UNL     1      -0.209  10.289   3.866  1.00  0.00     0.074 A 
ATOM     53  C   UNL     1      -2.149  12.629  -1.677  1.00  0.00     0.029 A 
ATOM     54  N   UNL     1      -1.315  11.352  -0.062  1.00  0.00    -0.354 N 
ATOM     55  N   UNL     1      -0.613  10.678   2.681  1.00  0.00    -0.248 NA
ATOM     56  C   UNL     1      -0.582  11.203   4.958  1.00  0.00     0.031 C 
ATOM     57  C   UNL     1      -2.281  13.312  -0.464  1.00  0.00     0.029 A 
ATOM     58  C   UNL     1      -1.794  12.501   0.547  1.00  0.00     0.049 A 
ATOM     59  H   UNL     1      -0.893  10.597   0.410  1.00  0.00     0.167 HD
ATOM     60  C   UNL     1      -1.261  11.894   2.883  1.00  0.00     0.074 A 
ATOM     61  C   UNL     1      -1.260  12.139   4.309  1.00  0.00     0.031 C 
ATOM     62  C   UNL     1      -1.774  12.750   1.966  1.00  0.00     0.031 A 
BRANCH  49  63
ATOM     63  C   UNL     1      -1.375  10.673  -3.838  1.00  0.00    -0.014 A 
ATOM     64  C   UNL     1      -2.349   9.952  -4.551  1.00  0.00     0.010 A 
ATOM     65  C   UNL     1      -0.662  11.695  -4.492  1.00  0.00     0.010 A 
ATOM     66  C   UNL     1      -2.586  10.231  -5.899  1.00  0.00     0.020 A 
ATOM     67  C   UNL     1      -0.918  11.997  -5.831  1.00  0.00     0.020 A 
ATOM     68  C   UNL     1      -1.871  11.254  -6.530  1.00  0.00     0.054 A 
BRANCH  68  69
ATOM     69  S   UNL     1      -2.232  11.620  -8.268  1.00  0.00     0.124 S 
ATOM     70  O   UNL     1      -1.673  10.452  -8.944  1.00  0.00    -0.237 OA
ATOM     71  O   UNL     1      -3.690  11.714  -8.277  1.00  0.00    -0.237 OA
ATOM     72  O   UNL     1      -1.528  12.877  -8.513  1.00  0.00    -0.744 OA
ENDBRANCH  68  69
ENDBRANCH  49  63
BRANCH  50  73
ATOM     73  C   UNL     1       0.851   8.765   5.685  1.00  0.00    -0.014 A 
ATOM     74  C   UNL     1      -0.226   8.511   6.560  1.00  0.00     0.010 A 
ATOM     75  C   UNL     1       2.154   8.765   6.208  1.00  0.00     0.010 A 
ATOM     76  C   UNL     1      -0.007   8.299   7.927  1.00  0.00     0.020 A 
ATOM     77  C   UNL     1       2.382   8.510   7.564  1.00  0.00     0.020 A 
ATOM     78  C   UNL     1       1.299   8.298   8.419  1.00  0.00     0.054 A 
BRANCH  78  79
ATOM     79  S   UNL     1       1.582   7.962  10.180  1.00  0.00     0.124 S 
ATOM     80  O   UNL     1       1.226   9.236  10.794  1.00  0.00    -0.237 OA
ATOM     81  O   UNL     1       0.672   6.850  10.441  1.00  0.00    -0.237 OA
ATOM     82  O   UNL     1       3.000   7.611  10.230  1.00  0.00    -0.744 OA
ENDBRANCH  78  79
ENDBRANCH  50  73
BRANCH  62  83
ATOM     83  C   UNL     1      -2.363  14.043   2.472  1.00  0.00    -0.014 A 
ATOM     84  C   UNL     1      -1.544  15.047   3.022  1.00  0.00     0.010 A 
ATOM     85  C   UNL     1      -3.745  14.278   2.359  1.00  0.00     0.010 A 
ATOM     86  C   UNL     1      -2.101  16.241   3.489  1.00  0.00     0.020 A 
ATOM     87  C   UNL     1      -4.303  15.484   2.797  1.00  0.00     0.020 A 
ATOM     88  C   UNL     1      -3.478  16.451   3.376  1.00  0.00     0.054 A 
BRANCH  88  89
ATOM     89  S   UNL     1      -4.173  18.019   3.967  1.00  0.00     0.124 S 
ATOM     90  O   UNL     1      -4.075  17.868   5.416  1.00  0.00    -0.237 OA
ATOM     91  O   UNL     1      -3.276  19.010   3.377  1.00  0.00    -0.237 OA
ATOM     92  O   UNL     1      -5.532  18.021   3.432  1.00  0.00    -0.744 OA
ENDBRANCH  88  89
ENDBRANCH  62  83
ENDBRANCH  36  37
ENDBRANCH  29  31
ENDBRANCH  28  29
ENDBRANCH  27  28
ENDBRANCH   1  27
TORSDOF 18
