REMARK SMILES Cc1cc(S(F)(F)(F)(F)F)cc2c1O[C@H](C(F)(F)F)C(C(=O)OCCOC(=O)c1ccc(-c3c4nc(c(-c5ccc(S(=O)(=O)[O-])cc5)c5ccc([nH]5)c(-c5ccc(S(=O)(=O)[O-])cc5)c5nc(c(-c6ccc(S(=O)(=O)[O-])cc6)c6ccc3[nH]6)C=C5)C=C4)cc1)=C2
REMARK SMILES IDX 25 1 24 2 23 3 21 4 22 5 20 6 1 7 2 8 3 9 13 10 4 11 12 12
REMARK SMILES IDX 14 13 11 14 89 15 15 16 5 17 6 18 7 19 8 20 9 21 10 22 16 23
REMARK SMILES IDX 17 24 18 25 19 26 26 27 27 28 28 29 29 30 30 31 88 32 31 33
REMARK SMILES IDX 87 34 32 35 33 36 34 37 81 38 35 39 86 40 80 41 82 42 36 43
REMARK SMILES IDX 85 44 79 45 78 46 37 48 67 49 48 50 66 51 49 52 52 53 65 54
REMARK SMILES IDX 83 55 50 56 51 57 64 59 84 60 53 61 38 62 39 63 47 64 40 65
REMARK SMILES IDX 46 66 41 67 42 68 43 69 44 70 45 71 68 72 69 73 77 74 70 75
REMARK SMILES IDX 76 76 71 77 72 78 73 79 74 80 75 81 54 82 55 83 63 84 56 85
REMARK SMILES IDX 62 86 57 87 58 88 59 89 60 90 61 91
REMARK H PARENT 82 47 52 58
REMARK Flexibility Score: inf
ROOT
ATOM      1  C   UNL     1      -3.127  -5.799  -5.958  1.00  0.00     0.275 C 
ENDROOT
BRANCH   1   2
ATOM      2  C   UNL     1      -1.701  -6.096  -5.525  1.00  0.00     0.275 C 
BRANCH   2   3
ATOM      3  O   UNL     1      -1.258  -5.086  -4.630  1.00  0.00    -0.459 OA
BRANCH   3   4
ATOM      4  C   UNL     1      -1.214  -3.731  -5.054  1.00  0.00     0.338 C 
ATOM      5  O   UNL     1      -1.570  -3.423  -6.234  1.00  0.00    -0.246 OA
BRANCH   4   6
ATOM      6  C   UNL     1      -0.740  -2.650  -4.096  1.00  0.00     0.087 C 
ATOM      7  C   UNL     1       1.075  -0.055  -0.037  1.00  0.00     0.048 C 
ATOM      8  C   UNL     1       0.568   0.295  -1.426  1.00  0.00    -0.007 A 
ATOM      9  C   UNL     1       0.604   1.604  -1.855  1.00  0.00     0.031 A 
ATOM     10  C   UNL     1       0.136  -0.700  -2.302  1.00  0.00     0.130 A 
ATOM     11  C   UNL     1       0.210   1.940  -3.144  1.00  0.00     0.108 A 
ATOM     12  C   UNL     1      -0.260  -0.355  -3.614  1.00  0.00     0.019 A 
ATOM     13  O   UNL     1       0.074  -2.113  -1.906  1.00  0.00    -0.475 OA
ATOM     14  C   UNL     1      -0.212   0.980  -4.020  1.00  0.00     0.036 A 
ATOM     15  C   UNL     1      -0.710  -1.419  -4.511  1.00  0.00     0.027 C 
ATOM     16  C   UNL     1      -0.356  -3.021  -2.807  1.00  0.00     0.316 C 
BRANCH  11  17
ATOM     17  S   UNL     1       0.255   3.671  -3.669  1.00  0.00     0.310 S 
ATOM     18  F   UNL     1       1.394   3.407  -4.741  1.00  0.00    -0.094 F 
ATOM     19  F   UNL     1       1.400   3.954  -2.624  1.00  0.00    -0.094 F 
ATOM     20  F   UNL     1       0.261   5.159  -4.120  1.00  0.00    -0.094 F 
ATOM     21  F   UNL     1      -0.791   3.339  -4.805  1.00  0.00    -0.094 F 
ATOM     22  F   UNL     1       0.319   2.135  -3.299  1.00  0.00    -0.094 F 
ENDBRANCH  11  17
BRANCH  16  23
ATOM     23  C   UNL     1       0.899  -3.838  -3.066  1.00  0.00     0.430 C 
ATOM     24  F   UNL     1       1.352  -4.332  -1.917  1.00  0.00    -0.167 F 
ATOM     25  F   UNL     1       0.613  -4.838  -3.896  1.00  0.00    -0.167 F 
ATOM     26  F   UNL     1       1.829  -3.061  -3.612  1.00  0.00    -0.167 F 
ENDBRANCH  16  23
ENDBRANCH   4   6
ENDBRANCH   3   4
ENDBRANCH   2   3
ENDBRANCH   1   2
BRANCH   1  27
ATOM     27  O   UNL     1      -3.172  -4.537  -6.609  1.00  0.00    -0.458 OA
BRANCH  27  28
ATOM     28  C   UNL     1      -2.775  -3.365  -5.912  1.00  0.00     0.338 C 
ATOM     29  O   UNL     1      -2.378  -3.446  -4.708  1.00  0.00    -0.246 OA
BRANCH  28  30
ATOM     30  C   UNL     1      -2.822  -2.015  -6.609  1.00  0.00     0.060 A 
ATOM     31  C   UNL     1      -1.783  -1.097  -6.510  1.00  0.00     0.016 A 
ATOM     32  C   UNL     1      -3.880  -1.689  -7.321  1.00  0.00     0.016 A 
ATOM     33  C   UNL     1      -1.689  -0.137  -7.543  1.00  0.00     0.010 A 
ATOM     34  C   UNL     1      -3.959  -0.445  -7.956  1.00  0.00     0.010 A 
ATOM     35  C   UNL     1      -2.894   0.321  -8.072  1.00  0.00    -0.014 A 
BRANCH  35  36
ATOM     36  C   UNL     1      -2.978   1.671  -8.765  1.00  0.00     0.031 A 
ATOM     37  C   UNL     1      -3.844   2.634  -8.244  1.00  0.00     0.074 A 
ATOM     38  C   UNL     1      -2.228   1.846  -9.916  1.00  0.00     0.049 A 
ATOM     39  N   UNL     1      -4.076   3.860  -8.716  1.00  0.00    -0.248 NA
ATOM     40  C   UNL     1      -4.667   2.438  -7.041  1.00  0.00     0.031 C 
ATOM     41  C   UNL     1      -1.346   0.883 -10.443  1.00  0.00     0.029 A 
ATOM     42  N   UNL     1      -2.194   2.946 -10.743  1.00  0.00    -0.354 N 
ATOM     43  C   UNL     1      -4.954   4.495  -7.937  1.00  0.00     0.074 A 
ATOM     44  C   UNL     1      -5.351   3.588  -6.852  1.00  0.00     0.031 C 
ATOM     45  C   UNL     1      -0.797   1.390 -11.578  1.00  0.00     0.029 A 
ATOM     46  C   UNL     1      -1.326   2.679 -11.779  1.00  0.00     0.049 A 
ATOM     47  H   UNL     1      -2.703   3.780 -10.617  1.00  0.00     0.167 HD
ATOM     48  C   UNL     1      -5.438   5.796  -8.088  1.00  0.00     0.031 A 
ATOM     49  C   UNL     1      -1.002   3.499 -12.848  1.00  0.00     0.031 A 
ATOM     50  C   UNL     1      -5.081   6.632  -9.133  1.00  0.00     0.049 A 
ATOM     51  C   UNL     1      -1.531   4.779 -13.031  1.00  0.00     0.074 A 
ATOM     52  C   UNL     1      -5.553   7.949  -9.296  1.00  0.00     0.029 A 
ATOM     53  N   UNL     1      -4.231   6.356 -10.182  1.00  0.00    -0.354 N 
ATOM     54  N   UNL     1      -2.378   5.428 -12.231  1.00  0.00    -0.248 NA
ATOM     55  C   UNL     1      -1.220   5.644 -14.176  1.00  0.00     0.031 C 
ATOM     56  C   UNL     1      -5.003   8.457 -10.432  1.00  0.00     0.029 A 
ATOM     57  C   UNL     1      -4.180   7.465 -10.998  1.00  0.00     0.049 A 
ATOM     58  H   UNL     1      -3.745   5.512 -10.324  1.00  0.00     0.167 HD
ATOM     59  C   UNL     1      -2.642   6.639 -12.726  1.00  0.00     0.074 A 
ATOM     60  C   UNL     1      -1.906   6.793 -13.989  1.00  0.00     0.031 C 
ATOM     61  C   UNL     1      -3.463   7.624 -12.173  1.00  0.00     0.031 A 
BRANCH  48  62
ATOM     62  C   UNL     1      -6.410   6.325  -7.046  1.00  0.00    -0.014 A 
ATOM     63  C   UNL     1      -6.050   6.482  -5.712  1.00  0.00     0.010 A 
ATOM     64  C   UNL     1      -7.614   6.705  -7.417  1.00  0.00     0.010 A 
ATOM     65  C   UNL     1      -6.756   7.461  -4.979  1.00  0.00     0.020 A 
ATOM     66  C   UNL     1      -8.513   7.243  -6.490  1.00  0.00     0.020 A 
ATOM     67  C   UNL     1      -8.104   7.618  -5.296  1.00  0.00     0.054 A 
BRANCH  67  68
ATOM     68  S   UNL     1      -9.264   8.320  -4.097  1.00  0.00     0.124 S 
ATOM     69  O   UNL     1      -9.292   7.445  -2.841  1.00  0.00    -0.237 OA
ATOM     70  O   UNL     1      -8.817   9.735  -3.723  1.00  0.00    -0.237 OA
ATOM     71  O   UNL     1     -10.829   8.380  -4.785  1.00  0.00    -0.744 OA
ENDBRANCH  67  68
ENDBRANCH  48  62
BRANCH  49  72
ATOM     72  C   UNL     1      -0.017   2.976 -13.880  1.00  0.00    -0.014 A 
ATOM     73  C   UNL     1       1.155   3.659 -14.186  1.00  0.00     0.010 A 
ATOM     74  C   UNL     1      -0.295   1.880 -14.552  1.00  0.00     0.010 A 
ATOM     75  C   UNL     1       2.183   2.907 -14.796  1.00  0.00     0.020 A 
ATOM     76  C   UNL     1       0.564   1.419 -15.556  1.00  0.00     0.020 A 
ATOM     77  C   UNL     1       1.777   1.912 -15.684  1.00  0.00     0.054 A 
BRANCH  77  78
ATOM     78  S   UNL     1       2.891   1.314 -16.979  1.00  0.00     0.124 S 
ATOM     79  O   UNL     1       3.277   2.476 -17.897  1.00  0.00    -0.237 OA
ATOM     80  O   UNL     1       4.152   0.729 -16.338  1.00  0.00    -0.237 OA
ATOM     81  O   UNL     1       2.103   0.103 -17.894  1.00  0.00    -0.744 OA
ENDBRANCH  77  78
ENDBRANCH  49  72
BRANCH  61  82
ATOM     82  C   UNL     1      -3.578   8.951 -12.906  1.00  0.00    -0.014 A 
ATOM     83  C   UNL     1      -4.016   9.062 -14.221  1.00  0.00     0.010 A 
ATOM     84  C   UNL     1      -3.209  10.045 -12.275  1.00  0.00     0.010 A 
ATOM     85  C   UNL     1      -4.510  10.325 -14.617  1.00  0.00     0.020 A 
ATOM     86  C   UNL     1      -3.247  11.288 -12.916  1.00  0.00     0.020 A 
ATOM     87  C   UNL     1      -3.881  11.437 -14.060  1.00  0.00     0.054 A 
BRANCH  87  88
ATOM     88  S   UNL     1      -3.936  13.045 -14.888  1.00  0.00     0.124 S 
ATOM     89  O   UNL     1      -3.294  12.928 -16.273  1.00  0.00    -0.237 OA
ATOM     90  O   UNL     1      -5.391  13.494 -15.036  1.00  0.00    -0.237 OA
ATOM     91  O   UNL     1      -3.077  14.195 -13.957  1.00  0.00    -0.744 OA
ENDBRANCH  87  88
ENDBRANCH  61  82
ENDBRANCH  35  36
ENDBRANCH  28  30
ENDBRANCH  27  28
ENDBRANCH   1  27
TORSDOF 16
