REMARK SMILES CCCCCCNC(=O)Oc1cccc(-c2ccc([C@@H](C)C(=O)OCCOC(=O)c3ccc(-c4c5nc(c(-c6ccc(S(=O)(=O)[O-])cc6)c6ccc([nH]6)c(-c6ccc(S(=O)(=O)[O-])cc6)c6nc(c(-c7ccc(S(=O)(=O)[O-])cc7)c7ccc4[nH]7)C=C6)C=C5)cc3)cc2F)c1
REMARK SMILES IDX 20 1 21 2 19 3 16 4 17 5 91 6 18 7 90 8 92 9 15 10 11 11
REMARK SMILES IDX 12 12 93 13 13 14 14 15 10 16 8 17 7 18 9 20 6 21 5 22 4 23
REMARK SMILES IDX 3 24 2 25 1 26 22 27 23 28 24 29 25 30 26 31 27 32 28 33
REMARK SMILES IDX 29 34 30 35 31 36 89 37 32 38 88 39 33 40 34 41 35 42 82 43
REMARK SMILES IDX 36 44 87 45 81 46 83 47 37 48 86 49 80 50 79 51 38 53 68 54
REMARK SMILES IDX 49 55 67 56 50 57 53 58 66 59 84 60 51 61 52 62 65 64 85 65
REMARK SMILES IDX 54 66 39 67 40 68 48 69 41 70 47 71 42 72 43 73 44 74 45 75
REMARK SMILES IDX 46 76 69 77 70 78 78 79 71 80 77 81 72 82 73 83 74 84 75 85
REMARK SMILES IDX 76 86 55 87 56 88 64 89 57 90 63 91 58 92 59 93 60 94 61 95
REMARK SMILES IDX 62 96
REMARK H PARENT 7 19 83 52 53 63
REMARK Flexibility Score: inf
ROOT
ATOM      1  C   UNL     1      -5.224  12.650   5.726  1.00  0.00     0.126 C 
ATOM      2  C   UNL     1      -6.570  13.205   6.189  1.00  0.00     0.025 C 
ENDROOT
BRANCH   1   3
ATOM      3  C   UNL     1      -5.191  11.129   5.738  1.00  0.00    -0.031 A 
ATOM      4  C   UNL     1      -5.155   8.278   5.698  1.00  0.00     0.018 A 
ATOM      5  C   UNL     1      -5.402   8.990   6.884  1.00  0.00     0.012 A 
ATOM      6  C   UNL     1      -4.906   9.028   4.542  1.00  0.00     0.131 A 
ATOM      7  C   UNL     1      -5.428  10.390   6.904  1.00  0.00     0.005 A 
ATOM      8  C   UNL     1      -4.923  10.425   4.554  1.00  0.00     0.044 A 
ATOM      9  F   UNL     1      -4.680   8.413   3.371  1.00  0.00    -0.206 F 
BRANCH   4  10
ATOM     10  C   UNL     1      -5.200   6.805   5.684  1.00  0.00    -0.012 A 
ATOM     11  C   UNL     1      -4.255   4.641   5.120  1.00  0.00     0.133 A 
ATOM     12  C   UNL     1      -5.360   3.985   5.656  1.00  0.00     0.047 A 
ATOM     13  C   UNL     1      -4.170   6.036   5.116  1.00  0.00     0.056 A 
ATOM     14  C   UNL     1      -6.388   4.731   6.221  1.00  0.00     0.004 A 
ATOM     15  C   UNL     1      -6.307   6.126   6.233  1.00  0.00     0.009 A 
BRANCH  11  16
ATOM     16  O   UNL     1      -3.301   3.836   4.477  1.00  0.00    -0.410 OA
BRANCH  16  17
ATOM     17  C   UNL     1      -1.974   3.944   4.865  1.00  0.00     0.412 C 
ATOM     18  N   UNL     1      -1.146   3.094   4.182  1.00  0.00    -0.321 N 
ATOM     19  H   UNL     1      -0.185   3.155   4.388  1.00  0.00     0.167 HD
ATOM     20  O   UNL     1      -1.537   4.679   5.743  1.00  0.00    -0.224 OA
BRANCH  18  21
ATOM     21  C   UNL     1      -1.536   2.115   3.186  1.00  0.00     0.119 C 
BRANCH  21  22
ATOM     22  C   UNL     1      -0.905   2.384   1.822  1.00  0.00     0.021 C 
BRANCH  22  23
ATOM     23  C   UNL     1       0.623   2.269   1.781  1.00  0.00     0.002 C 
BRANCH  23  24
ATOM     24  C   UNL     1       1.201   0.913   2.201  1.00  0.00    -0.000 C 
BRANCH  24  25
ATOM     25  C   UNL     1       0.712  -0.293   1.394  1.00  0.00    -0.003 C 
ATOM     26  C   UNL     1       1.086  -0.228  -0.078  1.00  0.00     0.004 C 
ENDBRANCH  24  25
ENDBRANCH  23  24
ENDBRANCH  22  23
ENDBRANCH  21  22
ENDBRANCH  18  21
ENDBRANCH  16  17
ENDBRANCH  11  16
ENDBRANCH   4  10
ENDBRANCH   1   3
BRANCH   1  27
ATOM     27  C   UNL     1      -4.093  13.354   6.468  1.00  0.00     0.313 C 
ATOM     28  O   UNL     1      -3.725  14.486   6.169  1.00  0.00    -0.252 OA
BRANCH  27  29
ATOM     29  O   UNL     1      -3.580  12.633   7.498  1.00  0.00    -0.462 OA
BRANCH  29  30
ATOM     30  C   UNL     1      -2.441  13.192   8.179  1.00  0.00     0.274 C 
BRANCH  30  31
ATOM     31  C   UNL     1      -1.141  12.535   7.709  1.00  0.00     0.275 C 
BRANCH  31  32
ATOM     32  O   UNL     1      -0.814  12.927   6.364  1.00  0.00    -0.458 OA
BRANCH  32  33
ATOM     33  C   UNL     1      -1.241  12.080   5.399  1.00  0.00     0.338 C 
ATOM     34  O   UNL     1      -1.830  11.025   5.546  1.00  0.00    -0.246 OA
BRANCH  33  35
ATOM     35  C   UNL     1      -0.982  12.677   4.083  1.00  0.00     0.060 A 
ATOM     36  C   UNL     1      -2.068  13.124   3.326  1.00  0.00     0.016 A 
ATOM     37  C   UNL     1       0.313  12.724   3.569  1.00  0.00     0.016 A 
ATOM     38  C   UNL     1      -1.866  13.618   2.041  1.00  0.00     0.010 A 
ATOM     39  C   UNL     1       0.516  13.230   2.284  1.00  0.00     0.010 A 
ATOM     40  C   UNL     1      -0.572  13.671   1.509  1.00  0.00    -0.014 A 
BRANCH  40  41
ATOM     41  C   UNL     1      -0.347  14.152   0.127  1.00  0.00     0.031 A 
ATOM     42  C   UNL     1       0.015  13.171  -0.950  1.00  0.00     0.074 A 
ATOM     43  C   UNL     1      -0.451  15.465  -0.152  1.00  0.00     0.049 A 
ATOM     44  N   UNL     1       0.414  13.399  -2.174  1.00  0.00    -0.248 NA
ATOM     45  C   UNL     1      -0.082  11.744  -0.601  1.00  0.00     0.031 C 
ATOM     46  C   UNL     1      -0.856  16.503   0.797  1.00  0.00     0.029 A 
ATOM     47  N   UNL     1      -0.208  16.151  -1.315  1.00  0.00    -0.354 N 
ATOM     48  C   UNL     1       0.635  12.149  -2.737  1.00  0.00     0.074 A 
ATOM     49  C   UNL     1       0.339  11.165  -1.718  1.00  0.00     0.031 C 
ATOM     50  C   UNL     1      -0.820  17.697   0.182  1.00  0.00     0.029 A 
ATOM     51  C   UNL     1      -0.337  17.513  -1.184  1.00  0.00     0.049 A 
ATOM     52  H   UNL     1       0.035  15.710  -2.161  1.00  0.00     0.167 HD
ATOM     53  C   UNL     1       1.050  11.851  -3.992  1.00  0.00     0.031 A 
ATOM     54  C   UNL     1      -0.055  18.504  -2.051  1.00  0.00     0.031 A 
ATOM     55  C   UNL     1       1.352  12.838  -4.994  1.00  0.00     0.049 A 
ATOM     56  C   UNL     1       0.487  18.153  -3.411  1.00  0.00     0.074 A 
ATOM     57  C   UNL     1       1.803  12.643  -6.288  1.00  0.00     0.029 A 
ATOM     58  N   UNL     1       1.228  14.208  -4.815  1.00  0.00    -0.354 N 
ATOM     59  N   UNL     1       0.724  16.968  -3.921  1.00  0.00    -0.248 NA
ATOM     60  C   UNL     1       0.807  19.272  -4.309  1.00  0.00     0.031 C 
ATOM     61  C   UNL     1       1.987  13.898  -6.879  1.00  0.00     0.029 A 
ATOM     62  C   UNL     1       1.604  14.871  -5.970  1.00  0.00     0.049 A 
ATOM     63  H   UNL     1       0.918  14.644  -3.989  1.00  0.00     0.167 HD
ATOM     64  C   UNL     1       1.198  17.198  -5.207  1.00  0.00     0.074 A 
ATOM     65  C   UNL     1       1.206  18.634  -5.401  1.00  0.00     0.031 C 
ATOM     66  C   UNL     1       1.592  16.301  -6.144  1.00  0.00     0.031 A 
BRANCH  53  67
ATOM     67  C   UNL     1       1.235  10.398  -4.335  1.00  0.00    -0.014 A 
ATOM     68  C   UNL     1       0.129   9.555  -4.545  1.00  0.00     0.010 A 
ATOM     69  C   UNL     1       2.533   9.875  -4.482  1.00  0.00     0.010 A 
ATOM     70  C   UNL     1       0.318   8.207  -4.861  1.00  0.00     0.020 A 
ATOM     71  C   UNL     1       2.726   8.533  -4.819  1.00  0.00     0.020 A 
ATOM     72  C   UNL     1       1.616   7.702  -4.990  1.00  0.00     0.054 A 
BRANCH  72  73
ATOM     73  S   UNL     1       1.835   5.952  -5.414  1.00  0.00     0.124 S 
ATOM     74  O   UNL     1       1.511   5.293  -4.151  1.00  0.00    -0.237 OA
ATOM     75  O   UNL     1       0.865   5.756  -6.489  1.00  0.00    -0.237 OA
ATOM     76  O   UNL     1       3.235   5.865  -5.820  1.00  0.00    -0.744 OA
ENDBRANCH  72  73
ENDBRANCH  53  67
BRANCH  54  77
ATOM     77  C   UNL     1      -0.228  19.924  -1.642  1.00  0.00    -0.014 A 
ATOM     78  C   UNL     1      -1.243  20.715  -2.205  1.00  0.00     0.010 A 
ATOM     79  C   UNL     1       0.629  20.492  -0.680  1.00  0.00     0.010 A 
ATOM     80  C   UNL     1      -1.385  22.055  -1.831  1.00  0.00     0.020 A 
ATOM     81  C   UNL     1       0.473  21.823  -0.284  1.00  0.00     0.020 A 
ATOM     82  C   UNL     1      -0.525  22.601  -0.873  1.00  0.00     0.054 A 
BRANCH  82  83
ATOM     83  S   UNL     1      -0.750  24.330  -0.371  1.00  0.00     0.124 S 
ATOM     84  O   UNL     1      -0.155  25.050  -1.492  1.00  0.00    -0.237 OA
ATOM     85  O   UNL     1      -2.201  24.440  -0.246  1.00  0.00    -0.237 OA
ATOM     86  O   UNL     1      -0.017  24.416   0.891  1.00  0.00    -0.744 OA
ENDBRANCH  82  83
ENDBRANCH  54  77
BRANCH  66  87
ATOM     87  C   UNL     1       2.024  16.839  -7.481  1.00  0.00    -0.014 A 
ATOM     88  C   UNL     1       3.286  17.432  -7.652  1.00  0.00     0.010 A 
ATOM     89  C   UNL     1       1.182  16.674  -8.596  1.00  0.00     0.010 A 
ATOM     90  C   UNL     1       3.695  17.864  -8.916  1.00  0.00     0.020 A 
ATOM     91  C   UNL     1       1.596  17.085  -9.865  1.00  0.00     0.020 A 
ATOM     92  C   UNL     1       2.848  17.685 -10.016  1.00  0.00     0.054 A 
BRANCH  92  93
ATOM     93  S   UNL     1       3.429  18.187 -11.659  1.00  0.00     0.124 S 
ATOM     94  O   UNL     1       3.291  19.640 -11.600  1.00  0.00    -0.237 OA
ATOM     95  O   UNL     1       4.801  17.687 -11.682  1.00  0.00    -0.237 OA
ATOM     96  O   UNL     1       2.511  17.510 -12.572  1.00  0.00    -0.744 OA
ENDBRANCH  92  93
ENDBRANCH  66  87
ENDBRANCH  40  41
ENDBRANCH  33  35
ENDBRANCH  32  33
ENDBRANCH  31  32
ENDBRANCH  30  31
ENDBRANCH  29  30
ENDBRANCH  27  29
ENDBRANCH   1  27
TORSDOF 23
