REMARK SMILES O=C(OCCOC(=O)[C@H]1Cc2c([nH]c3ccccc23)[C@@H](c2ccc(OC(F)(F)F)cc2)[NH2+]1)c1ccc(-c2c3nc(c(-c4ccc(S(=O)(=O)[O-])cc4)c4ccc([nH]4)c(-c4ccc(S(=O)(=O)[O-])cc4)c4nc(c(-c5ccc(S(=O)(=O)[O-])cc5)c5ccc2[nH]5)C=C4)C=C3)cc1
REMARK SMILES IDX 4 1 3 2 2 3 1 4 33 5 34 6 92 7 35 8 91 9 36 10 37 11 38 12
REMARK SMILES IDX 85 13 39 14 90 15 84 16 86 17 40 18 89 19 83 20 82 21 41 23
REMARK SMILES IDX 71 24 52 25 70 26 53 27 56 28 69 29 87 30 54 31 55 32 68 34
REMARK SMILES IDX 88 35 57 36 42 37 43 38 51 39 44 40 50 41 45 42 46 43 47 44
REMARK SMILES IDX 48 45 49 46 72 47 73 48 81 49 74 50 80 51 75 52 76 53 77 54
REMARK SMILES IDX 78 55 79 56 58 57 59 58 67 59 60 60 66 61 61 62 62 63 63 64
REMARK SMILES IDX 64 65 65 66 5 67 6 68 7 69 8 70 9 71 10 72 32 73 11 74 20 75
REMARK SMILES IDX 12 78 19 79 13 80 14 81 18 82 15 84 17 85 16 86 21 87 22 88
REMARK SMILES IDX 31 89 23 90 30 91 24 92 25 93 26 94 27 95 28 96 29 97
REMARK H PARENT 86 22 56 33 32 76 32 77 13 83
REMARK Flexibility Score: inf
ROOT
ATOM      1  C   UNL     1       3.873   2.021   0.174  1.00  0.00     0.275 C 
ENDROOT
BRANCH   1   2
ATOM      2  O   UNL     1       3.086   1.213  -0.704  1.00  0.00    -0.458 OA
BRANCH   2   3
ATOM      3  C   UNL     1       3.311  -0.059  -1.106  1.00  0.00     0.338 C 
ATOM      4  O   UNL     1       2.531  -0.545  -1.926  1.00  0.00    -0.246 OA
BRANCH   3   5
ATOM      5  C   UNL     1       4.383  -0.943  -0.528  1.00  0.00     0.060 A 
ATOM      6  C   UNL     1       5.479  -0.574   0.266  1.00  0.00     0.016 A 
ATOM      7  C   UNL     1       4.195  -2.308  -0.738  1.00  0.00     0.016 A 
ATOM      8  C   UNL     1       6.208  -1.514   1.012  1.00  0.00     0.010 A 
ATOM      9  C   UNL     1       4.945  -3.240  -0.023  1.00  0.00     0.010 A 
ATOM     10  C   UNL     1       5.892  -2.863   0.940  1.00  0.00    -0.014 A 
BRANCH  10  11
ATOM     11  C   UNL     1       6.537  -3.880   1.824  1.00  0.00     0.031 A 
ATOM     12  C   UNL     1       7.172  -5.083   1.180  1.00  0.00     0.074 A 
ATOM     13  C   UNL     1       6.454  -3.818   3.175  1.00  0.00     0.049 A 
ATOM     14  N   UNL     1       7.575  -6.199   1.727  1.00  0.00    -0.248 NA
ATOM     15  C   UNL     1       7.270  -5.064  -0.289  1.00  0.00     0.031 C 
ATOM     16  C   UNL     1       5.780  -2.776   3.960  1.00  0.00     0.029 A 
ATOM     17  N   UNL     1       6.939  -4.672   4.142  1.00  0.00    -0.354 N 
ATOM     18  C   UNL     1       7.893  -7.033   0.662  1.00  0.00     0.074 A 
ATOM     19  C   UNL     1       7.526  -6.334  -0.548  1.00  0.00     0.031 C 
ATOM     20  C   UNL     1       5.930  -3.033   5.274  1.00  0.00     0.029 A 
ATOM     21  C   UNL     1       6.701  -4.260   5.438  1.00  0.00     0.049 A 
ATOM     22  H   UNL     1       7.416  -5.506   3.927  1.00  0.00     0.167 HD
ATOM     23  C   UNL     1       8.502  -8.242   0.675  1.00  0.00     0.031 A 
ATOM     24  C   UNL     1       7.089  -4.795   6.616  1.00  0.00     0.031 A 
ATOM     25  C   UNL     1       9.016  -8.856   1.865  1.00  0.00     0.049 A 
ATOM     26  C   UNL     1       7.936  -6.049   6.596  1.00  0.00     0.074 A 
ATOM     27  C   UNL     1       9.765 -10.013   1.984  1.00  0.00     0.029 A 
ATOM     28  N   UNL     1       8.892  -8.323   3.138  1.00  0.00    -0.354 N 
ATOM     29  N   UNL     1       8.283  -6.792   5.571  1.00  0.00    -0.248 NA
ATOM     30  C   UNL     1       8.478  -6.511   7.883  1.00  0.00     0.031 C 
ATOM     31  C   UNL     1      10.102 -10.174   3.332  1.00  0.00     0.029 A 
ATOM     32  C   UNL     1       9.587  -9.102   4.043  1.00  0.00     0.049 A 
ATOM     33  H   UNL     1       8.383  -7.511   3.364  1.00  0.00     0.167 HD
ATOM     34  C   UNL     1       9.122  -7.777   6.086  1.00  0.00     0.074 A 
ATOM     35  C   UNL     1       9.245  -7.524   7.505  1.00  0.00     0.031 C 
ATOM     36  C   UNL     1       9.732  -8.803   5.444  1.00  0.00     0.031 A 
BRANCH  23  37
ATOM     37  C   UNL     1       8.709  -8.921  -0.652  1.00  0.00    -0.014 A 
ATOM     38  C   UNL     1       9.552  -8.355  -1.629  1.00  0.00     0.010 A 
ATOM     39  C   UNL     1       8.051 -10.130  -0.936  1.00  0.00     0.010 A 
ATOM     40  C   UNL     1       9.667  -8.938  -2.890  1.00  0.00     0.020 A 
ATOM     41  C   UNL     1       8.203 -10.744  -2.183  1.00  0.00     0.020 A 
ATOM     42  C   UNL     1       8.990 -10.129  -3.160  1.00  0.00     0.054 A 
BRANCH  42  43
ATOM     43  S   UNL     1       9.186 -10.884  -4.796  1.00  0.00     0.124 S 
ATOM     44  O   UNL     1       8.313 -10.047  -5.618  1.00  0.00    -0.237 OA
ATOM     45  O   UNL     1      10.619 -10.728  -5.050  1.00  0.00    -0.237 OA
ATOM     46  O   UNL     1       8.737 -12.255  -4.601  1.00  0.00    -0.744 OA
ENDBRANCH  42  43
ENDBRANCH  23  37
BRANCH  24  47
ATOM     47  C   UNL     1       6.784  -4.133   7.922  1.00  0.00    -0.014 A 
ATOM     48  C   UNL     1       7.817  -3.523   8.662  1.00  0.00     0.010 A 
ATOM     49  C   UNL     1       5.493  -4.177   8.478  1.00  0.00     0.010 A 
ATOM     50  C   UNL     1       7.583  -3.029   9.950  1.00  0.00     0.020 A 
ATOM     51  C   UNL     1       5.248  -3.655   9.757  1.00  0.00     0.020 A 
ATOM     52  C   UNL     1       6.300  -3.105  10.494  1.00  0.00     0.054 A 
BRANCH  52  53
ATOM     53  S   UNL     1       6.026  -2.466  12.173  1.00  0.00     0.124 S 
ATOM     54  O   UNL     1       6.695  -3.470  12.993  1.00  0.00    -0.237 OA
ATOM     55  O   UNL     1       6.674  -1.158  12.120  1.00  0.00    -0.237 OA
ATOM     56  O   UNL     1       4.570  -2.429  12.290  1.00  0.00    -0.744 OA
ENDBRANCH  52  53
ENDBRANCH  24  47
BRANCH  36  57
ATOM     57  C   UNL     1      10.650  -9.684   6.247  1.00  0.00    -0.014 A 
ATOM     58  C   UNL     1      10.151 -10.594   7.194  1.00  0.00     0.010 A 
ATOM     59  C   UNL     1      12.035  -9.641   5.999  1.00  0.00     0.010 A 
ATOM     60  C   UNL     1      11.024 -11.423   7.904  1.00  0.00     0.020 A 
ATOM     61  C   UNL     1      12.908 -10.488   6.684  1.00  0.00     0.020 A 
ATOM     62  C   UNL     1      12.397 -11.364   7.644  1.00  0.00     0.054 A 
BRANCH  62  63
ATOM     63  S   UNL     1      13.503 -12.483   8.546  1.00  0.00     0.124 S 
ATOM     64  O   UNL     1      13.517 -11.886   9.878  1.00  0.00    -0.237 OA
ATOM     65  O   UNL     1      12.815 -13.768   8.438  1.00  0.00    -0.237 OA
ATOM     66  O   UNL     1      14.762 -12.394   7.809  1.00  0.00    -0.744 OA
ENDBRANCH  62  63
ENDBRANCH  36  57
ENDBRANCH  10  11
ENDBRANCH   3   5
ENDBRANCH   2   3
ENDBRANCH   1   2
BRANCH   1  67
ATOM     67  C   UNL     1       3.659   1.745   1.670  1.00  0.00     0.274 C 
BRANCH  67  68
ATOM     68  O   UNL     1       3.412   0.363   2.022  1.00  0.00    -0.458 OA
BRANCH  68  69
ATOM     69  C   UNL     1       2.091   0.025   2.136  1.00  0.00     0.365 C 
ATOM     70  O   UNL     1       1.186   0.825   1.911  1.00  0.00    -0.245 OA
BRANCH  69  71
ATOM     71  C   UNL     1       1.863  -1.393   2.715  1.00  0.00     0.298 C 
ATOM     72  C   UNL     1       0.329  -1.576   2.780  1.00  0.00     0.115 C 
ATOM     73  N   UNL     1       2.496  -2.490   1.916  1.00  0.00    -0.323 N 
ATOM     74  C   UNL     1       0.007  -2.949   3.221  1.00  0.00    -0.006 A 
ATOM     75  C   UNL     1       2.271  -3.873   2.450  1.00  0.00     0.262 C 
ATOM     76  H   UNL     1       3.502  -2.321   1.887  1.00  0.00     0.347 HD
ATOM     77  H   UNL     1       2.056  -2.463   0.996  1.00  0.00     0.347 HD
ATOM     78  C   UNL     1       0.923  -3.966   3.091  1.00  0.00     0.083 A 
ATOM     79  C   UNL     1      -1.199  -3.505   3.698  1.00  0.00     0.003 A 
ATOM     80  N   UNL     1       0.355  -5.111   3.581  1.00  0.00    -0.353 N 
ATOM     81  C   UNL     1      -0.963  -4.866   3.904  1.00  0.00     0.046 A 
ATOM     82  C   UNL     1      -2.483  -2.985   3.935  1.00  0.00     0.010 A 
ATOM     83  H   UNL     1       0.816  -5.975   3.686  1.00  0.00     0.166 HD
ATOM     84  C   UNL     1      -1.962  -5.740   4.338  1.00  0.00     0.026 A 
ATOM     85  C   UNL     1      -3.495  -3.848   4.360  1.00  0.00     0.001 A 
ATOM     86  C   UNL     1      -3.236  -5.204   4.556  1.00  0.00     0.002 A 
BRANCH  75  87
ATOM     87  C   UNL     1       2.397  -4.929   1.337  1.00  0.00     0.016 A 
ATOM     88  C   UNL     1       1.417  -5.032   0.330  1.00  0.00     0.014 A 
ATOM     89  C   UNL     1       3.467  -5.841   1.294  1.00  0.00     0.014 A 
ATOM     90  C   UNL     1       1.533  -5.965  -0.706  1.00  0.00     0.047 A 
ATOM     91  C   UNL     1       3.613  -6.741   0.221  1.00  0.00     0.047 A 
ATOM     92  C   UNL     1       2.660  -6.777  -0.796  1.00  0.00     0.129 A 
BRANCH  92  93
ATOM     93  O   UNL     1       2.715  -7.618  -1.871  1.00  0.00    -0.406 OA
BRANCH  93  94
ATOM     94  C   UNL     1       3.934  -7.552  -2.606  1.00  0.00     0.573 C 
ATOM     95  F   UNL     1       4.336  -6.273  -2.784  1.00  0.00    -0.132 F 
ATOM     96  F   UNL     1       4.906  -8.247  -1.983  1.00  0.00    -0.132 F 
ATOM     97  F   UNL     1       3.724  -8.097  -3.824  1.00  0.00    -0.132 F 
ENDBRANCH  93  94
ENDBRANCH  92  93
ENDBRANCH  75  87
ENDBRANCH  69  71
ENDBRANCH  68  69
ENDBRANCH  67  68
ENDBRANCH   1  67
TORSDOF 17
