REMARK SMILES CC(=O)N[C@@H](CSCc1ccnc2ccccc12)C(=O)OCCOC(=O)c1ccc(-c2c3nc(c(-c4ccc(S(=O)(=O)[O-])cc4)c4ccc([nH]4)c(-c4ccc(S(=O)(=O)[O-])cc4)c4nc(c(-c5ccc(S(=O)(=O)[O-])cc5)c5ccc2[nH]5)C=C4)C=C3)cc1
REMARK SMILES IDX 22 1 21 2 19 3 20 4 5 5 4 6 1 7 2 8 3 9 6 11 7 12 8 13 9 14
REMARK SMILES IDX 10 15 18 16 11 17 13 18 17 19 12 20 14 21 16 22 15 23 23 24
REMARK SMILES IDX 24 25 25 26 26 27 27 28 28 29 86 30 29 31 85 32 30 33 31 34
REMARK SMILES IDX 32 35 79 36 33 37 84 38 78 39 80 40 34 41 83 42 77 43 76 44
REMARK SMILES IDX 35 46 65 47 46 48 64 49 47 50 50 51 63 52 81 53 48 54 49 55
REMARK SMILES IDX 62 57 82 58 51 59 36 60 37 61 45 62 38 63 44 64 39 65 40 66
REMARK SMILES IDX 41 67 42 68 43 69 66 70 67 71 75 72 68 73 74 74 69 75 70 76
REMARK SMILES IDX 71 77 72 78 73 79 52 80 53 81 61 82 54 83 60 84 55 85 56 86
REMARK SMILES IDX 57 87 58 88 59 89
REMARK H PARENT 4 10 80 45 50 56
REMARK Flexibility Score: inf
ROOT
ATOM      1  C   UNL     1      -0.155   5.816  -1.438  1.00  0.00     0.274 C 
ENDROOT
BRANCH   1   2
ATOM      2  O   UNL     1       0.355   4.492  -1.677  1.00  0.00    -0.461 OA
BRANCH   2   3
ATOM      3  C   UNL     1       1.619   4.229  -1.233  1.00  0.00     0.329 C 
ATOM      4  O   UNL     1       2.375   5.051  -0.731  1.00  0.00    -0.250 OA
BRANCH   3   5
ATOM      5  C   UNL     1       2.011   2.766  -1.491  1.00  0.00     0.202 C 
BRANCH   5   6
ATOM      6  N   UNL     1       0.846   1.939  -1.823  1.00  0.00    -0.342 N 
ATOM      7  C   UNL     1       1.471  -0.075  -0.518  1.00  0.00     0.114 C 
ATOM      8  C   UNL     1       0.500   0.704  -1.362  1.00  0.00     0.217 C 
ATOM      9  O   UNL     1      -0.616   0.263  -1.629  1.00  0.00    -0.275 OA
ATOM     10  H   UNL     1       0.223   2.333  -2.474  1.00  0.00     0.164 HD
ENDBRANCH   5   6
BRANCH   5  11
ATOM     11  C   UNL     1       3.136   2.701  -2.531  1.00  0.00     0.106 C 
BRANCH  11  12
ATOM     12  S   UNL     1       2.822   3.539  -4.140  1.00  0.00    -0.154 SA
BRANCH  12  13
ATOM     13  C   UNL     1       1.826   2.286  -5.019  1.00  0.00     0.105 C 
BRANCH  13  14
ATOM     14  C   UNL     1       2.470   0.923  -5.143  1.00  0.00    -0.027 A 
ATOM     15  C   UNL     1       3.811   0.837  -5.547  1.00  0.00     0.025 A 
ATOM     16  C   UNL     1       1.759  -0.285  -4.899  1.00  0.00     0.004 A 
ATOM     17  C   UNL     1       4.414  -0.402  -5.609  1.00  0.00     0.112 A 
ATOM     18  C   UNL     1       2.486  -1.498  -4.982  1.00  0.00     0.070 A 
ATOM     19  C   UNL     1       0.383  -0.359  -4.574  1.00  0.00     0.010 A 
ATOM     20  N   UNL     1       3.783  -1.554  -5.323  1.00  0.00    -0.256 NA
ATOM     21  C   UNL     1       1.844  -2.696  -4.698  1.00  0.00     0.029 A 
ATOM     22  C   UNL     1      -0.239  -1.576  -4.294  1.00  0.00     0.001 A 
ATOM     23  C   UNL     1       0.495  -2.748  -4.347  1.00  0.00     0.002 A 
ENDBRANCH  13  14
ENDBRANCH  12  13
ENDBRANCH  11  12
ENDBRANCH   5  11
ENDBRANCH   3   5
ENDBRANCH   2   3
ENDBRANCH   1   2
BRANCH   1  24
ATOM     24  C   UNL     1      -1.410   5.742  -0.568  1.00  0.00     0.275 C 
BRANCH  24  25
ATOM     25  O   UNL     1      -1.104   5.152   0.710  1.00  0.00    -0.458 OA
BRANCH  25  26
ATOM     26  C   UNL     1      -1.390   3.831   0.799  1.00  0.00     0.338 C 
ATOM     27  O   UNL     1      -1.915   3.133  -0.049  1.00  0.00    -0.246 OA
BRANCH  26  28
ATOM     28  C   UNL     1      -0.831   3.288   2.045  1.00  0.00     0.060 A 
ATOM     29  C   UNL     1       0.380   2.602   1.965  1.00  0.00     0.016 A 
ATOM     30  C   UNL     1      -1.539   3.333   3.244  1.00  0.00     0.016 A 
ATOM     31  C   UNL     1       0.869   1.910   3.068  1.00  0.00     0.010 A 
ATOM     32  C   UNL     1      -1.028   2.665   4.365  1.00  0.00     0.010 A 
ATOM     33  C   UNL     1       0.164   1.923   4.277  1.00  0.00    -0.014 A 
BRANCH  33  34
ATOM     34  C   UNL     1       0.654   1.095   5.410  1.00  0.00     0.031 A 
ATOM     35  C   UNL     1      -0.120  -0.121   5.848  1.00  0.00     0.074 A 
ATOM     36  C   UNL     1       1.827   1.390   6.004  1.00  0.00     0.049 A 
ATOM     37  N   UNL     1       0.123  -0.942   6.838  1.00  0.00    -0.248 NA
ATOM     38  C   UNL     1      -1.325  -0.455   5.072  1.00  0.00     0.031 C 
ATOM     39  C   UNL     1       2.701   2.509   5.643  1.00  0.00     0.029 A 
ATOM     40  N   UNL     1       2.498   0.759   7.021  1.00  0.00    -0.354 N 
ATOM     41  C   UNL     1      -0.917  -1.864   6.831  1.00  0.00     0.074 A 
ATOM     42  C   UNL     1      -1.796  -1.499   5.740  1.00  0.00     0.031 C 
ATOM     43  C   UNL     1       3.807   2.465   6.404  1.00  0.00     0.029 A 
ATOM     44  C   UNL     1       3.698   1.349   7.340  1.00  0.00     0.049 A 
ATOM     45  H   UNL     1       2.152  -0.041   7.480  1.00  0.00     0.167 HD
ATOM     46  C   UNL     1      -1.124  -2.918   7.657  1.00  0.00     0.031 A 
ATOM     47  C   UNL     1       4.603   1.040   8.288  1.00  0.00     0.031 A 
ATOM     48  C   UNL     1      -0.239  -3.299   8.726  1.00  0.00     0.049 A 
ATOM     49  C   UNL     1       4.348  -0.130   9.195  1.00  0.00     0.074 A 
ATOM     50  C   UNL     1      -0.370  -4.344   9.625  1.00  0.00     0.029 A 
ATOM     51  N   UNL     1       0.952  -2.658   9.032  1.00  0.00    -0.354 N 
ATOM     52  N   UNL     1       3.332  -0.958   9.205  1.00  0.00    -0.248 NA
ATOM     53  C   UNL     1       5.364  -0.404  10.222  1.00  0.00     0.031 C 
ATOM     54  C   UNL     1       0.730  -4.319  10.492  1.00  0.00     0.029 A 
ATOM     55  C   UNL     1       1.564  -3.282  10.107  1.00  0.00     0.049 A 
ATOM     56  H   UNL     1       1.310  -1.875   8.556  1.00  0.00     0.167 HD
ATOM     57  C   UNL     1       3.588  -1.856  10.235  1.00  0.00     0.074 A 
ATOM     58  C   UNL     1       4.867  -1.485  10.807  1.00  0.00     0.031 C 
ATOM     59  C   UNL     1       2.830  -2.892  10.672  1.00  0.00     0.031 A 
BRANCH  46  60
ATOM     60  C   UNL     1      -2.388  -3.710   7.459  1.00  0.00    -0.014 A 
ATOM     61  C   UNL     1      -2.530  -4.607   6.386  1.00  0.00     0.010 A 
ATOM     62  C   UNL     1      -3.445  -3.565   8.377  1.00  0.00     0.010 A 
ATOM     63  C   UNL     1      -3.723  -5.316   6.212  1.00  0.00     0.020 A 
ATOM     64  C   UNL     1      -4.630  -4.288   8.219  1.00  0.00     0.020 A 
ATOM     65  C   UNL     1      -4.769  -5.145   7.125  1.00  0.00     0.054 A 
BRANCH  65  66
ATOM     66  S   UNL     1      -6.305  -6.081   6.887  1.00  0.00     0.124 S 
ATOM     67  O   UNL     1      -6.958  -5.321   5.824  1.00  0.00    -0.237 OA
ATOM     68  O   UNL     1      -5.823  -7.406   6.506  1.00  0.00    -0.237 OA
ATOM     69  O   UNL     1      -6.957  -6.012   8.193  1.00  0.00    -0.744 OA
ENDBRANCH  65  66
ENDBRANCH  46  60
BRANCH  47  70
ATOM     70  C   UNL     1       5.830   1.867   8.436  1.00  0.00    -0.014 A 
ATOM     71  C   UNL     1       7.083   1.366   8.046  1.00  0.00     0.010 A 
ATOM     72  C   UNL     1       5.743   3.174   8.951  1.00  0.00     0.010 A 
ATOM     73  C   UNL     1       8.230   2.154   8.175  1.00  0.00     0.020 A 
ATOM     74  C   UNL     1       6.883   3.973   9.058  1.00  0.00     0.020 A 
ATOM     75  C   UNL     1       8.123   3.454   8.678  1.00  0.00     0.054 A 
BRANCH  75  76
ATOM     76  S   UNL     1       9.608   4.493   8.768  1.00  0.00     0.124 S 
ATOM     77  O   UNL     1      10.235   4.018   9.997  1.00  0.00    -0.237 OA
ATOM     78  O   UNL     1      10.308   4.159   7.530  1.00  0.00    -0.237 OA
ATOM     79  O   UNL     1       9.068   5.850   8.820  1.00  0.00    -0.744 OA
ENDBRANCH  75  76
ENDBRANCH  47  70
BRANCH  59  80
ATOM     80  C   UNL     1       3.381  -3.703  11.812  1.00  0.00    -0.014 A 
ATOM     81  C   UNL     1       3.379  -3.200  13.125  1.00  0.00     0.010 A 
ATOM     82  C   UNL     1       3.907  -4.983  11.566  1.00  0.00     0.010 A 
ATOM     83  C   UNL     1       3.940  -3.944  14.166  1.00  0.00     0.020 A 
ATOM     84  C   UNL     1       4.450  -5.739  12.608  1.00  0.00     0.020 A 
ATOM     85  C   UNL     1       4.483  -5.205  13.899  1.00  0.00     0.054 A 
BRANCH  85  86
ATOM     86  S   UNL     1       5.208  -6.158  15.261  1.00  0.00     0.124 S 
ATOM     87  O   UNL     1       6.530  -5.551  15.384  1.00  0.00    -0.237 OA
ATOM     88  O   UNL     1       4.290  -5.897  16.367  1.00  0.00    -0.237 OA
ATOM     89  O   UNL     1       5.196  -7.532  14.762  1.00  0.00    -0.744 OA
ENDBRANCH  85  86
ENDBRANCH  59  80
ENDBRANCH  33  34
ENDBRANCH  26  28
ENDBRANCH  25  26
ENDBRANCH  24  25
ENDBRANCH   1  24
TORSDOF 19
