REMARK SMILES O=C(OCCOC(=O)[C@H]1CC[C@@H](CNc2cccc(F)c2[N+](=O)[O-])O1)c1ccc(-c2c3nc(c(-c4ccc(S(=O)(=O)[O-])cc4)c4ccc([nH]4)c(-c4ccc(S(=O)(=O)[O-])cc4)c4nc(c(-c5ccc(S(=O)(=O)[O-])cc5)c5ccc2[nH]5)C=C4)C=C3)cc1
REMARK SMILES IDX 5 1 4 2 3 3 2 4 1 5 26 6 27 7 85 8 28 9 84 10 29 11 30 12
REMARK SMILES IDX 31 13 78 14 32 15 83 16 77 17 79 18 33 19 82 20 76 21 75 22
REMARK SMILES IDX 34 24 64 25 45 26 63 27 46 28 49 29 62 30 80 31 47 32 48 33
REMARK SMILES IDX 61 35 81 36 50 37 35 38 36 39 44 40 37 41 43 42 38 43 39 44
REMARK SMILES IDX 40 45 41 46 42 47 65 48 66 49 74 50 67 51 73 52 68 53 69 54
REMARK SMILES IDX 70 55 71 56 72 57 51 58 52 59 60 60 53 61 59 62 54 63 55 64
REMARK SMILES IDX 56 65 57 66 58 67 6 68 7 69 8 70 9 71 10 72 25 73 11 74
REMARK SMILES IDX 12 75 13 76 14 77 15 79 16 80 21 81 17 82 19 83 18 84 20 85
REMARK SMILES IDX 22 86 23 87 24 88
REMARK H PARENT 79 23 49 34 14 78
REMARK Flexibility Score: inf
ROOT
ATOM      1  C   UNL     1       4.080   0.591   5.048  1.00  0.00     0.274 C 
ENDROOT
BRANCH   1   2
ATOM      2  C   UNL     1       4.195  -0.896   4.705  1.00  0.00     0.275 C 
BRANCH   2   3
ATOM      3  O   UNL     1       4.423  -1.187   3.314  1.00  0.00    -0.458 OA
BRANCH   3   4
ATOM      4  C   UNL     1       3.573  -1.205   2.260  1.00  0.00     0.338 C 
ATOM      5  O   UNL     1       4.030  -1.501   1.156  1.00  0.00    -0.246 OA
BRANCH   4   6
ATOM      6  C   UNL     1       2.141  -0.760   2.318  1.00  0.00     0.060 A 
ATOM      7  C   UNL     1       1.339  -0.687   3.463  1.00  0.00     0.016 A 
ATOM      8  C   UNL     1       1.583  -0.316   1.102  1.00  0.00     0.016 A 
ATOM      9  C   UNL     1       0.074  -0.083   3.429  1.00  0.00     0.010 A 
ATOM     10  C   UNL     1       0.323   0.296   1.065  1.00  0.00     0.010 A 
ATOM     11  C   UNL     1      -0.433   0.436   2.238  1.00  0.00    -0.014 A 
BRANCH  11  12
ATOM     12  C   UNL     1      -1.815   0.970   2.174  1.00  0.00     0.031 A 
ATOM     13  C   UNL     1      -2.858   0.086   1.559  1.00  0.00     0.074 A 
ATOM     14  C   UNL     1      -2.141   2.188   2.654  1.00  0.00     0.049 A 
ATOM     15  N   UNL     1      -4.146   0.276   1.472  1.00  0.00    -0.248 NA
ATOM     16  C   UNL     1      -2.397  -1.202   1.009  1.00  0.00     0.031 C 
ATOM     17  C   UNL     1      -1.240   3.096   3.361  1.00  0.00     0.029 A 
ATOM     18  N   UNL     1      -3.320   2.890   2.605  1.00  0.00    -0.354 N 
ATOM     19  C   UNL     1      -4.651  -0.892   0.920  1.00  0.00     0.074 A 
ATOM     20  C   UNL     1      -3.530  -1.738   0.590  1.00  0.00     0.031 C 
ATOM     21  C   UNL     1      -1.863   4.268   3.593  1.00  0.00     0.029 A 
ATOM     22  C   UNL     1      -3.230   4.174   3.102  1.00  0.00     0.049 A 
ATOM     23  H   UNL     1      -4.155   2.511   2.247  1.00  0.00     0.167 HD
ATOM     24  C   UNL     1      -5.943  -1.254   0.761  1.00  0.00     0.031 A 
ATOM     25  C   UNL     1      -4.164   5.143   3.171  1.00  0.00     0.031 A 
ATOM     26  C   UNL     1      -7.043  -0.377   1.034  1.00  0.00     0.049 A 
ATOM     27  C   UNL     1      -5.577   4.785   2.785  1.00  0.00     0.074 A 
ATOM     28  C   UNL     1      -8.396  -0.623   0.911  1.00  0.00     0.029 A 
ATOM     29  N   UNL     1      -6.904   0.939   1.455  1.00  0.00    -0.354 N 
ATOM     30  N   UNL     1      -6.050   3.638   2.357  1.00  0.00    -0.248 NA
ATOM     31  C   UNL     1      -6.594   5.830   2.970  1.00  0.00     0.031 C 
ATOM     32  C   UNL     1      -9.075   0.569   1.194  1.00  0.00     0.029 A 
ATOM     33  C   UNL     1      -8.146   1.534   1.557  1.00  0.00     0.049 A 
ATOM     34  H   UNL     1      -6.048   1.382   1.651  1.00  0.00     0.167 HD
ATOM     35  C   UNL     1      -7.428   3.800   2.294  1.00  0.00     0.074 A 
ATOM     36  C   UNL     1      -7.708   5.162   2.706  1.00  0.00     0.031 C 
ATOM     37  C   UNL     1      -8.383   2.896   1.963  1.00  0.00     0.031 A 
BRANCH  24  38
ATOM     38  C   UNL     1      -6.188  -2.647   0.257  1.00  0.00    -0.014 A 
ATOM     39  C   UNL     1      -5.888  -3.764   1.062  1.00  0.00     0.010 A 
ATOM     40  C   UNL     1      -6.652  -2.848  -1.052  1.00  0.00     0.010 A 
ATOM     41  C   UNL     1      -5.985  -5.056   0.543  1.00  0.00     0.020 A 
ATOM     42  C   UNL     1      -6.777  -4.142  -1.566  1.00  0.00     0.020 A 
ATOM     43  C   UNL     1      -6.418  -5.235  -0.773  1.00  0.00     0.054 A 
BRANCH  43  44
ATOM     44  S   UNL     1      -6.502  -6.921  -1.434  1.00  0.00     0.124 S 
ATOM     45  O   UNL     1      -5.087  -7.250  -1.596  1.00  0.00    -0.237 OA
ATOM     46  O   UNL     1      -7.196  -7.646  -0.373  1.00  0.00    -0.237 OA
ATOM     47  O   UNL     1      -7.253  -6.769  -2.678  1.00  0.00    -0.744 OA
ENDBRANCH  43  44
ENDBRANCH  24  38
BRANCH  25  48
ATOM     48  C   UNL     1      -3.883   6.506   3.709  1.00  0.00    -0.014 A 
ATOM     49  C   UNL     1      -4.233   6.820   5.034  1.00  0.00     0.010 A 
ATOM     50  C   UNL     1      -3.430   7.537   2.864  1.00  0.00     0.010 A 
ATOM     51  C   UNL     1      -4.196   8.143   5.487  1.00  0.00     0.020 A 
ATOM     52  C   UNL     1      -3.393   8.866   3.316  1.00  0.00     0.020 A 
ATOM     53  C   UNL     1      -3.801   9.164   4.618  1.00  0.00     0.054 A 
BRANCH  53  54
ATOM     54  S   UNL     1      -3.826  10.875   5.238  1.00  0.00     0.124 S 
ATOM     55  O   UNL     1      -5.250  11.186   5.226  1.00  0.00    -0.237 OA
ATOM     56  O   UNL     1      -3.220  10.733   6.562  1.00  0.00    -0.237 OA
ATOM     57  O   UNL     1      -3.015  11.613   4.277  1.00  0.00    -0.744 OA
ENDBRANCH  53  54
ENDBRANCH  25  48
BRANCH  37  58
ATOM     58  C   UNL     1      -9.814   3.339   2.083  1.00  0.00    -0.014 A 
ATOM     59  C   UNL     1     -10.374   4.260   1.182  1.00  0.00     0.010 A 
ATOM     60  C   UNL     1     -10.620   2.773   3.087  1.00  0.00     0.010 A 
ATOM     61  C   UNL     1     -11.715   4.629   1.302  1.00  0.00     0.020 A 
ATOM     62  C   UNL     1     -11.969   3.113   3.187  1.00  0.00     0.020 A 
ATOM     63  C   UNL     1     -12.504   4.049   2.301  1.00  0.00     0.054 A 
BRANCH  63  64
ATOM     64  S   UNL     1     -14.258   4.495   2.395  1.00  0.00     0.124 S 
ATOM     65  O   UNL     1     -14.200   5.838   2.964  1.00  0.00    -0.237 OA
ATOM     66  O   UNL     1     -14.682   4.419   0.999  1.00  0.00    -0.237 OA
ATOM     67  O   UNL     1     -14.829   3.471   3.268  1.00  0.00    -0.744 OA
ENDBRANCH  63  64
ENDBRANCH  37  58
ENDBRANCH  11  12
ENDBRANCH   4   6
ENDBRANCH   3   4
ENDBRANCH   2   3
ENDBRANCH   1   2
BRANCH   1  68
ATOM     68  O   UNL     1       3.583   1.372   3.954  1.00  0.00    -0.460 OA
BRANCH  68  69
ATOM     69  C   UNL     1       4.517   2.089   3.270  1.00  0.00     0.335 C 
ATOM     70  O   UNL     1       5.702   2.149   3.591  1.00  0.00    -0.249 OA
BRANCH  69  71
ATOM     71  C   UNL     1       3.940   2.822   2.054  1.00  0.00     0.228 C 
ATOM     72  C   UNL     1       2.444   2.763   1.836  1.00  0.00     0.047 C 
ATOM     73  O   UNL     1       4.271   4.210   2.171  1.00  0.00    -0.361 OA
ATOM     74  C   UNL     1       1.916   3.999   2.488  1.00  0.00     0.037 C 
ATOM     75  C   UNL     1       3.065   4.965   2.349  1.00  0.00     0.138 C 
BRANCH  75  76
ATOM     76  C   UNL     1       3.164   5.883   3.577  1.00  0.00     0.145 C 
BRANCH  76  77
ATOM     77  N   UNL     1       2.559   7.142   3.221  1.00  0.00    -0.377 N 
ATOM     78  H   UNL     1       2.882   7.548   2.384  1.00  0.00     0.160 HD
BRANCH  77  79
ATOM     79  C   UNL     1       1.592   7.853   3.893  1.00  0.00     0.116 A 
ATOM     80  C   UNL     1       1.371   7.699   5.269  1.00  0.00     0.033 A 
ATOM     81  C   UNL     1       0.772   8.778   3.213  1.00  0.00     0.327 A 
ATOM     82  C   UNL     1       0.459   8.512   5.952  1.00  0.00     0.006 A 
ATOM     83  C   UNL     1      -0.076   9.635   3.895  1.00  0.00     0.202 A 
ATOM     84  C   UNL     1      -0.229   9.511   5.269  1.00  0.00     0.047 A 
ATOM     85  F   UNL     1      -0.707  10.618   3.245  1.00  0.00    -0.199 F 
BRANCH  81  86
ATOM     86  N   UNL     1       0.747   8.823   1.758  1.00  0.00     0.068 N 
ATOM     87  O   UNL     1       1.827   8.685   1.156  1.00  0.00    -0.258 OA
ATOM     88  O   UNL     1      -0.351   8.926   1.192  1.00  0.00    -0.258 OA
ENDBRANCH  81  86
ENDBRANCH  77  79
ENDBRANCH  76  77
ENDBRANCH  75  76
ENDBRANCH  69  71
ENDBRANCH  68  69
ENDBRANCH   1  68
TORSDOF 18
