REMARK SMILES O=C(COc1ccc(/C=C/C(=O)c2ccc(F)cc2F)cc1[N+](=O)[O-])OCCOC(=O)c1ccc(-c2c3nc(c(-c4ccc(S(=O)(=O)[O-])cc4)c4ccc([nH]4)c(-c4ccc(S(=O)(=O)[O-])cc4)c4nc(c(-c5ccc(S(=O)(=O)[O-])cc5)c5ccc2[nH]5)C=C4)C=C3)cc1
REMARK SMILES IDX 27 1 26 2 2 3 1 4 3 5 4 6 5 7 6 8 22 9 7 10 21 11 8 12 23 13
REMARK SMILES IDX 24 14 25 15 9 16 10 17 11 18 12 19 13 20 14 21 19 22 15 23
REMARK SMILES IDX 18 24 20 25 16 26 17 27 28 28 29 29 30 30 31 31 32 32 33 33
REMARK SMILES IDX 91 34 34 35 90 36 35 37 36 38 37 39 84 40 38 41 89 42 83 43
REMARK SMILES IDX 85 44 39 45 88 46 82 47 81 48 40 50 70 51 51 52 69 53 52 54
REMARK SMILES IDX 55 55 68 56 86 57 53 58 54 59 67 61 87 62 56 63 41 64 42 65
REMARK SMILES IDX 50 66 43 67 49 68 44 69 45 70 46 71 47 72 48 73 71 74 72 75
REMARK SMILES IDX 80 76 73 77 79 78 74 79 75 80 76 81 77 82 78 83 57 84 58 85
REMARK SMILES IDX 66 86 59 87 65 88 60 89 61 90 62 91 63 92 64 93
REMARK H PARENT 85 49 55 60
REMARK Flexibility Score: inf
ROOT
ATOM      1  C   UNL     1       4.528   1.196  -0.463  1.00  0.00     0.274 C 
ENDROOT
BRANCH   1   2
ATOM      2  O   UNL     1       3.119   0.917  -0.597  1.00  0.00    -0.460 OA
BRANCH   2   3
ATOM      3  C   UNL     1       2.510  -0.164  -0.055  1.00  0.00     0.344 C 
ATOM      4  O   UNL     1       1.287  -0.287  -0.112  1.00  0.00    -0.248 OA
BRANCH   3   5
ATOM      5  C   UNL     1       3.369  -1.257   0.562  1.00  0.00     0.352 C 
BRANCH   5   6
ATOM      6  O   UNL     1       4.122  -1.989  -0.407  1.00  0.00    -0.475 OA
BRANCH   6   7
ATOM      7  C   UNL     1       3.383  -3.040  -0.877  1.00  0.00     0.197 A 
ATOM      8  C   UNL     1       3.498  -4.254  -0.191  1.00  0.00     0.054 A 
ATOM      9  C   UNL     1       2.537  -2.949  -1.986  1.00  0.00     0.311 A 
ATOM     10  C   UNL     1       2.723  -5.351  -0.571  1.00  0.00     0.012 A 
ATOM     11  C   UNL     1       1.737  -4.035  -2.349  1.00  0.00     0.098 A 
ATOM     12  C   UNL     1       1.832  -5.240  -1.643  1.00  0.00    -0.018 A 
BRANCH   9  13
ATOM     13  N   UNL     1       2.491  -1.756  -2.826  1.00  0.00     0.066 N 
ATOM     14  O   UNL     1       1.413  -1.485  -3.376  1.00  0.00    -0.258 OA
ATOM     15  O   UNL     1       3.542  -1.118  -2.986  1.00  0.00    -0.258 OA
ENDBRANCH   9  13
BRANCH  12  16
ATOM     16  C   UNL     1       0.983  -6.340  -2.093  1.00  0.00     0.012 C 
ATOM     17  C   UNL     1       1.455  -7.566  -2.361  1.00  0.00     0.053 C 
BRANCH  17  18
ATOM     18  C   UNL     1       0.629  -8.593  -3.045  1.00  0.00     0.188 C 
ATOM     19  O   UNL     1       0.841  -9.787  -2.869  1.00  0.00    -0.289 OA
BRANCH  18  20
ATOM     20  C   UNL     1      -0.428  -8.165  -3.984  1.00  0.00     0.058 A 
ATOM     21  C   UNL     1      -1.690  -8.762  -3.901  1.00  0.00     0.018 A 
ATOM     22  C   UNL     1      -0.182  -7.191  -4.958  1.00  0.00     0.137 A 
ATOM     23  C   UNL     1      -2.705  -8.348  -4.767  1.00  0.00     0.040 A 
ATOM     24  C   UNL     1      -1.190  -6.774  -5.818  1.00  0.00     0.079 A 
ATOM     25  F   UNL     1       1.032  -6.635  -5.089  1.00  0.00    -0.206 F 
ATOM     26  C   UNL     1      -2.446  -7.356  -5.712  1.00  0.00     0.126 A 
ATOM     27  F   UNL     1      -3.424  -6.960  -6.537  1.00  0.00    -0.207 F 
ENDBRANCH  18  20
ENDBRANCH  17  18
ENDBRANCH  12  16
ENDBRANCH   6   7
ENDBRANCH   5   6
ENDBRANCH   3   5
ENDBRANCH   2   3
ENDBRANCH   1   2
BRANCH   1  28
ATOM     28  C   UNL     1       4.781   2.138   0.716  1.00  0.00     0.275 C 
BRANCH  28  29
ATOM     29  O   UNL     1       4.327   1.532   1.941  1.00  0.00    -0.458 OA
BRANCH  29  30
ATOM     30  C   UNL     1       3.070   1.884   2.324  1.00  0.00     0.338 C 
ATOM     31  O   UNL     1       2.373   2.744   1.828  1.00  0.00    -0.246 OA
BRANCH  30  32
ATOM     32  C   UNL     1       2.584   0.905   3.324  1.00  0.00     0.060 A 
ATOM     33  C   UNL     1       1.266   0.447   3.208  1.00  0.00     0.016 A 
ATOM     34  C   UNL     1       3.400   0.451   4.365  1.00  0.00     0.016 A 
ATOM     35  C   UNL     1       0.740  -0.420   4.167  1.00  0.00     0.010 A 
ATOM     36  C   UNL     1       2.869  -0.411   5.330  1.00  0.00     0.010 A 
ATOM     37  C   UNL     1       1.524  -0.812   5.259  1.00  0.00    -0.014 A 
BRANCH  37  38
ATOM     38  C   UNL     1       0.872  -1.440   6.435  1.00  0.00     0.031 A 
ATOM     39  C   UNL     1       0.432  -0.542   7.562  1.00  0.00     0.074 A 
ATOM     40  C   UNL     1       0.645  -2.764   6.498  1.00  0.00     0.049 A 
ATOM     41  N   UNL     1      -0.196  -0.846   8.668  1.00  0.00    -0.248 NA
ATOM     42  C   UNL     1       0.744   0.890   7.419  1.00  0.00     0.031 C 
ATOM     43  C   UNL     1       0.992  -3.736   5.463  1.00  0.00     0.029 A 
ATOM     44  N   UNL     1       0.059  -3.516   7.485  1.00  0.00    -0.354 N 
ATOM     45  C   UNL     1      -0.355   0.355   9.351  1.00  0.00     0.074 A 
ATOM     46  C   UNL     1       0.275   1.385   8.554  1.00  0.00     0.031 C 
ATOM     47  C   UNL     1       0.607  -4.960   5.870  1.00  0.00     0.029 A 
ATOM     48  C   UNL     1       0.003  -4.859   7.198  1.00  0.00     0.049 A 
ATOM     49  H   UNL     1      -0.290  -3.129   8.320  1.00  0.00     0.167 HD
ATOM     50  C   UNL     1      -0.977   0.586  10.531  1.00  0.00     0.031 A 
ATOM     51  C   UNL     1      -0.480  -5.886   7.926  1.00  0.00     0.031 A 
ATOM     52  C   UNL     1      -1.584  -0.437  11.337  1.00  0.00     0.049 A 
ATOM     53  C   UNL     1      -1.108  -5.613   9.270  1.00  0.00     0.074 A 
ATOM     54  C   UNL     1      -2.255  -0.301  12.539  1.00  0.00     0.029 A 
ATOM     55  N   UNL     1      -1.582  -1.789  11.030  1.00  0.00    -0.354 N 
ATOM     56  N   UNL     1      -1.296  -4.466   9.878  1.00  0.00    -0.248 NA
ATOM     57  C   UNL     1      -1.604  -6.778  10.018  1.00  0.00     0.031 C 
ATOM     58  C   UNL     1      -2.610  -1.578  12.987  1.00  0.00     0.029 A 
ATOM     59  C   UNL     1      -2.214  -2.502  12.033  1.00  0.00     0.049 A 
ATOM     60  H   UNL     1      -1.189  -2.183  10.218  1.00  0.00     0.167 HD
ATOM     61  C   UNL     1      -1.967  -4.768  11.060  1.00  0.00     0.074 A 
ATOM     62  C   UNL     1      -2.156  -6.204  11.078  1.00  0.00     0.031 C 
ATOM     63  C   UNL     1      -2.397  -3.931  12.038  1.00  0.00     0.031 A 
BRANCH  50  64
ATOM     64  C   UNL     1      -0.989   2.004  11.034  1.00  0.00    -0.014 A 
ATOM     65  C   UNL     1      -1.776   2.992  10.413  1.00  0.00     0.010 A 
ATOM     66  C   UNL     1      -0.205   2.352  12.148  1.00  0.00     0.010 A 
ATOM     67  C   UNL     1      -1.740   4.313  10.869  1.00  0.00     0.020 A 
ATOM     68  C   UNL     1      -0.188   3.666  12.624  1.00  0.00     0.020 A 
ATOM     69  C   UNL     1      -0.940   4.642  11.967  1.00  0.00     0.054 A 
BRANCH  69  70
ATOM     70  S   UNL     1      -0.910   6.362  12.540  1.00  0.00     0.124 S 
ATOM     71  O   UNL     1      -0.109   7.010  11.504  1.00  0.00    -0.237 OA
ATOM     72  O   UNL     1      -2.326   6.721  12.554  1.00  0.00    -0.237 OA
ATOM     73  O   UNL     1      -0.279   6.279  13.854  1.00  0.00    -0.744 OA
ENDBRANCH  69  70
ENDBRANCH  50  64
BRANCH  51  74
ATOM     74  C   UNL     1      -0.407  -7.276   7.398  1.00  0.00    -0.014 A 
ATOM     75  C   UNL     1      -1.575  -7.954   7.006  1.00  0.00     0.010 A 
ATOM     76  C   UNL     1       0.831  -7.937   7.302  1.00  0.00     0.010 A 
ATOM     77  C   UNL     1      -1.509  -9.273   6.548  1.00  0.00     0.020 A 
ATOM     78  C   UNL     1       0.904  -9.247   6.820  1.00  0.00     0.020 A 
ATOM     79  C   UNL     1      -0.269  -9.911   6.457  1.00  0.00     0.054 A 
BRANCH  79  80
ATOM     80  S   UNL     1      -0.202 -11.607   5.815  1.00  0.00     0.124 S 
ATOM     81  O   UNL     1      -0.734 -12.377   6.935  1.00  0.00    -0.237 OA
ATOM     82  O   UNL     1      -1.058 -11.530   4.634  1.00  0.00    -0.237 OA
ATOM     83  O   UNL     1       1.218 -11.807   5.534  1.00  0.00    -0.744 OA
ENDBRANCH  79  80
ENDBRANCH  51  74
BRANCH  63  84
ATOM     84  C   UNL     1      -3.158  -4.536  13.189  1.00  0.00    -0.014 A 
ATOM     85  C   UNL     1      -2.518  -5.323  14.162  1.00  0.00     0.010 A 
ATOM     86  C   UNL     1      -4.534  -4.269  13.323  1.00  0.00     0.010 A 
ATOM     87  C   UNL     1      -3.247  -5.865  15.225  1.00  0.00     0.020 A 
ATOM     88  C   UNL     1      -5.260  -4.784  14.399  1.00  0.00     0.020 A 
ATOM     89  C   UNL     1      -4.614  -5.594  15.335  1.00  0.00     0.054 A 
BRANCH  89  90
ATOM     90  S   UNL     1      -5.534  -6.282  16.739  1.00  0.00     0.124 S 
ATOM     91  O   UNL     1      -5.670  -7.684  16.354  1.00  0.00    -0.237 OA
ATOM     92  O   UNL     1      -4.642  -6.024  17.866  1.00  0.00    -0.237 OA
ATOM     93  O   UNL     1      -6.777  -5.514  16.748  1.00  0.00    -0.744 OA
ENDBRANCH  89  90
ENDBRANCH  63  84
ENDBRANCH  37  38
ENDBRANCH  30  32
ENDBRANCH  29  30
ENDBRANCH  28  29
ENDBRANCH   1  28
TORSDOF 20
