REMARK SMILES CC1(C)CCCC[C@@]1(C(=O)OCCOC(=O)c1ccc(-c2c3nc(c(-c4ccc(S(=O)(=O)[O-])cc4)c4ccc([nH]4)c(-c4ccc(S(=O)(=O)[O-])cc4)c4nc(c(-c5ccc(S(=O)(=O)[O-])cc5)c5ccc2[nH]5)C=C4)C=C3)cc1)[NH+]1CC[NH2+]CC1
REMARK SMILES IDX 13 1 12 2 11 3 9 4 10 5 8 6 1 7 2 8 3 9 4 10 5 11 7 12 6 13
REMARK SMILES IDX 77 14 78 15 82 16 79 18 81 19 80 20 14 23 15 24 16 25 17 26
REMARK SMILES IDX 18 27 76 28 19 29 75 30 20 31 21 32 22 33 69 34 23 35 74 36
REMARK SMILES IDX 68 37 70 38 24 39 73 40 67 41 66 42 25 44 55 45 36 46 54 47
REMARK SMILES IDX 37 48 40 49 53 50 71 51 38 52 39 53 52 55 72 56 41 57 26 58
REMARK SMILES IDX 27 59 35 60 28 61 34 62 29 63 30 64 31 65 32 66 33 67 56 68
REMARK SMILES IDX 57 69 65 70 58 71 64 72 59 73 60 74 61 75 62 76 63 77 42 78
REMARK SMILES IDX 43 79 51 80 44 81 50 82 45 83 46 84 47 85 48 86 49 87
REMARK H PARENT 77 17 80 21 80 22 70 43 40 54
REMARK Flexibility Score: inf
ROOT
ATOM      1  C   UNL     1      -2.817  -4.441  -1.405  1.00  0.00     0.275 C 
ENDROOT
BRANCH   1   2
ATOM      2  C   UNL     1      -3.083  -3.102  -0.716  1.00  0.00     0.274 C 
BRANCH   2   3
ATOM      3  O   UNL     1      -1.895  -2.284  -0.630  1.00  0.00    -0.457 OA
BRANCH   3   4
ATOM      4  C   UNL     1      -1.143  -2.427   0.491  1.00  0.00     0.368 C 
ATOM      5  O   UNL     1      -1.390  -3.279   1.341  1.00  0.00    -0.245 OA
BRANCH   4   6
ATOM      6  C   UNL     1      -0.067  -1.277   0.726  1.00  0.00     0.201 C 
ATOM      7  C   UNL     1       1.649   0.362  -0.502  1.00  0.00     0.018 C 
ATOM      8  C   UNL     1       0.569  -0.748  -0.672  1.00  0.00     0.031 C 
ATOM      9  C   UNL     1      -0.471  -0.149  -1.651  1.00  0.00     0.018 C 
ATOM     10  C   UNL     1       1.286  -1.929  -1.401  1.00  0.00     0.013 C 
ATOM     11  C   UNL     1       2.409  -2.536  -0.567  1.00  0.00     0.001 C 
ATOM     12  C   UNL     1       1.096  -1.970   1.541  1.00  0.00     0.082 C 
ATOM     13  C   UNL     1       1.876  -3.031   0.760  1.00  0.00     0.007 C 
BRANCH   6  14
ATOM     14  N   UNL     1      -0.800  -0.219   1.577  1.00  0.00    -0.311 N 
ATOM     15  C   UNL     1       0.034   0.887   2.084  1.00  0.00     0.325 C 
ATOM     16  C   UNL     1      -1.561  -0.820   2.720  1.00  0.00     0.325 C 
ATOM     17  H   UNL     1      -1.447   0.189   0.903  1.00  0.00     0.349 HD
ATOM     18  C   UNL     1      -0.670   1.845   3.075  1.00  0.00     0.322 C 
ATOM     19  C   UNL     1      -2.197   0.167   3.724  1.00  0.00     0.322 C 
ATOM     20  N   UNL     1      -1.244   1.156   4.234  1.00  0.00    -0.337 N 
ATOM     21  H   UNL     1      -1.724   1.825   4.836  1.00  0.00     0.346 HD
ATOM     22  H   UNL     1      -0.514   0.704   4.784  1.00  0.00     0.346 HD
ENDBRANCH   6  14
ENDBRANCH   4   6
ENDBRANCH   3   4
ENDBRANCH   2   3
ENDBRANCH   1   2
BRANCH   1  23
ATOM     23  O   UNL     1      -1.996  -5.262  -0.562  1.00  0.00    -0.458 OA
BRANCH  23  24
ATOM     24  C   UNL     1      -1.058  -6.017  -1.182  1.00  0.00     0.338 C 
ATOM     25  O   UNL     1      -0.932  -6.155  -2.388  1.00  0.00    -0.246 OA
BRANCH  24  26
ATOM     26  C   UNL     1      -0.137  -6.629  -0.187  1.00  0.00     0.060 A 
ATOM     27  C   UNL     1       0.025  -6.087   1.087  1.00  0.00     0.016 A 
ATOM     28  C   UNL     1       0.678  -7.693  -0.571  1.00  0.00     0.016 A 
ATOM     29  C   UNL     1       1.082  -6.484   1.903  1.00  0.00     0.010 A 
ATOM     30  C   UNL     1       1.651  -8.187   0.310  1.00  0.00     0.010 A 
ATOM     31  C   UNL     1       1.901  -7.558   1.544  1.00  0.00    -0.014 A 
BRANCH  31  32
ATOM     32  C   UNL     1       3.029  -8.001   2.417  1.00  0.00     0.031 A 
ATOM     33  C   UNL     1       4.406  -8.189   1.826  1.00  0.00     0.074 A 
ATOM     34  C   UNL     1       2.852  -8.245   3.734  1.00  0.00     0.049 A 
ATOM     35  N   UNL     1       5.420  -8.869   2.296  1.00  0.00    -0.248 NA
ATOM     36  C   UNL     1       4.668  -7.550   0.525  1.00  0.00     0.031 C 
ATOM     37  C   UNL     1       1.612  -8.042   4.488  1.00  0.00     0.029 A 
ATOM     38  N   UNL     1       3.731  -8.719   4.679  1.00  0.00    -0.354 N 
ATOM     39  C   UNL     1       6.395  -8.830   1.306  1.00  0.00     0.074 A 
ATOM     40  C   UNL     1       5.868  -8.027   0.224  1.00  0.00     0.031 C 
ATOM     41  C   UNL     1       1.824  -8.332   5.780  1.00  0.00     0.029 A 
ATOM     42  C   UNL     1       3.171  -8.867   5.927  1.00  0.00     0.049 A 
ATOM     43  H   UNL     1       4.672  -8.931   4.482  1.00  0.00     0.167 HD
ATOM     44  C   UNL     1       7.609  -9.431   1.295  1.00  0.00     0.031 A 
ATOM     45  C   UNL     1       3.648  -9.434   7.052  1.00  0.00     0.031 A 
ATOM     46  C   UNL     1       8.160 -10.155   2.410  1.00  0.00     0.049 A 
ATOM     47  C   UNL     1       4.996 -10.092   7.024  1.00  0.00     0.074 A 
ATOM     48  C   UNL     1       9.379 -10.806   2.499  1.00  0.00     0.029 A 
ATOM     49  N   UNL     1       7.544 -10.290   3.644  1.00  0.00    -0.354 N 
ATOM     50  N   UNL     1       5.849 -10.174   6.032  1.00  0.00    -0.248 NA
ATOM     51  C   UNL     1       5.428 -10.767   8.255  1.00  0.00     0.031 C 
ATOM     52  C   UNL     1       9.491 -11.351   3.783  1.00  0.00     0.029 A 
ATOM     53  C   UNL     1       8.358 -11.008   4.502  1.00  0.00     0.049 A 
ATOM     54  H   UNL     1       6.658  -9.928   3.876  1.00  0.00     0.167 HD
ATOM     55  C   UNL     1       6.917 -10.918   6.517  1.00  0.00     0.074 A 
ATOM     56  C   UNL     1       6.617 -11.237   7.898  1.00  0.00     0.031 C 
ATOM     57  C   UNL     1       8.041 -11.313   5.872  1.00  0.00     0.031 A 
BRANCH  44  58
ATOM     58  C   UNL     1       8.407  -9.386   0.021  1.00  0.00    -0.014 A 
ATOM     59  C   UNL     1       9.114  -8.238  -0.373  1.00  0.00     0.010 A 
ATOM     60  C   UNL     1       8.501 -10.553  -0.763  1.00  0.00     0.010 A 
ATOM     61  C   UNL     1       9.884  -8.251  -1.541  1.00  0.00     0.020 A 
ATOM     62  C   UNL     1       9.285 -10.576  -1.919  1.00  0.00     0.020 A 
ATOM     63  C   UNL     1       9.963  -9.419  -2.308  1.00  0.00     0.054 A 
BRANCH  63  64
ATOM     64  S   UNL     1      11.006  -9.429  -3.793  1.00  0.00     0.124 S 
ATOM     65  O   UNL     1      10.165  -8.721  -4.755  1.00  0.00    -0.237 OA
ATOM     66  O   UNL     1      12.200  -8.710  -3.355  1.00  0.00    -0.237 OA
ATOM     67  O   UNL     1      11.206 -10.850  -4.066  1.00  0.00    -0.744 OA
ENDBRANCH  63  64
ENDBRANCH  44  58
BRANCH  45  68
ATOM     68  C   UNL     1       2.798  -9.485   8.272  1.00  0.00    -0.014 A 
ATOM     69  C   UNL     1       3.105  -8.692   9.390  1.00  0.00     0.010 A 
ATOM     70  C   UNL     1       1.655 -10.306   8.306  1.00  0.00     0.010 A 
ATOM     71  C   UNL     1       2.282  -8.716  10.521  1.00  0.00     0.020 A 
ATOM     72  C   UNL     1       0.815 -10.310   9.422  1.00  0.00     0.020 A 
ATOM     73  C   UNL     1       1.139  -9.521  10.527  1.00  0.00     0.054 A 
BRANCH  73  74
ATOM     74  S   UNL     1       0.030  -9.480  11.963  1.00  0.00     0.124 S 
ATOM     75  O   UNL     1       0.674 -10.425  12.869  1.00  0.00    -0.237 OA
ATOM     76  O   UNL     1       0.080  -8.078  12.370  1.00  0.00    -0.237 OA
ATOM     77  O   UNL     1      -1.252  -9.912  11.410  1.00  0.00    -0.744 OA
ENDBRANCH  73  74
ENDBRANCH  45  68
BRANCH  57  78
ATOM     78  C   UNL     1       9.037 -12.108   6.664  1.00  0.00    -0.014 A 
ATOM     79  C   UNL     1       8.831 -13.475   6.917  1.00  0.00     0.010 A 
ATOM     80  C   UNL     1      10.209 -11.487   7.129  1.00  0.00     0.010 A 
ATOM     81  C   UNL     1       9.771 -14.203   7.651  1.00  0.00     0.020 A 
ATOM     82  C   UNL     1      11.158 -12.216   7.848  1.00  0.00     0.020 A 
ATOM     83  C   UNL     1      10.925 -13.567   8.117  1.00  0.00     0.054 A 
BRANCH  83  84
ATOM     84  S   UNL     1      12.149 -14.535   9.042  1.00  0.00     0.124 S 
ATOM     85  O   UNL     1      11.541 -14.603  10.368  1.00  0.00    -0.237 OA
ATOM     86  O   UNL     1      12.190 -15.796   8.305  1.00  0.00    -0.237 OA
ATOM     87  O   UNL     1      13.364 -13.729   8.953  1.00  0.00    -0.744 OA
ENDBRANCH  83  84
ENDBRANCH  57  78
ENDBRANCH  31  32
ENDBRANCH  24  26
ENDBRANCH  23  24
ENDBRANCH   1  23
TORSDOF 15
