REMARK SMILES CCC(CC)COc1cc2c(cc1Cl)C=C(C(=O)OCCOC(=O)c1ccc(-c3c4nc(c(-c5ccc(S(=O)(=O)[O-])cc5)c5ccc([nH]5)c(-c5ccc(S(=O)(=O)[O-])cc5)c5nc(c(-c6ccc(S(=O)(=O)[O-])cc6)c6ccc3[nH]6)C=C5)C=C4)cc1)[C@@H](C(F)(F)F)O2
REMARK SMILES IDX 20 1 19 2 17 3 18 4 16 5 8 6 9 7 13 8 10 9 12 10 14 11 11 12
REMARK SMILES IDX 90 13 15 14 85 15 7 16 6 17 3 18 2 19 1 20 4 21 5 22 86 23
REMARK SMILES IDX 87 24 88 25 89 26 21 27 22 28 23 29 24 30 25 31 26 32 84 33
REMARK SMILES IDX 27 34 83 35 28 36 29 37 30 38 77 39 31 40 82 41 76 42 78 43
REMARK SMILES IDX 32 44 81 45 75 46 74 47 33 49 63 50 44 51 62 52 45 53 48 54
REMARK SMILES IDX 61 55 79 56 46 57 47 58 60 60 80 61 49 62 34 63 35 64 43 65
REMARK SMILES IDX 36 66 42 67 37 68 38 69 39 70 40 71 41 72 64 73 65 74 73 75
REMARK SMILES IDX 66 76 72 77 67 78 68 79 69 80 70 81 71 82 50 83 51 84 59 85
REMARK SMILES IDX 52 86 58 87 53 88 54 89 55 90 56 91 57 92
REMARK H PARENT 78 48 48 59
REMARK Flexibility Score: inf
ROOT
ATOM      1  C   UNL     1      -1.666   6.227  -7.660  1.00  0.00     0.275 C 
ENDROOT
BRANCH   1   2
ATOM      2  O   UNL     1      -1.474   4.829  -7.342  1.00  0.00    -0.459 OA
BRANCH   2   3
ATOM      3  C   UNL     1      -0.347   4.570  -6.634  1.00  0.00     0.338 C 
ATOM      4  O   UNL     1       0.466   5.396  -6.267  1.00  0.00    -0.246 OA
BRANCH   3   5
ATOM      5  C   UNL     1      -0.217   3.136  -6.300  1.00  0.00     0.087 C 
ATOM      6  C   UNL     1       1.100  -1.148  -4.062  1.00  0.00     0.141 A 
ATOM      7  C   UNL     1       0.224  -0.863  -5.122  1.00  0.00     0.095 A 
ATOM      8  C   UNL     1       1.919  -0.140  -3.543  1.00  0.00     0.083 A 
ATOM      9  C   UNL     1       0.082   0.458  -5.561  1.00  0.00     0.131 A 
ATOM     10  C   UNL     1       1.677   1.182  -3.885  1.00  0.00     0.036 A 
ATOM     11  Cl  UNL     1       3.242  -0.457  -2.484  1.00  0.00    -0.080 Cl
ATOM     12  C   UNL     1       0.740   1.476  -4.872  1.00  0.00     0.019 A 
ATOM     13  O   UNL     1      -0.729   0.721  -6.638  1.00  0.00    -0.475 OA
ATOM     14  C   UNL     1       0.455   2.859  -5.178  1.00  0.00     0.027 C 
ATOM     15  C   UNL     1      -0.588   2.044  -7.263  1.00  0.00     0.316 C 
BRANCH   6  16
ATOM     16  O   UNL     1       1.186  -2.425  -3.569  1.00  0.00    -0.492 OA
BRANCH  16  17
ATOM     17  C   UNL     1       0.178  -2.711  -2.566  1.00  0.00     0.233 C 
BRANCH  17  18
ATOM     18  C   UNL     1       0.546  -2.193  -1.147  1.00  0.00     0.026 C 
BRANCH  18  19
ATOM     19  C   UNL     1      -0.096  -0.812  -0.870  1.00  0.00     0.003 C 
ATOM     20  C   UNL     1       0.521  -0.087   0.319  1.00  0.00     0.004 C 
ENDBRANCH  18  19
BRANCH  18  21
ATOM     21  C   UNL     1       0.212  -3.218  -0.040  1.00  0.00     0.003 C 
ATOM     22  C   UNL     1      -1.268  -3.471   0.199  1.00  0.00     0.004 C 
ENDBRANCH  18  21
ENDBRANCH  17  18
ENDBRANCH  16  17
ENDBRANCH   6  16
BRANCH  15  23
ATOM     23  C   UNL     1       0.449   2.017  -8.404  1.00  0.00     0.430 C 
ATOM     24  F   UNL     1       0.182   1.045  -9.307  1.00  0.00    -0.167 F 
ATOM     25  F   UNL     1       0.452   3.190  -9.086  1.00  0.00    -0.167 F 
ATOM     26  F   UNL     1       1.710   1.817  -7.955  1.00  0.00    -0.167 F 
ENDBRANCH  15  23
ENDBRANCH   3   5
ENDBRANCH   2   3
ENDBRANCH   1   2
BRANCH   1  27
ATOM     27  C   UNL     1      -2.684   6.903  -6.737  1.00  0.00     0.275 C 
BRANCH  27  28
ATOM     28  O   UNL     1      -2.209   6.966  -5.380  1.00  0.00    -0.458 OA
BRANCH  28  29
ATOM     29  C   UNL     1      -2.769   6.074  -4.532  1.00  0.00     0.338 C 
ATOM     30  O   UNL     1      -3.621   5.237  -4.796  1.00  0.00    -0.246 OA
BRANCH  29  31
ATOM     31  C   UNL     1      -2.122   6.156  -3.215  1.00  0.00     0.060 A 
ATOM     32  C   UNL     1      -2.733   6.767  -2.127  1.00  0.00     0.016 A 
ATOM     33  C   UNL     1      -0.937   5.451  -3.040  1.00  0.00     0.016 A 
ATOM     34  C   UNL     1      -2.125   6.676  -0.866  1.00  0.00     0.010 A 
ATOM     35  C   UNL     1      -0.398   5.261  -1.771  1.00  0.00     0.010 A 
ATOM     36  C   UNL     1      -0.967   5.892  -0.662  1.00  0.00    -0.014 A 
BRANCH  36  37
ATOM     37  C   UNL     1      -0.368   5.717   0.696  1.00  0.00     0.031 A 
ATOM     38  C   UNL     1       1.081   6.060   0.965  1.00  0.00     0.074 A 
ATOM     39  C   UNL     1      -1.122   5.211   1.696  1.00  0.00     0.049 A 
ATOM     40  N   UNL     1       1.740   6.008   2.096  1.00  0.00    -0.248 NA
ATOM     41  C   UNL     1       1.910   6.478  -0.179  1.00  0.00     0.031 C 
ATOM     42  C   UNL     1      -2.502   4.739   1.554  1.00  0.00     0.029 A 
ATOM     43  N   UNL     1      -0.851   5.031   3.032  1.00  0.00    -0.354 N 
ATOM     44  C   UNL     1       3.050   6.369   1.794  1.00  0.00     0.074 A 
ATOM     45  C   UNL     1       3.116   6.559   0.365  1.00  0.00     0.031 C 
ATOM     46  C   UNL     1      -2.984   4.416   2.763  1.00  0.00     0.029 A 
ATOM     47  C   UNL     1      -1.938   4.607   3.764  1.00  0.00     0.049 A 
ATOM     48  H   UNL     1       0.036   5.191   3.428  1.00  0.00     0.167 HD
ATOM     49  C   UNL     1       4.094   6.573   2.633  1.00  0.00     0.031 A 
ATOM     50  C   UNL     1      -2.095   4.418   5.090  1.00  0.00     0.031 A 
ATOM     51  C   UNL     1       4.009   6.442   4.064  1.00  0.00     0.049 A 
ATOM     52  C   UNL     1      -0.944   4.708   6.013  1.00  0.00     0.074 A 
ATOM     53  C   UNL     1       4.986   6.713   5.005  1.00  0.00     0.029 A 
ATOM     54  N   UNL     1       2.885   6.026   4.759  1.00  0.00    -0.354 N 
ATOM     55  N   UNL     1       0.259   5.134   5.712  1.00  0.00    -0.248 NA
ATOM     56  C   UNL     1      -1.170   4.508   7.452  1.00  0.00     0.031 C 
ATOM     57  C   UNL     1       4.472   6.408   6.266  1.00  0.00     0.029 A 
ATOM     58  C   UNL     1       3.151   6.015   6.117  1.00  0.00     0.049 A 
ATOM     59  H   UNL     1       2.026   5.776   4.349  1.00  0.00     0.167 HD
ATOM     60  C   UNL     1       0.929   5.266   6.923  1.00  0.00     0.074 A 
ATOM     61  C   UNL     1      -0.008   4.897   7.963  1.00  0.00     0.031 C 
ATOM     62  C   UNL     1       2.209   5.651   7.147  1.00  0.00     0.031 A 
BRANCH  49  63
ATOM     63  C   UNL     1       5.411   7.023   2.049  1.00  0.00    -0.014 A 
ATOM     64  C   UNL     1       6.556   6.213   2.173  1.00  0.00     0.010 A 
ATOM     65  C   UNL     1       5.546   8.308   1.489  1.00  0.00     0.010 A 
ATOM     66  C   UNL     1       7.811   6.689   1.780  1.00  0.00     0.020 A 
ATOM     67  C   UNL     1       6.793   8.774   1.063  1.00  0.00     0.020 A 
ATOM     68  C   UNL     1       7.922   7.971   1.236  1.00  0.00     0.054 A 
BRANCH  68  69
ATOM     69  S   UNL     1       9.561   8.588   0.763  1.00  0.00     0.124 S 
ATOM     70  O   UNL     1      10.161   8.895   2.058  1.00  0.00    -0.237 OA
ATOM     71  O   UNL     1      10.139   7.450   0.052  1.00  0.00    -0.237 OA
ATOM     72  O   UNL     1       9.260   9.746  -0.077  1.00  0.00    -0.744 OA
ENDBRANCH  68  69
ENDBRANCH  49  63
BRANCH  50  73
ATOM     73  C   UNL     1      -3.432   4.012   5.612  1.00  0.00    -0.014 A 
ATOM     74  C   UNL     1      -3.958   2.738   5.327  1.00  0.00     0.010 A 
ATOM     75  C   UNL     1      -4.230   4.937   6.309  1.00  0.00     0.010 A 
ATOM     76  C   UNL     1      -5.275   2.420   5.671  1.00  0.00     0.020 A 
ATOM     77  C   UNL     1      -5.538   4.611   6.684  1.00  0.00     0.020 A 
ATOM     78  C   UNL     1      -6.062   3.366   6.331  1.00  0.00     0.054 A 
BRANCH  78  79
ATOM     79  S   UNL     1      -7.792   2.958   6.702  1.00  0.00     0.124 S 
ATOM     80  O   UNL     1      -8.418   3.092   5.389  1.00  0.00    -0.237 OA
ATOM     81  O   UNL     1      -7.695   1.594   7.216  1.00  0.00    -0.237 OA
ATOM     82  O   UNL     1      -8.178   3.966   7.686  1.00  0.00    -0.744 OA
ENDBRANCH  78  79
ENDBRANCH  50  73
BRANCH  62  83
ATOM     83  C   UNL     1       2.706   5.698   8.568  1.00  0.00    -0.014 A 
ATOM     84  C   UNL     1       3.051   6.935   9.145  1.00  0.00     0.010 A 
ATOM     85  C   UNL     1       2.983   4.512   9.270  1.00  0.00     0.010 A 
ATOM     86  C   UNL     1       3.706   6.984  10.378  1.00  0.00     0.020 A 
ATOM     87  C   UNL     1       3.612   4.559  10.517  1.00  0.00     0.020 A 
ATOM     88  C   UNL     1       3.995   5.793  11.049  1.00  0.00     0.054 A 
BRANCH  88  89
ATOM     89  S   UNL     1       4.896   5.873  12.622  1.00  0.00     0.124 S 
ATOM     90  O   UNL     1       6.259   6.153  12.182  1.00  0.00    -0.237 OA
ATOM     91  O   UNL     1       4.222   6.964  13.322  1.00  0.00    -0.237 OA
ATOM     92  O   UNL     1       4.687   4.548  13.203  1.00  0.00    -0.744 OA
ENDBRANCH  88  89
ENDBRANCH  62  83
ENDBRANCH  36  37
ENDBRANCH  29  31
ENDBRANCH  28  29
ENDBRANCH  27  28
ENDBRANCH   1  27
TORSDOF 20
