REMARK SMILES Cc1cc2cc(-c3ccc([C@@H](C)C(=O)OCCOC(=O)c4ccc(-c5c6nc(c(-c7ccc(S(=O)(=O)[O-])cc7)c7ccc([nH]7)c(-c7ccc(S(=O)(=O)[O-])cc7)c7nc(c(-c8ccc(S(=O)(=O)[O-])cc8)c8ccc5[nH]8)C=C7)C=C6)cc4)cc3)ccc2[nH]1
REMARK SMILES IDX 17 1 16 2 15 3 13 4 14 5 11 6 12 7 10 8 7 9 8 10 82 11 9 12
REMARK SMILES IDX 81 13 6 14 1 15 2 16 3 17 86 18 4 19 85 20 5 22 84 23 83 24
REMARK SMILES IDX 18 25 19 26 20 27 21 28 22 29 80 30 23 31 79 32 24 33 25 34
REMARK SMILES IDX 26 35 73 36 27 37 78 38 72 39 74 40 28 41 77 42 71 43 70 44
REMARK SMILES IDX 29 46 59 47 40 48 58 49 41 50 44 51 57 52 75 53 42 54 43 55
REMARK SMILES IDX 56 57 76 58 45 59 30 60 31 61 39 62 32 63 38 64 33 65 34 66
REMARK SMILES IDX 35 67 36 68 37 69 60 70 61 71 69 72 62 73 68 74 63 75 64 76
REMARK SMILES IDX 65 77 66 78 67 79 46 80 47 81 55 82 48 83 54 84 49 85 50 86
REMARK SMILES IDX 51 87 52 88 53 89
REMARK H PARENT 86 21 74 45 44 56
REMARK Flexibility Score: inf
ROOT
ATOM      1  C   UNL     1       8.782  -1.856  -3.753  1.00  0.00     0.275 C 
ENDROOT
BRANCH   1   2
ATOM      2  C   UNL     1       8.482  -3.351  -3.630  1.00  0.00     0.274 C 
BRANCH   2   3
ATOM      3  O   UNL     1       7.596  -3.616  -2.526  1.00  0.00    -0.462 OA
BRANCH   3   4
ATOM      4  C   UNL     1       8.165  -4.077  -1.381  1.00  0.00     0.313 C 
ATOM      5  O   UNL     1       9.354  -4.356  -1.268  1.00  0.00    -0.252 OA
BRANCH   4   6
ATOM      6  C   UNL     1       7.172  -4.285  -0.243  1.00  0.00     0.126 C 
ATOM      7  C   UNL     1       6.775  -5.759  -0.169  1.00  0.00     0.025 C 
BRANCH   6   8
ATOM      8  C   UNL     1       5.963  -3.362  -0.237  1.00  0.00    -0.034 A 
ATOM      9  C   UNL     1       3.678  -1.677  -0.142  1.00  0.00    -0.018 A 
ATOM     10  C   UNL     1       3.827  -2.646  -1.146  1.00  0.00     0.009 A 
ATOM     11  C   UNL     1       4.708  -1.542   0.797  1.00  0.00     0.009 A 
ATOM     12  C   UNL     1       4.946  -3.479  -1.192  1.00  0.00     0.005 A 
ATOM     13  C   UNL     1       5.832  -2.375   0.753  1.00  0.00     0.005 A 
BRANCH   9  14
ATOM     14  C   UNL     1       2.449  -0.873  -0.064  1.00  0.00    -0.018 A 
ATOM     15  C   UNL     1      -3.569   0.256   0.046  1.00  0.00     0.064 C 
ATOM     16  C   UNL     1      -2.103   0.038   0.040  1.00  0.00     0.013 A 
ATOM     17  C   UNL     1      -1.370  -1.129   0.020  1.00  0.00     0.031 A 
ATOM     18  N   UNL     1      -1.209   1.083   0.056  1.00  0.00    -0.359 N 
ATOM     19  C   UNL     1       0.006  -0.779   0.003  1.00  0.00     0.000 A 
ATOM     20  C   UNL     1       0.084   0.610   0.026  1.00  0.00     0.046 A 
ATOM     21  H   UNL     1      -1.458   2.035   0.085  1.00  0.00     0.166 HD
ATOM     22  C   UNL     1       1.199  -1.523  -0.035  1.00  0.00     0.019 A 
ATOM     23  C   UNL     1       1.304   1.294   0.019  1.00  0.00     0.027 A 
ATOM     24  C   UNL     1       2.479   0.528  -0.028  1.00  0.00     0.011 A 
ENDBRANCH   9  14
ENDBRANCH   6   8
ENDBRANCH   4   6
ENDBRANCH   3   4
ENDBRANCH   2   3
ENDBRANCH   1   2
BRANCH   1  25
ATOM     25  O   UNL     1       9.592  -1.399  -2.656  1.00  0.00    -0.458 OA
BRANCH  25  26
ATOM     26  C   UNL     1       8.910  -0.797  -1.654  1.00  0.00     0.338 C 
ATOM     27  O   UNL     1       7.718  -0.553  -1.611  1.00  0.00    -0.246 OA
BRANCH  26  28
ATOM     28  C   UNL     1       9.815  -0.555  -0.522  1.00  0.00     0.060 A 
ATOM     29  C   UNL     1       9.621  -1.296   0.645  1.00  0.00     0.016 A 
ATOM     30  C   UNL     1      10.773   0.458  -0.571  1.00  0.00     0.016 A 
ATOM     31  C   UNL     1      10.368  -1.012   1.784  1.00  0.00     0.010 A 
ATOM     32  C   UNL     1      11.531   0.736   0.571  1.00  0.00     0.010 A 
ATOM     33  C   UNL     1      11.317   0.018   1.761  1.00  0.00    -0.014 A 
BRANCH  33  34
ATOM     34  C   UNL     1      12.032   0.380   3.007  1.00  0.00     0.031 A 
ATOM     35  C   UNL     1      11.644   1.626   3.754  1.00  0.00     0.074 A 
ATOM     36  C   UNL     1      13.000  -0.423   3.486  1.00  0.00     0.049 A 
ATOM     37  N   UNL     1      12.169   2.135   4.838  1.00  0.00    -0.248 NA
ATOM     38  C   UNL     1      10.517   2.400   3.208  1.00  0.00     0.031 C 
ATOM     39  C   UNL     1      13.435  -1.680   2.874  1.00  0.00     0.029 A 
ATOM     40  N   UNL     1      13.788  -0.302   4.601  1.00  0.00    -0.354 N 
ATOM     41  C   UNL     1      11.453   3.298   5.095  1.00  0.00     0.074 A 
ATOM     42  C   UNL     1      10.465   3.427   4.044  1.00  0.00     0.031 C 
ATOM     43  C   UNL     1      14.409  -2.218   3.627  1.00  0.00     0.029 A 
ATOM     44  C   UNL     1      14.691  -1.328   4.750  1.00  0.00     0.049 A 
ATOM     45  H   UNL     1      13.715   0.448   5.235  1.00  0.00     0.167 HD
ATOM     46  C   UNL     1      11.604   4.179   6.112  1.00  0.00     0.031 A 
ATOM     47  C   UNL     1      15.649  -1.520   5.677  1.00  0.00     0.031 A 
ATOM     48  C   UNL     1      12.586   4.050   7.156  1.00  0.00     0.049 A 
ATOM     49  C   UNL     1      15.821  -0.509   6.777  1.00  0.00     0.074 A 
ATOM     50  C   UNL     1      12.820   4.892   8.229  1.00  0.00     0.029 A 
ATOM     51  N   UNL     1      13.496   3.008   7.260  1.00  0.00    -0.354 N 
ATOM     52  N   UNL     1      15.143   0.592   6.998  1.00  0.00    -0.248 NA
ATOM     53  C   UNL     1      16.886  -0.770   7.756  1.00  0.00     0.031 C 
ATOM     54  C   UNL     1      13.896   4.377   8.963  1.00  0.00     0.029 A 
ATOM     55  C   UNL     1      14.301   3.192   8.371  1.00  0.00     0.049 A 
ATOM     56  H   UNL     1      13.560   2.250   6.635  1.00  0.00     0.167 HD
ATOM     57  C   UNL     1      15.687   1.146   8.151  1.00  0.00     0.074 A 
ATOM     58  C   UNL     1      16.740   0.252   8.589  1.00  0.00     0.031 C 
ATOM     59  C   UNL     1      15.346   2.292   8.790  1.00  0.00     0.031 A 
BRANCH  46  60
ATOM     60  C   UNL     1      10.704   5.385   6.119  1.00  0.00    -0.014 A 
ATOM     61  C   UNL     1       9.349   5.280   6.479  1.00  0.00     0.010 A 
ATOM     62  C   UNL     1      11.228   6.644   5.776  1.00  0.00     0.010 A 
ATOM     63  C   UNL     1       8.524   6.409   6.457  1.00  0.00     0.020 A 
ATOM     64  C   UNL     1      10.411   7.778   5.773  1.00  0.00     0.020 A 
ATOM     65  C   UNL     1       9.059   7.649   6.096  1.00  0.00     0.054 A 
BRANCH  65  66
ATOM     66  S   UNL     1       7.971   9.101   6.079  1.00  0.00     0.124 S 
ATOM     67  O   UNL     1       7.227   8.904   4.837  1.00  0.00    -0.237 OA
ATOM     68  O   UNL     1       7.195   8.940   7.306  1.00  0.00    -0.237 OA
ATOM     69  O   UNL     1       8.899  10.229   6.077  1.00  0.00    -0.744 OA
ENDBRANCH  65  66
ENDBRANCH  46  60
BRANCH  47  70
ATOM     70  C   UNL     1      16.531  -2.714   5.592  1.00  0.00    -0.014 A 
ATOM     71  C   UNL     1      16.394  -3.772   6.505  1.00  0.00     0.010 A 
ATOM     72  C   UNL     1      17.504  -2.802   4.580  1.00  0.00     0.010 A 
ATOM     73  C   UNL     1      17.223  -4.895   6.416  1.00  0.00     0.020 A 
ATOM     74  C   UNL     1      18.318  -3.932   4.473  1.00  0.00     0.020 A 
ATOM     75  C   UNL     1      18.180  -4.968   5.399  1.00  0.00     0.054 A 
BRANCH  75  76
ATOM     76  S   UNL     1      19.206  -6.458   5.260  1.00  0.00     0.124 S 
ATOM     77  O   UNL     1      20.200  -6.240   6.306  1.00  0.00    -0.237 OA
ATOM     78  O   UNL     1      18.247  -7.531   5.512  1.00  0.00    -0.237 OA
ATOM     79  O   UNL     1      19.711  -6.395   3.890  1.00  0.00    -0.744 OA
ENDBRANCH  75  76
ENDBRANCH  47  70
BRANCH  59  80
ATOM     80  C   UNL     1      16.099   2.627  10.047  1.00  0.00    -0.014 A 
ATOM     81  C   UNL     1      17.416   3.117   9.997  1.00  0.00     0.010 A 
ATOM     82  C   UNL     1      15.467   2.481  11.295  1.00  0.00     0.010 A 
ATOM     83  C   UNL     1      18.101   3.422  11.176  1.00  0.00     0.020 A 
ATOM     84  C   UNL     1      16.140   2.806  12.475  1.00  0.00     0.020 A 
ATOM     85  C   UNL     1      17.460   3.259  12.409  1.00  0.00     0.054 A 
BRANCH  85  86
ATOM     86  S   UNL     1      18.354   3.689  13.928  1.00  0.00     0.124 S 
ATOM     87  O   UNL     1      19.212   2.522  14.115  1.00  0.00    -0.237 OA
ATOM     88  O   UNL     1      19.044   4.923  13.561  1.00  0.00    -0.237 OA
ATOM     89  O   UNL     1      17.292   3.849  14.919  1.00  0.00    -0.744 OA
ENDBRANCH  85  86
ENDBRANCH  59  80
ENDBRANCH  33  34
ENDBRANCH  26  28
ENDBRANCH  25  26
ENDBRANCH   1  25
TORSDOF 16
