REMARK SMILES CC[C@@H](C(=O)OCCOC(=O)c1ccc(-c2c3nc(c(-c4ccc(S(=O)(=O)[O-])cc4)c4ccc([nH]4)c(-c4ccc(S(=O)(=O)[O-])cc4)c4nc(c(-c5ccc(S(=O)(=O)[O-])cc5)c5ccc2[nH]5)C=C4)C=C3)cc1)N1CCN(Cc2cccc(C)c2)C(=O)C1=O
REMARK SMILES IDX 7 1 6 2 4 3 5 4 3 5 2 6 1 7 72 8 73 9 86 10 74 11 84 12
REMARK SMILES IDX 87 13 75 14 85 15 76 16 77 17 78 18 83 19 79 20 81 21 80 22
REMARK SMILES IDX 82 23 8 24 9 25 10 26 11 27 12 28 13 29 71 30 14 31 70 32
REMARK SMILES IDX 15 33 16 34 17 35 64 36 18 37 69 38 63 39 65 40 19 41 68 42
REMARK SMILES IDX 62 43 61 44 20 46 50 47 31 48 49 49 32 50 35 51 48 52 66 53
REMARK SMILES IDX 33 54 34 55 47 57 67 58 36 59 21 60 22 61 30 62 23 63 29 64
REMARK SMILES IDX 24 65 25 66 26 67 27 68 28 69 51 70 52 71 60 72 53 73 59 74
REMARK SMILES IDX 54 75 55 76 56 77 57 78 58 79 37 80 38 81 46 82 39 83 45 84
REMARK SMILES IDX 40 85 41 86 42 87 43 88 44 89
REMARK H PARENT 65 45 35 56
REMARK Flexibility Score: inf
ROOT
ATOM      1  C   UNL     1       0.476   0.644  -3.735  1.00  0.00     0.274 C 
ENDROOT
BRANCH   1   2
ATOM      2  O   UNL     1       0.700   0.805  -2.318  1.00  0.00    -0.461 OA
BRANCH   2   3
ATOM      3  C   UNL     1       1.140   2.015  -1.885  1.00  0.00     0.328 C 
ATOM      4  O   UNL     1       1.420   2.954  -2.627  1.00  0.00    -0.250 OA
BRANCH   3   5
ATOM      5  C   UNL     1       1.386   2.056  -0.359  1.00  0.00     0.195 C 
BRANCH   5   6
ATOM      6  C   UNL     1       0.722   0.926   0.453  1.00  0.00     0.034 C 
ATOM      7  C   UNL     1       1.425  -0.422   0.315  1.00  0.00     0.007 C 
ENDBRANCH   5   6
BRANCH   5   8
ATOM      8  N   UNL     1       1.074   3.417   0.152  1.00  0.00    -0.319 N 
ATOM      9  C   UNL     1       2.097   4.451   0.062  1.00  0.00     0.142 C 
ATOM     10  C   UNL     1      -0.218   3.797   0.533  1.00  0.00     0.312 C 
ATOM     11  C   UNL     1       1.516   5.744  -0.507  1.00  0.00     0.142 C 
ATOM     12  C   UNL     1      -0.438   5.298   0.923  1.00  0.00     0.312 C 
ATOM     13  O   UNL     1      -1.175   3.034   0.514  1.00  0.00    -0.263 OA
ATOM     14  N   UNL     1       0.419   6.226   0.319  1.00  0.00    -0.328 N 
ATOM     15  O   UNL     1      -1.367   5.594   1.663  1.00  0.00    -0.263 OA
BRANCH  14  16
ATOM     16  C   UNL     1       0.013   7.633   0.243  1.00  0.00     0.155 C 
BRANCH  16  17
ATOM     17  C   UNL     1       0.839   8.593   1.063  1.00  0.00    -0.028 A 
ATOM     18  C   UNL     1       0.272   9.237   2.171  1.00  0.00     0.005 A 
ATOM     19  C   UNL     1       2.146   8.936   0.688  1.00  0.00     0.009 A 
ATOM     20  C   UNL     1       1.000  10.187   2.889  1.00  0.00     0.001 A 
ATOM     21  C   UNL     1       2.901   9.854   1.427  1.00  0.00    -0.051 A 
ATOM     22  C   UNL     1       2.314  10.486   2.526  1.00  0.00     0.003 A 
ATOM     23  C   UNL     1       4.313  10.169   1.035  1.00  0.00     0.044 C 
ENDBRANCH  16  17
ENDBRANCH  14  16
ENDBRANCH   5   8
ENDBRANCH   3   5
ENDBRANCH   2   3
ENDBRANCH   1   2
BRANCH   1  24
ATOM     24  C   UNL     1      -1.022   0.626  -4.018  1.00  0.00     0.275 C 
BRANCH  24  25
ATOM     25  O   UNL     1      -1.536   1.937  -3.744  1.00  0.00    -0.458 OA
BRANCH  25  26
ATOM     26  C   UNL     1      -2.654   2.011  -2.981  1.00  0.00     0.338 C 
ATOM     27  O   UNL     1      -3.354   1.082  -2.622  1.00  0.00    -0.246 OA
BRANCH  26  28
ATOM     28  C   UNL     1      -2.914   3.436  -2.669  1.00  0.00     0.060 A 
ATOM     29  C   UNL     1      -1.852   4.312  -2.463  1.00  0.00     0.016 A 
ATOM     30  C   UNL     1      -4.222   3.901  -2.527  1.00  0.00     0.016 A 
ATOM     31  C   UNL     1      -2.098   5.616  -2.044  1.00  0.00     0.010 A 
ATOM     32  C   UNL     1      -4.461   5.242  -2.182  1.00  0.00     0.010 A 
ATOM     33  C   UNL     1      -3.400   6.115  -1.888  1.00  0.00    -0.014 A 
BRANCH  33  34
ATOM     34  C   UNL     1      -3.614   7.498  -1.344  1.00  0.00     0.031 A 
ATOM     35  C   UNL     1      -4.513   7.728  -0.147  1.00  0.00     0.074 A 
ATOM     36  C   UNL     1      -2.942   8.560  -1.841  1.00  0.00     0.049 A 
ATOM     37  N   UNL     1      -4.938   8.863   0.356  1.00  0.00    -0.248 NA
ATOM     38  C   UNL     1      -5.024   6.540   0.553  1.00  0.00     0.031 C 
ATOM     39  C   UNL     1      -1.992   8.527  -2.956  1.00  0.00     0.029 A 
ATOM     40  N   UNL     1      -2.902   9.871  -1.425  1.00  0.00    -0.354 N 
ATOM     41  C   UNL     1      -5.851   8.521   1.349  1.00  0.00     0.074 A 
ATOM     42  C   UNL     1      -5.894   7.075   1.398  1.00  0.00     0.031 C 
ATOM     43  C   UNL     1      -1.366   9.710  -3.039  1.00  0.00     0.029 A 
ATOM     44  C   UNL     1      -1.961  10.634  -2.078  1.00  0.00     0.049 A 
ATOM     45  H   UNL     1      -3.492  10.231  -0.724  1.00  0.00     0.167 HD
ATOM     46  C   UNL     1      -6.599   9.335   2.136  1.00  0.00     0.031 A 
ATOM     47  C   UNL     1      -1.626  11.934  -1.952  1.00  0.00     0.031 A 
ATOM     48  C   UNL     1      -6.482  10.770   2.171  1.00  0.00     0.049 A 
ATOM     49  C   UNL     1      -2.418  12.815  -1.028  1.00  0.00     0.074 A 
ATOM     50  C   UNL     1      -7.209  11.677   2.926  1.00  0.00     0.029 A 
ATOM     51  N   UNL     1      -5.551  11.507   1.456  1.00  0.00    -0.354 N 
ATOM     52  N   UNL     1      -3.390  12.490  -0.211  1.00  0.00    -0.248 NA
ATOM     53  C   UNL     1      -2.103  14.251  -1.052  1.00  0.00     0.031 C 
ATOM     54  C   UNL     1      -6.737  12.965   2.644  1.00  0.00     0.029 A 
ATOM     55  C   UNL     1      -5.686  12.855   1.749  1.00  0.00     0.049 A 
ATOM     56  H   UNL     1      -4.891  11.128   0.833  1.00  0.00     0.167 HD
ATOM     57  C   UNL     1      -3.825  13.686   0.350  1.00  0.00     0.074 A 
ATOM     58  C   UNL     1      -2.973  14.733  -0.175  1.00  0.00     0.031 C 
ATOM     59  C   UNL     1      -4.857  13.897   1.203  1.00  0.00     0.031 A 
BRANCH  46  60
ATOM     60  C   UNL     1      -7.676   8.696   2.974  1.00  0.00    -0.014 A 
ATOM     61  C   UNL     1      -7.390   7.969   4.142  1.00  0.00     0.010 A 
ATOM     62  C   UNL     1      -9.020   8.870   2.589  1.00  0.00     0.010 A 
ATOM     63  C   UNL     1      -8.427   7.394   4.886  1.00  0.00     0.020 A 
ATOM     64  C   UNL     1     -10.059   8.320   3.344  1.00  0.00     0.020 A 
ATOM     65  C   UNL     1      -9.754   7.569   4.479  1.00  0.00     0.054 A 
BRANCH  65  66
ATOM     66  S   UNL     1     -11.085   6.833   5.469  1.00  0.00     0.124 S 
ATOM     67  O   UNL     1     -11.005   5.426   5.085  1.00  0.00    -0.237 OA
ATOM     68  O   UNL     1     -10.676   7.135   6.838  1.00  0.00    -0.237 OA
ATOM     69  O   UNL     1     -12.284   7.535   5.015  1.00  0.00    -0.744 OA
ENDBRANCH  65  66
ENDBRANCH  46  60
BRANCH  47  70
ATOM     70  C   UNL     1      -0.515  12.499  -2.767  1.00  0.00    -0.014 A 
ATOM     71  C   UNL     1       0.682  12.905  -2.150  1.00  0.00     0.010 A 
ATOM     72  C   UNL     1      -0.638  12.615  -4.163  1.00  0.00     0.010 A 
ATOM     73  C   UNL     1       1.739  13.406  -2.917  1.00  0.00     0.020 A 
ATOM     74  C   UNL     1       0.428  13.082  -4.936  1.00  0.00     0.020 A 
ATOM     75  C   UNL     1       1.608  13.482  -4.306  1.00  0.00     0.054 A 
BRANCH  75  76
ATOM     76  S   UNL     1       3.023  14.029  -5.303  1.00  0.00     0.124 S 
ATOM     77  O   UNL     1       2.899  15.481  -5.236  1.00  0.00    -0.237 OA
ATOM     78  O   UNL     1       4.162  13.457  -4.588  1.00  0.00    -0.237 OA
ATOM     79  O   UNL     1       2.761  13.433  -6.611  1.00  0.00    -0.744 OA
ENDBRANCH  75  76
ENDBRANCH  47  70
BRANCH  59  80
ATOM     80  C   UNL     1      -5.137  15.321   1.602  1.00  0.00    -0.014 A 
ATOM     81  C   UNL     1      -5.724  16.220   0.692  1.00  0.00     0.010 A 
ATOM     82  C   UNL     1      -4.833  15.764   2.901  1.00  0.00     0.010 A 
ATOM     83  C   UNL     1      -5.962  17.547   1.060  1.00  0.00     0.020 A 
ATOM     84  C   UNL     1      -5.090  17.085   3.280  1.00  0.00     0.020 A 
ATOM     85  C   UNL     1      -5.635  17.973   2.350  1.00  0.00     0.054 A 
BRANCH  85  86
ATOM     86  S   UNL     1      -5.961  19.698   2.810  1.00  0.00     0.124 S 
ATOM     87  O   UNL     1      -4.872  20.402   2.139  1.00  0.00    -0.237 OA
ATOM     88  O   UNL     1      -7.294  19.934   2.260  1.00  0.00    -0.237 OA
ATOM     89  O   UNL     1      -5.890  19.686   4.270  1.00  0.00    -0.744 OA
ENDBRANCH  85  86
ENDBRANCH  59  80
ENDBRANCH  33  34
ENDBRANCH  26  28
ENDBRANCH  25  26
ENDBRANCH  24  25
ENDBRANCH   1  24
TORSDOF 18
