REMARK SMILES CCCc1cc2c(cc1Cl)C=C(C(=O)OCCOC(=O)c1ccc(-c3c4nc(c(-c5ccc(S(=O)(=O)[O-])cc5)c5ccc([nH]5)c(-c5ccc(S(=O)(=O)[O-])cc5)c5nc(c(-c6ccc(S(=O)(=O)[O-])cc6)c6ccc3[nH]6)C=C5)C=C4)cc1)[C@@H](C(F)(F)F)O2
REMARK SMILES IDX 17 1 16 2 15 3 13 4 14 5 12 6 4 7 5 8 9 9 6 10 8 11 10 12
REMARK SMILES IDX 7 13 86 14 11 15 81 16 3 17 2 18 1 19 82 20 83 21 84 22
REMARK SMILES IDX 85 23 18 24 19 25 20 26 21 27 22 28 80 29 23 30 79 31 24 32
REMARK SMILES IDX 25 33 26 34 73 35 27 36 78 37 72 38 74 39 28 40 77 41 71 42
REMARK SMILES IDX 70 43 29 45 59 46 40 47 58 48 41 49 44 50 57 51 75 52 42 53
REMARK SMILES IDX 43 54 56 56 76 57 45 58 30 59 31 60 39 61 32 62 38 63 33 64
REMARK SMILES IDX 34 65 35 66 36 67 37 68 60 69 61 70 69 71 62 72 68 73 63 74
REMARK SMILES IDX 64 75 65 76 66 77 67 78 46 79 47 80 55 81 48 82 54 83 49 84
REMARK SMILES IDX 50 85 51 86 52 87 53 88
REMARK H PARENT 74 44 44 55
REMARK Flexibility Score: inf
ROOT
ATOM      1  C   UNL     1      -2.256   8.204   7.201  1.00  0.00     0.275 C 
ENDROOT
BRANCH   1   2
ATOM      2  C   UNL     1      -3.340   7.324   6.577  1.00  0.00     0.275 C 
BRANCH   2   3
ATOM      3  O   UNL     1      -2.848   5.995   6.290  1.00  0.00    -0.459 OA
BRANCH   3   4
ATOM      4  C   UNL     1      -2.602   5.737   4.985  1.00  0.00     0.338 C 
ATOM      5  O   UNL     1      -2.773   6.501   4.048  1.00  0.00    -0.246 OA
BRANCH   4   6
ATOM      6  C   UNL     1      -2.038   4.386   4.816  1.00  0.00     0.087 C 
ATOM      7  C   UNL     1       0.592   0.502   2.992  1.00  0.00    -0.026 A 
ATOM      8  C   UNL     1      -0.614   0.620   3.720  1.00  0.00     0.052 A 
ATOM      9  C   UNL     1       1.352   1.659   2.760  1.00  0.00     0.045 A 
ATOM     10  C   UNL     1      -1.074   1.862   4.157  1.00  0.00     0.128 A 
ATOM     11  C   UNL     1       0.880   2.901   3.174  1.00  0.00     0.032 A 
ATOM     12  Cl  UNL     1       2.877   1.628   1.950  1.00  0.00    -0.084 Cl
ATOM     13  C   UNL     1      -0.340   2.999   3.850  1.00  0.00     0.019 A 
ATOM     14  O   UNL     1      -2.250   1.891   4.854  1.00  0.00    -0.475 OA
ATOM     15  C   UNL     1      -0.874   4.301   4.167  1.00  0.00     0.027 C 
ATOM     16  C   UNL     1      -2.818   3.180   5.250  1.00  0.00     0.316 C 
BRANCH   7  17
ATOM     17  C   UNL     1       0.985  -0.849   2.441  1.00  0.00     0.037 C 
BRANCH  17  18
ATOM     18  C   UNL     1       0.319  -1.175   1.097  1.00  0.00     0.001 C 
ATOM     19  C   UNL     1       0.783  -0.305  -0.064  1.00  0.00     0.004 C 
ENDBRANCH  17  18
ENDBRANCH   7  17
BRANCH  16  20
ATOM     20  C   UNL     1      -4.274   3.225   4.757  1.00  0.00     0.430 C 
ATOM     21  F   UNL     1      -4.967   2.141   5.186  1.00  0.00    -0.167 F 
ATOM     22  F   UNL     1      -4.934   4.309   5.230  1.00  0.00    -0.167 F 
ATOM     23  F   UNL     1      -4.358   3.252   3.409  1.00  0.00    -0.167 F 
ENDBRANCH  16  20
ENDBRANCH   4   6
ENDBRANCH   3   4
ENDBRANCH   2   3
ENDBRANCH   1   2
BRANCH   1  24
ATOM     24  O   UNL     1      -1.245   8.532   6.231  1.00  0.00    -0.458 OA
BRANCH  24  25
ATOM     25  C   UNL     1      -0.093   7.834   6.343  1.00  0.00     0.338 C 
ATOM     26  O   UNL     1       0.184   6.991   7.178  1.00  0.00    -0.246 OA
BRANCH  25  27
ATOM     27  C   UNL     1       0.791   8.155   5.214  1.00  0.00     0.060 A 
ATOM     28  C   UNL     1       1.961   8.884   5.387  1.00  0.00     0.016 A 
ATOM     29  C   UNL     1       0.520   7.558   3.990  1.00  0.00     0.016 A 
ATOM     30  C   UNL     1       2.849   9.007   4.310  1.00  0.00     0.010 A 
ATOM     31  C   UNL     1       1.488   7.524   2.993  1.00  0.00     0.010 A 
ATOM     32  C   UNL     1       2.651   8.289   3.112  1.00  0.00    -0.014 A 
BRANCH  32  33
ATOM     33  C   UNL     1       3.626   8.351   1.981  1.00  0.00     0.031 A 
ATOM     34  C   UNL     1       3.170   8.707   0.580  1.00  0.00     0.074 A 
ATOM     35  C   UNL     1       4.928   8.060   2.197  1.00  0.00     0.049 A 
ATOM     36  N   UNL     1       3.882   8.816  -0.514  1.00  0.00    -0.248 NA
ATOM     37  C   UNL     1       1.728   8.928   0.361  1.00  0.00     0.031 C 
ATOM     38  C   UNL     1       5.492   7.612   3.473  1.00  0.00     0.029 A 
ATOM     39  N   UNL     1       6.019   8.123   1.363  1.00  0.00    -0.354 N 
ATOM     40  C   UNL     1       2.977   9.089  -1.535  1.00  0.00     0.074 A 
ATOM     41  C   UNL     1       1.657   9.043  -0.956  1.00  0.00     0.031 C 
ATOM     42  C   UNL     1       6.827   7.535   3.364  1.00  0.00     0.029 A 
ATOM     43  C   UNL     1       7.216   7.870   1.997  1.00  0.00     0.049 A 
ATOM     44  H   UNL     1       5.952   8.328   0.403  1.00  0.00     0.167 HD
ATOM     45  C   UNL     1       3.218   9.407  -2.829  1.00  0.00     0.031 A 
ATOM     46  C   UNL     1       8.486   7.923   1.546  1.00  0.00     0.031 A 
ATOM     47  C   UNL     1       4.537   9.529  -3.387  1.00  0.00     0.049 A 
ATOM     48  C   UNL     1       8.739   8.328   0.120  1.00  0.00     0.074 A 
ATOM     49  C   UNL     1       4.890   9.930  -4.663  1.00  0.00     0.029 A 
ATOM     50  N   UNL     1       5.715   9.277  -2.703  1.00  0.00    -0.354 N 
ATOM     51  N   UNL     1       7.869   8.658  -0.804  1.00  0.00    -0.248 NA
ATOM     52  C   UNL     1      10.139   8.382  -0.325  1.00  0.00     0.031 C 
ATOM     53  C   UNL     1       6.279   9.867  -4.768  1.00  0.00     0.029 A 
ATOM     54  C   UNL     1       6.797   9.496  -3.536  1.00  0.00     0.049 A 
ATOM     55  H   UNL     1       5.774   8.985  -1.764  1.00  0.00     0.167 HD
ATOM     56  C   UNL     1       8.616   8.973  -1.934  1.00  0.00     0.074 A 
ATOM     57  C   UNL     1      10.009   8.816  -1.573  1.00  0.00     0.031 C 
ATOM     58  C   UNL     1       8.181   9.349  -3.161  1.00  0.00     0.031 A 
BRANCH  45  59
ATOM     59  C   UNL     1       2.044   9.719  -3.726  1.00  0.00    -0.014 A 
ATOM     60  C   UNL     1       1.783   8.917  -4.853  1.00  0.00     0.010 A 
ATOM     61  C   UNL     1       1.275  10.881  -3.526  1.00  0.00     0.010 A 
ATOM     62  C   UNL     1       0.801   9.287  -5.778  1.00  0.00     0.020 A 
ATOM     63  C   UNL     1       0.269  11.236  -4.429  1.00  0.00     0.020 A 
ATOM     64  C   UNL     1       0.058  10.451  -5.564  1.00  0.00     0.054 A 
BRANCH  64  65
ATOM     65  S   UNL     1      -1.184  10.940  -6.793  1.00  0.00     0.124 S 
ATOM     66  O   UNL     1      -0.355  11.444  -7.884  1.00  0.00    -0.237 OA
ATOM     67  O   UNL     1      -1.884   9.685  -7.058  1.00  0.00    -0.237 OA
ATOM     68  O   UNL     1      -1.978  11.949  -6.094  1.00  0.00    -0.744 OA
ENDBRANCH  64  65
ENDBRANCH  45  59
BRANCH  46  69
ATOM     69  C   UNL     1       9.607   7.661   2.494  1.00  0.00    -0.014 A 
ATOM     70  C   UNL     1       9.804   6.380   3.042  1.00  0.00     0.010 A 
ATOM     71  C   UNL     1      10.424   8.720   2.933  1.00  0.00     0.010 A 
ATOM     72  C   UNL     1      10.749   6.174   4.052  1.00  0.00     0.020 A 
ATOM     73  C   UNL     1      11.394   8.511   3.920  1.00  0.00     0.020 A 
ATOM     74  C   UNL     1      11.526   7.247   4.497  1.00  0.00     0.054 A 
BRANCH  74  75
ATOM     75  S   UNL     1      12.697   6.973   5.856  1.00  0.00     0.124 S 
ATOM     76  O   UNL     1      11.803   6.899   7.009  1.00  0.00    -0.237 OA
ATOM     77  O   UNL     1      13.340   5.718   5.477  1.00  0.00    -0.237 OA
ATOM     78  O   UNL     1      13.559   8.151   5.809  1.00  0.00    -0.744 OA
ENDBRANCH  74  75
ENDBRANCH  46  69
BRANCH  58  79
ATOM     79  C   UNL     1       9.202   9.628  -4.232  1.00  0.00    -0.014 A 
ATOM     80  C   UNL     1       9.340  10.934  -4.739  1.00  0.00     0.010 A 
ATOM     81  C   UNL     1       9.892   8.573  -4.854  1.00  0.00     0.010 A 
ATOM     82  C   UNL     1      10.108  11.174  -5.880  1.00  0.00     0.020 A 
ATOM     83  C   UNL     1      10.686   8.814  -5.979  1.00  0.00     0.020 A 
ATOM     84  C   UNL     1      10.763  10.108  -6.502  1.00  0.00     0.054 A 
BRANCH  84  85
ATOM     85  S   UNL     1      11.700  10.426  -8.022  1.00  0.00     0.124 S 
ATOM     86  O   UNL     1      10.637  10.596  -9.008  1.00  0.00    -0.237 OA
ATOM     87  O   UNL     1      12.449  11.635  -7.689  1.00  0.00    -0.237 OA
ATOM     88  O   UNL     1      12.514   9.223  -8.182  1.00  0.00    -0.744 OA
ENDBRANCH  84  85
ENDBRANCH  58  79
ENDBRANCH  32  33
ENDBRANCH  25  27
ENDBRANCH  24  25
ENDBRANCH   1  24
TORSDOF 17
