REMARK SMILES CC(C)[C@@H](NC(=O)[C@@H]1CC[C@H]2CCCC[C@@H]2[NH2+]1)C(=O)OCCOC(=O)c1ccc(-c2c3nc(c(-c4ccc(S(=O)(=O)[O-])cc4)c4ccc([nH]4)c(-c4ccc(S(=O)(=O)[O-])cc4)c4nc(c(-c5ccc(S(=O)(=O)[O-])cc5)c5ccc2[nH]5)C=C4)C=C3)cc1
REMARK SMILES IDX 22 1 21 2 20 3 18 4 19 5 4 6 2 7 1 8 3 9 5 10 6 11 7 13 8 14
REMARK SMILES IDX 9 15 17 16 10 17 16 18 11 21 15 22 12 23 14 24 13 25 23 26
REMARK SMILES IDX 24 27 25 28 26 29 27 30 85 31 28 32 84 33 29 34 30 35 31 36
REMARK SMILES IDX 78 37 32 38 83 39 77 40 79 41 33 42 82 43 76 44 75 45 34 47
REMARK SMILES IDX 64 48 45 49 63 50 46 51 49 52 62 53 80 54 47 55 48 56 61 58
REMARK SMILES IDX 81 59 50 60 35 61 36 62 44 63 37 64 43 65 38 66 39 67 40 68
REMARK SMILES IDX 41 69 42 70 65 71 66 72 74 73 67 74 73 75 68 76 69 77 70 78
REMARK SMILES IDX 71 79 72 80 51 81 52 82 60 83 53 84 59 85 54 86 55 87 56 88
REMARK SMILES IDX 57 89 58 90
REMARK H PARENT 5 12 17 19 17 20 79 46 49 57
REMARK Flexibility Score: inf
ROOT
ATOM      1  C   UNL     1      -2.283  -3.859   1.006  1.00  0.00     0.275 C 
ENDROOT
BRANCH   1   2
ATOM      2  C   UNL     1      -2.530  -3.001  -0.230  1.00  0.00     0.274 C 
BRANCH   2   3
ATOM      3  O   UNL     1      -1.687  -3.380  -1.348  1.00  0.00    -0.461 OA
BRANCH   3   4
ATOM      4  C   UNL     1      -0.972  -2.393  -1.951  1.00  0.00     0.329 C 
ATOM      5  O   UNL     1      -0.841  -1.265  -1.484  1.00  0.00    -0.250 OA
BRANCH   4   6
ATOM      6  C   UNL     1      -0.404  -2.774  -3.335  1.00  0.00     0.195 C 
BRANCH   6   7
ATOM      7  C   UNL     1      -0.449  -4.230  -3.892  1.00  0.00     0.017 C 
ATOM      8  C   UNL     1       0.472  -4.368  -5.125  1.00  0.00     0.010 C 
ATOM      9  C   UNL     1      -0.012  -5.311  -2.899  1.00  0.00     0.010 C 
ENDBRANCH   6   7
BRANCH   6  10
ATOM     10  N   UNL     1      -0.739  -1.775  -4.384  1.00  0.00    -0.337 N 
ATOM     11  C   UNL     1      -1.836  -1.258  -4.986  1.00  0.00     0.278 C 
ATOM     12  H   UNL     1       0.080  -1.368  -4.749  1.00  0.00     0.164 HD
ATOM     13  O   UNL     1      -1.601  -0.836  -6.132  1.00  0.00    -0.268 OA
BRANCH  11  14
ATOM     14  C   UNL     1      -3.248  -1.001  -4.352  1.00  0.00     0.272 C 
ATOM     15  C   UNL     1      -3.781  -1.796  -3.176  1.00  0.00     0.076 C 
ATOM     16  N   UNL     1      -4.288  -1.052  -5.421  1.00  0.00    -0.333 N 
ATOM     17  C   UNL     1      -3.999  -3.275  -3.487  1.00  0.00     0.016 C 
ATOM     18  C   UNL     1      -4.907  -2.372  -5.619  1.00  0.00     0.186 C 
ATOM     19  H   UNL     1      -3.853  -0.770  -6.300  1.00  0.00     0.347 HD
ATOM     20  H   UNL     1      -5.036  -0.425  -5.124  1.00  0.00     0.347 HD
ATOM     21  C   UNL     1      -4.081  -3.506  -4.995  1.00  0.00     0.048 C 
ATOM     22  C   UNL     1      -5.141  -2.591  -7.114  1.00  0.00     0.065 C 
ATOM     23  C   UNL     1      -4.612  -4.901  -5.318  1.00  0.00     0.010 C 
ATOM     24  C   UNL     1      -5.673  -3.994  -7.405  1.00  0.00     0.006 C 
ATOM     25  C   UNL     1      -4.764  -5.073  -6.824  1.00  0.00     0.001 C 
ENDBRANCH  11  14
ENDBRANCH   6  10
ENDBRANCH   4   6
ENDBRANCH   3   4
ENDBRANCH   2   3
ENDBRANCH   1   2
BRANCH   1  26
ATOM     26  O   UNL     1      -0.990  -3.552   1.532  1.00  0.00    -0.458 OA
BRANCH  26  27
ATOM     27  C   UNL     1       0.004  -4.283   0.978  1.00  0.00     0.338 C 
ATOM     28  O   UNL     1      -0.095  -5.314   0.341  1.00  0.00    -0.246 OA
BRANCH  27  29
ATOM     29  C   UNL     1       1.222  -3.474   1.040  1.00  0.00     0.060 A 
ATOM     30  C   UNL     1       1.854  -3.170  -0.171  1.00  0.00     0.016 A 
ATOM     31  C   UNL     1       1.735  -3.035   2.257  1.00  0.00     0.016 A 
ATOM     32  C   UNL     1       3.034  -2.450  -0.178  1.00  0.00     0.010 A 
ATOM     33  C   UNL     1       2.933  -2.333   2.257  1.00  0.00     0.010 A 
ATOM     34  C   UNL     1       3.595  -2.074   1.043  1.00  0.00    -0.014 A 
BRANCH  34  35
ATOM     35  C   UNL     1       4.986  -1.606   1.079  1.00  0.00     0.031 A 
ATOM     36  C   UNL     1       6.042  -2.617   1.404  1.00  0.00     0.074 A 
ATOM     37  C   UNL     1       5.270  -0.316   0.846  1.00  0.00     0.049 A 
ATOM     38  N   UNL     1       7.297  -2.434   1.703  1.00  0.00    -0.248 NA
ATOM     39  C   UNL     1       5.618  -4.030   1.405  1.00  0.00     0.031 C 
ATOM     40  C   UNL     1       4.305   0.704   0.433  1.00  0.00     0.029 A 
ATOM     41  N   UNL     1       6.455   0.357   0.947  1.00  0.00    -0.354 N 
ATOM     42  C   UNL     1       7.804  -3.701   1.965  1.00  0.00     0.074 A 
ATOM     43  C   UNL     1       6.724  -4.645   1.793  1.00  0.00     0.031 C 
ATOM     44  C   UNL     1       4.936   1.887   0.347  1.00  0.00     0.029 A 
ATOM     45  C   UNL     1       6.327   1.710   0.751  1.00  0.00     0.049 A 
ATOM     46  H   UNL     1       7.314  -0.084   1.141  1.00  0.00     0.167 HD
ATOM     47  C   UNL     1       9.062  -4.034   2.333  1.00  0.00     0.031 A 
ATOM     48  C   UNL     1       7.231   2.690   0.933  1.00  0.00     0.031 A 
ATOM     49  C   UNL     1      10.102  -3.060   2.517  1.00  0.00     0.049 A 
ATOM     50  C   UNL     1       8.605   2.306   1.414  1.00  0.00     0.074 A 
ATOM     51  C   UNL     1      11.412  -3.255   2.908  1.00  0.00     0.029 A 
ATOM     52  N   UNL     1       9.937  -1.694   2.317  1.00  0.00    -0.354 N 
ATOM     53  N   UNL     1       9.074   1.111   1.698  1.00  0.00    -0.248 NA
ATOM     54  C   UNL     1       9.569   3.395   1.601  1.00  0.00     0.031 C 
ATOM     55  C   UNL     1      12.028  -2.000   2.987  1.00  0.00     0.029 A 
ATOM     56  C   UNL     1      11.118  -1.031   2.589  1.00  0.00     0.049 A 
ATOM     57  H   UNL     1       9.102  -1.263   2.024  1.00  0.00     0.167 HD
ATOM     58  C   UNL     1      10.398   1.303   2.074  1.00  0.00     0.074 A 
ATOM     59  C   UNL     1      10.654   2.727   1.970  1.00  0.00     0.031 C 
ATOM     60  C   UNL     1      11.323   0.392   2.469  1.00  0.00     0.031 A 
BRANCH  47  61
ATOM     61  C   UNL     1       9.340  -5.485   2.615  1.00  0.00    -0.014 A 
ATOM     62  C   UNL     1       9.373  -6.440   1.583  1.00  0.00     0.010 A 
ATOM     63  C   UNL     1       9.559  -5.905   3.940  1.00  0.00     0.010 A 
ATOM     64  C   UNL     1       9.579  -7.792   1.874  1.00  0.00     0.020 A 
ATOM     65  C   UNL     1       9.792  -7.252   4.233  1.00  0.00     0.020 A 
ATOM     66  C   UNL     1       9.783  -8.190   3.199  1.00  0.00     0.054 A 
BRANCH  66  67
ATOM     67  S   UNL     1      10.058  -9.948   3.549  1.00  0.00     0.124 S 
ATOM     68  O   UNL     1       8.720 -10.506   3.364  1.00  0.00    -0.237 OA
ATOM     69  O   UNL     1      11.041 -10.327   2.538  1.00  0.00    -0.237 OA
ATOM     70  O   UNL     1      10.550  -9.956   4.925  1.00  0.00    -0.744 OA
ENDBRANCH  66  67
ENDBRANCH  47  61
BRANCH  48  71
ATOM     71  C   UNL     1       6.850   4.108   0.696  1.00  0.00    -0.014 A 
ATOM     72  C   UNL     1       7.381   4.818  -0.394  1.00  0.00     0.010 A 
ATOM     73  C   UNL     1       5.929   4.751   1.545  1.00  0.00     0.010 A 
ATOM     74  C   UNL     1       7.008   6.146  -0.625  1.00  0.00     0.020 A 
ATOM     75  C   UNL     1       5.533   6.070   1.302  1.00  0.00     0.020 A 
ATOM     76  C   UNL     1       6.084   6.763   0.223  1.00  0.00     0.054 A 
BRANCH  76  77
ATOM     77  S   UNL     1       5.574   8.468  -0.129  1.00  0.00     0.124 S 
ATOM     78  O   UNL     1       6.754   9.227   0.273  1.00  0.00    -0.237 OA
ATOM     79  O   UNL     1       5.306   8.428  -1.565  1.00  0.00    -0.237 OA
ATOM     80  O   UNL     1       4.393   8.653   0.712  1.00  0.00    -0.744 OA
ENDBRANCH  76  77
ENDBRANCH  48  71
BRANCH  60  81
ATOM     81  C   UNL     1      12.700   0.910   2.771  1.00  0.00    -0.014 A 
ATOM     82  C   UNL     1      12.966   1.627   3.950  1.00  0.00     0.010 A 
ATOM     83  C   UNL     1      13.752   0.621   1.883  1.00  0.00     0.010 A 
ATOM     84  C   UNL     1      14.260   2.075   4.220  1.00  0.00     0.020 A 
ATOM     85  C   UNL     1      15.052   1.043   2.165  1.00  0.00     0.020 A 
ATOM     86  C   UNL     1      15.294   1.781   3.325  1.00  0.00     0.054 A 
BRANCH  86  87
ATOM     87  S   UNL     1      16.974   2.337   3.719  1.00  0.00     0.124 S 
ATOM     88  O   UNL     1      16.897   3.765   3.426  1.00  0.00    -0.237 OA
ATOM     89  O   UNL     1      17.104   1.990   5.132  1.00  0.00    -0.237 OA
ATOM     90  O   UNL     1      17.817   1.558   2.814  1.00  0.00    -0.744 OA
ENDBRANCH  86  87
ENDBRANCH  60  81
ENDBRANCH  34  35
ENDBRANCH  27  29
ENDBRANCH  26  27
ENDBRANCH   1  26
TORSDOF 17
