REMARK SMILES C[C@@H](NS(=O)(=O)c1ccccc1)C(=O)OCCOC(=O)c1ccc(-c2c3nc(c(-c4ccc(S(=O)(=O)[O-])cc4)c4ccc([nH]4)c(-c4ccc(S(=O)(=O)[O-])cc4)c4nc(c(-c5ccc(S(=O)(=O)[O-])cc5)c5ccc2[nH]5)C=C4)C=C3)cc1
REMARK SMILES IDX 16 1 15 2 13 3 14 4 2 5 1 6 3 7 4 9 5 10 6 11 7 12 8 13
REMARK SMILES IDX 12 14 9 15 11 16 10 17 17 18 18 19 19 20 20 21 21 22 22 23
REMARK SMILES IDX 80 24 23 25 79 26 24 27 25 28 26 29 73 30 27 31 78 32 72 33
REMARK SMILES IDX 74 34 28 35 77 36 71 37 70 38 29 40 59 41 40 42 58 43 41 44
REMARK SMILES IDX 44 45 57 46 75 47 42 48 43 49 56 51 76 52 45 53 30 54 31 55
REMARK SMILES IDX 39 56 32 57 38 58 33 59 34 60 35 61 36 62 37 63 60 64 61 65
REMARK SMILES IDX 69 66 62 67 68 68 63 69 64 70 65 71 66 72 67 73 46 74 47 75
REMARK SMILES IDX 55 76 48 77 54 78 49 79 50 80 51 81 52 82 53 83
REMARK H PARENT 3 8 74 39 44 50
REMARK Flexibility Score: inf
ROOT
ATOM      1  C   UNL     1      -3.176   0.050   0.642  1.00  0.00     0.274 C 
ENDROOT
BRANCH   1   2
ATOM      2  O   UNL     1      -1.768   0.247   0.877  1.00  0.00    -0.461 OA
BRANCH   2   3
ATOM      3  C   UNL     1      -1.046  -0.882   1.122  1.00  0.00     0.324 C 
ATOM      4  O   UNL     1      -1.526  -2.010   1.139  1.00  0.00    -0.250 OA
BRANCH   3   5
ATOM      5  C   UNL     1       0.417  -0.601   1.450  1.00  0.00     0.176 C 
ATOM      6  C   UNL     1       0.959   0.632   0.733  1.00  0.00     0.038 C 
BRANCH   5   7
ATOM      7  N   UNL     1       0.644  -0.447   2.905  1.00  0.00    -0.197 NA
ATOM      8  H   UNL     1      -0.016   0.254   3.242  1.00  0.00     0.142 HD
BRANCH   7   9
ATOM      9  S   UNL     1       0.470  -1.815   3.888  1.00  0.00     0.241 S 
ATOM     10  O   UNL     1       0.944  -2.950   3.122  1.00  0.00    -0.207 OA
ATOM     11  O   UNL     1       1.063  -1.451   5.151  1.00  0.00    -0.207 OA
BRANCH   9  12
ATOM     12  C   UNL     1      -1.275  -1.944   4.145  1.00  0.00     0.082 A 
ATOM     13  C   UNL     1      -2.008  -0.793   4.455  1.00  0.00     0.022 A 
ATOM     14  C   UNL     1      -1.915  -3.171   3.954  1.00  0.00     0.022 A 
ATOM     15  C   UNL     1      -3.397  -0.871   4.548  1.00  0.00     0.001 A 
ATOM     16  C   UNL     1      -3.305  -3.240   4.048  1.00  0.00     0.001 A 
ATOM     17  C   UNL     1      -4.044  -2.091   4.339  1.00  0.00     0.000 A 
ENDBRANCH   9  12
ENDBRANCH   7   9
ENDBRANCH   5   7
ENDBRANCH   3   5
ENDBRANCH   2   3
ENDBRANCH   1   2
BRANCH   1  18
ATOM     18  C   UNL     1      -3.515  -0.156  -0.841  1.00  0.00     0.275 C 
BRANCH  18  19
ATOM     19  O   UNL     1      -3.109  -1.450  -1.323  1.00  0.00    -0.458 OA
BRANCH  19  20
ATOM     20  C   UNL     1      -1.845  -1.513  -1.809  1.00  0.00     0.338 C 
ATOM     21  O   UNL     1      -1.075  -0.575  -1.949  1.00  0.00    -0.246 OA
BRANCH  20  22
ATOM     22  C   UNL     1      -1.430  -2.921  -1.968  1.00  0.00     0.060 A 
ATOM     23  C   UNL     1      -0.188  -3.288  -1.437  1.00  0.00     0.016 A 
ATOM     24  C   UNL     1      -2.218  -3.862  -2.634  1.00  0.00     0.016 A 
ATOM     25  C   UNL     1       0.268  -4.597  -1.552  1.00  0.00     0.010 A 
ATOM     26  C   UNL     1      -1.747  -5.173  -2.772  1.00  0.00     0.010 A 
ATOM     27  C   UNL     1      -0.501  -5.543  -2.236  1.00  0.00    -0.014 A 
BRANCH  27  28
ATOM     28  C   UNL     1       0.046  -6.901  -2.446  1.00  0.00     0.031 A 
ATOM     29  C   UNL     1       0.710  -7.231  -3.751  1.00  0.00     0.074 A 
ATOM     30  C   UNL     1      -0.014  -7.813  -1.458  1.00  0.00     0.049 A 
ATOM     31  N   UNL     1       1.209  -8.368  -4.158  1.00  0.00    -0.248 NA
ATOM     32  C   UNL     1       0.836  -6.133  -4.724  1.00  0.00     0.031 C 
ATOM     33  C   UNL     1      -0.574  -7.581  -0.126  1.00  0.00     0.029 A 
ATOM     34  N   UNL     1       0.402  -9.119  -1.425  1.00  0.00    -0.354 N 
ATOM     35  C   UNL     1       1.696  -8.130  -5.437  1.00  0.00     0.074 A 
ATOM     36  C   UNL     1       1.426  -6.742  -5.744  1.00  0.00     0.031 C 
ATOM     37  C   UNL     1      -0.475  -8.713   0.592  1.00  0.00     0.029 A 
ATOM     38  C   UNL     1       0.118  -9.757  -0.241  1.00  0.00     0.049 A 
ATOM     39  H   UNL     1       0.861  -9.559  -2.178  1.00  0.00     0.167 HD
ATOM     40  C   UNL     1       2.309  -8.994  -6.279  1.00  0.00     0.031 A 
ATOM     41  C   UNL     1       0.290 -11.044   0.118  1.00  0.00     0.031 A 
ATOM     42  C   UNL     1       2.568 -10.375  -5.971  1.00  0.00     0.049 A 
ATOM     43  C   UNL     1       0.901 -12.003  -0.869  1.00  0.00     0.074 A 
ATOM     44  C   UNL     1       3.182 -11.332  -6.759  1.00  0.00     0.029 A 
ATOM     45  N   UNL     1       2.222 -10.996  -4.781  1.00  0.00    -0.354 N 
ATOM     46  N   UNL     1       1.351 -11.765  -2.078  1.00  0.00    -0.248 NA
ATOM     47  C   UNL     1       1.022 -13.405  -0.445  1.00  0.00     0.031 C 
ATOM     48  C   UNL     1       3.166 -12.546  -6.062  1.00  0.00     0.029 A 
ATOM     49  C   UNL     1       2.584 -12.331  -4.822  1.00  0.00     0.049 A 
ATOM     50  H   UNL     1       1.783 -10.553  -4.019  1.00  0.00     0.167 HD
ATOM     51  C   UNL     1       1.820 -12.984  -2.554  1.00  0.00     0.074 A 
ATOM     52  C   UNL     1       1.617 -13.953  -1.496  1.00  0.00     0.031 C 
ATOM     53  C   UNL     1       2.367 -13.278  -3.760  1.00  0.00     0.031 A 
BRANCH  40  54
ATOM     54  C   UNL     1       2.705  -8.481  -7.636  1.00  0.00    -0.014 A 
ATOM     55  C   UNL     1       3.830  -7.655  -7.802  1.00  0.00     0.010 A 
ATOM     56  C   UNL     1       1.966  -8.873  -8.766  1.00  0.00     0.010 A 
ATOM     57  C   UNL     1       4.196  -7.211  -9.076  1.00  0.00     0.020 A 
ATOM     58  C   UNL     1       2.340  -8.446 -10.043  1.00  0.00     0.020 A 
ATOM     59  C   UNL     1       3.447  -7.608 -10.189  1.00  0.00     0.054 A 
BRANCH  59  60
ATOM     60  S   UNL     1       3.962  -7.046 -11.835  1.00  0.00     0.124 S 
ATOM     61  O   UNL     1       3.540  -5.648 -11.822  1.00  0.00    -0.237 OA
ATOM     62  O   UNL     1       5.406  -7.266 -11.813  1.00  0.00    -0.237 OA
ATOM     63  O   UNL     1       3.218  -7.913 -12.746  1.00  0.00    -0.744 OA
ENDBRANCH  59  60
ENDBRANCH  40  54
BRANCH  41  64
ATOM     64  C   UNL     1      -0.176 -11.517   1.449  1.00  0.00    -0.014 A 
ATOM     65  C   UNL     1       0.740 -11.902   2.442  1.00  0.00     0.010 A 
ATOM     66  C   UNL     1      -1.555 -11.601   1.721  1.00  0.00     0.010 A 
ATOM     67  C   UNL     1       0.287 -12.384   3.675  1.00  0.00     0.020 A 
ATOM     68  C   UNL     1      -2.011 -12.058   2.960  1.00  0.00     0.020 A 
ATOM     69  C   UNL     1      -1.087 -12.462   3.924  1.00  0.00     0.054 A 
BRANCH  69  70
ATOM     70  S   UNL     1      -1.660 -13.057   5.540  1.00  0.00     0.124 S 
ATOM     71  O   UNL     1      -1.512 -14.502   5.400  1.00  0.00    -0.237 OA
ATOM     72  O   UNL     1      -0.733 -12.412   6.467  1.00  0.00    -0.237 OA
ATOM     73  O   UNL     1      -3.037 -12.571   5.611  1.00  0.00    -0.744 OA
ENDBRANCH  69  70
ENDBRANCH  41  64
BRANCH  53  74
ATOM     74  C   UNL     1       2.798 -14.700  -3.991  1.00  0.00    -0.014 A 
ATOM     75  C   UNL     1       1.852 -15.710  -4.241  1.00  0.00     0.010 A 
ATOM     76  C   UNL     1       4.167 -15.019  -4.010  1.00  0.00     0.010 A 
ATOM     77  C   UNL     1       2.268 -17.022  -4.479  1.00  0.00     0.020 A 
ATOM     78  C   UNL     1       4.588 -16.326  -4.270  1.00  0.00     0.020 A 
ATOM     79  C   UNL     1       3.634 -17.322  -4.489  1.00  0.00     0.054 A 
BRANCH  79  80
ATOM     80  S   UNL     1       4.154 -19.024  -4.843  1.00  0.00     0.124 S 
ATOM     81  O   UNL     1       3.893 -19.692  -3.571  1.00  0.00    -0.237 OA
ATOM     82  O   UNL     1       3.277 -19.408  -5.947  1.00  0.00    -0.237 OA
ATOM     83  O   UNL     1       5.565 -18.886  -5.197  1.00  0.00    -0.744 OA
ENDBRANCH  79  80
ENDBRANCH  53  74
ENDBRANCH  27  28
ENDBRANCH  20  22
ENDBRANCH  19  20
ENDBRANCH  18  19
ENDBRANCH   1  18
TORSDOF 17
