REMARK SMILES CS(=O)(=O)c1ccc(C2=NN(c3ccc(C(=O)OCCOC(=O)c4ccc(-c5c6nc(c(-c7ccc(S(=O)(=O)[O-])cc7)c7ccc([nH]7)c(-c7ccc(S(=O)(=O)[O-])cc7)c7nc(c(-c8ccc(S(=O)(=O)[O-])cc8)c8ccc5[nH]8)C=C7)C=C6)cc4)cc3)[C@H](c3ccc(F)cc3)C2)cc1
REMARK SMILES IDX 19 1 18 2 16 3 17 4 15 5 12 6 13 7 85 8 14 9 84 10 11 11
REMARK SMILES IDX 9 12 10 13 94 14 86 15 8 16 5 17 6 18 96 19 7 20 95 21 2 22
REMARK SMILES IDX 1 23 3 24 4 25 87 26 88 27 93 28 89 29 92 30 90 31 91 32
REMARK SMILES IDX 20 33 21 34 22 35 23 36 24 37 25 38 83 39 26 40 82 41 27 42
REMARK SMILES IDX 28 43 29 44 76 45 30 46 81 47 75 48 77 49 31 50 80 51 74 52
REMARK SMILES IDX 73 53 32 55 62 56 43 57 61 58 44 59 47 60 60 61 78 62 45 63
REMARK SMILES IDX 46 64 59 66 79 67 48 68 33 69 34 70 42 71 35 72 41 73 36 74
REMARK SMILES IDX 37 75 38 76 39 77 40 78 63 79 64 80 72 81 65 82 71 83 66 84
REMARK SMILES IDX 67 85 68 86 69 87 70 88 49 89 50 90 58 91 51 92 57 93 52 94
REMARK SMILES IDX 53 95 54 96 55 97 56 98
REMARK H PARENT 77 54 47 65
REMARK Flexibility Score: inf
ROOT
ATOM      1  C   UNL     1       9.122   2.183  12.765  1.00  0.00     0.275 C 
ENDROOT
BRANCH   1   2
ATOM      2  O   UNL     1       7.915   2.093  11.984  1.00  0.00    -0.458 OA
BRANCH   2   3
ATOM      3  C   UNL     1       7.580   3.206  11.289  1.00  0.00     0.338 C 
ATOM      4  O   UNL     1       8.166   4.278  11.317  1.00  0.00    -0.246 OA
BRANCH   3   5
ATOM      5  C   UNL     1       6.412   2.958  10.409  1.00  0.00     0.060 A 
ATOM      6  C   UNL     1       4.160   2.665   8.752  1.00  0.00     0.060 A 
ATOM      7  C   UNL     1       5.119   3.643   8.473  1.00  0.00     0.029 A 
ATOM      8  C   UNL     1       4.370   1.799   9.834  1.00  0.00     0.029 A 
ATOM      9  C   UNL     1       6.217   3.811   9.314  1.00  0.00     0.018 A 
ATOM     10  C   UNL     1       5.492   1.936  10.658  1.00  0.00     0.018 A 
BRANCH   6  11
ATOM     11  N   UNL     1       2.942   2.635   8.062  1.00  0.00    -0.257 N 
ATOM     12  C   UNL     1       1.997   2.896   6.162  1.00  0.00     0.071 C 
ATOM     13  N   UNL     1       2.950   2.248   6.758  1.00  0.00    -0.176 NA
ATOM     14  C   UNL     1       1.243   3.882   7.011  1.00  0.00     0.091 C 
ATOM     15  C   UNL     1       1.989   3.723   8.340  1.00  0.00     0.144 C 
BRANCH  12  16
ATOM     16  C   UNL     1       1.634   2.653   4.754  1.00  0.00    -0.002 A 
ATOM     17  C   UNL     1       0.868   2.072   2.139  1.00  0.00     0.067 A 
ATOM     18  C   UNL     1       1.292   1.039   2.976  1.00  0.00     0.021 A 
ATOM     19  C   UNL     1       0.851   3.398   2.594  1.00  0.00     0.021 A 
ATOM     20  C   UNL     1       1.688   1.336   4.281  1.00  0.00     0.011 A 
ATOM     21  C   UNL     1       1.224   3.688   3.911  1.00  0.00     0.011 A 
BRANCH  17  22
ATOM     22  S   UNL     1       0.322   1.745   0.477  1.00  0.00     0.175 S 
ATOM     23  C   UNL     1       1.140   0.265  -0.052  1.00  0.00     0.163 C 
ATOM     24  O   UNL     1       0.815   2.832  -0.347  1.00  0.00    -0.224 OA
ATOM     25  O   UNL     1      -1.099   1.465   0.571  1.00  0.00    -0.224 OA
ENDBRANCH  17  22
ENDBRANCH  12  16
BRANCH  15  26
ATOM     26  C   UNL     1       1.192   3.386   9.594  1.00  0.00    -0.023 A 
ATOM     27  C   UNL     1      -0.003   2.652   9.578  1.00  0.00     0.009 A 
ATOM     28  C   UNL     1       1.751   3.721  10.848  1.00  0.00     0.009 A 
ATOM     29  C   UNL     1      -0.619   2.270  10.774  1.00  0.00     0.039 A 
ATOM     30  C   UNL     1       1.151   3.315  12.040  1.00  0.00     0.039 A 
ATOM     31  C   UNL     1      -0.032   2.594  11.991  1.00  0.00     0.123 A 
ATOM     32  F   UNL     1      -0.605   2.188  13.132  1.00  0.00    -0.207 F 
ENDBRANCH  15  26
ENDBRANCH   6  11
ENDBRANCH   3   5
ENDBRANCH   2   3
ENDBRANCH   1   2
BRANCH   1  33
ATOM     33  C   UNL     1      10.286   1.499  12.050  1.00  0.00     0.275 C 
BRANCH  33  34
ATOM     34  O   UNL     1      10.658   2.231  10.868  1.00  0.00    -0.458 OA
BRANCH  34  35
ATOM     35  C   UNL     1      10.252   1.688   9.697  1.00  0.00     0.338 C 
ATOM     36  O   UNL     1       9.647   0.643   9.531  1.00  0.00    -0.246 OA
BRANCH  35  37
ATOM     37  C   UNL     1      10.627   2.583   8.594  1.00  0.00     0.060 A 
ATOM     38  C   UNL     1       9.798   3.661   8.288  1.00  0.00     0.016 A 
ATOM     39  C   UNL     1      11.729   2.294   7.795  1.00  0.00     0.016 A 
ATOM     40  C   UNL     1      10.029   4.425   7.146  1.00  0.00     0.010 A 
ATOM     41  C   UNL     1      12.002   3.105   6.688  1.00  0.00     0.010 A 
ATOM     42  C   UNL     1      11.141   4.163   6.337  1.00  0.00    -0.014 A 
BRANCH  42  43
ATOM     43  C   UNL     1      11.402   4.960   5.108  1.00  0.00     0.031 A 
ATOM     44  C   UNL     1      11.441   4.271   3.769  1.00  0.00     0.074 A 
ATOM     45  C   UNL     1      11.635   6.286   5.184  1.00  0.00     0.049 A 
ATOM     46  N   UNL     1      11.890   4.714   2.624  1.00  0.00    -0.248 NA
ATOM     47  C   UNL     1      10.917   2.895   3.717  1.00  0.00     0.031 C 
ATOM     48  C   UNL     1      11.558   7.097   6.402  1.00  0.00     0.029 A 
ATOM     49  N   UNL     1      11.997   7.187   4.212  1.00  0.00    -0.354 N 
ATOM     50  C   UNL     1      11.770   3.652   1.734  1.00  0.00     0.074 A 
ATOM     51  C   UNL     1      11.190   2.548   2.467  1.00  0.00     0.031 C 
ATOM     52  C   UNL     1      11.849   8.373   6.101  1.00  0.00     0.029 A 
ATOM     53  C   UNL     1      12.222   8.456   4.694  1.00  0.00     0.049 A 
ATOM     54  H   UNL     1      12.088   6.947   3.261  1.00  0.00     0.167 HD
ATOM     55  C   UNL     1      12.124   3.604   0.427  1.00  0.00     0.031 A 
ATOM     56  C   UNL     1      12.725   9.551   4.090  1.00  0.00     0.031 A 
ATOM     57  C   UNL     1      12.656   4.723  -0.303  1.00  0.00     0.049 A 
ATOM     58  C   UNL     1      13.161   9.458   2.653  1.00  0.00     0.074 A 
ATOM     59  C   UNL     1      13.023   4.783  -1.637  1.00  0.00     0.029 A 
ATOM     60  N   UNL     1      12.885   5.981   0.232  1.00  0.00    -0.354 N 
ATOM     61  N   UNL     1      13.085   8.435   1.835  1.00  0.00    -0.248 NA
ATOM     62  C   UNL     1      13.769  10.659   2.063  1.00  0.00     0.031 C 
ATOM     63  C   UNL     1      13.514   6.066  -1.896  1.00  0.00     0.029 A 
ATOM     64  C   UNL     1      13.405   6.819  -0.738  1.00  0.00     0.049 A 
ATOM     65  H   UNL     1      12.704   6.240   1.165  1.00  0.00     0.167 HD
ATOM     66  C   UNL     1      13.611   8.878   0.627  1.00  0.00     0.074 A 
ATOM     67  C   UNL     1      13.997  10.261   0.818  1.00  0.00     0.031 C 
ATOM     68  C   UNL     1      13.762   8.199  -0.535  1.00  0.00     0.031 A 
BRANCH  55  69
ATOM     69  C   UNL     1      12.001   2.286  -0.290  1.00  0.00    -0.014 A 
ATOM     70  C   UNL     1      10.754   1.771  -0.682  1.00  0.00     0.010 A 
ATOM     71  C   UNL     1      13.171   1.582  -0.633  1.00  0.00     0.010 A 
ATOM     72  C   UNL     1      10.678   0.561  -1.380  1.00  0.00     0.020 A 
ATOM     73  C   UNL     1      13.101   0.385  -1.351  1.00  0.00     0.020 A 
ATOM     74  C   UNL     1      11.852  -0.126  -1.708  1.00  0.00     0.054 A 
BRANCH  74  75
ATOM     75  S   UNL     1      11.727  -1.675  -2.643  1.00  0.00     0.124 S 
ATOM     76  O   UNL     1      11.244  -2.604  -1.623  1.00  0.00    -0.237 OA
ATOM     77  O   UNL     1      10.768  -1.342  -3.692  1.00  0.00    -0.237 OA
ATOM     78  O   UNL     1      13.093  -1.914  -3.104  1.00  0.00    -0.744 OA
ENDBRANCH  74  75
ENDBRANCH  55  69
BRANCH  56  79
ATOM     79  C   UNL     1      12.900  10.814   4.858  1.00  0.00    -0.014 A 
ATOM     80  C   UNL     1      12.110  11.941   4.569  1.00  0.00     0.010 A 
ATOM     81  C   UNL     1      13.858  10.897   5.886  1.00  0.00     0.010 A 
ATOM     82  C   UNL     1      12.285  13.130   5.284  1.00  0.00     0.020 A 
ATOM     83  C   UNL     1      14.015  12.074   6.622  1.00  0.00     0.020 A 
ATOM     84  C   UNL     1      13.236  13.188   6.307  1.00  0.00     0.054 A 
BRANCH  84  85
ATOM     85  S   UNL     1      13.414  14.726   7.254  1.00  0.00     0.124 S 
ATOM     86  O   UNL     1      14.157  15.570   6.324  1.00  0.00    -0.237 OA
ATOM     87  O   UNL     1      12.026  15.115   7.493  1.00  0.00    -0.237 OA
ATOM     88  O   UNL     1      14.148  14.308   8.447  1.00  0.00    -0.744 OA
ENDBRANCH  84  85
ENDBRANCH  56  79
BRANCH  68  89
ATOM     89  C   UNL     1      14.313   8.950  -1.715  1.00  0.00    -0.014 A 
ATOM     90  C   UNL     1      15.686   9.229  -1.824  1.00  0.00     0.010 A 
ATOM     91  C   UNL     1      13.452   9.296  -2.772  1.00  0.00     0.010 A 
ATOM     92  C   UNL     1      16.188   9.850  -2.970  1.00  0.00     0.020 A 
ATOM     93  C   UNL     1      13.954   9.898  -3.928  1.00  0.00     0.020 A 
ATOM     94  C   UNL     1      15.319  10.176  -4.017  1.00  0.00     0.054 A 
BRANCH  94  95
ATOM     95  S   UNL     1      16.007  10.907  -5.529  1.00  0.00     0.124 S 
ATOM     96  O   UNL     1      16.275  12.279  -5.109  1.00  0.00    -0.237 OA
ATOM     97  O   UNL     1      17.188  10.083  -5.776  1.00  0.00    -0.237 OA
ATOM     98  O   UNL     1      14.932  10.753  -6.507  1.00  0.00    -0.744 OA
ENDBRANCH  94  95
ENDBRANCH  68  89
ENDBRANCH  42  43
ENDBRANCH  35  37
ENDBRANCH  34  35
ENDBRANCH  33  34
ENDBRANCH   1  33
TORSDOF 18
