REMARK SMILES C[C@@H](C(=O)OCCOC(=O)c1ccc(-c2c3nc(c(-c4ccc(S(=O)(=O)[O-])cc4)c4ccc([nH]4)c(-c4ccc(S(=O)(=O)[O-])cc4)c4nc(c(-c5ccc(S(=O)(=O)[O-])cc5)c5ccc2[nH]5)C=C4)C=C3)cc1)c1ccc(C[C@H]2CCCC2=O)c(-c2ccccc2)c1
REMARK SMILES IDX 6 1 5 2 3 3 4 4 2 5 1 6 71 7 72 8 89 9 73 10 82 11 74 12
REMARK SMILES IDX 83 13 84 14 88 15 85 16 87 17 86 18 75 19 76 20 77 21 80 22
REMARK SMILES IDX 78 23 79 24 81 25 7 26 8 27 9 28 10 29 11 30 12 31 70 32
REMARK SMILES IDX 13 33 69 34 14 35 15 36 16 37 63 38 17 39 68 40 62 41 64 42
REMARK SMILES IDX 18 43 67 44 61 45 60 46 19 48 49 49 30 50 48 51 31 52 34 53
REMARK SMILES IDX 47 54 65 55 32 56 33 57 46 59 66 60 35 61 20 62 21 63 29 64
REMARK SMILES IDX 22 65 28 66 23 67 24 68 25 69 26 70 27 71 50 72 51 73 59 74
REMARK SMILES IDX 52 75 58 76 53 77 54 78 55 79 56 80 57 81 36 82 37 83 45 84
REMARK SMILES IDX 38 85 44 86 39 87 40 88 41 89 42 90 43 91
REMARK H PARENT 64 47 34 58
REMARK Flexibility Score: inf
ROOT
ATOM      1  C   UNL     1       2.265   1.653   3.319  1.00  0.00     0.274 C 
ENDROOT
BRANCH   1   2
ATOM      2  O   UNL     1       1.969   0.837   2.165  1.00  0.00    -0.462 OA
BRANCH   2   3
ATOM      3  C   UNL     1       1.073  -0.175   2.343  1.00  0.00     0.313 C 
ATOM      4  O   UNL     1       0.569  -0.459   3.424  1.00  0.00    -0.252 OA
BRANCH   3   5
ATOM      5  C   UNL     1       0.813  -0.975   1.046  1.00  0.00     0.126 C 
ATOM      6  C   UNL     1       1.448  -0.340  -0.196  1.00  0.00     0.025 C 
BRANCH   5   7
ATOM      7  C   UNL     1      -0.684  -1.216   0.908  1.00  0.00    -0.033 A 
ATOM      8  C   UNL     1      -1.522  -0.236   0.382  1.00  0.00     0.005 A 
ATOM      9  C   UNL     1      -1.284  -2.366   1.453  1.00  0.00     0.013 A 
ATOM     10  C   UNL     1      -2.873  -0.245   0.711  1.00  0.00     0.004 A 
ATOM     11  C   UNL     1      -2.668  -2.410   1.696  1.00  0.00    -0.015 A 
ATOM     12  C   UNL     1      -3.390  -1.215   1.574  1.00  0.00    -0.039 A 
BRANCH  11  13
ATOM     13  C   UNL     1      -3.390  -3.675   1.909  1.00  0.00    -0.018 A 
ATOM     14  C   UNL     1      -4.473  -3.982   1.052  1.00  0.00     0.009 A 
ATOM     15  C   UNL     1      -3.106  -4.559   2.951  1.00  0.00     0.009 A 
ATOM     16  C   UNL     1      -5.307  -5.071   1.290  1.00  0.00     0.001 A 
ATOM     17  C   UNL     1      -3.945  -5.653   3.193  1.00  0.00     0.001 A 
ATOM     18  C   UNL     1      -5.051  -5.897   2.376  1.00  0.00     0.000 A 
ENDBRANCH  11  13
BRANCH  12  19
ATOM     19  C   UNL     1      -4.682  -0.954   2.329  1.00  0.00     0.047 C 
BRANCH  19  20
ATOM     20  C   UNL     1      -4.641  -0.746   3.866  1.00  0.00     0.060 C 
ATOM     21  C   UNL     1      -4.657  -1.999   4.757  1.00  0.00     0.012 C 
ATOM     22  C   UNL     1      -3.555   0.072   4.561  1.00  0.00     0.136 C 
ATOM     23  C   UNL     1      -3.397  -1.950   5.621  1.00  0.00     0.009 C 
ATOM     24  C   UNL     1      -3.192  -0.483   5.902  1.00  0.00     0.076 C 
ATOM     25  O   UNL     1      -3.081   1.133   4.195  1.00  0.00    -0.299 OA
ENDBRANCH  19  20
ENDBRANCH  12  19
ENDBRANCH   5   7
ENDBRANCH   3   5
ENDBRANCH   2   3
ENDBRANCH   1   2
BRANCH   1  26
ATOM     26  C   UNL     1       1.855   3.101   3.050  1.00  0.00     0.275 C 
BRANCH  26  27
ATOM     27  O   UNL     1       0.419   3.201   3.016  1.00  0.00    -0.458 OA
BRANCH  27  28
ATOM     28  C   UNL     1      -0.119   4.058   2.114  1.00  0.00     0.338 C 
ATOM     29  O   UNL     1       0.492   4.769   1.323  1.00  0.00    -0.246 OA
BRANCH  28  30
ATOM     30  C   UNL     1      -1.594   4.007   2.205  1.00  0.00     0.060 A 
ATOM     31  C   UNL     1      -2.208   2.778   2.074  1.00  0.00     0.016 A 
ATOM     32  C   UNL     1      -2.396   5.142   2.374  1.00  0.00     0.016 A 
ATOM     33  C   UNL     1      -3.600   2.685   2.125  1.00  0.00     0.010 A 
ATOM     34  C   UNL     1      -3.806   5.023   2.482  1.00  0.00     0.010 A 
ATOM     35  C   UNL     1      -4.426   3.773   2.380  1.00  0.00    -0.014 A 
BRANCH  35  36
ATOM     36  C   UNL     1      -5.897   3.496   2.392  1.00  0.00     0.031 A 
ATOM     37  C   UNL     1      -6.665   3.666   1.113  1.00  0.00     0.074 A 
ATOM     38  C   UNL     1      -6.520   2.884   3.427  1.00  0.00     0.049 A 
ATOM     39  N   UNL     1      -7.947   3.522   0.900  1.00  0.00    -0.248 NA
ATOM     40  C   UNL     1      -5.893   4.064  -0.073  1.00  0.00     0.031 C 
ATOM     41  C   UNL     1      -5.899   2.539   4.701  1.00  0.00     0.029 A 
ATOM     42  N   UNL     1      -7.796   2.365   3.541  1.00  0.00    -0.354 N 
ATOM     43  C   UNL     1      -8.156   3.953  -0.401  1.00  0.00     0.074 A 
ATOM     44  C   UNL     1      -6.856   4.248  -0.964  1.00  0.00     0.031 C 
ATOM     45  C   UNL     1      -6.741   1.762   5.410  1.00  0.00     0.029 A 
ATOM     46  C   UNL     1      -8.000   1.610   4.681  1.00  0.00     0.049 A 
ATOM     47  H   UNL     1      -8.499   2.519   2.869  1.00  0.00     0.167 HD
ATOM     48  C   UNL     1      -9.337   4.173  -1.025  1.00  0.00     0.031 A 
ATOM     49  C   UNL     1      -9.070   0.884   5.084  1.00  0.00     0.031 A 
ATOM     50  C   UNL     1     -10.623   3.862  -0.461  1.00  0.00     0.049 A 
ATOM     51  C   UNL     1     -10.367   1.026   4.318  1.00  0.00     0.074 A 
ATOM     52  C   UNL     1     -11.882   4.177  -0.943  1.00  0.00     0.029 A 
ATOM     53  N   UNL     1     -10.813   3.133   0.702  1.00  0.00    -0.354 N 
ATOM     54  N   UNL     1     -10.591   1.643   3.183  1.00  0.00    -0.248 NA
ATOM     55  C   UNL     1     -11.577   0.454   4.936  1.00  0.00     0.031 C 
ATOM     56  C   UNL     1     -12.834   3.657  -0.056  1.00  0.00     0.029 A 
ATOM     57  C   UNL     1     -12.166   2.974   0.947  1.00  0.00     0.049 A 
ATOM     58  H   UNL     1     -10.091   2.780   1.271  1.00  0.00     0.167 HD
ATOM     59  C   UNL     1     -11.970   1.604   2.995  1.00  0.00     0.074 A 
ATOM     60  C   UNL     1     -12.521   0.819   4.078  1.00  0.00     0.031 C 
ATOM     61  C   UNL     1     -12.714   2.216   2.042  1.00  0.00     0.031 A 
BRANCH  48  62
ATOM     62  C   UNL     1      -9.275   4.958  -2.303  1.00  0.00    -0.014 A 
ATOM     63  C   UNL     1      -8.845   4.398  -3.515  1.00  0.00     0.010 A 
ATOM     64  C   UNL     1      -9.618   6.324  -2.254  1.00  0.00     0.010 A 
ATOM     65  C   UNL     1      -8.713   5.206  -4.649  1.00  0.00     0.020 A 
ATOM     66  C   UNL     1      -9.514   7.126  -3.389  1.00  0.00     0.020 A 
ATOM     67  C   UNL     1      -9.038   6.566  -4.575  1.00  0.00     0.054 A 
BRANCH  67  68
ATOM     68  S   UNL     1      -8.842   7.599  -6.052  1.00  0.00     0.124 S 
ATOM     69  O   UNL     1      -7.394   7.783  -6.099  1.00  0.00    -0.237 OA
ATOM     70  O   UNL     1      -9.404   6.761  -7.107  1.00  0.00    -0.237 OA
ATOM     71  O   UNL     1      -9.613   8.800  -5.739  1.00  0.00    -0.744 OA
ENDBRANCH  67  68
ENDBRANCH  48  62
BRANCH  49  72
ATOM     72  C   UNL     1      -9.031   0.015   6.306  1.00  0.00    -0.014 A 
ATOM     73  C   UNL     1      -9.271  -1.373   6.205  1.00  0.00     0.010 A 
ATOM     74  C   UNL     1      -8.811   0.559   7.583  1.00  0.00     0.010 A 
ATOM     75  C   UNL     1      -9.290  -2.188   7.347  1.00  0.00     0.020 A 
ATOM     76  C   UNL     1      -8.790  -0.257   8.722  1.00  0.00     0.020 A 
ATOM     77  C   UNL     1      -9.041  -1.624   8.599  1.00  0.00     0.054 A 
BRANCH  77  78
ATOM     78  S   UNL     1      -8.975  -2.692  10.068  1.00  0.00     0.124 S 
ATOM     79  O   UNL     1     -10.379  -2.768  10.455  1.00  0.00    -0.237 OA
ATOM     80  O   UNL     1      -8.395  -3.928   9.546  1.00  0.00    -0.237 OA
ATOM     81  O   UNL     1      -8.109  -1.948  10.981  1.00  0.00    -0.744 OA
ENDBRANCH  77  78
ENDBRANCH  49  72
BRANCH  61  82
ATOM     82  C   UNL     1     -14.212   2.109   2.149  1.00  0.00    -0.014 A 
ATOM     83  C   UNL     1     -14.915   2.843   3.123  1.00  0.00     0.010 A 
ATOM     84  C   UNL     1     -14.932   1.324   1.232  1.00  0.00     0.010 A 
ATOM     85  C   UNL     1     -16.309   2.771   3.196  1.00  0.00     0.020 A 
ATOM     86  C   UNL     1     -16.328   1.264   1.291  1.00  0.00     0.020 A 
ATOM     87  C   UNL     1     -17.008   1.978   2.281  1.00  0.00     0.054 A 
BRANCH  87  88
ATOM     88  S   UNL     1     -18.820   1.927   2.371  1.00  0.00     0.124 S 
ATOM     89  O   UNL     1     -19.042   1.085   3.543  1.00  0.00    -0.237 OA
ATOM     90  O   UNL     1     -19.175   3.335   2.533  1.00  0.00    -0.237 OA
ATOM     91  O   UNL     1     -19.213   1.335   1.094  1.00  0.00    -0.744 OA
ENDBRANCH  87  88
ENDBRANCH  61  82
ENDBRANCH  35  36
ENDBRANCH  28  30
ENDBRANCH  27  28
ENDBRANCH  26  27
ENDBRANCH   1  26
TORSDOF 18
