REMARK SMILES C[C@H](Oc1cccc(/C=C2/SC(=S)N(c3ccc(Cl)c(Cl)c3)C2=O)c1)C(=O)OCCOC(=O)c1ccc(-c2c3nc(c(-c4ccc(S(=O)(=O)[O-])cc4)c4ccc([nH]4)c(-c4ccc(S(=O)(=O)[O-])cc4)c4nc(c(-c5ccc(S(=O)(=O)[O-])cc5)c5ccc2[nH]5)C=C4)C=C3)cc1
REMARK SMILES IDX 29 1 28 2 26 3 27 4 2 5 1 6 3 7 4 8 5 9 25 10 6 11 8 12 7 13
REMARK SMILES IDX 9 14 10 15 11 16 23 17 12 18 14 19 24 20 13 21 15 22 16 23
REMARK SMILES IDX 22 24 17 25 20 26 18 27 21 28 19 29 30 30 31 31 32 32 33 33
REMARK SMILES IDX 34 34 35 35 93 36 36 37 92 38 37 39 38 40 39 41 86 42 40 43
REMARK SMILES IDX 91 44 85 45 87 46 41 47 90 48 84 49 83 50 42 52 72 53 53 54
REMARK SMILES IDX 71 55 54 56 57 57 70 58 88 59 55 60 56 61 69 63 89 64 58 65
REMARK SMILES IDX 43 66 44 67 52 68 45 69 51 70 46 71 47 72 48 73 49 74 50 75
REMARK SMILES IDX 73 76 74 77 82 78 75 79 81 80 76 81 77 82 78 83 79 84 80 85
REMARK SMILES IDX 59 86 60 87 68 88 61 89 67 90 62 91 63 92 64 93 65 94 66 95
REMARK H PARENT 87 51 57 62
REMARK Flexibility Score: inf
ROOT
ATOM      1  C   UNL     1      -3.108  -0.580  -1.025  1.00  0.00     0.274 C 
ENDROOT
BRANCH   1   2
ATOM      2  O   UNL     1      -1.681  -0.759  -1.056  1.00  0.00    -0.459 OA
BRANCH   2   3
ATOM      3  C   UNL     1      -0.984   0.018  -1.937  1.00  0.00     0.347 C 
ATOM      4  O   UNL     1      -1.491   0.846  -2.686  1.00  0.00    -0.248 OA
BRANCH   3   5
ATOM      5  C   UNL     1       0.506  -0.342  -1.973  1.00  0.00     0.279 C 
ATOM      6  C   UNL     1       0.635  -1.522  -2.937  1.00  0.00     0.066 C 
BRANCH   5   7
ATOM      7  O   UNL     1       0.932  -0.589  -0.635  1.00  0.00    -0.479 OA
BRANCH   7   8
ATOM      8  C   UNL     1       2.167  -1.078  -0.342  1.00  0.00     0.121 A 
ATOM      9  C   UNL     1       3.231  -1.259  -1.218  1.00  0.00     0.046 A 
ATOM     10  C   UNL     1       2.317  -1.460   0.995  1.00  0.00     0.054 A 
ATOM     11  C   UNL     1       4.390  -1.913  -0.784  1.00  0.00     0.004 A 
ATOM     12  C   UNL     1       3.463  -2.133   1.439  1.00  0.00    -0.021 A 
ATOM     13  C   UNL     1       4.502  -2.358   0.535  1.00  0.00     0.008 A 
BRANCH  12  14
ATOM     14  C   UNL     1       3.605  -2.558   2.838  1.00  0.00     0.029 C 
ATOM     15  C   UNL     1       2.716  -3.273   3.546  1.00  0.00     0.081 C 
ATOM     16  S   UNL     1       2.895  -3.580   5.229  1.00  0.00    -0.054 SA
ATOM     17  C   UNL     1       1.429  -3.855   3.065  1.00  0.00     0.270 C 
ATOM     18  C   UNL     1       1.254  -4.209   5.385  1.00  0.00     0.152 C 
ATOM     19  N   UNL     1       0.619  -4.189   4.150  1.00  0.00    -0.261 N 
ATOM     20  O   UNL     1       1.176  -4.021   1.880  1.00  0.00    -0.268 OA
ATOM     21  S   UNL     1       0.724  -4.828   6.849  1.00  0.00    -0.051 S 
BRANCH  19  22
ATOM     22  C   UNL     1      -0.767  -4.487   3.935  1.00  0.00     0.052 A 
ATOM     23  C   UNL     1      -1.186  -5.230   2.821  1.00  0.00     0.028 A 
ATOM     24  C   UNL     1      -1.756  -3.955   4.778  1.00  0.00     0.048 A 
ATOM     25  C   UNL     1      -2.543  -5.442   2.557  1.00  0.00     0.024 A 
ATOM     26  C   UNL     1      -3.118  -4.163   4.516  1.00  0.00     0.061 A 
ATOM     27  C   UNL     1      -3.513  -4.907   3.402  1.00  0.00     0.059 A 
ATOM     28  Cl  UNL     1      -4.261  -3.445   5.597  1.00  0.00    -0.083 Cl
ATOM     29  Cl  UNL     1      -5.170  -5.188   3.007  1.00  0.00    -0.083 Cl
ENDBRANCH  19  22
ENDBRANCH  12  14
ENDBRANCH   7   8
ENDBRANCH   5   7
ENDBRANCH   3   5
ENDBRANCH   2   3
ENDBRANCH   1   2
BRANCH   1  30
ATOM     30  C   UNL     1      -3.557   0.357   0.099  1.00  0.00     0.275 C 
BRANCH  30  31
ATOM     31  O   UNL     1      -3.165   1.715  -0.156  1.00  0.00    -0.458 OA
BRANCH  31  32
ATOM     32  C   UNL     1      -1.960   2.065   0.356  1.00  0.00     0.338 C 
ATOM     33  O   UNL     1      -1.230   1.382   1.053  1.00  0.00    -0.246 OA
BRANCH  32  34
ATOM     34  C   UNL     1      -1.572   3.386  -0.164  1.00  0.00     0.060 A 
ATOM     35  C   UNL     1      -0.344   3.497  -0.824  1.00  0.00     0.016 A 
ATOM     36  C   UNL     1      -2.368   4.512   0.056  1.00  0.00     0.016 A 
ATOM     37  C   UNL     1       0.102   4.743  -1.258  1.00  0.00     0.010 A 
ATOM     38  C   UNL     1      -1.915   5.762  -0.371  1.00  0.00     0.010 A 
ATOM     39  C   UNL     1      -0.669   5.886  -1.013  1.00  0.00    -0.014 A 
BRANCH  39  40
ATOM     40  C   UNL     1      -0.132   7.227  -1.341  1.00  0.00     0.031 A 
ATOM     41  C   UNL     1       0.416   8.089  -0.239  1.00  0.00     0.074 A 
ATOM     42  C   UNL     1      -0.129   7.665  -2.613  1.00  0.00     0.049 A 
ATOM     43  N   UNL     1       0.857   9.318  -0.292  1.00  0.00    -0.248 NA
ATOM     44  C   UNL     1       0.471   7.484   1.103  1.00  0.00     0.031 C 
ATOM     45  C   UNL     1      -0.587   6.899  -3.772  1.00  0.00     0.029 A 
ATOM     46  N   UNL     1       0.270   8.867  -3.139  1.00  0.00    -0.354 N 
ATOM     47  C   UNL     1       1.224   9.644   1.008  1.00  0.00     0.074 A 
ATOM     48  C   UNL     1       0.939   8.488   1.831  1.00  0.00     0.031 C 
ATOM     49  C   UNL     1      -0.450   7.654  -4.875  1.00  0.00     0.029 A 
ATOM     50  C   UNL     1       0.066   8.967  -4.494  1.00  0.00     0.049 A 
ATOM     51  H   UNL     1       0.665   9.589  -2.598  1.00  0.00     0.167 HD
ATOM     52  C   UNL     1       1.749  10.803   1.473  1.00  0.00     0.031 A 
ATOM     53  C   UNL     1       0.247  10.009  -5.329  1.00  0.00     0.031 A 
ATOM     54  C   UNL     1       2.020  11.952   0.651  1.00  0.00     0.049 A 
ATOM     55  C   UNL     1       0.771  11.308  -4.779  1.00  0.00     0.074 A 
ATOM     56  C   UNL     1       2.554  13.172   1.025  1.00  0.00     0.029 A 
ATOM     57  N   UNL     1       1.774  12.023  -0.712  1.00  0.00    -0.354 N 
ATOM     58  N   UNL     1       1.113  11.603  -3.547  1.00  0.00    -0.248 NA
ATOM     59  C   UNL     1       0.936  12.415  -5.732  1.00  0.00     0.031 C 
ATOM     60  C   UNL     1       2.589  13.998  -0.104  1.00  0.00     0.029 A 
ATOM     61  C   UNL     1       2.127  13.273  -1.192  1.00  0.00     0.049 A 
ATOM     62  H   UNL     1       1.404  11.293  -1.258  1.00  0.00     0.167 HD
ATOM     63  C   UNL     1       1.555  12.921  -3.581  1.00  0.00     0.074 A 
ATOM     64  C   UNL     1       1.448  13.362  -4.957  1.00  0.00     0.031 C 
ATOM     65  C   UNL     1       2.013  13.695  -2.565  1.00  0.00     0.031 A 
BRANCH  52  66
ATOM     66  C   UNL     1       2.021  10.893   2.951  1.00  0.00    -0.014 A 
ATOM     67  C   UNL     1       3.086  10.191   3.542  1.00  0.00     0.010 A 
ATOM     68  C   UNL     1       1.204  11.706   3.758  1.00  0.00     0.010 A 
ATOM     69  C   UNL     1       3.302  10.264   4.922  1.00  0.00     0.020 A 
ATOM     70  C   UNL     1       1.432  11.802   5.134  1.00  0.00     0.020 A 
ATOM     71  C   UNL     1       2.468  11.064   5.710  1.00  0.00     0.054 A 
BRANCH  71  72
ATOM     72  S   UNL     1       2.769  11.144   7.497  1.00  0.00     0.124 S 
ATOM     73  O   UNL     1       2.259   9.851   7.946  1.00  0.00    -0.237 OA
ATOM     74  O   UNL     1       4.219  11.307   7.572  1.00  0.00    -0.237 OA
ATOM     75  O   UNL     1       1.993  12.304   7.928  1.00  0.00    -0.744 OA
ENDBRANCH  71  72
ENDBRANCH  52  66
BRANCH  53  76
ATOM     76  C   UNL     1      -0.095   9.869  -6.770  1.00  0.00    -0.014 A 
ATOM     77  C   UNL     1       0.916   9.820  -7.745  1.00  0.00     0.010 A 
ATOM     78  C   UNL     1      -1.440   9.762  -7.172  1.00  0.00     0.010 A 
ATOM     79  C   UNL     1       0.589   9.673  -9.096  1.00  0.00     0.020 A 
ATOM     80  C   UNL     1      -1.769   9.590  -8.519  1.00  0.00     0.020 A 
ATOM     81  C   UNL     1      -0.752   9.555  -9.474  1.00  0.00     0.054 A 
BRANCH  81  82
ATOM     82  S   UNL     1      -1.151   9.298 -11.226  1.00  0.00     0.124 S 
ATOM     83  O   UNL     1      -0.939  10.629 -11.784  1.00  0.00    -0.237 OA
ATOM     84  O   UNL     1      -0.180   8.281 -11.626  1.00  0.00    -0.237 OA
ATOM     85  O   UNL     1      -2.539   8.843 -11.197  1.00  0.00    -0.744 OA
ENDBRANCH  81  82
ENDBRANCH  53  76
BRANCH  65  86
ATOM     86  C   UNL     1       2.467  15.089  -2.907  1.00  0.00    -0.014 A 
ATOM     87  C   UNL     1       1.543  16.107  -3.196  1.00  0.00     0.010 A 
ATOM     88  C   UNL     1       3.840  15.394  -2.878  1.00  0.00     0.010 A 
ATOM     89  C   UNL     1       1.986  17.403  -3.475  1.00  0.00     0.020 A 
ATOM     90  C   UNL     1       4.286  16.694  -3.133  1.00  0.00     0.020 A 
ATOM     91  C   UNL     1       3.355  17.688  -3.443  1.00  0.00     0.054 A 
BRANCH  91  92
ATOM     92  S   UNL     1       3.905  19.387  -3.761  1.00  0.00     0.124 S 
ATOM     93  O   UNL     1       3.758  19.487  -5.211  1.00  0.00    -0.237 OA
ATOM     94  O   UNL     1       2.962  20.183  -2.978  1.00  0.00    -0.237 OA
ATOM     95  O   UNL     1       5.281  19.403  -3.271  1.00  0.00    -0.744 OA
ENDBRANCH  91  92
ENDBRANCH  65  86
ENDBRANCH  39  40
ENDBRANCH  32  34
ENDBRANCH  31  32
ENDBRANCH  30  31
ENDBRANCH   1  30
TORSDOF 18
