REMARK SMILES Cc1c(C(=O)OCCOC(=O)c2ccc(-c3c4nc(c(-c5ccc(S(=O)(=O)[O-])cc5)c5ccc([nH]5)c(-c5ccc(S(=O)(=O)[O-])cc5)c5nc(c(-c6ccc(S(=O)(=O)[O-])cc6)c6ccc3[nH]6)C=C5)C=C4)cc2)sc2c1=C(CSc1nncn1-c1ccccc1)CC(=O)N=2
REMARK SMILES IDX 7 1 6 2 4 3 5 4 3 5 1 6 2 7 74 8 72 9 73 10 75 11 92 12
REMARK SMILES IDX 89 13 90 14 91 15 76 16 77 17 78 18 79 19 82 20 80 21 81 22
REMARK SMILES IDX 83 23 84 24 88 25 85 26 87 27 86 28 8 29 9 30 10 31 11 32
REMARK SMILES IDX 12 33 13 34 71 35 14 36 70 37 15 38 16 39 17 40 64 41 18 42
REMARK SMILES IDX 69 43 63 44 65 45 19 46 68 47 62 48 61 49 20 51 50 52 31 53
REMARK SMILES IDX 49 54 32 55 35 56 48 57 66 58 33 59 34 60 47 62 67 63 36 64
REMARK SMILES IDX 21 65 22 66 30 67 23 68 29 69 24 70 25 71 26 72 27 73 28 74
REMARK SMILES IDX 51 75 52 76 60 77 53 78 59 79 54 80 55 81 56 82 57 83 58 84
REMARK SMILES IDX 37 85 38 86 46 87 39 88 45 89 40 90 41 91 42 92 43 93 44 94
REMARK H PARENT 65 50 35 61
REMARK Flexibility Score: inf
ROOT
ATOM      1  C   UNL     1       0.702  -4.100  -0.124  1.00  0.00     0.275 C 
ENDROOT
BRANCH   1   2
ATOM      2  O   UNL     1       0.410  -2.761   0.322  1.00  0.00    -0.458 OA
BRANCH   2   3
ATOM      3  C   UNL     1      -0.519  -2.631   1.306  1.00  0.00     0.348 C 
ATOM      4  O   UNL     1      -1.232  -3.544   1.703  1.00  0.00    -0.245 OA
BRANCH   3   5
ATOM      5  C   UNL     1      -0.531  -1.258   1.900  1.00  0.00     0.118 A 
ATOM      6  C   UNL     1       0.944   0.156   0.332  1.00  0.00     0.047 C 
ATOM      7  C   UNL     1       0.001  -0.096   1.464  1.00  0.00    -0.016 A 
ATOM      8  C   UNL     1      -0.206   1.014   2.377  1.00  0.00     0.016 A 
ATOM      9  S   UNL     1      -1.220  -1.122   3.521  1.00  0.00    -0.108 S 
ATOM     10  C   UNL     1      -0.792   0.572   3.679  1.00  0.00     0.128 A 
ATOM     11  C   UNL     1      -0.598   2.292   2.200  1.00  0.00    -0.040 C 
ATOM     12  N   UNL     1      -1.077   1.270   4.718  1.00  0.00    -0.202 NA
ATOM     13  C   UNL     1      -0.224   3.188   3.364  1.00  0.00     0.135 C 
ATOM     14  C   UNL     1      -0.816   2.630   4.660  1.00  0.00     0.251 C 
ATOM     15  O   UNL     1      -1.042   3.387   5.590  1.00  0.00    -0.272 OA
BRANCH  11  16
ATOM     16  C   UNL     1      -1.866   2.776   1.509  1.00  0.00     0.110 C 
BRANCH  16  17
ATOM     17  S   UNL     1      -2.675   1.646   0.367  1.00  0.00    -0.081 SA
BRANCH  17  18
ATOM     18  C   UNL     1      -2.102   2.269  -1.143  1.00  0.00     0.195 A 
ATOM     19  N   UNL     1      -2.014   3.553  -1.416  1.00  0.00    -0.123 NA
ATOM     20  N   UNL     1      -1.474   1.526  -2.124  1.00  0.00    -0.277 N 
ATOM     21  N   UNL     1      -1.260   3.691  -2.549  1.00  0.00    -0.138 NA
ATOM     22  C   UNL     1      -0.917   2.485  -2.940  1.00  0.00     0.231 A 
BRANCH  20  23
ATOM     23  C   UNL     1      -1.344   0.120  -2.283  1.00  0.00     0.049 A 
ATOM     24  C   UNL     1      -2.323  -0.758  -1.800  1.00  0.00     0.027 A 
ATOM     25  C   UNL     1      -0.201  -0.398  -2.910  1.00  0.00     0.027 A 
ATOM     26  C   UNL     1      -2.150  -2.136  -1.921  1.00  0.00     0.002 A 
ATOM     27  C   UNL     1      -0.030  -1.778  -3.018  1.00  0.00     0.002 A 
ATOM     28  C   UNL     1      -1.012  -2.643  -2.539  1.00  0.00     0.000 A 
ENDBRANCH  20  23
ENDBRANCH  17  18
ENDBRANCH  16  17
ENDBRANCH  11  16
ENDBRANCH   3   5
ENDBRANCH   2   3
ENDBRANCH   1   2
BRANCH   1  29
ATOM     29  C   UNL     1       1.904  -4.682   0.597  1.00  0.00     0.275 C 
BRANCH  29  30
ATOM     30  O   UNL     1       1.623  -4.858   1.979  1.00  0.00    -0.458 OA
BRANCH  30  31
ATOM     31  C   UNL     1       1.921  -3.786   2.744  1.00  0.00     0.338 C 
ATOM     32  O   UNL     1       2.145  -2.645   2.368  1.00  0.00    -0.246 OA
BRANCH  31  33
ATOM     33  C   UNL     1       2.183  -4.231   4.109  1.00  0.00     0.060 A 
ATOM     34  C   UNL     1       2.470  -3.232   5.045  1.00  0.00     0.016 A 
ATOM     35  C   UNL     1       2.485  -5.582   4.330  1.00  0.00     0.016 A 
ATOM     36  C   UNL     1       3.245  -3.560   6.132  1.00  0.00     0.010 A 
ATOM     37  C   UNL     1       3.283  -5.900   5.397  1.00  0.00     0.010 A 
ATOM     38  C   UNL     1       3.708  -4.872   6.239  1.00  0.00    -0.014 A 
BRANCH  38  39
ATOM     39  C   UNL     1       4.670  -5.171   7.274  1.00  0.00     0.031 A 
ATOM     40  C   UNL     1       4.074  -5.454   8.597  1.00  0.00     0.074 A 
ATOM     41  C   UNL     1       5.963  -5.367   6.963  1.00  0.00     0.049 A 
ATOM     42  N   UNL     1       4.288  -4.856   9.721  1.00  0.00    -0.248 NA
ATOM     43  C   UNL     1       2.997  -6.459   8.639  1.00  0.00     0.031 C 
ATOM     44  C   UNL     1       6.546  -5.461   5.619  1.00  0.00     0.029 A 
ATOM     45  N   UNL     1       6.993  -5.715   7.777  1.00  0.00    -0.354 N 
ATOM     46  C   UNL     1       3.514  -5.540  10.651  1.00  0.00     0.074 A 
ATOM     47  C   UNL     1       2.600  -6.363   9.904  1.00  0.00     0.031 C 
ATOM     48  C   UNL     1       7.731  -6.102   5.706  1.00  0.00     0.029 A 
ATOM     49  C   UNL     1       8.019  -6.367   7.108  1.00  0.00     0.049 A 
ATOM     50  H   UNL     1       7.010  -5.525   8.743  1.00  0.00     0.167 HD
ATOM     51  C   UNL     1       3.850  -5.605  11.968  1.00  0.00     0.031 A 
ATOM     52  C   UNL     1       8.936  -7.197   7.666  1.00  0.00     0.031 A 
ATOM     53  C   UNL     1       4.794  -4.587  12.340  1.00  0.00     0.049 A 
ATOM     54  C   UNL     1       8.938  -6.939   9.132  1.00  0.00     0.074 A 
ATOM     55  C   UNL     1       4.803  -3.208  12.266  1.00  0.00     0.029 A 
ATOM     56  N   UNL     1       6.104  -4.965  12.526  1.00  0.00    -0.354 N 
ATOM     57  N   UNL     1       9.311  -5.811   9.673  1.00  0.00    -0.248 NA
ATOM     58  C   UNL     1       8.109  -7.783   9.982  1.00  0.00     0.031 C 
ATOM     59  C   UNL     1       6.146  -2.863  11.939  1.00  0.00     0.029 A 
ATOM     60  C   UNL     1       6.887  -4.045  11.875  1.00  0.00     0.049 A 
ATOM     61  H   UNL     1       6.420  -5.748  13.032  1.00  0.00     0.167 HD
ATOM     62  C   UNL     1       8.448  -5.617  10.745  1.00  0.00     0.074 A 
ATOM     63  C   UNL     1       7.804  -6.912  10.948  1.00  0.00     0.031 C 
ATOM     64  C   UNL     1       8.122  -4.363  11.185  1.00  0.00     0.031 A 
BRANCH  51  65
ATOM     65  C   UNL     1       3.617  -6.847  12.793  1.00  0.00    -0.014 A 
ATOM     66  C   UNL     1       3.896  -6.818  14.171  1.00  0.00     0.010 A 
ATOM     67  C   UNL     1       3.394  -8.116  12.211  1.00  0.00     0.010 A 
ATOM     68  C   UNL     1       4.016  -8.004  14.908  1.00  0.00     0.020 A 
ATOM     69  C   UNL     1       3.455  -9.297  12.946  1.00  0.00     0.020 A 
ATOM     70  C   UNL     1       3.812  -9.236  14.283  1.00  0.00     0.054 A 
BRANCH  70  71
ATOM     71  S   UNL     1       4.106 -10.766  15.199  1.00  0.00     0.124 S 
ATOM     72  O   UNL     1       5.558 -10.745  15.350  1.00  0.00    -0.237 OA
ATOM     73  O   UNL     1       3.336 -10.551  16.420  1.00  0.00    -0.237 OA
ATOM     74  O   UNL     1       3.582 -11.801  14.311  1.00  0.00    -0.744 OA
ENDBRANCH  70  71
ENDBRANCH  51  65
BRANCH  52  75
ATOM     75  C   UNL     1       9.476  -8.436   7.045  1.00  0.00    -0.014 A 
ATOM     76  C   UNL     1      10.571  -9.118   7.603  1.00  0.00     0.010 A 
ATOM     77  C   UNL     1       8.767  -9.086   6.010  1.00  0.00     0.010 A 
ATOM     78  C   UNL     1      10.919 -10.409   7.162  1.00  0.00     0.020 A 
ATOM     79  C   UNL     1       9.118 -10.359   5.552  1.00  0.00     0.020 A 
ATOM     80  C   UNL     1      10.184 -11.024   6.144  1.00  0.00     0.054 A 
BRANCH  80  81
ATOM     81  S   UNL     1      10.550 -12.738   5.670  1.00  0.00     0.124 S 
ATOM     82  O   UNL     1      11.843 -12.606   5.003  1.00  0.00    -0.237 OA
ATOM     83  O   UNL     1      10.568 -13.427   6.956  1.00  0.00    -0.237 OA
ATOM     84  O   UNL     1       9.437 -13.098   4.793  1.00  0.00    -0.744 OA
ENDBRANCH  80  81
ENDBRANCH  52  75
BRANCH  64  85
ATOM     85  C   UNL     1       8.925  -3.181  10.687  1.00  0.00    -0.014 A 
ATOM     86  C   UNL     1       9.028  -2.839   9.324  1.00  0.00     0.010 A 
ATOM     87  C   UNL     1       9.436  -2.281  11.640  1.00  0.00     0.010 A 
ATOM     88  C   UNL     1       9.643  -1.642   8.927  1.00  0.00     0.020 A 
ATOM     89  C   UNL     1      10.033  -1.077  11.252  1.00  0.00     0.020 A 
ATOM     90  C   UNL     1      10.139  -0.766   9.895  1.00  0.00     0.054 A 
BRANCH  90  91
ATOM     91  S   UNL     1      10.867   0.813   9.374  1.00  0.00     0.124 S 
ATOM     92  O   UNL     1      12.120   0.394   8.751  1.00  0.00    -0.237 OA
ATOM     93  O   UNL     1       9.860   1.350   8.461  1.00  0.00    -0.237 OA
ATOM     94  O   UNL     1      11.016   1.558  10.623  1.00  0.00    -0.744 OA
ENDBRANCH  90  91
ENDBRANCH  64  85
ENDBRANCH  38  39
ENDBRANCH  31  33
ENDBRANCH  30  31
ENDBRANCH  29  30
ENDBRANCH   1  29
TORSDOF 18
