REMARK SMILES O=C(CC[N@@H+]1C[C@@H](c2ccccc2)[C@@H]2[C@H]1[C@H]1CC[N@H+]2CC1)OCCOC(=O)c1ccc(-c2c3nc(c(-c4ccc(S(=O)(=O)[O-])cc4)c4ccc([nH]4)c(-c4ccc(S(=O)(=O)[O-])cc4)c4nc(c(-c5ccc(S(=O)(=O)[O-])cc5)c5ccc2[nH]5)C=C4)C=C3)cc1
REMARK SMILES IDX 23 1 22 2 2 3 1 4 3 5 4 6 5 7 6 8 15 9 7 11 14 12 16 13
REMARK SMILES IDX 19 14 17 15 21 16 18 17 20 18 8 20 9 21 13 22 10 23 12 24
REMARK SMILES IDX 11 25 24 26 25 27 26 28 27 29 28 30 29 31 87 32 30 33 86 34
REMARK SMILES IDX 31 35 32 36 33 37 80 38 34 39 85 40 79 41 81 42 35 43 84 44
REMARK SMILES IDX 78 45 77 46 36 48 66 49 47 50 65 51 48 52 51 53 64 54 82 55
REMARK SMILES IDX 49 56 50 57 63 59 83 60 52 61 37 62 38 63 46 64 39 65 45 66
REMARK SMILES IDX 40 67 41 68 42 69 43 70 44 71 67 72 68 73 76 74 69 75 75 76
REMARK SMILES IDX 70 77 71 78 72 79 73 80 74 81 53 82 54 83 62 84 55 85 61 86
REMARK SMILES IDX 56 87 57 88 58 89 59 90 60 91
REMARK H PARENT 5 10 19 19 81 47 51 58
REMARK Flexibility Score: inf
ROOT
ATOM      1  C   UNL     1       4.002  -0.237  -1.842  1.00  0.00     0.274 C 
ENDROOT
BRANCH   1   2
ATOM      2  O   UNL     1       2.779  -0.052  -1.102  1.00  0.00    -0.462 OA
BRANCH   2   3
ATOM      3  C   UNL     1       2.482   1.069  -0.401  1.00  0.00     0.311 C 
ATOM      4  O   UNL     1       1.389   1.179   0.150  1.00  0.00    -0.252 OA
BRANCH   3   5
ATOM      5  C   UNL     1       3.545   2.124  -0.246  1.00  0.00     0.184 C 
BRANCH   5   6
ATOM      6  C   UNL     1       4.214   2.129   1.134  1.00  0.00     0.274 C 
BRANCH   6   7
ATOM      7  N   UNL     1       4.994   0.970   1.546  1.00  0.00    -0.326 N 
ATOM      8  C   UNL     1       6.247   0.684   0.822  1.00  0.00     0.277 C 
ATOM      9  C   UNL     1       4.231  -0.236   1.931  1.00  0.00     0.247 C 
ATOM     10  H   UNL     1       5.341   1.339   2.431  1.00  0.00     0.348 HD
ATOM     11  C   UNL     1       6.603  -0.841   0.793  1.00  0.00     0.139 C 
ATOM     12  C   UNL     1       5.328  -1.572   1.262  1.00  0.00     0.256 C 
ATOM     13  C   UNL     1       3.936  -0.607   3.755  1.00  0.00     0.065 C 
ATOM     14  N   UNL     1       5.266  -2.944   2.111  1.00  0.00    -0.327 N 
ATOM     15  C   UNL     1       5.199  -1.035   3.381  1.00  0.00     0.071 C 
ATOM     16  C   UNL     1       4.391  -2.025   4.731  1.00  0.00     0.071 C 
ATOM     17  C   UNL     1       4.079  -2.371   2.551  1.00  0.00     0.263 C 
ATOM     18  C   UNL     1       5.467  -3.193   3.721  1.00  0.00     0.263 C 
ATOM     19  H   UNL     1       5.731  -3.690   1.594  1.00  0.00     0.348 HD
BRANCH  11  20
ATOM     20  C   UNL     1       7.900  -1.318   1.413  1.00  0.00    -0.033 A 
ATOM     21  C   UNL     1       8.534  -0.659   2.471  1.00  0.00     0.004 A 
ATOM     22  C   UNL     1       8.468  -2.516   0.939  1.00  0.00     0.004 A 
ATOM     23  C   UNL     1       9.670  -1.205   3.073  1.00  0.00     0.000 A 
ATOM     24  C   UNL     1       9.614  -3.052   1.527  1.00  0.00     0.000 A 
ATOM     25  C   UNL     1      10.207  -2.402   2.604  1.00  0.00     0.000 A 
ENDBRANCH  11  20
ENDBRANCH   6   7
ENDBRANCH   5   6
ENDBRANCH   3   5
ENDBRANCH   2   3
ENDBRANCH   1   2
BRANCH   1  26
ATOM     26  C   UNL     1       3.987  -1.609  -2.530  1.00  0.00     0.275 C 
BRANCH  26  27
ATOM     27  O   UNL     1       3.292  -1.551  -3.781  1.00  0.00    -0.458 OA
BRANCH  27  28
ATOM     28  C   UNL     1       1.965  -1.252  -3.629  1.00  0.00     0.338 C 
ATOM     29  O   UNL     1       1.156  -1.936  -3.087  1.00  0.00    -0.246 OA
BRANCH  28  30
ATOM     30  C   UNL     1       1.778   0.166  -4.067  1.00  0.00     0.060 A 
ATOM     31  C   UNL     1       0.740   0.904  -3.484  1.00  0.00     0.016 A 
ATOM     32  C   UNL     1       2.687   0.786  -4.934  1.00  0.00     0.016 A 
ATOM     33  C   UNL     1       0.573   2.249  -3.816  1.00  0.00     0.010 A 
ATOM     34  C   UNL     1       2.539   2.131  -5.244  1.00  0.00     0.010 A 
ATOM     35  C   UNL     1       1.446   2.848  -4.732  1.00  0.00    -0.014 A 
BRANCH  35  36
ATOM     36  C   UNL     1       1.078   4.101  -5.422  1.00  0.00     0.031 A 
ATOM     37  C   UNL     1       0.427   3.952  -6.772  1.00  0.00     0.074 A 
ATOM     38  C   UNL     1       1.392   5.307  -4.921  1.00  0.00     0.049 A 
ATOM     39  N   UNL     1       0.159   4.862  -7.667  1.00  0.00    -0.248 NA
ATOM     40  C   UNL     1       0.062   2.580  -7.180  1.00  0.00     0.031 C 
ATOM     41  C   UNL     1       2.021   5.555  -3.624  1.00  0.00     0.029 A 
ATOM     42  N   UNL     1       1.251   6.554  -5.472  1.00  0.00    -0.354 N 
ATOM     43  C   UNL     1      -0.379   4.171  -8.747  1.00  0.00     0.074 A 
ATOM     44  C   UNL     1      -0.378   2.768  -8.413  1.00  0.00     0.031 C 
ATOM     45  C   UNL     1       2.240   6.877  -3.493  1.00  0.00     0.029 A 
ATOM     46  C   UNL     1       1.796   7.559  -4.707  1.00  0.00     0.049 A 
ATOM     47  H   UNL     1       0.803   6.716  -6.333  1.00  0.00     0.167 HD
ATOM     48  C   UNL     1      -0.837   4.668  -9.916  1.00  0.00     0.031 A 
ATOM     49  C   UNL     1       1.945   8.870  -4.982  1.00  0.00     0.031 A 
ATOM     50  C   UNL     1      -0.843   6.067 -10.231  1.00  0.00     0.049 A 
ATOM     51  C   UNL     1       1.450   9.395  -6.308  1.00  0.00     0.074 A 
ATOM     52  C   UNL     1      -1.344   6.691 -11.357  1.00  0.00     0.029 A 
ATOM     53  N   UNL     1      -0.311   7.055  -9.418  1.00  0.00    -0.354 N 
ATOM     54  N   UNL     1       0.870   8.743  -7.289  1.00  0.00    -0.248 NA
ATOM     55  C   UNL     1       1.631  10.831  -6.565  1.00  0.00     0.031 C 
ATOM     56  C   UNL     1      -1.065   8.056 -11.250  1.00  0.00     0.029 A 
ATOM     57  C   UNL     1      -0.437   8.284 -10.034  1.00  0.00     0.049 A 
ATOM     58  H   UNL     1       0.095   6.903  -8.534  1.00  0.00     0.167 HD
ATOM     59  C   UNL     1       0.600   9.693  -8.269  1.00  0.00     0.074 A 
ATOM     60  C   UNL     1       1.062  10.966  -7.756  1.00  0.00     0.031 C 
ATOM     61  C   UNL     1       0.029   9.532  -9.488  1.00  0.00     0.031 A 
BRANCH  48  62
ATOM     62  C   UNL     1      -1.348   3.696 -10.942  1.00  0.00    -0.014 A 
ATOM     63  C   UNL     1      -2.581   3.041 -10.773  1.00  0.00     0.010 A 
ATOM     64  C   UNL     1      -0.610   3.480 -12.119  1.00  0.00     0.010 A 
ATOM     65  C   UNL     1      -3.062   2.178 -11.760  1.00  0.00     0.020 A 
ATOM     66  C   UNL     1      -1.099   2.636 -13.119  1.00  0.00     0.020 A 
ATOM     67  C   UNL     1      -2.320   1.986 -12.930  1.00  0.00     0.054 A 
BRANCH  67  68
ATOM     68  S   UNL     1      -3.004   0.917 -14.226  1.00  0.00     0.124 S 
ATOM     69  O   UNL     1      -2.843  -0.410 -13.639  1.00  0.00    -0.237 OA
ATOM     70  O   UNL     1      -4.380   1.393 -14.338  1.00  0.00    -0.237 OA
ATOM     71  O   UNL     1      -2.157   1.192 -15.384  1.00  0.00    -0.744 OA
ENDBRANCH  67  68
ENDBRANCH  48  62
BRANCH  49  72
ATOM     72  C   UNL     1       2.630   9.774  -4.016  1.00  0.00    -0.014 A 
ATOM     73  C   UNL     1       1.918  10.785  -3.346  1.00  0.00     0.010 A 
ATOM     74  C   UNL     1       4.014   9.653  -3.791  1.00  0.00     0.010 A 
ATOM     75  C   UNL     1       2.581  11.675  -2.494  1.00  0.00     0.020 A 
ATOM     76  C   UNL     1       4.675  10.524  -2.919  1.00  0.00     0.020 A 
ATOM     77  C   UNL     1       3.957  11.541  -2.290  1.00  0.00     0.054 A 
BRANCH  77  78
ATOM     78  S   UNL     1       4.796  12.693  -1.166  1.00  0.00     0.124 S 
ATOM     79  O   UNL     1       4.872  13.905  -1.975  1.00  0.00    -0.237 OA
ATOM     80  O   UNL     1       3.882  12.747  -0.027  1.00  0.00    -0.237 OA
ATOM     81  O   UNL     1       6.073  12.036  -0.897  1.00  0.00    -0.744 OA
ENDBRANCH  77  78
ENDBRANCH  49  72
BRANCH  61  82
ATOM     82  C   UNL     1      -0.146  10.757 -10.342  1.00  0.00    -0.014 A 
ATOM     83  C   UNL     1       0.950  11.337 -11.001  1.00  0.00     0.010 A 
ATOM     84  C   UNL     1      -1.437  11.272 -10.561  1.00  0.00     0.010 A 
ATOM     85  C   UNL     1       0.761  12.427 -11.853  1.00  0.00     0.020 A 
ATOM     86  C   UNL     1      -1.633  12.344 -11.433  1.00  0.00     0.020 A 
ATOM     87  C   UNL     1      -0.530  12.921 -12.067  1.00  0.00     0.054 A 
BRANCH  87  88
ATOM     88  S   UNL     1      -0.757  14.293 -13.230  1.00  0.00     0.124 S 
ATOM     89  O   UNL     1      -0.251  15.427 -12.463  1.00  0.00    -0.237 OA
ATOM     90  O   UNL     1       0.064  13.887 -14.368  1.00  0.00    -0.237 OA
ATOM     91  O   UNL     1      -2.196  14.301 -13.480  1.00  0.00    -0.744 OA
ENDBRANCH  87  88
ENDBRANCH  61  82
ENDBRANCH  35  36
ENDBRANCH  28  30
ENDBRANCH  27  28
ENDBRANCH  26  27
ENDBRANCH   1  26
TORSDOF 17
