REMARK SMILES Cc1oc2c(C)c3oc(=O)c(CC(=O)N[C@@H](CC(C)C)C(=O)OCCOC(=O)c4ccc(-c5c6nc(c(-c7ccc(S(=O)(=O)[O-])cc7)c7ccc([nH]7)c(-c7ccc(S(=O)(=O)[O-])cc7)c7nc(c(-c8ccc(S(=O)(=O)[O-])cc8)c8ccc5[nH]8)C=C7)C=C6)cc4)c(C)c3cc2c1C
REMARK SMILES IDX 24 1 23 2 21 3 22 4 16 5 15 6 13 7 14 8 12 10 11 11 1 12
REMARK SMILES IDX 2 13 3 14 94 15 4 16 93 17 95 18 5 19 92 20 6 21 7 22 91 23
REMARK SMILES IDX 8 24 89 25 9 26 90 27 10 28 17 29 18 30 19 31 20 32 25 33
REMARK SMILES IDX 26 34 27 35 28 36 29 37 30 38 88 39 31 40 87 41 32 42 33 43
REMARK SMILES IDX 34 44 81 45 35 46 86 47 80 48 82 49 36 50 85 51 79 52 78 53
REMARK SMILES IDX 37 55 67 56 48 57 66 58 49 59 52 60 65 61 83 62 50 63 51 64
REMARK SMILES IDX 64 66 84 67 53 68 38 69 39 70 47 71 40 72 46 73 41 74 42 75
REMARK SMILES IDX 43 76 44 77 45 78 68 79 69 80 77 81 70 82 76 83 71 84 72 85
REMARK SMILES IDX 73 86 74 87 75 88 54 89 55 90 63 91 56 92 62 93 57 94 58 95
REMARK SMILES IDX 59 96 60 97 61 98
REMARK H PARENT 15 9 82 54 52 65
REMARK Flexibility Score: inf
ROOT
ATOM      1  C   UNL     1      -4.906  -6.016 -11.478  1.00  0.00     0.274 C 
ENDROOT
BRANCH   1   2
ATOM      2  O   UNL     1      -4.464  -4.970 -10.599  1.00  0.00    -0.461 OA
BRANCH   2   3
ATOM      3  C   UNL     1      -3.891  -5.386  -9.439  1.00  0.00     0.328 C 
ATOM      4  O   UNL     1      -3.852  -6.550  -9.056  1.00  0.00    -0.250 OA
BRANCH   3   5
ATOM      5  C   UNL     1      -3.329  -4.224  -8.614  1.00  0.00     0.192 C 
BRANCH   5   6
ATOM      6  N   UNL     1      -3.283  -2.909  -9.244  1.00  0.00    -0.342 N 
ATOM      7  C   UNL     1      -2.217  -2.070  -9.405  1.00  0.00     0.225 C 
ATOM      8  O   UNL     1      -2.436  -0.936  -9.837  1.00  0.00    -0.275 OA
ATOM      9  H   UNL     1      -4.139  -2.580  -9.603  1.00  0.00     0.164 HD
BRANCH   7  10
ATOM     10  C   UNL     1      -0.804  -2.534  -9.052  1.00  0.00     0.143 C 
BRANCH  10  11
ATOM     11  C   UNL     1      -0.535  -2.579  -7.568  1.00  0.00     0.051 A 
ATOM     12  C   UNL     1       1.002  -0.424   0.429  1.00  0.00     0.088 C 
ATOM     13  C   UNL     1       0.519  -0.691  -0.940  1.00  0.00     0.105 A 
ATOM     14  O   UNL     1       0.447  -2.004  -1.299  1.00  0.00    -0.461 OA
ATOM     15  C   UNL     1       0.168   0.124  -2.000  1.00  0.00    -0.002 A 
ATOM     16  C   UNL     1       0.136  -2.044  -2.626  1.00  0.00     0.141 A 
ATOM     17  C   UNL     1      -0.048  -0.754  -3.098  1.00  0.00     0.025 A 
ATOM     18  C   UNL     1       0.112   1.604  -2.062  1.00  0.00     0.049 C 
ATOM     19  C   UNL     1       0.047  -3.196  -3.411  1.00  0.00     0.036 A 
ATOM     20  C   UNL     1      -0.336  -0.559  -4.457  1.00  0.00     0.024 A 
ATOM     21  C   UNL     1       0.229  -4.570  -2.849  1.00  0.00     0.052 C 
ATOM     22  C   UNL     1      -0.165  -2.932  -4.782  1.00  0.00     0.145 A 
ATOM     23  C   UNL     1      -0.341  -1.654  -5.326  1.00  0.00     0.022 A 
ATOM     24  O   UNL     1      -0.164  -4.050  -5.636  1.00  0.00    -0.422 OA
ATOM     25  C   UNL     1      -0.514  -1.487  -6.780  1.00  0.00    -0.029 A 
ATOM     26  C   UNL     1      -0.251  -3.931  -7.008  1.00  0.00     0.340 A 
ATOM     27  C   UNL     1      -0.630  -0.082  -7.321  1.00  0.00     0.046 C 
ATOM     28  O   UNL     1      -0.151  -4.927  -7.712  1.00  0.00    -0.246 OA
ENDBRANCH  10  11
ENDBRANCH   7  10
ENDBRANCH   5   6
BRANCH   5  29
ATOM     29  C   UNL     1      -3.990  -4.144  -7.227  1.00  0.00     0.040 C 
BRANCH  29  30
ATOM     30  C   UNL     1      -5.427  -3.578  -7.167  1.00  0.00    -0.015 C 
ATOM     31  C   UNL     1      -6.432  -4.360  -8.012  1.00  0.00     0.007 C 
ATOM     32  C   UNL     1      -5.899  -3.557  -5.710  1.00  0.00     0.007 C 
ENDBRANCH  29  30
ENDBRANCH   5  29
ENDBRANCH   3   5
ENDBRANCH   2   3
ENDBRANCH   1   2
BRANCH   1  33
ATOM     33  C   UNL     1      -4.015  -6.103 -12.715  1.00  0.00     0.275 C 
BRANCH  33  34
ATOM     34  O   UNL     1      -2.620  -6.167 -12.370  1.00  0.00    -0.458 OA
BRANCH  34  35
ATOM     35  C   UNL     1      -2.025  -4.955 -12.376  1.00  0.00     0.338 C 
ATOM     36  O   UNL     1      -2.579  -3.873 -12.568  1.00  0.00    -0.246 OA
BRANCH  35  37
ATOM     37  C   UNL     1      -0.583  -5.022 -12.140  1.00  0.00     0.060 A 
ATOM     38  C   UNL     1      -0.074  -5.489 -10.928  1.00  0.00     0.016 A 
ATOM     39  C   UNL     1       0.232  -4.338 -13.045  1.00  0.00     0.016 A 
ATOM     40  C   UNL     1       1.227  -5.134 -10.563  1.00  0.00     0.010 A 
ATOM     41  C   UNL     1       1.536  -4.019 -12.691  1.00  0.00     0.010 A 
ATOM     42  C   UNL     1       2.014  -4.351 -11.418  1.00  0.00    -0.014 A 
BRANCH  42  43
ATOM     43  C   UNL     1       3.379  -4.002 -10.981  1.00  0.00     0.031 A 
ATOM     44  C   UNL     1       4.394  -4.827 -11.697  1.00  0.00     0.074 A 
ATOM     45  C   UNL     1       3.758  -2.756 -10.616  1.00  0.00     0.049 A 
ATOM     46  N   UNL     1       4.680  -4.597 -12.945  1.00  0.00    -0.248 NA
ATOM     47  C   UNL     1       4.866  -6.117 -11.203  1.00  0.00     0.031 C 
ATOM     48  C   UNL     1       3.106  -1.517 -11.064  1.00  0.00     0.029 A 
ATOM     49  N   UNL     1       4.908  -2.322  -9.994  1.00  0.00    -0.354 N 
ATOM     50  C   UNL     1       5.275  -5.739 -13.439  1.00  0.00     0.074 A 
ATOM     51  C   UNL     1       5.394  -6.647 -12.319  1.00  0.00     0.031 C 
ATOM     52  C   UNL     1       3.964  -0.490 -10.891  1.00  0.00     0.029 A 
ATOM     53  C   UNL     1       5.141  -0.959 -10.169  1.00  0.00     0.049 A 
ATOM     54  H   UNL     1       5.504  -2.913  -9.480  1.00  0.00     0.167 HD
ATOM     55  C   UNL     1       5.605  -5.871 -14.750  1.00  0.00     0.031 A 
ATOM     56  C   UNL     1       6.372  -0.378 -10.199  1.00  0.00     0.031 A 
ATOM     57  C   UNL     1       5.376  -4.709 -15.562  1.00  0.00     0.049 A 
ATOM     58  C   UNL     1       6.839  -0.794 -11.572  1.00  0.00     0.074 A 
ATOM     59  C   UNL     1       4.488  -4.265 -16.517  1.00  0.00     0.029 A 
ATOM     60  N   UNL     1       6.258  -3.669 -15.408  1.00  0.00    -0.354 N 
ATOM     61  N   UNL     1       6.483  -0.264 -12.710  1.00  0.00    -0.248 NA
ATOM     62  C   UNL     1       7.498  -2.095 -11.695  1.00  0.00     0.031 C 
ATOM     63  C   UNL     1       4.645  -2.840 -16.559  1.00  0.00     0.029 A 
ATOM     64  C   UNL     1       5.587  -2.491 -15.591  1.00  0.00     0.049 A 
ATOM     65  H   UNL     1       7.216  -3.757 -15.200  1.00  0.00     0.167 HD
ATOM     66  C   UNL     1       6.573  -1.296 -13.649  1.00  0.00     0.074 A 
ATOM     67  C   UNL     1       7.279  -2.367 -12.974  1.00  0.00     0.031 C 
ATOM     68  C   UNL     1       5.894  -1.290 -14.837  1.00  0.00     0.031 A 
BRANCH  55  69
ATOM     69  C   UNL     1       6.355  -7.017 -15.303  1.00  0.00    -0.014 A 
ATOM     70  C   UNL     1       7.711  -6.799 -15.604  1.00  0.00     0.010 A 
ATOM     71  C   UNL     1       5.742  -8.214 -15.699  1.00  0.00     0.010 A 
ATOM     72  C   UNL     1       8.432  -7.724 -16.348  1.00  0.00     0.020 A 
ATOM     73  C   UNL     1       6.471  -9.157 -16.439  1.00  0.00     0.020 A 
ATOM     74  C   UNL     1       7.802  -8.889 -16.780  1.00  0.00     0.054 A 
BRANCH  74  75
ATOM     75  S   UNL     1       8.750 -10.006 -17.846  1.00  0.00     0.124 S 
ATOM     76  O   UNL     1       9.008  -9.171 -19.016  1.00  0.00    -0.237 OA
ATOM     77  O   UNL     1       9.916 -10.307 -17.019  1.00  0.00    -0.237 OA
ATOM     78  O   UNL     1       7.840 -11.127 -18.070  1.00  0.00    -0.744 OA
ENDBRANCH  74  75
ENDBRANCH  55  69
BRANCH  56  79
ATOM     79  C   UNL     1       7.193  -0.575  -8.956  1.00  0.00    -0.014 A 
ATOM     80  C   UNL     1       6.576  -0.286  -7.718  1.00  0.00     0.010 A 
ATOM     81  C   UNL     1       8.510  -1.062  -8.921  1.00  0.00     0.010 A 
ATOM     82  C   UNL     1       7.169  -0.645  -6.505  1.00  0.00     0.020 A 
ATOM     83  C   UNL     1       9.102  -1.456  -7.712  1.00  0.00     0.020 A 
ATOM     84  C   UNL     1       8.407  -1.283  -6.515  1.00  0.00     0.054 A 
BRANCH  84  85
ATOM     85  S   UNL     1       9.038  -1.964  -4.959  1.00  0.00     0.124 S 
ATOM     86  O   UNL     1       9.237  -0.764  -4.151  1.00  0.00    -0.237 OA
ATOM     87  O   UNL     1       7.941  -2.833  -4.539  1.00  0.00    -0.237 OA
ATOM     88  O   UNL     1      10.259  -2.660  -5.357  1.00  0.00    -0.744 OA
ENDBRANCH  84  85
ENDBRANCH  56  79
BRANCH  68  89
ATOM     89  C   UNL     1       5.253   0.012 -15.224  1.00  0.00    -0.014 A 
ATOM     90  C   UNL     1       6.056   1.134 -15.490  1.00  0.00     0.010 A 
ATOM     91  C   UNL     1       3.860   0.123 -15.389  1.00  0.00     0.010 A 
ATOM     92  C   UNL     1       5.488   2.327 -15.942  1.00  0.00     0.020 A 
ATOM     93  C   UNL     1       3.286   1.308 -15.862  1.00  0.00     0.020 A 
ATOM     94  C   UNL     1       4.107   2.401 -16.142  1.00  0.00     0.054 A 
BRANCH  94  95
ATOM     95  S   UNL     1       3.415   3.932 -16.823  1.00  0.00     0.124 S 
ATOM     96  O   UNL     1       3.643   4.889 -15.743  1.00  0.00    -0.237 OA
ATOM     97  O   UNL     1       4.222   4.139 -18.024  1.00  0.00    -0.237 OA
ATOM     98  O   UNL     1       2.014   3.603 -17.075  1.00  0.00    -0.744 OA
ENDBRANCH  94  95
ENDBRANCH  68  89
ENDBRANCH  42  43
ENDBRANCH  35  37
ENDBRANCH  34  35
ENDBRANCH  33  34
ENDBRANCH   1  33
TORSDOF 19
