REMARK SMILES O=C(OCCOC(=O)c1cccc2nc(Cl)c(Cl)nc12)c1ccc(-c2c3nc(c(-c4ccc(S(=O)(=O)[O-])cc4)c4ccc([nH]4)c(-c4ccc(S(=O)(=O)[O-])cc4)c4nc(c(-c5ccc(S(=O)(=O)[O-])cc5)c5ccc2[nH]5)C=C4)C=C3)cc1
REMARK SMILES IDX 3 1 2 2 1 3 21 4 22 5 80 6 23 7 79 8 24 9 25 10 26 11 73 12
REMARK SMILES IDX 27 13 78 14 72 15 74 16 28 17 77 18 71 19 70 20 29 22 59 23
REMARK SMILES IDX 40 24 58 25 41 26 44 27 57 28 75 29 42 30 43 31 56 33 76 34
REMARK SMILES IDX 45 35 30 36 31 37 39 38 32 39 38 40 33 41 34 42 35 43 36 44
REMARK SMILES IDX 37 45 60 46 61 47 69 48 62 49 68 50 63 51 64 52 65 53 66 54
REMARK SMILES IDX 67 55 46 56 47 57 55 58 48 59 54 60 49 61 50 62 51 63 52 64
REMARK SMILES IDX 53 65 4 66 5 67 6 68 7 69 8 70 9 71 10 72 20 73 11 74 13 75
REMARK SMILES IDX 19 76 12 77 14 78 17 79 15 80 18 81 16 82
REMARK H PARENT 74 21 44 32
REMARK Flexibility Score: inf
ROOT
ATOM      1  O   UNL     1       3.411  -0.033   1.066  1.00  0.00    -0.458 OA
ENDROOT
BRANCH   1   2
ATOM      2  C   UNL     1       3.497   1.267   0.684  1.00  0.00     0.338 C 
ATOM      3  O   UNL     1       3.068   2.154   1.416  1.00  0.00    -0.246 OA
BRANCH   2   4
ATOM      4  C   UNL     1       3.890   1.627  -0.708  1.00  0.00     0.060 A 
ATOM      5  C   UNL     1       3.052   2.531  -1.374  1.00  0.00     0.016 A 
ATOM      6  C   UNL     1       5.035   1.176  -1.370  1.00  0.00     0.016 A 
ATOM      7  C   UNL     1       3.273   2.866  -2.712  1.00  0.00     0.010 A 
ATOM      8  C   UNL     1       5.274   1.525  -2.705  1.00  0.00     0.010 A 
ATOM      9  C   UNL     1       4.386   2.356  -3.396  1.00  0.00    -0.014 A 
BRANCH   9  10
ATOM     10  C   UNL     1       4.734   2.861  -4.745  1.00  0.00     0.031 A 
ATOM     11  C   UNL     1       4.673   1.999  -5.974  1.00  0.00     0.074 A 
ATOM     12  C   UNL     1       5.158   4.136  -4.836  1.00  0.00     0.049 A 
ATOM     13  N   UNL     1       4.790   2.363  -7.225  1.00  0.00    -0.248 NA
ATOM     14  C   UNL     1       4.419   0.561  -5.799  1.00  0.00     0.031 C 
ATOM     15  C   UNL     1       5.280   5.060  -3.704  1.00  0.00     0.029 A 
ATOM     16  N   UNL     1       5.596   4.865  -5.910  1.00  0.00    -0.354 N 
ATOM     17  C   UNL     1       4.518   1.231  -7.983  1.00  0.00     0.074 A 
ATOM     18  C   UNL     1       4.291   0.146  -7.056  1.00  0.00     0.031 C 
ATOM     19  C   UNL     1       5.789   6.220  -4.139  1.00  0.00     0.029 A 
ATOM     20  C   UNL     1       6.075   6.105  -5.564  1.00  0.00     0.049 A 
ATOM     21  H   UNL     1       5.569   4.534  -6.837  1.00  0.00     0.167 HD
ATOM     22  C   UNL     1       4.465   1.123  -9.330  1.00  0.00     0.031 A 
ATOM     23  C   UNL     1       6.723   7.031  -6.295  1.00  0.00     0.031 A 
ATOM     24  C   UNL     1       4.902   2.163 -10.226  1.00  0.00     0.049 A 
ATOM     25  C   UNL     1       6.902   6.791  -7.763  1.00  0.00     0.074 A 
ATOM     26  C   UNL     1       4.940   2.136 -11.609  1.00  0.00     0.029 A 
ATOM     27  N   UNL     1       5.462   3.368  -9.831  1.00  0.00    -0.354 N 
ATOM     28  N   UNL     1       6.468   5.782  -8.480  1.00  0.00    -0.248 NA
ATOM     29  C   UNL     1       7.640   7.804  -8.527  1.00  0.00     0.031 C 
ATOM     30  C   UNL     1       5.645   3.262 -12.040  1.00  0.00     0.029 A 
ATOM     31  C   UNL     1       5.947   4.045 -10.935  1.00  0.00     0.049 A 
ATOM     32  H   UNL     1       5.508   3.693  -8.903  1.00  0.00     0.167 HD
ATOM     33  C   UNL     1       6.864   6.045  -9.785  1.00  0.00     0.074 A 
ATOM     34  C   UNL     1       7.565   7.314  -9.759  1.00  0.00     0.031 C 
ATOM     35  C   UNL     1       6.658   5.301 -10.898  1.00  0.00     0.031 A 
BRANCH  22  36
ATOM     36  C   UNL     1       3.953  -0.149  -9.954  1.00  0.00    -0.014 A 
ATOM     37  C   UNL     1       4.834  -1.009 -10.634  1.00  0.00     0.010 A 
ATOM     38  C   UNL     1       2.566  -0.367 -10.061  1.00  0.00     0.010 A 
ATOM     39  C   UNL     1       4.340  -2.031 -11.450  1.00  0.00     0.020 A 
ATOM     40  C   UNL     1       2.068  -1.398 -10.866  1.00  0.00     0.020 A 
ATOM     41  C   UNL     1       2.958  -2.206 -11.577  1.00  0.00     0.054 A 
BRANCH  41  42
ATOM     42  S   UNL     1       2.342  -3.473 -12.723  1.00  0.00     0.124 S 
ATOM     43  O   UNL     1       2.719  -2.928 -14.023  1.00  0.00    -0.237 OA
ATOM     44  O   UNL     1       3.076  -4.663 -12.298  1.00  0.00    -0.237 OA
ATOM     45  O   UNL     1       0.906  -3.510 -12.454  1.00  0.00    -0.744 OA
ENDBRANCH  41  42
ENDBRANCH  22  36
BRANCH  23  46
ATOM     46  C   UNL     1       7.267   8.228  -5.597  1.00  0.00    -0.014 A 
ATOM     47  C   UNL     1       8.275   8.063  -4.625  1.00  0.00     0.010 A 
ATOM     48  C   UNL     1       6.703   9.498  -5.787  1.00  0.00     0.010 A 
ATOM     49  C   UNL     1       8.655   9.126  -3.804  1.00  0.00     0.020 A 
ATOM     50  C   UNL     1       7.107  10.576  -4.990  1.00  0.00     0.020 A 
ATOM     51  C   UNL     1       8.055  10.373  -3.982  1.00  0.00     0.054 A 
BRANCH  51  52
ATOM     52  S   UNL     1       8.514  11.721  -2.858  1.00  0.00     0.124 S 
ATOM     53  O   UNL     1       7.797  11.352  -1.641  1.00  0.00    -0.237 OA
ATOM     54  O   UNL     1       9.968  11.600  -2.793  1.00  0.00    -0.237 OA
ATOM     55  O   UNL     1       8.020  12.915  -3.539  1.00  0.00    -0.744 OA
ENDBRANCH  51  52
ENDBRANCH  23  46
BRANCH  35  56
ATOM     56  C   UNL     1       7.211   5.801 -12.205  1.00  0.00    -0.014 A 
ATOM     57  C   UNL     1       6.329   6.161 -13.241  1.00  0.00     0.010 A 
ATOM     58  C   UNL     1       8.591   5.737 -12.466  1.00  0.00     0.010 A 
ATOM     59  C   UNL     1       6.808   6.380 -14.533  1.00  0.00     0.020 A 
ATOM     60  C   UNL     1       9.077   5.990 -13.751  1.00  0.00     0.020 A 
ATOM     61  C   UNL     1       8.178   6.273 -14.783  1.00  0.00     0.054 A 
BRANCH  61  62
ATOM     62  S   UNL     1       8.770   6.472 -16.485  1.00  0.00     0.124 S 
ATOM     63  O   UNL     1       8.353   5.217 -17.103  1.00  0.00    -0.237 OA
ATOM     64  O   UNL     1       8.056   7.665 -16.935  1.00  0.00    -0.237 OA
ATOM     65  O   UNL     1      10.213   6.642 -16.328  1.00  0.00    -0.744 OA
ENDBRANCH  61  62
ENDBRANCH  35  56
ENDBRANCH   9  10
ENDBRANCH   2   4
ENDBRANCH   1   2
BRANCH   1  66
ATOM     66  C   UNL     1       4.268  -1.106   0.641  1.00  0.00     0.275 C 
BRANCH  66  67
ATOM     67  C   UNL     1       3.699  -1.961  -0.492  1.00  0.00     0.275 C 
BRANCH  67  68
ATOM     68  O   UNL     1       3.064  -1.182  -1.516  1.00  0.00    -0.458 OA
BRANCH  68  69
ATOM     69  C   UNL     1       1.701  -1.205  -1.509  1.00  0.00     0.340 C 
ATOM     70  O   UNL     1       0.983  -1.855  -0.783  1.00  0.00    -0.246 OA
BRANCH  69  71
ATOM     71  C   UNL     1       1.222  -0.303  -2.575  1.00  0.00     0.088 A 
ATOM     72  C   UNL     1       1.602  -0.566  -3.897  1.00  0.00     0.018 A 
ATOM     73  C   UNL     1       0.433   0.800  -2.231  1.00  0.00     0.105 A 
ATOM     74  C   UNL     1       1.202   0.300  -4.904  1.00  0.00     0.003 A 
ATOM     75  C   UNL     1       0.069   1.696  -3.274  1.00  0.00     0.091 A 
ATOM     76  N   UNL     1       0.067   1.068  -0.952  1.00  0.00    -0.230 NA
ATOM     77  C   UNL     1       0.457   1.431  -4.580  1.00  0.00     0.031 A 
ATOM     78  N   UNL     1      -0.616   2.829  -3.037  1.00  0.00    -0.231 NA
ATOM     79  C   UNL     1      -0.629   2.208  -0.729  1.00  0.00     0.167 A 
ATOM     80  C   UNL     1      -0.954   3.078  -1.752  1.00  0.00     0.167 A 
ATOM     81  Cl  UNL     1      -1.031   2.465   0.918  1.00  0.00    -0.059 Cl
ATOM     82  Cl  UNL     1      -1.785   4.562  -1.531  1.00  0.00    -0.059 Cl
ENDBRANCH  69  71
ENDBRANCH  68  69
ENDBRANCH  67  68
ENDBRANCH  66  67
ENDBRANCH   1  66
TORSDOF 14
