REMARK SMILES O=C(OCCOC(=O)C1(C/C=C/c2ccccc2)CCCCC1)c1ccc(-c2c3nc(c(-c4ccc(S(=O)(=O)[O-])cc4)c4ccc([nH]4)c(-c4ccc(S(=O)(=O)[O-])cc4)c4nc(c(-c5ccc(S(=O)(=O)[O-])cc5)c5ccc2[nH]5)C=C4)C=C3)cc1
REMARK SMILES IDX 4 1 3 2 2 3 1 4 24 5 25 6 83 7 26 8 82 9 27 10 28 11 29 12
REMARK SMILES IDX 76 13 30 14 81 15 75 16 77 17 31 18 80 19 74 20 73 21 32 23
REMARK SMILES IDX 62 24 43 25 61 26 44 27 47 28 60 29 78 30 45 31 46 32 59 34
REMARK SMILES IDX 79 35 48 36 33 37 34 38 42 39 35 40 41 41 36 42 37 43 38 44
REMARK SMILES IDX 39 45 40 46 63 47 64 48 72 49 65 50 71 51 66 52 67 53 68 54
REMARK SMILES IDX 69 55 70 56 49 57 50 58 58 59 51 60 57 61 52 62 53 63 54 64
REMARK SMILES IDX 55 65 56 66 5 67 6 68 7 69 8 70 9 71 19 72 23 73 20 74 22 75
REMARK SMILES IDX 21 76 10 77 11 78 12 79 13 80 14 81 18 82 15 83 17 84 16 85
REMARK H PARENT 77 22 47 33
REMARK Flexibility Score: inf
ROOT
ATOM      1  C   UNL     1       4.196  -0.616  -1.552  1.00  0.00     0.275 C 
ENDROOT
BRANCH   1   2
ATOM      2  O   UNL     1       3.136  -1.076  -0.703  1.00  0.00    -0.458 OA
BRANCH   2   3
ATOM      3  C   UNL     1       3.078  -1.084   0.651  1.00  0.00     0.338 C 
ATOM      4  O   UNL     1       2.158  -1.694   1.195  1.00  0.00    -0.246 OA
BRANCH   3   5
ATOM      5  C   UNL     1       3.971  -0.244   1.512  1.00  0.00     0.060 A 
ATOM      6  C   UNL     1       5.285   0.143   1.224  1.00  0.00     0.016 A 
ATOM      7  C   UNL     1       3.388   0.246   2.689  1.00  0.00     0.016 A 
ATOM      8  C   UNL     1       5.942   1.119   1.986  1.00  0.00     0.010 A 
ATOM      9  C   UNL     1       4.032   1.234   3.441  1.00  0.00     0.010 A 
ATOM     10  C   UNL     1       5.307   1.705   3.078  1.00  0.00    -0.014 A 
BRANCH  10  11
ATOM     11  C   UNL     1       6.010   2.683   3.947  1.00  0.00     0.031 A 
ATOM     12  C   UNL     1       6.332   2.231   5.343  1.00  0.00     0.074 A 
ATOM     13  C   UNL     1       6.333   3.932   3.542  1.00  0.00     0.049 A 
ATOM     14  N   UNL     1       6.945   2.876   6.297  1.00  0.00    -0.248 NA
ATOM     15  C   UNL     1       5.909   0.867   5.713  1.00  0.00     0.031 C 
ATOM     16  C   UNL     1       6.122   4.493   2.206  1.00  0.00     0.029 A 
ATOM     17  N   UNL     1       6.886   4.982   4.237  1.00  0.00    -0.354 N 
ATOM     18  C   UNL     1       7.021   1.975   7.349  1.00  0.00     0.074 A 
ATOM     19  C   UNL     1       6.251   0.812   6.986  1.00  0.00     0.031 C 
ATOM     20  C   UNL     1       6.444   5.800   2.206  1.00  0.00     0.029 A 
ATOM     21  C   UNL     1       6.947   6.161   3.523  1.00  0.00     0.049 A 
ATOM     22  H   UNL     1       7.210   4.900   5.163  1.00  0.00     0.167 HD
ATOM     23  C   UNL     1       7.761   2.055   8.475  1.00  0.00     0.031 A 
ATOM     24  C   UNL     1       7.390   7.384   3.882  1.00  0.00     0.031 A 
ATOM     25  C   UNL     1       8.528   3.208   8.828  1.00  0.00     0.049 A 
ATOM     26  C   UNL     1       8.075   7.518   5.218  1.00  0.00     0.074 A 
ATOM     27  C   UNL     1       9.350   3.399   9.920  1.00  0.00     0.029 A 
ATOM     28  N   UNL     1       8.551   4.380   8.086  1.00  0.00    -0.354 N 
ATOM     29  N   UNL     1       8.254   6.605   6.144  1.00  0.00    -0.248 NA
ATOM     30  C   UNL     1       8.693   8.815   5.521  1.00  0.00     0.031 C 
ATOM     31  C   UNL     1       9.832   4.712   9.864  1.00  0.00     0.029 A 
ATOM     32  C   UNL     1       9.355   5.313   8.708  1.00  0.00     0.049 A 
ATOM     33  H   UNL     1       8.067   4.524   7.241  1.00  0.00     0.167 HD
ATOM     34  C   UNL     1       9.083   7.189   7.094  1.00  0.00     0.074 A 
ATOM     35  C   UNL     1       9.342   8.543   6.645  1.00  0.00     0.031 C 
ATOM     36  C   UNL     1       9.614   6.643   8.217  1.00  0.00     0.031 A 
BRANCH  23  37
ATOM     37  C   UNL     1       7.774   0.830   9.343  1.00  0.00    -0.014 A 
ATOM     38  C   UNL     1       8.384  -0.357   8.886  1.00  0.00     0.010 A 
ATOM     39  C   UNL     1       7.096   0.827  10.571  1.00  0.00     0.010 A 
ATOM     40  C   UNL     1       8.247  -1.544   9.605  1.00  0.00     0.020 A 
ATOM     41  C   UNL     1       6.986  -0.354  11.310  1.00  0.00     0.020 A 
ATOM     42  C   UNL     1       7.538  -1.536  10.809  1.00  0.00     0.054 A 
BRANCH  42  43
ATOM     43  S   UNL     1       7.346  -3.098  11.707  1.00  0.00     0.124 S 
ATOM     44  O   UNL     1       6.367  -3.802  10.882  1.00  0.00    -0.237 OA
ATOM     45  O   UNL     1       8.699  -3.649  11.683  1.00  0.00    -0.237 OA
ATOM     46  O   UNL     1       6.869  -2.683  13.024  1.00  0.00    -0.744 OA
ENDBRANCH  42  43
ENDBRANCH  23  37
BRANCH  24  47
ATOM     47  C   UNL     1       7.303   8.550   2.953  1.00  0.00    -0.014 A 
ATOM     48  C   UNL     1       8.454   9.052   2.317  1.00  0.00     0.010 A 
ATOM     49  C   UNL     1       6.076   9.207   2.741  1.00  0.00     0.010 A 
ATOM     50  C   UNL     1       8.391  10.205   1.525  1.00  0.00     0.020 A 
ATOM     51  C   UNL     1       6.004  10.352   1.935  1.00  0.00     0.020 A 
ATOM     52  C   UNL     1       7.166  10.853   1.344  1.00  0.00     0.054 A 
BRANCH  52  53
ATOM     53  S   UNL     1       7.115  12.351   0.315  1.00  0.00     0.124 S 
ATOM     54  O   UNL     1       7.858  13.307   1.129  1.00  0.00    -0.237 OA
ATOM     55  O   UNL     1       7.780  11.911  -0.909  1.00  0.00    -0.237 OA
ATOM     56  O   UNL     1       5.686  12.624   0.176  1.00  0.00    -0.744 OA
ENDBRANCH  52  53
ENDBRANCH  24  47
BRANCH  36  57
ATOM     57  C   UNL     1      10.598   7.471   8.991  1.00  0.00    -0.014 A 
ATOM     58  C   UNL     1      10.191   8.574   9.759  1.00  0.00     0.010 A 
ATOM     59  C   UNL     1      11.948   7.072   9.012  1.00  0.00     0.010 A 
ATOM     60  C   UNL     1      11.126   9.279  10.519  1.00  0.00     0.020 A 
ATOM     61  C   UNL     1      12.877   7.753   9.797  1.00  0.00     0.020 A 
ATOM     62  C   UNL     1      12.461   8.861  10.537  1.00  0.00     0.054 A 
BRANCH  62  63
ATOM     63  S   UNL     1      13.640   9.749  11.588  1.00  0.00     0.124 S 
ATOM     64  O   UNL     1      13.858  10.976  10.827  1.00  0.00    -0.237 OA
ATOM     65  O   UNL     1      12.900   9.905  12.838  1.00  0.00    -0.237 OA
ATOM     66  O   UNL     1      14.787   8.846  11.660  1.00  0.00    -0.744 OA
ENDBRANCH  62  63
ENDBRANCH  36  57
ENDBRANCH  10  11
ENDBRANCH   3   5
ENDBRANCH   2   3
ENDBRANCH   1   2
BRANCH   1  67
ATOM     67  C   UNL     1       4.196   0.887  -1.840  1.00  0.00     0.274 C 
BRANCH  67  68
ATOM     68  O   UNL     1       3.622   1.681  -0.783  1.00  0.00    -0.462 OA
BRANCH  68  69
ATOM     69  C   UNL     1       2.505   2.393  -1.113  1.00  0.00     0.312 C 
ATOM     70  O   UNL     1       1.997   2.345  -2.223  1.00  0.00    -0.252 OA
BRANCH  69  71
ATOM     71  C   UNL     1       1.996   3.338   0.012  1.00  0.00     0.071 C 
ATOM     72  C   UNL     1       2.836   3.266   1.287  1.00  0.00     0.019 C 
ATOM     73  C   UNL     1       2.138   4.773  -0.538  1.00  0.00     0.019 C 
ATOM     74  C   UNL     1       2.521   4.322   2.345  1.00  0.00     0.001 C 
ATOM     75  C   UNL     1       1.777   5.857   0.476  1.00  0.00     0.001 C 
ATOM     76  C   UNL     1       2.563   5.729   1.776  1.00  0.00     0.000 C 
BRANCH  71  77
ATOM     77  C   UNL     1       0.554   2.930   0.433  1.00  0.00     0.046 C 
BRANCH  77  78
ATOM     78  C   UNL     1      -0.434   2.882  -0.680  1.00  0.00    -0.025 C 
ATOM     79  C   UNL     1      -1.017   1.741  -1.071  1.00  0.00     0.004 C 
BRANCH  79  80
ATOM     80  C   UNL     1      -1.768   1.687  -2.319  1.00  0.00    -0.026 A 
ATOM     81  C   UNL     1      -3.043   1.125  -2.355  1.00  0.00     0.008 A 
ATOM     82  C   UNL     1      -1.180   2.152  -3.504  1.00  0.00     0.008 A 
ATOM     83  C   UNL     1      -3.735   1.059  -3.565  1.00  0.00     0.001 A 
ATOM     84  C   UNL     1      -1.868   2.083  -4.709  1.00  0.00     0.001 A 
ATOM     85  C   UNL     1      -3.149   1.539  -4.739  1.00  0.00     0.000 A 
ENDBRANCH  79  80
ENDBRANCH  77  78
ENDBRANCH  71  77
ENDBRANCH  69  71
ENDBRANCH  68  69
ENDBRANCH  67  68
ENDBRANCH   1  67
TORSDOF 17
