REMARK SMILES O=C(CCCCCN1C(=O)/C(=C/c2cccc(O)c2)SC1=S)OCCOC(=O)c1ccc(-c2c3nc(c(-c4ccc(S(=O)(=O)[O-])cc4)c4ccc([nH]4)c(-c4ccc(S(=O)(=O)[O-])cc4)c4nc(c(-c5ccc(S(=O)(=O)[O-])cc5)c5ccc2[nH]5)C=C4)C=C3)cc1
REMARK SMILES IDX 1 1 2 2 3 3 4 4 5 5 6 6 7 7 8 8 9 9 21 10 10 11 11 12 20 13
REMARK SMILES IDX 22 14 12 15 13 16 14 17 19 18 15 19 17 20 16 21 18 22 23 24
REMARK SMILES IDX 24 25 25 26 26 27 27 28 28 29 29 30 30 31 88 32 31 33 87 34
REMARK SMILES IDX 32 35 33 36 34 37 81 38 35 39 86 40 80 41 82 42 36 43 85 44
REMARK SMILES IDX 79 45 78 46 37 48 67 49 48 50 66 51 49 52 52 53 65 54 83 55
REMARK SMILES IDX 50 56 51 57 64 59 84 60 53 61 38 62 39 63 47 64 40 65 46 66
REMARK SMILES IDX 41 67 42 68 43 69 44 70 45 71 68 72 69 73 77 74 70 75 76 76
REMARK SMILES IDX 71 77 72 78 73 79 74 80 75 81 54 82 55 83 63 84 56 85 62 86
REMARK SMILES IDX 57 87 58 88 59 89 60 90 61 91
REMARK H PARENT 18 23 82 47 52 58
REMARK Flexibility Score: inf
ROOT
ATOM      1  O   UNL     1       1.603  -1.654  -0.950  1.00  0.00    -0.252 OA
ATOM      2  C   UNL     1       2.346  -0.773  -0.527  1.00  0.00     0.305 C 
ENDROOT
BRANCH   2   3
ATOM      3  C   UNL     1       3.037  -0.893   0.814  1.00  0.00     0.123 C 
BRANCH   3   4
ATOM      4  C   UNL     1       3.962  -2.098   0.940  1.00  0.00     0.012 C 
BRANCH   4   5
ATOM      5  C   UNL     1       5.352  -1.926   0.318  1.00  0.00     0.002 C 
BRANCH   5   6
ATOM      6  C   UNL     1       6.198  -0.754   0.844  1.00  0.00     0.022 C 
BRANCH   6   7
ATOM      7  C   UNL     1       6.655  -0.850   2.305  1.00  0.00     0.127 C 
BRANCH   7   8
ATOM      8  N   UNL     1       7.654  -1.896   2.499  1.00  0.00    -0.293 N 
ATOM      9  C   UNL     1       8.940  -1.674   2.029  1.00  0.00     0.266 C 
ATOM     10  C   UNL     1       7.423  -3.106   3.123  1.00  0.00     0.148 C 
ATOM     11  O   UNL     1       9.353  -0.648   1.503  1.00  0.00    -0.268 OA
ATOM     12  C   UNL     1       9.766  -2.891   2.210  1.00  0.00     0.081 C 
ATOM     13  S   UNL     1       8.850  -4.117   2.992  1.00  0.00    -0.054 SA
ATOM     14  S   UNL     1       6.049  -3.633   3.901  1.00  0.00    -0.052 S 
ATOM     15  C   UNL     1      11.025  -2.984   1.758  1.00  0.00     0.029 C 
BRANCH  15  16
ATOM     16  C   UNL     1      11.781  -4.235   1.825  1.00  0.00    -0.021 A 
ATOM     17  C   UNL     1      11.661  -5.158   0.777  1.00  0.00     0.008 A 
ATOM     18  C   UNL     1      12.496  -4.578   2.974  1.00  0.00     0.054 A 
ATOM     19  C   UNL     1      12.224  -6.428   0.894  1.00  0.00     0.004 A 
ATOM     20  C   UNL     1      13.044  -5.851   3.083  1.00  0.00     0.116 A 
ATOM     21  C   UNL     1      12.910  -6.782   2.056  1.00  0.00     0.046 A 
BRANCH  20  22
ATOM     22  O   UNL     1      13.689  -6.168   4.242  1.00  0.00    -0.508 OA
ATOM     23  H   UNL     1      14.070  -7.017   4.350  1.00  0.00     0.293 HD
ENDBRANCH  20  22
ENDBRANCH  15  16
ENDBRANCH   7   8
ENDBRANCH   6   7
ENDBRANCH   5   6
ENDBRANCH   4   5
ENDBRANCH   3   4
ENDBRANCH   2   3
BRANCH   2  24
ATOM     24  O   UNL     1       2.470   0.406  -1.186  1.00  0.00    -0.462 OA
BRANCH  24  25
ATOM     25  C   UNL     1       3.760   1.011  -1.377  1.00  0.00     0.274 C 
BRANCH  25  26
ATOM     26  C   UNL     1       3.877   2.390  -0.722  1.00  0.00     0.275 C 
BRANCH  26  27
ATOM     27  O   UNL     1       3.638   2.327   0.694  1.00  0.00    -0.458 OA
BRANCH  27  28
ATOM     28  C   UNL     1       2.343   2.542   1.053  1.00  0.00     0.338 C 
ATOM     29  O   UNL     1       1.439   2.883   0.317  1.00  0.00    -0.246 OA
BRANCH  28  30
ATOM     30  C   UNL     1       2.132   2.143   2.466  1.00  0.00     0.060 A 
ATOM     31  C   UNL     1       0.909   1.544   2.788  1.00  0.00     0.016 A 
ATOM     32  C   UNL     1       3.089   2.365   3.462  1.00  0.00     0.016 A 
ATOM     33  C   UNL     1       0.616   1.214   4.111  1.00  0.00     0.010 A 
ATOM     34  C   UNL     1       2.792   2.038   4.791  1.00  0.00     0.010 A 
ATOM     35  C   UNL     1       1.539   1.495   5.127  1.00  0.00    -0.014 A 
BRANCH  35  36
ATOM     36  C   UNL     1       1.117   1.375   6.544  1.00  0.00     0.031 A 
ATOM     37  C   UNL     1       0.606   2.600   7.255  1.00  0.00     0.074 A 
ATOM     38  C   UNL     1       1.143   0.191   7.184  1.00  0.00     0.049 A 
ATOM     39  N   UNL     1       0.125   2.714   8.466  1.00  0.00    -0.248 NA
ATOM     40  C   UNL     1       0.638   3.862   6.497  1.00  0.00     0.031 C 
ATOM     41  C   UNL     1       1.593  -1.075   6.608  1.00  0.00     0.029 A 
ATOM     42  N   UNL     1       0.776  -0.133   8.467  1.00  0.00    -0.354 N 
ATOM     43  C   UNL     1      -0.210   4.054   8.614  1.00  0.00     0.074 A 
ATOM     44  C   UNL     1       0.157   4.721   7.383  1.00  0.00     0.031 C 
ATOM     45  C   UNL     1       1.479  -2.040   7.538  1.00  0.00     0.029 A 
ATOM     46  C   UNL     1       0.961  -1.459   8.776  1.00  0.00     0.049 A 
ATOM     47  H   UNL     1       0.415   0.524   9.105  1.00  0.00     0.167 HD
ATOM     48  C   UNL     1      -0.782   4.676   9.672  1.00  0.00     0.031 A 
ATOM     49  C   UNL     1       0.741  -2.127   9.926  1.00  0.00     0.031 A 
ATOM     50  C   UNL     1      -1.130   4.027  10.906  1.00  0.00     0.049 A 
ATOM     51  C   UNL     1       0.164  -1.400  11.115  1.00  0.00     0.074 A 
ATOM     52  C   UNL     1      -1.733   4.573  12.025  1.00  0.00     0.029 A 
ATOM     53  N   UNL     1      -0.893   2.691  11.191  1.00  0.00    -0.354 N 
ATOM     54  N   UNL     1      -0.200  -0.144  11.217  1.00  0.00    -0.248 NA
ATOM     55  C   UNL     1      -0.043  -2.188  12.340  1.00  0.00     0.031 C 
ATOM     56  C   UNL     1      -1.815   3.580  13.007  1.00  0.00     0.029 A 
ATOM     57  C   UNL     1      -1.310   2.402  12.479  1.00  0.00     0.049 A 
ATOM     58  H   UNL     1      -0.488   2.044  10.569  1.00  0.00     0.167 HD
ATOM     59  C   UNL     1      -0.704   0.001  12.506  1.00  0.00     0.074 A 
ATOM     60  C   UNL     1      -0.606  -1.295  13.144  1.00  0.00     0.031 C 
ATOM     61  C   UNL     1      -1.208   1.109  13.105  1.00  0.00     0.031 A 
BRANCH  48  62
ATOM     62  C   UNL     1      -1.042   6.152   9.543  1.00  0.00    -0.014 A 
ATOM     63  C   UNL     1      -2.085   6.634   8.733  1.00  0.00     0.010 A 
ATOM     64  C   UNL     1      -0.250   7.065  10.261  1.00  0.00     0.010 A 
ATOM     65  C   UNL     1      -2.307   8.008   8.612  1.00  0.00     0.020 A 
ATOM     66  C   UNL     1      -0.482   8.439  10.160  1.00  0.00     0.020 A 
ATOM     67  C   UNL     1      -1.498   8.902   9.322  1.00  0.00     0.054 A 
BRANCH  67  68
ATOM     68  S   UNL     1      -1.811  10.681   9.155  1.00  0.00     0.124 S 
ATOM     69  O   UNL     1      -1.264  10.959   7.829  1.00  0.00    -0.237 OA
ATOM     70  O   UNL     1      -3.266  10.764   9.263  1.00  0.00    -0.237 OA
ATOM     71  O   UNL     1      -1.072  11.268  10.270  1.00  0.00    -0.744 OA
ENDBRANCH  67  68
ENDBRANCH  48  62
BRANCH  49  72
ATOM     72  C   UNL     1       1.071  -3.575  10.017  1.00  0.00    -0.014 A 
ATOM     73  C   UNL     1       0.053  -4.542  10.081  1.00  0.00     0.010 A 
ATOM     74  C   UNL     1       2.415  -3.991  10.051  1.00  0.00     0.010 A 
ATOM     75  C   UNL     1       0.373  -5.899  10.195  1.00  0.00     0.020 A 
ATOM     76  C   UNL     1       2.738  -5.348  10.141  1.00  0.00     0.020 A 
ATOM     77  C   UNL     1       1.714  -6.293  10.225  1.00  0.00     0.054 A 
BRANCH  77  78
ATOM     78  S   UNL     1       2.107  -8.062  10.332  1.00  0.00     0.124 S 
ATOM     79  O   UNL     1       1.822  -8.352  11.733  1.00  0.00    -0.237 OA
ATOM     80  O   UNL     1       1.185  -8.651   9.364  1.00  0.00    -0.237 OA
ATOM     81  O   UNL     1       3.517  -8.121   9.953  1.00  0.00    -0.744 OA
ENDBRANCH  77  78
ENDBRANCH  49  72
BRANCH  61  82
ATOM     82  C   UNL     1      -1.721   0.972  14.515  1.00  0.00    -0.014 A 
ATOM     83  C   UNL     1      -0.839   0.846  15.602  1.00  0.00     0.010 A 
ATOM     84  C   UNL     1      -3.105   1.041  14.760  1.00  0.00     0.010 A 
ATOM     85  C   UNL     1      -1.334   0.768  16.908  1.00  0.00     0.020 A 
ATOM     86  C   UNL     1      -3.602   0.987  16.065  1.00  0.00     0.020 A 
ATOM     87  C   UNL     1      -2.713   0.838  17.131  1.00  0.00     0.054 A 
BRANCH  87  88
ATOM     88  S   UNL     1      -3.329   0.788  18.837  1.00  0.00     0.124 S 
ATOM     89  O   UNL     1      -3.201  -0.629  19.165  1.00  0.00    -0.237 OA
ATOM     90  O   UNL     1      -2.409   1.681  19.539  1.00  0.00    -0.237 OA
ATOM     91  O   UNL     1      -4.699   1.282  18.725  1.00  0.00    -0.744 OA
ENDBRANCH  87  88
ENDBRANCH  61  82
ENDBRANCH  35  36
ENDBRANCH  28  30
ENDBRANCH  27  28
ENDBRANCH  26  27
ENDBRANCH  25  26
ENDBRANCH  24  25
ENDBRANCH   2  24
TORSDOF 21
