REMARK SMILES NS(=O)(=O)c1ccc(-n2ccnc2-c2ccc(O)c(C(=O)OCCOC(=O)c3ccc(-c4c5nc(c(-c6ccc(S(=O)(=O)[O-])cc6)c6ccc([nH]6)c(-c6ccc(S(=O)(=O)[O-])cc6)c6nc(c(-c7ccc(S(=O)(=O)[O-])cc7)c7ccc4[nH]7)C=C6)C=C5)cc3)c2)cc1
REMARK SMILES IDX 23 1 22 2 20 3 21 4 19 5 14 6 15 7 88 8 16 9 17 10 13 11
REMARK SMILES IDX 9 12 10 13 11 14 12 15 8 16 5 17 6 18 90 19 7 20 89 21 2 22
REMARK SMILES IDX 3 23 4 24 1 25 18 28 24 30 25 31 26 32 27 33 28 34 29 35
REMARK SMILES IDX 87 36 30 37 86 38 31 39 32 40 33 41 80 42 34 43 85 44 79 45
REMARK SMILES IDX 81 46 35 47 84 48 78 49 77 50 36 52 66 53 47 54 65 55 48 56
REMARK SMILES IDX 51 57 64 58 82 59 49 60 50 61 63 63 83 64 52 65 37 66 38 67
REMARK SMILES IDX 46 68 39 69 45 70 40 71 41 72 42 73 43 74 44 75 67 76 68 77
REMARK SMILES IDX 76 78 69 79 75 80 70 81 71 82 72 83 73 84 74 85 53 86 54 87
REMARK SMILES IDX 62 88 55 89 61 90 56 91 57 92 58 93 59 94 60 95
REMARK H PARENT 1 26 1 27 18 29 81 51 51 62
REMARK Flexibility Score: inf
ROOT
ATOM      1  C   UNL     1       6.449   5.059  -1.756  1.00  0.00     0.275 C 
ENDROOT
BRANCH   1   2
ATOM      2  O   UNL     1       5.721   5.111  -0.517  1.00  0.00    -0.458 OA
BRANCH   2   3
ATOM      3  C   UNL     1       6.178   4.313   0.482  1.00  0.00     0.342 C 
ATOM      4  O   UNL     1       7.013   3.424   0.379  1.00  0.00    -0.246 OA
BRANCH   3   5
ATOM      5  C   UNL     1       5.619   4.715   1.797  1.00  0.00     0.102 A 
ATOM      6  C   UNL     1       3.959   5.920   3.116  1.00  0.00     0.019 A 
ATOM      7  C   UNL     1       4.581   5.483   4.289  1.00  0.00     0.016 A 
ATOM      8  C   UNL     1       4.516   5.572   1.875  1.00  0.00     0.031 A 
ATOM      9  C   UNL     1       5.702   4.652   4.221  1.00  0.00     0.048 A 
ATOM     10  C   UNL     1       6.206   4.255   2.982  1.00  0.00     0.130 A 
BRANCH   6  11
ATOM     11  C   UNL     1       2.722   6.706   3.170  1.00  0.00     0.144 A 
ATOM     12  N   UNL     1       1.597   6.459   2.382  1.00  0.00    -0.300 N 
ATOM     13  C   UNL     1       0.796   7.573   2.485  1.00  0.00     0.113 A 
ATOM     14  C   UNL     1       1.373   8.352   3.458  1.00  0.00     0.132 A 
ATOM     15  N   UNL     1       2.544   7.797   3.895  1.00  0.00    -0.236 NA
BRANCH  12  16
ATOM     16  C   UNL     1       1.301   5.295   1.626  1.00  0.00     0.047 A 
ATOM     17  C   UNL     1       0.795   3.004   0.124  1.00  0.00     0.082 A 
ATOM     18  C   UNL     1       1.345   2.880   1.401  1.00  0.00     0.024 A 
ATOM     19  C   UNL     1       0.490   4.265  -0.403  1.00  0.00     0.024 A 
ATOM     20  C   UNL     1       1.607   4.028   2.149  1.00  0.00     0.028 A 
ATOM     21  C   UNL     1       0.722   5.414   0.358  1.00  0.00     0.028 A 
BRANCH  17  22
ATOM     22  S   UNL     1       0.480   1.583  -0.880  1.00  0.00     0.238 S 
ATOM     23  O   UNL     1       1.221   1.730  -2.119  1.00  0.00    -0.207 OA
ATOM     24  O   UNL     1      -0.930   1.308  -0.845  1.00  0.00    -0.207 OA
BRANCH  22  25
ATOM     25  N   UNL     1       1.220   0.310  -0.071  1.00  0.00    -0.225 NA
ATOM     26  H   UNL     1       1.079  -0.553  -0.596  1.00  0.00     0.137 HD
ATOM     27  H   UNL     1       0.810   0.214   0.858  1.00  0.00     0.137 HD
ENDBRANCH  22  25
ENDBRANCH  17  22
ENDBRANCH  12  16
ENDBRANCH   6  11
BRANCH  10  28
ATOM     28  O   UNL     1       7.289   3.417   3.011  1.00  0.00    -0.507 OA
ATOM     29  H   UNL     1       7.644   3.138   3.832  1.00  0.00     0.293 HD
ENDBRANCH  10  28
ENDBRANCH   3   5
ENDBRANCH   2   3
ENDBRANCH   1   2
BRANCH   1  30
ATOM     30  C   UNL     1       7.597   6.060  -1.763  1.00  0.00     0.275 C 
BRANCH  30  31
ATOM     31  O   UNL     1       8.621   5.672  -0.849  1.00  0.00    -0.458 OA
BRANCH  31  32
ATOM     32  C   UNL     1       8.550   6.241   0.377  1.00  0.00     0.338 C 
ATOM     33  O   UNL     1       7.590   6.815   0.862  1.00  0.00    -0.246 OA
BRANCH  32  34
ATOM     34  C   UNL     1       9.891   6.250   0.970  1.00  0.00     0.060 A 
ATOM     35  C   UNL     1      10.037   6.849   2.224  1.00  0.00     0.016 A 
ATOM     36  C   UNL     1      10.998   5.934   0.169  1.00  0.00     0.016 A 
ATOM     37  C   UNL     1      11.287   7.303   2.594  1.00  0.00     0.010 A 
ATOM     38  C   UNL     1      12.235   6.409   0.525  1.00  0.00     0.010 A 
ATOM     39  C   UNL     1      12.349   7.153   1.696  1.00  0.00    -0.014 A 
BRANCH  39  40
ATOM     40  C   UNL     1      13.644   7.688   2.054  1.00  0.00     0.031 A 
ATOM     41  C   UNL     1      14.342   6.855   3.058  1.00  0.00     0.074 A 
ATOM     42  C   UNL     1      14.194   8.741   1.421  1.00  0.00     0.049 A 
ATOM     43  N   UNL     1      14.559   7.137   4.299  1.00  0.00    -0.248 NA
ATOM     44  C   UNL     1      14.655   5.461   2.693  1.00  0.00     0.031 C 
ATOM     45  C   UNL     1      13.714   9.442   0.226  1.00  0.00     0.029 A 
ATOM     46  N   UNL     1      15.387   9.342   1.660  1.00  0.00    -0.354 N 
ATOM     47  C   UNL     1      15.251   6.045   4.808  1.00  0.00     0.074 A 
ATOM     48  C   UNL     1      15.073   4.975   3.861  1.00  0.00     0.031 C 
ATOM     49  C   UNL     1      14.720  10.192  -0.285  1.00  0.00     0.029 A 
ATOM     50  C   UNL     1      15.860  10.129   0.616  1.00  0.00     0.049 A 
ATOM     51  H   UNL     1      15.879   9.229   2.505  1.00  0.00     0.167 HD
ATOM     52  C   UNL     1      16.160   6.188   5.810  1.00  0.00     0.031 A 
ATOM     53  C   UNL     1      17.123  10.619   0.487  1.00  0.00     0.031 A 
ATOM     54  C   UNL     1      16.015   7.455   6.481  1.00  0.00     0.049 A 
ATOM     55  C   UNL     1      17.744  10.574   1.836  1.00  0.00     0.074 A 
ATOM     56  C   UNL     1      14.994   8.076   7.173  1.00  0.00     0.029 A 
ATOM     57  N   UNL     1      16.894   8.453   6.125  1.00  0.00    -0.354 N 
ATOM     58  N   UNL     1      17.336  11.306   2.834  1.00  0.00    -0.248 NA
ATOM     59  C   UNL     1      18.485   9.377   2.205  1.00  0.00     0.031 C 
ATOM     60  C   UNL     1      15.066   9.446   6.783  1.00  0.00     0.029 A 
ATOM     61  C   UNL     1      16.168   9.602   5.941  1.00  0.00     0.049 A 
ATOM     62  H   UNL     1      17.869   8.358   6.020  1.00  0.00     0.167 HD
ATOM     63  C   UNL     1      17.370  10.460   3.934  1.00  0.00     0.074 A 
ATOM     64  C   UNL     1      18.169   9.312   3.502  1.00  0.00     0.031 C 
ATOM     65  C   UNL     1      16.516  10.634   4.986  1.00  0.00     0.031 A 
BRANCH  52  66
ATOM     66  C   UNL     1      17.437   5.385   5.873  1.00  0.00    -0.014 A 
ATOM     67  C   UNL     1      18.310   5.586   6.959  1.00  0.00     0.010 A 
ATOM     68  C   UNL     1      17.941   4.652   4.776  1.00  0.00     0.010 A 
ATOM     69  C   UNL     1      19.638   5.141   6.914  1.00  0.00     0.020 A 
ATOM     70  C   UNL     1      19.246   4.164   4.740  1.00  0.00     0.020 A 
ATOM     71  C   UNL     1      20.098   4.443   5.797  1.00  0.00     0.054 A 
BRANCH  71  72
ATOM     72  S   UNL     1      21.837   3.958   5.705  1.00  0.00     0.124 S 
ATOM     73  O   UNL     1      22.506   5.253   5.637  1.00  0.00    -0.237 OA
ATOM     74  O   UNL     1      22.014   3.214   6.949  1.00  0.00    -0.237 OA
ATOM     75  O   UNL     1      21.904   3.152   4.488  1.00  0.00    -0.744 OA
ENDBRANCH  71  72
ENDBRANCH  52  66
BRANCH  53  76
ATOM     76  C   UNL     1      17.937  10.764  -0.751  1.00  0.00    -0.014 A 
ATOM     77  C   UNL     1      19.163  11.460  -0.736  1.00  0.00     0.010 A 
ATOM     78  C   UNL     1      17.661   9.959  -1.874  1.00  0.00     0.010 A 
ATOM     79  C   UNL     1      20.107  11.294  -1.766  1.00  0.00     0.020 A 
ATOM     80  C   UNL     1      18.594   9.793  -2.907  1.00  0.00     0.020 A 
ATOM     81  C   UNL     1      19.826  10.439  -2.835  1.00  0.00     0.054 A 
BRANCH  81  82
ATOM     82  S   UNL     1      21.122  10.068  -4.056  1.00  0.00     0.124 S 
ATOM     83  O   UNL     1      21.230  11.325  -4.790  1.00  0.00    -0.237 OA
ATOM     84  O   UNL     1      22.266   9.727  -3.214  1.00  0.00    -0.237 OA
ATOM     85  O   UNL     1      20.566   8.951  -4.819  1.00  0.00    -0.744 OA
ENDBRANCH  81  82
ENDBRANCH  53  76
BRANCH  65  86
ATOM     86  C   UNL     1      15.714  11.915   5.054  1.00  0.00    -0.014 A 
ATOM     87  C   UNL     1      14.787  12.324   4.073  1.00  0.00     0.010 A 
ATOM     88  C   UNL     1      15.815  12.674   6.232  1.00  0.00     0.010 A 
ATOM     89  C   UNL     1      14.015  13.484   4.253  1.00  0.00     0.020 A 
ATOM     90  C   UNL     1      15.037  13.818   6.426  1.00  0.00     0.020 A 
ATOM     91  C   UNL     1      14.152  14.227   5.429  1.00  0.00     0.054 A 
BRANCH  91  92
ATOM     92  S   UNL     1      13.153  15.725   5.667  1.00  0.00     0.124 S 
ATOM     93  O   UNL     1      13.700  16.634   4.663  1.00  0.00    -0.237 OA
ATOM     94  O   UNL     1      11.794  15.253   5.414  1.00  0.00    -0.237 OA
ATOM     95  O   UNL     1      13.420  16.105   7.054  1.00  0.00    -0.744 OA
ENDBRANCH  91  92
ENDBRANCH  65  86
ENDBRANCH  39  40
ENDBRANCH  32  34
ENDBRANCH  31  32
ENDBRANCH  30  31
ENDBRANCH   1  30
TORSDOF 19
