REMARK SMILES CNc1nccc(-c2cc(C(=O)OCCOC(=O)c3ccc(-c4c5nc(c(-c6ccc(S(=O)(=O)[O-])cc6)c6ccc([nH]6)c(-c6ccc(S(=O)(=O)[O-])cc6)c6nc(c(-c7ccc(S(=O)(=O)[O-])cc7)c7ccc4[nH]7)C=C6)C=C5)cc3)ccn2)n1
REMARK SMILES IDX 15 1 14 2 13 3 11 4 12 5 10 6 8 7 9 8 81 9 80 10 79 11 7 12
REMARK SMILES IDX 3 13 4 14 82 15 5 16 6 17 2 18 1 19 16 21 17 22 18 23 19 24
REMARK SMILES IDX 20 25 78 26 21 27 77 28 22 29 23 30 24 31 71 32 25 33 76 34
REMARK SMILES IDX 70 35 72 36 26 37 75 38 69 39 68 40 27 42 57 43 38 44 56 45
REMARK SMILES IDX 39 46 42 47 55 48 73 49 40 50 41 51 54 53 74 54 43 55 28 56
REMARK SMILES IDX 29 57 37 58 30 59 36 60 31 61 32 62 33 63 34 64 35 65 58 66
REMARK SMILES IDX 59 67 67 68 60 69 66 70 61 71 62 72 63 73 64 74 65 75 44 76
REMARK SMILES IDX 45 77 53 78 46 79 52 80 47 81 48 82 49 83 50 84 51 85
REMARK H PARENT 2 20 72 41 42 52
REMARK Flexibility Score: inf
ROOT
ATOM      1  C   UNL     1      -3.541   8.259  -2.280  1.00  0.00     0.275 C 
ENDROOT
BRANCH   1   2
ATOM      2  C   UNL     1      -3.453   8.042  -0.768  1.00  0.00     0.275 C 
BRANCH   2   3
ATOM      3  O   UNL     1      -3.287   6.647  -0.439  1.00  0.00    -0.458 OA
BRANCH   3   4
ATOM      4  C   UNL     1      -4.392   6.005   0.018  1.00  0.00     0.338 C 
ATOM      5  O   UNL     1      -5.488   6.495   0.213  1.00  0.00    -0.246 OA
BRANCH   4   6
ATOM      6  C   UNL     1      -4.114   4.562   0.205  1.00  0.00     0.063 A 
ATOM      7  C   UNL     1      -2.749   2.774   0.992  1.00  0.00     0.090 A 
ATOM      8  C   UNL     1      -2.908   4.134   0.745  1.00  0.00     0.046 A 
ATOM      9  N   UNL     1      -3.688   1.852   0.653  1.00  0.00    -0.255 NA
ATOM     10  C   UNL     1      -4.835   2.290   0.111  1.00  0.00     0.112 A 
ATOM     11  C   UNL     1      -5.111   3.627  -0.077  1.00  0.00     0.036 A 
BRANCH   7  12
ATOM     12  C   UNL     1      -1.637   2.263   1.796  1.00  0.00     0.094 A 
ATOM     13  C   UNL     1       0.140   0.823   1.962  1.00  0.00     0.222 A 
ATOM     14  N   UNL     1       0.330   1.113   3.257  1.00  0.00    -0.222 NA
ATOM     15  N   UNL     1      -0.815   1.371   1.207  1.00  0.00    -0.211 NA
ATOM     16  C   UNL     1      -0.488   2.026   3.805  1.00  0.00     0.117 A 
ATOM     17  C   UNL     1      -1.493   2.647   3.114  1.00  0.00     0.051 A 
BRANCH  13  18
ATOM     18  N   UNL     1       1.038  -0.044   1.410  1.00  0.00    -0.357 N 
ATOM     19  C   UNL     1       1.124  -0.226  -0.010  1.00  0.00     0.143 C 
ATOM     20  H   UNL     1       1.640  -0.554   1.998  1.00  0.00     0.163 HD
ENDBRANCH  13  18
ENDBRANCH   7  12
ENDBRANCH   4   6
ENDBRANCH   3   4
ENDBRANCH   2   3
ENDBRANCH   1   2
BRANCH   1  21
ATOM     21  O   UNL     1      -4.778   7.743  -2.806  1.00  0.00    -0.458 OA
BRANCH  21  22
ATOM     22  C   UNL     1      -4.683   6.520  -3.372  1.00  0.00     0.338 C 
ATOM     23  O   UNL     1      -3.677   5.842  -3.506  1.00  0.00    -0.246 OA
BRANCH  22  24
ATOM     24  C   UNL     1      -6.016   6.015  -3.722  1.00  0.00     0.060 A 
ATOM     25  C   UNL     1      -6.723   5.345  -2.732  1.00  0.00     0.016 A 
ATOM     26  C   UNL     1      -6.479   6.010  -5.032  1.00  0.00     0.016 A 
ATOM     27  C   UNL     1      -7.806   4.541  -3.059  1.00  0.00     0.010 A 
ATOM     28  C   UNL     1      -7.656   5.313  -5.337  1.00  0.00     0.010 A 
ATOM     29  C   UNL     1      -8.309   4.529  -4.364  1.00  0.00    -0.014 A 
BRANCH  29  30
ATOM     30  C   UNL     1      -9.491   3.685  -4.707  1.00  0.00     0.031 A 
ATOM     31  C   UNL     1      -9.402   2.681  -5.831  1.00  0.00     0.074 A 
ATOM     32  C   UNL     1     -10.641   3.802  -4.009  1.00  0.00     0.049 A 
ATOM     33  N   UNL     1     -10.361   2.006  -6.413  1.00  0.00    -0.248 NA
ATOM     34  C   UNL     1      -8.063   2.411  -6.383  1.00  0.00     0.031 C 
ATOM     35  C   UNL     1     -10.855   4.679  -2.853  1.00  0.00     0.029 A 
ATOM     36  N   UNL     1     -11.854   3.175  -4.165  1.00  0.00    -0.354 N 
ATOM     37  C   UNL     1      -9.752   1.276  -7.429  1.00  0.00     0.074 A 
ATOM     38  C   UNL     1      -8.343   1.601  -7.396  1.00  0.00     0.031 C 
ATOM     39  C   UNL     1     -12.099   4.505  -2.385  1.00  0.00     0.029 A 
ATOM     40  C   UNL     1     -12.812   3.595  -3.269  1.00  0.00     0.049 A 
ATOM     41  H   UNL     1     -12.022   2.490  -4.852  1.00  0.00     0.167 HD
ATOM     42  C   UNL     1     -10.316   0.412  -8.308  1.00  0.00     0.031 A 
ATOM     43  C   UNL     1     -14.131   3.331  -3.196  1.00  0.00     0.031 A 
ATOM     44  C   UNL     1     -11.715   0.069  -8.311  1.00  0.00     0.049 A 
ATOM     45  C   UNL     1     -14.748   2.437  -4.235  1.00  0.00     0.074 A 
ATOM     46  C   UNL     1     -12.388  -0.792  -9.161  1.00  0.00     0.029 A 
ATOM     47  N   UNL     1     -12.652   0.553  -7.410  1.00  0.00    -0.354 N 
ATOM     48  N   UNL     1     -14.168   1.800  -5.224  1.00  0.00    -0.248 NA
ATOM     49  C   UNL     1     -16.201   2.233  -4.155  1.00  0.00     0.031 C 
ATOM     50  C   UNL     1     -13.741  -0.786  -8.808  1.00  0.00     0.029 A 
ATOM     51  C   UNL     1     -13.899   0.022  -7.694  1.00  0.00     0.049 A 
ATOM     52  H   UNL     1     -12.459   1.182  -6.677  1.00  0.00     0.167 HD
ATOM     53  C   UNL     1     -15.180   1.094  -5.862  1.00  0.00     0.074 A 
ATOM     54  C   UNL     1     -16.404   1.368  -5.138  1.00  0.00     0.031 C 
ATOM     55  C   UNL     1     -15.104   0.290  -6.951  1.00  0.00     0.031 A 
BRANCH  42  56
ATOM     56  C   UNL     1      -9.434  -0.204  -9.365  1.00  0.00    -0.014 A 
ATOM     57  C   UNL     1      -8.472  -1.178  -9.044  1.00  0.00     0.010 A 
ATOM     58  C   UNL     1      -9.622   0.149 -10.715  1.00  0.00     0.010 A 
ATOM     59  C   UNL     1      -7.698  -1.767 -10.049  1.00  0.00     0.020 A 
ATOM     60  C   UNL     1      -8.871  -0.459 -11.726  1.00  0.00     0.020 A 
ATOM     61  C   UNL     1      -7.905  -1.406 -11.384  1.00  0.00     0.054 A 
BRANCH  61  62
ATOM     62  S   UNL     1      -6.918  -2.223 -12.669  1.00  0.00     0.124 S 
ATOM     63  O   UNL     1      -5.591  -1.659 -12.435  1.00  0.00    -0.237 OA
ATOM     64  O   UNL     1      -7.067  -3.637 -12.335  1.00  0.00    -0.237 OA
ATOM     65  O   UNL     1      -7.558  -1.809 -13.916  1.00  0.00    -0.744 OA
ENDBRANCH  61  62
ENDBRANCH  42  56
BRANCH  43  66
ATOM     66  C   UNL     1     -14.972   3.972  -2.145  1.00  0.00    -0.014 A 
ATOM     67  C   UNL     1     -15.606   3.195  -1.160  1.00  0.00     0.010 A 
ATOM     68  C   UNL     1     -15.162   5.367  -2.137  1.00  0.00     0.010 A 
ATOM     69  C   UNL     1     -16.441   3.795  -0.211  1.00  0.00     0.020 A 
ATOM     70  C   UNL     1     -15.963   5.975  -1.167  1.00  0.00     0.020 A 
ATOM     71  C   UNL     1     -16.614   5.182  -0.223  1.00  0.00     0.054 A 
BRANCH  71  72
ATOM     72  S   UNL     1     -17.691   5.941   1.024  1.00  0.00     0.124 S 
ATOM     73  O   UNL     1     -19.016   5.538   0.564  1.00  0.00    -0.237 OA
ATOM     74  O   UNL     1     -17.232   5.313   2.261  1.00  0.00    -0.237 OA
ATOM     75  O   UNL     1     -17.394   7.367   0.910  1.00  0.00    -0.744 OA
ENDBRANCH  71  72
ENDBRANCH  43  66
BRANCH  55  76
ATOM     76  C   UNL     1     -16.364  -0.406  -7.388  1.00  0.00    -0.014 A 
ATOM     77  C   UNL     1     -17.422   0.297  -7.991  1.00  0.00     0.010 A 
ATOM     78  C   UNL     1     -16.464  -1.802  -7.237  1.00  0.00     0.010 A 
ATOM     79  C   UNL     1     -18.570  -0.381  -8.409  1.00  0.00     0.020 A 
ATOM     80  C   UNL     1     -17.596  -2.487  -7.684  1.00  0.00     0.020 A 
ATOM     81  C   UNL     1     -18.647  -1.770  -8.256  1.00  0.00     0.054 A 
BRANCH  81  82
ATOM     82  S   UNL     1     -20.125  -2.631  -8.858  1.00  0.00     0.124 S 
ATOM     83  O   UNL     1     -21.133  -2.224  -7.883  1.00  0.00    -0.237 OA
ATOM     84  O   UNL     1     -20.291  -2.080 -10.201  1.00  0.00    -0.237 OA
ATOM     85  O   UNL     1     -19.748  -4.042  -8.811  1.00  0.00    -0.744 OA
ENDBRANCH  81  82
ENDBRANCH  55  76
ENDBRANCH  29  30
ENDBRANCH  22  24
ENDBRANCH  21  22
ENDBRANCH   1  21
TORSDOF 16
