REMARK SMILES O=C(Cn1cccc1C(=O)OCCOC(=O)c1ccc(-c2c3nc(c(-c4ccc(S(=O)(=O)[O-])cc4)c4ccc([nH]4)c(-c4ccc(S(=O)(=O)[O-])cc4)c4nc(c(-c5ccc(S(=O)(=O)[O-])cc5)c5ccc2[nH]5)C=C4)C=C3)cc1)NCC1CCCC1
REMARK SMILES IDX 12 1 11 2 9 3 10 4 8 5 4 6 5 7 6 8 7 9 3 10 2 11 1 12 77 13
REMARK SMILES IDX 78 15 79 16 80 17 83 18 81 19 82 20 13 21 14 22 15 23 16 24
REMARK SMILES IDX 17 25 18 26 76 27 19 28 75 29 20 30 21 31 22 32 69 33 23 34
REMARK SMILES IDX 74 35 68 36 70 37 24 38 73 39 67 40 66 41 25 43 55 44 36 45
REMARK SMILES IDX 54 46 37 47 40 48 53 49 71 50 38 51 39 52 52 54 72 55 41 56
REMARK SMILES IDX 26 57 27 58 35 59 28 60 34 61 29 62 30 63 31 64 32 65 33 66
REMARK SMILES IDX 56 67 57 68 65 69 58 70 64 71 59 72 60 73 61 74 62 75 63 76
REMARK SMILES IDX 42 77 43 78 51 79 44 80 50 81 45 82 46 83 47 84 48 85 49 86
REMARK H PARENT 77 14 70 42 40 53
REMARK Flexibility Score: inf
ROOT
ATOM      1  C   UNL     1      -0.117  -2.217   0.636  1.00  0.00     0.275 C 
ENDROOT
BRANCH   1   2
ATOM      2  O   UNL     1       1.075  -1.577   1.132  1.00  0.00    -0.457 OA
BRANCH   2   3
ATOM      3  C   UNL     1       1.820  -2.307   2.012  1.00  0.00     0.355 C 
ATOM      4  O   UNL     1       1.433  -3.329   2.548  1.00  0.00    -0.244 OA
BRANCH   3   5
ATOM      5  C   UNL     1       3.177  -1.781   2.129  1.00  0.00     0.128 A 
ATOM      6  N   UNL     1       3.717  -0.578   1.696  1.00  0.00    -0.333 N 
ATOM      7  C   UNL     1       5.066  -0.549   1.996  1.00  0.00     0.087 A 
ATOM      8  C   UNL     1       5.415  -1.741   2.580  1.00  0.00     0.020 A 
ATOM      9  C   UNL     1       4.238  -2.509   2.664  1.00  0.00     0.035 A 
BRANCH   6  10
ATOM     10  C   UNL     1       3.017   0.608   1.203  1.00  0.00     0.222 C 
BRANCH  10  11
ATOM     11  C   UNL     1       2.393   0.543  -0.176  1.00  0.00     0.239 C 
ATOM     12  O   UNL     1       1.320   1.116  -0.388  1.00  0.00    -0.273 OA
ATOM     13  N   UNL     1       3.102  -0.082  -1.180  1.00  0.00    -0.354 N 
ATOM     14  H   UNL     1       4.049  -0.312  -1.041  1.00  0.00     0.163 HD
BRANCH  13  15
ATOM     15  C   UNL     1       2.459  -0.402  -2.441  1.00  0.00     0.119 C 
BRANCH  15  16
ATOM     16  C   UNL     1       2.766   0.529  -3.607  1.00  0.00     0.008 C 
ATOM     17  C   UNL     1       1.696   0.396  -4.694  1.00  0.00     0.005 C 
ATOM     18  C   UNL     1       2.731   2.019  -3.297  1.00  0.00     0.005 C 
ATOM     19  C   UNL     1       1.866   1.639  -5.553  1.00  0.00     0.000 C 
ATOM     20  C   UNL     1       2.525   2.684  -4.655  1.00  0.00     0.000 C 
ENDBRANCH  15  16
ENDBRANCH  13  15
ENDBRANCH  10  11
ENDBRANCH   6  10
ENDBRANCH   3   5
ENDBRANCH   2   3
ENDBRANCH   1   2
BRANCH   1  21
ATOM     21  C   UNL     1       0.099  -2.971  -0.683  1.00  0.00     0.275 C 
BRANCH  21  22
ATOM     22  O   UNL     1       0.966  -4.111  -0.599  1.00  0.00    -0.458 OA
BRANCH  22  23
ATOM     23  C   UNL     1       2.270  -3.787  -0.706  1.00  0.00     0.338 C 
ATOM     24  O   UNL     1       2.768  -2.682  -0.567  1.00  0.00    -0.246 OA
BRANCH  23  25
ATOM     25  C   UNL     1       3.105  -4.845  -1.247  1.00  0.00     0.060 A 
ATOM     26  C   UNL     1       4.464  -4.776  -0.912  1.00  0.00     0.016 A 
ATOM     27  C   UNL     1       2.637  -5.576  -2.342  1.00  0.00     0.016 A 
ATOM     28  C   UNL     1       5.384  -5.369  -1.746  1.00  0.00     0.010 A 
ATOM     29  C   UNL     1       3.564  -6.157  -3.188  1.00  0.00     0.010 A 
ATOM     30  C   UNL     1       4.929  -6.020  -2.898  1.00  0.00    -0.014 A 
BRANCH  30  31
ATOM     31  C   UNL     1       5.936  -6.668  -3.745  1.00  0.00     0.031 A 
ATOM     32  C   UNL     1       6.256  -8.078  -3.239  1.00  0.00     0.074 A 
ATOM     33  C   UNL     1       6.450  -5.894  -4.748  1.00  0.00     0.049 A 
ATOM     34  N   UNL     1       7.306  -8.811  -3.437  1.00  0.00    -0.248 NA
ATOM     35  C   UNL     1       5.299  -8.752  -2.312  1.00  0.00     0.031 C 
ATOM     36  C   UNL     1       6.015  -4.510  -5.063  1.00  0.00     0.029 A 
ATOM     37  N   UNL     1       7.433  -6.087  -5.689  1.00  0.00    -0.354 N 
ATOM     38  C   UNL     1       7.078 -10.057  -2.817  1.00  0.00     0.074 A 
ATOM     39  C   UNL     1       5.863  -9.937  -2.074  1.00  0.00     0.031 C 
ATOM     40  C   UNL     1       6.770  -3.979  -6.050  1.00  0.00     0.029 A 
ATOM     41  C   UNL     1       7.745  -4.958  -6.487  1.00  0.00     0.049 A 
ATOM     42  H   UNL     1       7.891  -6.952  -5.802  1.00  0.00     0.167 HD
ATOM     43  C   UNL     1       7.862 -11.152  -3.016  1.00  0.00     0.031 A 
ATOM     44  C   UNL     1       8.748  -4.812  -7.405  1.00  0.00     0.031 A 
ATOM     45  C   UNL     1       8.972 -10.833  -3.847  1.00  0.00     0.049 A 
ATOM     46  C   UNL     1       9.395  -6.132  -7.501  1.00  0.00     0.074 A 
ATOM     47  C   UNL     1      10.152 -10.182  -3.602  1.00  0.00     0.029 A 
ATOM     48  N   UNL     1       8.784 -10.916  -5.206  1.00  0.00    -0.354 N 
ATOM     49  N   UNL     1       8.868  -7.183  -8.050  1.00  0.00    -0.248 NA
ATOM     50  C   UNL     1      10.704  -6.327  -6.867  1.00  0.00     0.031 C 
ATOM     51  C   UNL     1      10.422  -9.497  -4.807  1.00  0.00     0.029 A 
ATOM     52  C   UNL     1       9.471  -9.862  -5.766  1.00  0.00     0.049 A 
ATOM     53  H   UNL     1       8.260 -11.597  -5.686  1.00  0.00     0.167 HD
ATOM     54  C   UNL     1       9.591  -8.211  -7.497  1.00  0.00     0.074 A 
ATOM     55  C   UNL     1      10.844  -7.636  -7.057  1.00  0.00     0.031 C 
ATOM     56  C   UNL     1       8.953  -9.298  -6.995  1.00  0.00     0.031 A 
BRANCH  43  57
ATOM     57  C   UNL     1       7.654 -12.589  -2.641  1.00  0.00    -0.014 A 
ATOM     58  C   UNL     1       8.807 -13.408  -2.568  1.00  0.00     0.010 A 
ATOM     59  C   UNL     1       6.403 -13.223  -2.663  1.00  0.00     0.010 A 
ATOM     60  C   UNL     1       8.726 -14.798  -2.645  1.00  0.00     0.020 A 
ATOM     61  C   UNL     1       6.312 -14.626  -2.709  1.00  0.00     0.020 A 
ATOM     62  C   UNL     1       7.476 -15.398  -2.755  1.00  0.00     0.054 A 
BRANCH  62  63
ATOM     63  S   UNL     1       7.413 -17.186  -3.051  1.00  0.00     0.124 S 
ATOM     64  O   UNL     1       7.902 -17.286  -4.424  1.00  0.00    -0.237 OA
ATOM     65  O   UNL     1       8.316 -17.709  -2.027  1.00  0.00    -0.237 OA
ATOM     66  O   UNL     1       6.005 -17.518  -2.858  1.00  0.00    -0.744 OA
ENDBRANCH  62  63
ENDBRANCH  43  57
BRANCH  44  67
ATOM     67  C   UNL     1       9.401  -3.695  -8.185  1.00  0.00    -0.014 A 
ATOM     68  C   UNL     1       9.046  -2.341  -8.148  1.00  0.00     0.010 A 
ATOM     69  C   UNL     1      10.582  -4.003  -8.921  1.00  0.00     0.010 A 
ATOM     70  C   UNL     1       9.901  -1.346  -8.681  1.00  0.00     0.020 A 
ATOM     71  C   UNL     1      11.459  -3.030  -9.406  1.00  0.00     0.020 A 
ATOM     72  C   UNL     1      11.127  -1.696  -9.257  1.00  0.00     0.054 A 
BRANCH  72  73
ATOM     73  S   UNL     1      12.359  -0.428  -9.675  1.00  0.00     0.124 S 
ATOM     74  O   UNL     1      11.972  -0.050 -11.030  1.00  0.00    -0.237 OA
ATOM     75  O   UNL     1      12.142   0.587  -8.648  1.00  0.00    -0.237 OA
ATOM     76  O   UNL     1      13.630  -1.144  -9.564  1.00  0.00    -0.744 OA
ENDBRANCH  72  73
ENDBRANCH  44  67
BRANCH  56  77
ATOM     77  C   UNL     1       7.537  -9.515  -7.522  1.00  0.00    -0.014 A 
ATOM     78  C   UNL     1       7.314  -9.752  -8.890  1.00  0.00     0.010 A 
ATOM     79  C   UNL     1       6.400  -9.398  -6.700  1.00  0.00     0.010 A 
ATOM     80  C   UNL     1       6.014  -9.868  -9.409  1.00  0.00     0.020 A 
ATOM     81  C   UNL     1       5.094  -9.516  -7.203  1.00  0.00     0.020 A 
ATOM     82  C   UNL     1       4.909  -9.753  -8.562  1.00  0.00     0.054 A 
BRANCH  82  83
ATOM     83  S   UNL     1       3.239  -9.902  -9.260  1.00  0.00     0.124 S 
ATOM     84  O   UNL     1       3.220  -8.859 -10.282  1.00  0.00    -0.237 OA
ATOM     85  O   UNL     1       3.232 -11.273  -9.766  1.00  0.00    -0.237 OA
ATOM     86  O   UNL     1       2.356  -9.659  -8.120  1.00  0.00    -0.744 OA
ENDBRANCH  82  83
ENDBRANCH  56  77
ENDBRANCH  30  31
ENDBRANCH  23  25
ENDBRANCH  22  23
ENDBRANCH  21  22
ENDBRANCH   1  21
TORSDOF 18
