REMARK SMILES CC(C)COc1cccc(C(=O)Nc2ccc(O)c(C(=O)OCCOC(=O)c3ccc(-c4c5nc(c(-c6ccc(S(=O)(=O)[O-])cc6)c6ccc([nH]6)c(-c6ccc(S(=O)(=O)[O-])cc6)c6nc(c(-c7ccc(S(=O)(=O)[O-])cc7)c7ccc4[nH]7)C=C6)C=C5)cc3)c2)c1
REMARK SMILES IDX 23 1 22 2 20 3 21 4 19 5 14 6 15 7 88 8 16 9 17 10 13 11
REMARK SMILES IDX 11 12 12 13 10 15 6 16 7 17 89 18 8 19 9 20 5 21 4 22 2 23
REMARK SMILES IDX 1 24 3 25 18 26 24 28 25 29 26 30 27 31 28 32 29 33 87 34
REMARK SMILES IDX 30 35 86 36 31 37 32 38 33 39 80 40 34 41 85 42 79 43 81 44
REMARK SMILES IDX 35 45 84 46 78 47 77 48 36 50 66 51 47 52 65 53 48 54 51 55
REMARK SMILES IDX 64 56 82 57 49 58 50 59 63 61 83 62 52 63 37 64 38 65 46 66
REMARK SMILES IDX 39 67 45 68 40 69 41 70 42 71 43 72 44 73 67 74 68 75 76 76
REMARK SMILES IDX 69 77 75 78 70 79 71 80 72 81 73 82 74 83 53 84 54 85 62 86
REMARK SMILES IDX 55 87 61 88 56 89 57 90 58 91 59 92 60 93
REMARK H PARENT 13 14 18 27 81 49 51 60
REMARK Flexibility Score: inf
ROOT
ATOM      1  C   UNL     1      -0.169  -0.078   4.942  1.00  0.00     0.275 C 
ENDROOT
BRANCH   1   2
ATOM      2  O   UNL     1       0.990  -0.470   4.176  1.00  0.00    -0.458 OA
BRANCH   2   3
ATOM      3  C   UNL     1       1.317   0.384   3.180  1.00  0.00     0.342 C 
ATOM      4  O   UNL     1       0.748   1.427   2.906  1.00  0.00    -0.246 OA
BRANCH   3   5
ATOM      5  C   UNL     1       2.438  -0.082   2.343  1.00  0.00     0.103 A 
ATOM      6  C   UNL     1       3.175  -1.783   0.820  1.00  0.00     0.042 A 
ATOM      7  C   UNL     1       4.065  -0.883   0.221  1.00  0.00     0.030 A 
ATOM      8  C   UNL     1       2.486  -1.427   1.979  1.00  0.00     0.045 A 
ATOM      9  C   UNL     1       4.096   0.442   0.645  1.00  0.00     0.049 A 
ATOM     10  C   UNL     1       3.222   0.850   1.643  1.00  0.00     0.130 A 
BRANCH   6  11
ATOM     11  N   UNL     1       2.900  -2.967   0.123  1.00  0.00    -0.322 N 
ATOM     12  C   UNL     1       1.729  -3.690  -0.037  1.00  0.00     0.255 C 
ATOM     13  O   UNL     1       1.817  -4.811  -0.545  1.00  0.00    -0.269 OA
ATOM     14  H   UNL     1       3.680  -3.356  -0.336  1.00  0.00     0.170 HD
BRANCH  12  15
ATOM     15  C   UNL     1       0.353  -3.160   0.257  1.00  0.00     0.043 A 
ATOM     16  C   UNL     1      -1.240  -1.354   0.675  1.00  0.00     0.120 A 
ATOM     17  C   UNL     1      -2.267  -2.276   0.828  1.00  0.00     0.046 A 
ATOM     18  C   UNL     1       0.043  -1.801   0.357  1.00  0.00     0.060 A 
ATOM     19  C   UNL     1      -2.006  -3.635   0.637  1.00  0.00     0.005 A 
ATOM     20  C   UNL     1      -0.703  -4.074   0.366  1.00  0.00     0.014 A 
BRANCH  16  21
ATOM     21  O   UNL     1      -1.462  -0.059   1.052  1.00  0.00    -0.493 OA
BRANCH  21  22
ATOM     22  C   UNL     1      -1.443   0.938   0.012  1.00  0.00     0.232 C 
BRANCH  22  23
ATOM     23  C   UNL     1      -0.023   1.388  -0.380  1.00  0.00     0.020 C 
ATOM     24  C   UNL     1       0.436   0.746  -1.693  1.00  0.00     0.011 C 
ATOM     25  C   UNL     1       0.105   2.908  -0.500  1.00  0.00     0.011 C 
ENDBRANCH  22  23
ENDBRANCH  21  22
ENDBRANCH  16  21
ENDBRANCH  12  15
ENDBRANCH   6  11
BRANCH  10  26
ATOM     26  O   UNL     1       3.093   2.201   1.790  1.00  0.00    -0.507 OA
ATOM     27  H   UNL     1       3.642   2.780   1.298  1.00  0.00     0.293 HD
ENDBRANCH  10  26
ENDBRANCH   3   5
ENDBRANCH   2   3
ENDBRANCH   1   2
BRANCH   1  28
ATOM     28  C   UNL     1       0.202   0.812   6.130  1.00  0.00     0.275 C 
BRANCH  28  29
ATOM     29  O   UNL     1       0.538   2.147   5.702  1.00  0.00    -0.458 OA
BRANCH  29  30
ATOM     30  C   UNL     1       1.863   2.417   5.664  1.00  0.00     0.338 C 
ATOM     31  O   UNL     1       2.769   1.659   5.984  1.00  0.00    -0.246 OA
BRANCH  30  32
ATOM     32  C   UNL     1       2.131   3.767   5.135  1.00  0.00     0.060 A 
ATOM     33  C   UNL     1       1.698   4.124   3.862  1.00  0.00     0.016 A 
ATOM     34  C   UNL     1       3.021   4.593   5.816  1.00  0.00     0.016 A 
ATOM     35  C   UNL     1       2.320   5.173   3.188  1.00  0.00     0.010 A 
ATOM     36  C   UNL     1       3.491   5.759   5.202  1.00  0.00     0.010 A 
ATOM     37  C   UNL     1       3.201   6.034   3.853  1.00  0.00    -0.014 A 
BRANCH  37  38
ATOM     38  C   UNL     1       3.830   7.205   3.168  1.00  0.00     0.031 A 
ATOM     39  C   UNL     1       5.316   7.452   3.307  1.00  0.00     0.074 A 
ATOM     40  C   UNL     1       3.084   8.081   2.461  1.00  0.00     0.049 A 
ATOM     41  N   UNL     1       5.997   8.552   3.105  1.00  0.00    -0.248 NA
ATOM     42  C   UNL     1       6.139   6.320   3.767  1.00  0.00     0.031 C 
ATOM     43  C   UNL     1       1.654   7.952   2.166  1.00  0.00     0.029 A 
ATOM     44  N   UNL     1       3.427   9.274   1.869  1.00  0.00    -0.354 N 
ATOM     45  C   UNL     1       7.304   8.271   3.495  1.00  0.00     0.074 A 
ATOM     46  C   UNL     1       7.321   6.895   3.944  1.00  0.00     0.031 C 
ATOM     47  C   UNL     1       1.254   8.993   1.424  1.00  0.00     0.029 A 
ATOM     48  C   UNL     1       2.357   9.934   1.308  1.00  0.00     0.049 A 
ATOM     49  H   UNL     1       4.348   9.622   1.849  1.00  0.00     0.167 HD
ATOM     50  C   UNL     1       8.384   9.090   3.488  1.00  0.00     0.031 A 
ATOM     51  C   UNL     1       2.238  11.185   0.824  1.00  0.00     0.031 A 
ATOM     52  C   UNL     1       8.359  10.441   2.985  1.00  0.00     0.049 A 
ATOM     53  C   UNL     1       3.428  12.097   0.877  1.00  0.00     0.074 A 
ATOM     54  C   UNL     1       9.396  11.356   2.916  1.00  0.00     0.029 A 
ATOM     55  N   UNL     1       7.242  11.064   2.446  1.00  0.00    -0.354 N 
ATOM     56  N   UNL     1       4.635  11.849   1.325  1.00  0.00    -0.248 NA
ATOM     57  C   UNL     1       3.236  13.463   0.373  1.00  0.00     0.031 C 
ATOM     58  C   UNL     1       8.893  12.548   2.384  1.00  0.00     0.029 A 
ATOM     59  C   UNL     1       7.561  12.354   2.056  1.00  0.00     0.049 A 
ATOM     60  H   UNL     1       6.354  10.650   2.355  1.00  0.00     0.167 HD
ATOM     61  C   UNL     1       5.356  13.020   1.131  1.00  0.00     0.074 A 
ATOM     62  C   UNL     1       4.452  13.971   0.515  1.00  0.00     0.031 C 
ATOM     63  C   UNL     1       6.650  13.284   1.435  1.00  0.00     0.031 A 
BRANCH  50  64
ATOM     64  C   UNL     1       9.672   8.575   4.086  1.00  0.00    -0.014 A 
ATOM     65  C   UNL     1      10.425   7.558   3.472  1.00  0.00     0.010 A 
ATOM     66  C   UNL     1      10.160   9.156   5.273  1.00  0.00     0.010 A 
ATOM     67  C   UNL     1      11.612   7.101   4.058  1.00  0.00     0.020 A 
ATOM     68  C   UNL     1      11.362   8.726   5.844  1.00  0.00     0.020 A 
ATOM     69  C   UNL     1      12.071   7.685   5.242  1.00  0.00     0.054 A 
BRANCH  69  70
ATOM     70  S   UNL     1      13.619   7.082   5.972  1.00  0.00     0.124 S 
ATOM     71  O   UNL     1      13.223   5.770   6.478  1.00  0.00    -0.237 OA
ATOM     72  O   UNL     1      14.527   7.064   4.828  1.00  0.00    -0.237 OA
ATOM     73  O   UNL     1      13.932   8.075   6.997  1.00  0.00    -0.744 OA
ENDBRANCH  69  70
ENDBRANCH  50  64
BRANCH  51  74
ATOM     74  C   UNL     1       0.921  11.659   0.312  1.00  0.00    -0.014 A 
ATOM     75  C   UNL     1       0.741  11.923  -1.056  1.00  0.00     0.010 A 
ATOM     76  C   UNL     1      -0.173  11.811   1.186  1.00  0.00     0.010 A 
ATOM     77  C   UNL     1      -0.504  12.337  -1.539  1.00  0.00     0.020 A 
ATOM     78  C   UNL     1      -1.428  12.187   0.702  1.00  0.00     0.020 A 
ATOM     79  C   UNL     1      -1.583  12.459  -0.658  1.00  0.00     0.054 A 
BRANCH  79  80
ATOM     80  S   UNL     1      -3.203  12.933  -1.321  1.00  0.00     0.124 S 
ATOM     81  O   UNL     1      -3.002  14.344  -1.633  1.00  0.00    -0.237 OA
ATOM     82  O   UNL     1      -3.345  12.043  -2.471  1.00  0.00    -0.237 OA
ATOM     83  O   UNL     1      -4.119  12.659  -0.215  1.00  0.00    -0.744 OA
ENDBRANCH  79  80
ENDBRANCH  51  74
BRANCH  63  84
ATOM     84  C   UNL     1       7.187  14.634   1.044  1.00  0.00    -0.014 A 
ATOM     85  C   UNL     1       6.809  15.802   1.729  1.00  0.00     0.010 A 
ATOM     86  C   UNL     1       8.126  14.721   0.000  1.00  0.00     0.010 A 
ATOM     87  C   UNL     1       7.341  17.039   1.356  1.00  0.00     0.020 A 
ATOM     88  C   UNL     1       8.683  15.951  -0.355  1.00  0.00     0.020 A 
ATOM     89  C   UNL     1       8.276  17.105   0.318  1.00  0.00     0.054 A 
BRANCH  89  90
ATOM     90  S   UNL     1       8.989  18.715  -0.112  1.00  0.00     0.124 S 
ATOM     91  O   UNL     1       7.868  19.378  -0.772  1.00  0.00    -0.237 OA
ATOM     92  O   UNL     1       9.362  19.258   1.192  1.00  0.00    -0.237 OA
ATOM     93  O   UNL     1      10.112  18.376  -0.984  1.00  0.00    -0.744 OA
ENDBRANCH  89  90
ENDBRANCH  63  84
ENDBRANCH  37  38
ENDBRANCH  30  32
ENDBRANCH  29  30
ENDBRANCH  28  29
ENDBRANCH   1  28
TORSDOF 20
