REMARK SMILES O=C(Cc1ccccc1C(=O)OCCOC(=O)c1ccc(-c2c3nc(c(-c4ccc(S(=O)(=O)[O-])cc4)c4ccc([nH]4)c(-c4ccc(S(=O)(=O)[O-])cc4)c4nc(c(-c5ccc(S(=O)(=O)[O-])cc5)c5ccc2[nH]5)C=C4)C=C3)cc1)Nc1ccc(S(=O)(=O)N2CCCC2)cc1
REMARK SMILES IDX 13 1 12 2 10 3 11 4 9 5 4 6 5 7 6 8 8 9 7 10 3 11 2 12 1 13
REMARK SMILES IDX 78 14 79 16 80 17 92 18 81 19 91 20 82 21 83 22 84 23 85 24
REMARK SMILES IDX 86 25 87 26 90 27 88 28 89 29 14 30 15 31 16 32 17 33 18 34
REMARK SMILES IDX 19 35 77 36 20 37 76 38 21 39 22 40 23 41 70 42 24 43 75 44
REMARK SMILES IDX 69 45 71 46 25 47 74 48 68 49 67 50 26 52 56 53 37 54 55 55
REMARK SMILES IDX 38 56 41 57 54 58 72 59 39 60 40 61 53 63 73 64 42 65 27 66
REMARK SMILES IDX 28 67 36 68 29 69 35 70 30 71 31 72 32 73 33 74 34 75 57 76
REMARK SMILES IDX 58 77 66 78 59 79 65 80 60 81 61 82 62 83 63 84 64 85 43 86
REMARK SMILES IDX 44 87 52 88 45 89 51 90 46 91 47 92 48 93 49 94 50 95
REMARK H PARENT 78 15 71 51 41 62
REMARK Flexibility Score: inf
ROOT
ATOM      1  C   UNL     1       3.533   4.907  -0.282  1.00  0.00     0.275 C 
ENDROOT
BRANCH   1   2
ATOM      2  O   UNL     1       3.674   3.700   0.493  1.00  0.00    -0.458 OA
BRANCH   2   3
ATOM      3  C   UNL     1       4.926   3.255   0.754  1.00  0.00     0.338 C 
ATOM      4  O   UNL     1       5.972   3.803   0.458  1.00  0.00    -0.246 OA
BRANCH   3   5
ATOM      5  C   UNL     1       4.845   2.014   1.576  1.00  0.00     0.063 A 
ATOM      6  C   UNL     1       3.987   0.938   1.261  1.00  0.00    -0.024 A 
ATOM      7  C   UNL     1       3.898  -0.121   2.186  1.00  0.00     0.005 A 
ATOM      8  C   UNL     1       4.685  -0.147   3.340  1.00  0.00     0.000 A 
ATOM      9  C   UNL     1       5.669   1.955   2.711  1.00  0.00     0.016 A 
ATOM     10  C   UNL     1       5.584   0.881   3.594  1.00  0.00     0.001 A 
BRANCH   6  11
ATOM     11  C   UNL     1       3.278   0.908  -0.079  1.00  0.00     0.136 C 
BRANCH  11  12
ATOM     12  C   UNL     1       2.285  -0.202  -0.308  1.00  0.00     0.228 C 
ATOM     13  O   UNL     1       1.087   0.063  -0.365  1.00  0.00    -0.274 OA
ATOM     14  N   UNL     1       2.860  -1.459  -0.444  1.00  0.00    -0.326 N 
ATOM     15  H   UNL     1       3.843  -1.509  -0.458  1.00  0.00     0.169 HD
BRANCH  14  16
ATOM     16  C   UNL     1       2.148  -2.667  -0.564  1.00  0.00     0.041 A 
ATOM     17  C   UNL     1       2.834  -3.880  -0.420  1.00  0.00     0.027 A 
ATOM     18  C   UNL     1       0.774  -2.695  -0.781  1.00  0.00     0.027 A 
ATOM     19  C   UNL     1       2.143  -5.099  -0.493  1.00  0.00     0.024 A 
ATOM     20  C   UNL     1       0.080  -3.896  -0.806  1.00  0.00     0.024 A 
ATOM     21  C   UNL     1       0.758  -5.101  -0.695  1.00  0.00     0.082 A 
BRANCH  21  22
ATOM     22  S   UNL     1      -0.126  -6.638  -0.863  1.00  0.00     0.243 S 
ATOM     23  O   UNL     1       0.841  -7.619  -1.336  1.00  0.00    -0.207 OA
ATOM     24  O   UNL     1      -0.867  -6.841   0.355  1.00  0.00    -0.207 OA
BRANCH  22  25
ATOM     25  N   UNL     1      -1.221  -6.399  -2.128  1.00  0.00    -0.198 NA
ATOM     26  C   UNL     1      -0.727  -6.116  -3.483  1.00  0.00     0.102 C 
ATOM     27  C   UNL     1      -2.489  -5.681  -1.901  1.00  0.00     0.102 C 
ATOM     28  C   UNL     1      -1.306  -4.754  -3.823  1.00  0.00     0.018 C 
ATOM     29  C   UNL     1      -2.614  -4.681  -3.050  1.00  0.00     0.018 C 
ENDBRANCH  22  25
ENDBRANCH  21  22
ENDBRANCH  14  16
ENDBRANCH  11  12
ENDBRANCH   6  11
ENDBRANCH   3   5
ENDBRANCH   2   3
ENDBRANCH   1   2
BRANCH   1  30
ATOM     30  C   UNL     1       2.538   5.837   0.407  1.00  0.00     0.275 C 
BRANCH  30  31
ATOM     31  O   UNL     1       3.098   6.245   1.666  1.00  0.00    -0.458 OA
BRANCH  31  32
ATOM     32  C   UNL     1       2.503   5.724   2.764  1.00  0.00     0.338 C 
ATOM     33  O   UNL     1       1.460   5.100   2.828  1.00  0.00    -0.246 OA
BRANCH  32  34
ATOM     34  C   UNL     1       3.393   5.935   3.912  1.00  0.00     0.060 A 
ATOM     35  C   UNL     1       4.504   5.105   4.037  1.00  0.00     0.016 A 
ATOM     36  C   UNL     1       3.080   6.854   4.908  1.00  0.00     0.016 A 
ATOM     37  C   UNL     1       5.274   5.135   5.196  1.00  0.00     0.010 A 
ATOM     38  C   UNL     1       3.902   6.938   6.038  1.00  0.00     0.010 A 
ATOM     39  C   UNL     1       4.987   6.056   6.212  1.00  0.00    -0.014 A 
BRANCH  39  40
ATOM     40  C   UNL     1       5.772   6.047   7.480  1.00  0.00     0.031 A 
ATOM     41  C   UNL     1       5.072   5.802   8.794  1.00  0.00     0.074 A 
ATOM     42  C   UNL     1       7.108   6.233   7.468  1.00  0.00     0.049 A 
ATOM     43  N   UNL     1       5.532   5.929  10.012  1.00  0.00    -0.248 NA
ATOM     44  C   UNL     1       3.665   5.373   8.727  1.00  0.00     0.031 C 
ATOM     45  C   UNL     1       7.930   6.423   6.271  1.00  0.00     0.029 A 
ATOM     46  N   UNL     1       8.014   6.281   8.500  1.00  0.00    -0.354 N 
ATOM     47  C   UNL     1       4.456   5.664  10.854  1.00  0.00     0.074 A 
ATOM     48  C   UNL     1       3.321   5.367  10.007  1.00  0.00     0.031 C 
ATOM     49  C   UNL     1       9.219   6.524   6.632  1.00  0.00     0.029 A 
ATOM     50  C   UNL     1       9.308   6.497   8.088  1.00  0.00     0.049 A 
ATOM     51  H   UNL     1       7.760   6.171   9.445  1.00  0.00     0.167 HD
ATOM     52  C   UNL     1       4.415   5.674  12.208  1.00  0.00     0.031 A 
ATOM     53  C   UNL     1      10.438   6.695   8.797  1.00  0.00     0.031 A 
ATOM     54  C   UNL     1       5.558   5.920  13.049  1.00  0.00     0.049 A 
ATOM     55  C   UNL     1      10.367   6.721  10.298  1.00  0.00     0.074 A 
ATOM     56  C   UNL     1       5.620   5.944  14.432  1.00  0.00     0.029 A 
ATOM     57  N   UNL     1       6.843   6.161  12.588  1.00  0.00    -0.354 N 
ATOM     58  N   UNL     1       9.327   6.539  11.076  1.00  0.00    -0.248 NA
ATOM     59  C   UNL     1      11.619   6.996  11.016  1.00  0.00     0.031 C 
ATOM     60  C   UNL     1       6.937   6.236  14.806  1.00  0.00     0.029 A 
ATOM     61  C   UNL     1       7.703   6.345  13.657  1.00  0.00     0.049 A 
ATOM     62  H   UNL     1       7.104   6.198  11.639  1.00  0.00     0.167 HD
ATOM     63  C   UNL     1       9.801   6.672  12.376  1.00  0.00     0.074 A 
ATOM     64  C   UNL     1      11.224   6.925  12.280  1.00  0.00     0.031 C 
ATOM     65  C   UNL     1       9.117   6.598  13.544  1.00  0.00     0.031 A 
BRANCH  52  66
ATOM     66  C   UNL     1       3.078   5.461  12.867  1.00  0.00    -0.014 A 
ATOM     67  C   UNL     1       2.461   4.198  12.897  1.00  0.00     0.010 A 
ATOM     68  C   UNL     1       2.440   6.548  13.494  1.00  0.00     0.010 A 
ATOM     69  C   UNL     1       1.212   4.036  13.505  1.00  0.00     0.020 A 
ATOM     70  C   UNL     1       1.205   6.385  14.126  1.00  0.00     0.020 A 
ATOM     71  C   UNL     1       0.589   5.133  14.110  1.00  0.00     0.054 A 
BRANCH  71  72
ATOM     72  S   UNL     1      -1.025   4.895  14.904  1.00  0.00     0.124 S 
ATOM     73  O   UNL     1      -1.918   4.814  13.751  1.00  0.00    -0.237 OA
ATOM     74  O   UNL     1      -0.841   3.649  15.644  1.00  0.00    -0.237 OA
ATOM     75  O   UNL     1      -1.184   6.089  15.731  1.00  0.00    -0.744 OA
ENDBRANCH  71  72
ENDBRANCH  52  66
BRANCH  53  76
ATOM     76  C   UNL     1      11.724   6.937   8.087  1.00  0.00    -0.014 A 
ATOM     77  C   UNL     1      12.747   5.973   8.108  1.00  0.00     0.010 A 
ATOM     78  C   UNL     1      11.921   8.128   7.363  1.00  0.00     0.010 A 
ATOM     79  C   UNL     1      13.943   6.197   7.419  1.00  0.00     0.020 A 
ATOM     80  C   UNL     1      13.103   8.341   6.649  1.00  0.00     0.020 A 
ATOM     81  C   UNL     1      14.111   7.377   6.689  1.00  0.00     0.054 A 
BRANCH  81  82
ATOM     82  S   UNL     1      15.638   7.615   5.738  1.00  0.00     0.124 S 
ATOM     83  O   UNL     1      16.589   7.987   6.780  1.00  0.00    -0.237 OA
ATOM     84  O   UNL     1      15.844   6.302   5.132  1.00  0.00    -0.237 OA
ATOM     85  O   UNL     1      15.290   8.678   4.797  1.00  0.00    -0.744 OA
ENDBRANCH  81  82
ENDBRANCH  53  76
BRANCH  65  86
ATOM     86  C   UNL     1       9.905   6.765  14.814  1.00  0.00    -0.014 A 
ATOM     87  C   UNL     1      10.367   8.029  15.222  1.00  0.00     0.010 A 
ATOM     88  C   UNL     1      10.153   5.646  15.629  1.00  0.00     0.010 A 
ATOM     89  C   UNL     1      11.092   8.165  16.408  1.00  0.00     0.020 A 
ATOM     90  C   UNL     1      10.857   5.782  16.827  1.00  0.00     0.020 A 
ATOM     91  C   UNL     1      11.336   7.039  17.201  1.00  0.00     0.054 A 
BRANCH  91  92
ATOM     92  S   UNL     1      12.252   7.244  18.754  1.00  0.00     0.124 S 
ATOM     93  O   UNL     1      13.625   7.389  18.279  1.00  0.00    -0.237 OA
ATOM     94  O   UNL     1      11.653   8.448  19.326  1.00  0.00    -0.237 OA
ATOM     95  O   UNL     1      11.972   6.010  19.485  1.00  0.00    -0.744 OA
ENDBRANCH  91  92
ENDBRANCH  65  86
ENDBRANCH  39  40
ENDBRANCH  32  34
ENDBRANCH  31  32
ENDBRANCH  30  31
ENDBRANCH   1  30
TORSDOF 19
