REMARK SMILES CC(=O)Oc1ccccc1C(=O)OCCOC(=O)c1ccc(-c2c3nc(c(-c4ccc(S(=O)(=O)[O-])cc4)c4ccc([nH]4)c(-c4ccc(S(=O)(=O)[O-])cc4)c4nc(c(-c5ccc(S(=O)(=O)[O-])cc5)c5ccc2[nH]5)C=C4)C=C3)cc1
REMARK SMILES IDX 15 1 14 2 13 3 11 4 12 5 10 6 5 7 6 8 7 9 9 10 8 11 4 12
REMARK SMILES IDX 2 13 1 14 3 15 16 16 17 17 18 18 19 19 20 20 78 21 21 22
REMARK SMILES IDX 77 23 22 24 23 25 24 26 71 27 25 28 76 29 70 30 72 31 26 32
REMARK SMILES IDX 75 33 69 34 68 35 27 37 57 38 38 39 56 40 39 41 42 42 55 43
REMARK SMILES IDX 73 44 40 45 41 46 54 48 74 49 43 50 28 51 29 52 37 53 30 54
REMARK SMILES IDX 36 55 31 56 32 57 33 58 34 59 35 60 58 61 59 62 67 63 60 64
REMARK SMILES IDX 66 65 61 66 62 67 63 68 64 69 65 70 44 71 45 72 53 73 46 74
REMARK SMILES IDX 52 75 47 76 48 77 49 78 50 79 51 80
REMARK H PARENT 72 36 42 47
REMARK Flexibility Score: inf
ROOT
ATOM      1  C   UNL     1      -3.180   0.306  -0.813  1.00  0.00     0.275 C 
ENDROOT
BRANCH   1   2
ATOM      2  C   UNL     1      -1.982  -0.339  -0.118  1.00  0.00     0.275 C 
BRANCH   2   3
ATOM      3  O   UNL     1      -1.167  -1.090  -1.042  1.00  0.00    -0.458 OA
BRANCH   3   4
ATOM      4  C   UNL     1      -1.223  -2.445  -0.933  1.00  0.00     0.342 C 
ATOM      5  O   UNL     1      -1.954  -3.070  -0.192  1.00  0.00    -0.246 OA
BRANCH   4   6
ATOM      6  C   UNL     1      -0.307  -3.101  -1.904  1.00  0.00     0.102 A 
ATOM      7  C   UNL     1       0.968  -2.617  -2.220  1.00  0.00     0.145 A 
ATOM      8  C   UNL     1       1.775  -3.283  -3.150  1.00  0.00     0.048 A 
ATOM      9  C   UNL     1       1.314  -4.448  -3.767  1.00  0.00     0.004 A 
ATOM     10  C   UNL     1      -0.737  -4.296  -2.503  1.00  0.00     0.019 A 
ATOM     11  C   UNL     1       0.056  -4.952  -3.447  1.00  0.00     0.001 A 
BRANCH   7  12
ATOM     12  O   UNL     1       1.477  -1.416  -1.707  1.00  0.00    -0.426 OA
BRANCH  12  13
ATOM     13  C   UNL     1       1.640  -1.384  -0.327  1.00  0.00     0.308 C 
ATOM     14  C   UNL     1       1.852   0.035   0.106  1.00  0.00     0.139 C 
ATOM     15  O   UNL     1       1.624  -2.342   0.432  1.00  0.00    -0.252 OA
ENDBRANCH  12  13
ENDBRANCH   7  12
ENDBRANCH   4   6
ENDBRANCH   3   4
ENDBRANCH   2   3
ENDBRANCH   1   2
BRANCH   1  16
ATOM     16  O   UNL     1      -4.141  -0.690  -1.194  1.00  0.00    -0.458 OA
BRANCH  16  17
ATOM     17  C   UNL     1      -4.058  -1.090  -2.482  1.00  0.00     0.338 C 
ATOM     18  O   UNL     1      -3.320  -0.656  -3.351  1.00  0.00    -0.246 OA
BRANCH  17  19
ATOM     19  C   UNL     1      -4.938  -2.244  -2.691  1.00  0.00     0.060 A 
ATOM     20  C   UNL     1      -4.402  -3.510  -2.480  1.00  0.00     0.016 A 
ATOM     21  C   UNL     1      -6.210  -2.096  -3.235  1.00  0.00     0.016 A 
ATOM     22  C   UNL     1      -5.084  -4.643  -2.902  1.00  0.00     0.010 A 
ATOM     23  C   UNL     1      -6.935  -3.242  -3.579  1.00  0.00     0.010 A 
ATOM     24  C   UNL     1      -6.363  -4.524  -3.454  1.00  0.00    -0.014 A 
BRANCH  24  25
ATOM     25  C   UNL     1      -7.076  -5.726  -3.964  1.00  0.00     0.031 A 
ATOM     26  C   UNL     1      -7.485  -5.785  -5.412  1.00  0.00     0.074 A 
ATOM     27  C   UNL     1      -7.351  -6.761  -3.145  1.00  0.00     0.049 A 
ATOM     28  N   UNL     1      -8.308  -6.609  -6.007  1.00  0.00    -0.248 NA
ATOM     29  C   UNL     1      -6.904  -4.768  -6.306  1.00  0.00     0.031 C 
ATOM     30  C   UNL     1      -6.946  -6.869  -1.741  1.00  0.00     0.029 A 
ATOM     31  N   UNL     1      -8.043  -7.925  -3.377  1.00  0.00    -0.354 N 
ATOM     32  C   UNL     1      -8.393  -6.173  -7.325  1.00  0.00     0.074 A 
ATOM     33  C   UNL     1      -7.542  -5.010  -7.443  1.00  0.00     0.031 C 
ATOM     34  C   UNL     1      -7.380  -8.037  -1.244  1.00  0.00     0.029 A 
ATOM     35  C   UNL     1      -8.176  -8.715  -2.259  1.00  0.00     0.049 A 
ATOM     36  H   UNL     1      -8.409  -8.168  -4.258  1.00  0.00     0.167 HD
ATOM     37  C   UNL     1      -9.123  -6.694  -8.340  1.00  0.00     0.031 A 
ATOM     38  C   UNL     1      -8.905  -9.829  -2.052  1.00  0.00     0.031 A 
ATOM     39  C   UNL     1      -9.937  -7.875  -8.214  1.00  0.00     0.049 A 
ATOM     40  C   UNL     1      -9.743 -10.366  -3.178  1.00  0.00     0.074 A 
ATOM     41  C   UNL     1     -10.723  -8.487  -9.174  1.00  0.00     0.029 A 
ATOM     42  N   UNL     1     -10.050  -8.635  -7.059  1.00  0.00    -0.354 N 
ATOM     43  N   UNL     1      -9.875  -9.902  -4.398  1.00  0.00    -0.248 NA
ATOM     44  C   UNL     1     -10.540 -11.568  -2.898  1.00  0.00     0.031 C 
ATOM     45  C   UNL     1     -11.343  -9.595  -8.588  1.00  0.00     0.029 A 
ATOM     46  C   UNL     1     -10.898  -9.707  -7.280  1.00  0.00     0.049 A 
ATOM     47  H   UNL     1      -9.595  -8.441  -6.208  1.00  0.00     0.167 HD
ATOM     48  C   UNL     1     -10.753 -10.768  -5.039  1.00  0.00     0.074 A 
ATOM     49  C   UNL     1     -11.108 -11.791  -4.076  1.00  0.00     0.031 C 
ATOM     50  C   UNL     1     -11.225 -10.720  -6.309  1.00  0.00     0.031 A 
BRANCH  37  51
ATOM     51  C   UNL     1      -9.111  -5.967  -9.660  1.00  0.00    -0.014 A 
ATOM     52  C   UNL     1      -7.977  -5.966 -10.491  1.00  0.00     0.010 A 
ATOM     53  C   UNL     1     -10.272  -5.298 -10.090  1.00  0.00     0.010 A 
ATOM     54  C   UNL     1      -7.992  -5.278 -11.709  1.00  0.00     0.020 A 
ATOM     55  C   UNL     1     -10.301  -4.632 -11.319  1.00  0.00     0.020 A 
ATOM     56  C   UNL     1      -9.153  -4.612 -12.113  1.00  0.00     0.054 A 
BRANCH  56  57
ATOM     57  S   UNL     1      -9.152  -3.743 -13.706  1.00  0.00     0.124 S 
ATOM     58  O   UNL     1      -8.327  -2.574 -13.410  1.00  0.00    -0.237 OA
ATOM     59  O   UNL     1      -8.550  -4.723 -14.606  1.00  0.00    -0.237 OA
ATOM     60  O   UNL     1     -10.564  -3.461 -13.950  1.00  0.00    -0.744 OA
ENDBRANCH  56  57
ENDBRANCH  37  51
BRANCH  38  61
ATOM     61  C   UNL     1      -8.921 -10.465  -0.705  1.00  0.00    -0.014 A 
ATOM     62  C   UNL     1      -8.335 -11.725  -0.495  1.00  0.00     0.010 A 
ATOM     63  C   UNL     1      -9.511  -9.797   0.385  1.00  0.00     0.010 A 
ATOM     64  C   UNL     1      -8.349 -12.309   0.775  1.00  0.00     0.020 A 
ATOM     65  C   UNL     1      -9.499 -10.363   1.662  1.00  0.00     0.020 A 
ATOM     66  C   UNL     1      -8.929 -11.623   1.847  1.00  0.00     0.054 A 
BRANCH  66  67
ATOM     67  S   UNL     1      -8.891 -12.376   3.497  1.00  0.00     0.124 S 
ATOM     68  O   UNL     1      -9.913 -13.411   3.381  1.00  0.00    -0.237 OA
ATOM     69  O   UNL     1      -7.514 -12.854   3.596  1.00  0.00    -0.237 OA
ATOM     70  O   UNL     1      -9.222 -11.265   4.387  1.00  0.00    -0.744 OA
ENDBRANCH  66  67
ENDBRANCH  38  61
BRANCH  50  71
ATOM     71  C   UNL     1     -12.133 -11.835  -6.749  1.00  0.00    -0.014 A 
ATOM     72  C   UNL     1     -13.466 -11.909  -6.313  1.00  0.00     0.010 A 
ATOM     73  C   UNL     1     -11.654 -12.788  -7.667  1.00  0.00     0.010 A 
ATOM     74  C   UNL     1     -14.300 -12.933  -6.769  1.00  0.00     0.020 A 
ATOM     75  C   UNL     1     -12.492 -13.797  -8.145  1.00  0.00     0.020 A 
ATOM     76  C   UNL     1     -13.807 -13.869  -7.684  1.00  0.00     0.054 A 
BRANCH  76  77
ATOM     77  S   UNL     1     -14.925 -15.155  -8.306  1.00  0.00     0.124 S 
ATOM     78  O   UNL     1     -15.028 -16.050  -7.156  1.00  0.00    -0.237 OA
ATOM     79  O   UNL     1     -16.135 -14.402  -8.626  1.00  0.00    -0.237 OA
ATOM     80  O   UNL     1     -14.216 -15.703  -9.460  1.00  0.00    -0.744 OA
ENDBRANCH  76  77
ENDBRANCH  50  71
ENDBRANCH  24  25
ENDBRANCH  17  19
ENDBRANCH  16  17
ENDBRANCH   1  16
TORSDOF 16
