REMARK SMILES O=C(OCCOC(=O)c1cc(Cl)c2c(c1)[C@H]1C=CC[C@H]1[C@H](c1ccc(S(=O)(=O)N3CCOCC3)cc1)N2)c1ccc(-c2c3nc(c(-c4ccc(S(=O)(=O)[O-])cc4)c4ccc([nH]4)c(-c4ccc(S(=O)(=O)[O-])cc4)c4nc(c(-c5ccc(S(=O)(=O)[O-])cc5)c5ccc2[nH]5)C=C4)C=C3)cc1
REMARK SMILES IDX 4 1 3 2 2 3 1 4 38 5 39 6 97 7 40 8 96 9 41 10 42 11 43 12
REMARK SMILES IDX 90 13 44 14 95 15 89 16 91 17 45 18 94 19 88 20 87 21 46 23
REMARK SMILES IDX 76 24 57 25 75 26 58 27 61 28 74 29 92 30 59 31 60 32 73 34
REMARK SMILES IDX 93 35 62 36 47 37 48 38 56 39 49 40 55 41 50 42 51 43 52 44
REMARK SMILES IDX 53 45 54 46 77 47 78 48 86 49 79 50 85 51 80 52 81 53 82 54
REMARK SMILES IDX 83 55 84 56 63 57 64 58 72 59 65 60 71 61 66 62 67 63 68 64
REMARK SMILES IDX 69 65 70 66 5 67 6 68 7 69 8 70 9 71 10 72 15 73 11 74 14 75
REMARK SMILES IDX 12 76 13 77 16 78 37 79 17 80 20 81 21 82 18 84 19 85 22 86
REMARK SMILES IDX 23 87 36 88 24 89 35 90 25 91 26 92 27 93 28 94 29 95 30 96
REMARK SMILES IDX 34 97 31 98 33 99 32 100
REMARK H PARENT 91 22 61 33 37 83
REMARK Flexibility Score: inf
ROOT
ATOM      1  C   UNL     1       4.343   0.146   1.468  1.00  0.00     0.275 C 
ENDROOT
BRANCH   1   2
ATOM      2  O   UNL     1       3.251   0.762   0.771  1.00  0.00    -0.458 OA
BRANCH   2   3
ATOM      3  C   UNL     1       3.061   0.899  -0.561  1.00  0.00     0.338 C 
ATOM      4  O   UNL     1       2.194   1.685  -0.944  1.00  0.00    -0.246 OA
BRANCH   3   5
ATOM      5  C   UNL     1       3.732   0.040  -1.597  1.00  0.00     0.060 A 
ATOM      6  C   UNL     1       4.897  -0.716  -1.449  1.00  0.00     0.016 A 
ATOM      7  C   UNL     1       3.074  -0.033  -2.837  1.00  0.00     0.016 A 
ATOM      8  C   UNL     1       5.343  -1.575  -2.456  1.00  0.00     0.010 A 
ATOM      9  C   UNL     1       3.501  -0.897  -3.848  1.00  0.00     0.010 A 
ATOM     10  C   UNL     1       4.651  -1.666  -3.660  1.00  0.00    -0.014 A 
BRANCH  10  11
ATOM     11  C   UNL     1       5.284  -2.341  -4.806  1.00  0.00     0.031 A 
ATOM     12  C   UNL     1       6.068  -1.483  -5.747  1.00  0.00     0.074 A 
ATOM     13  C   UNL     1       5.243  -3.674  -4.963  1.00  0.00     0.049 A 
ATOM     14  N   UNL     1       6.740  -1.836  -6.805  1.00  0.00    -0.248 NA
ATOM     15  C   UNL     1       6.151  -0.046  -5.421  1.00  0.00     0.031 C 
ATOM     16  C   UNL     1       4.658  -4.610  -4.011  1.00  0.00     0.029 A 
ATOM     17  N   UNL     1       5.705  -4.476  -5.974  1.00  0.00    -0.354 N 
ATOM     18  C   UNL     1       7.368  -0.680  -7.238  1.00  0.00     0.074 A 
ATOM     19  C   UNL     1       6.950   0.400  -6.376  1.00  0.00     0.031 C 
ATOM     20  C   UNL     1       4.732  -5.855  -4.512  1.00  0.00     0.029 A 
ATOM     21  C   UNL     1       5.371  -5.801  -5.818  1.00  0.00     0.049 A 
ATOM     22  H   UNL     1       6.225  -4.137  -6.737  1.00  0.00     0.167 HD
ATOM     23  C   UNL     1       8.249  -0.544  -8.249  1.00  0.00     0.031 A 
ATOM     24  C   UNL     1       5.557  -6.853  -6.637  1.00  0.00     0.031 A 
ATOM     25  C   UNL     1       8.621  -1.616  -9.123  1.00  0.00     0.049 A 
ATOM     26  C   UNL     1       6.362  -6.638  -7.884  1.00  0.00     0.074 A 
ATOM     27  C   UNL     1       9.463  -1.577 -10.216  1.00  0.00     0.029 A 
ATOM     28  N   UNL     1       8.159  -2.920  -9.008  1.00  0.00    -0.354 N 
ATOM     29  N   UNL     1       6.925  -5.530  -8.306  1.00  0.00    -0.248 NA
ATOM     30  C   UNL     1       6.603  -7.806  -8.739  1.00  0.00     0.031 C 
ATOM     31  C   UNL     1       9.467  -2.848 -10.798  1.00  0.00     0.029 A 
ATOM     32  C   UNL     1       8.678  -3.691 -10.029  1.00  0.00     0.049 A 
ATOM     33  H   UNL     1       7.553  -3.245  -8.303  1.00  0.00     0.167 HD
ATOM     34  C   UNL     1       7.635  -5.877  -9.446  1.00  0.00     0.074 A 
ATOM     35  C   UNL     1       7.410  -7.294  -9.661  1.00  0.00     0.031 C 
ATOM     36  C   UNL     1       8.426  -5.098 -10.223  1.00  0.00     0.031 A 
BRANCH  23  37
ATOM     37  C   UNL     1       8.835   0.818  -8.461  1.00  0.00    -0.014 A 
ATOM     38  C   UNL     1       9.823   1.317  -7.594  1.00  0.00     0.010 A 
ATOM     39  C   UNL     1       8.398   1.601  -9.541  1.00  0.00     0.010 A 
ATOM     40  C   UNL     1      10.362   2.587  -7.802  1.00  0.00     0.020 A 
ATOM     41  C   UNL     1       8.948   2.864  -9.763  1.00  0.00     0.020 A 
ATOM     42  C   UNL     1       9.927   3.349  -8.892  1.00  0.00     0.054 A 
BRANCH  42  43
ATOM     43  S   UNL     1      10.671   4.979  -9.155  1.00  0.00     0.124 S 
ATOM     44  O   UNL     1      10.345   5.670  -7.909  1.00  0.00    -0.237 OA
ATOM     45  O   UNL     1      12.082   4.651  -9.342  1.00  0.00    -0.237 OA
ATOM     46  O   UNL     1       9.985   5.488 -10.341  1.00  0.00    -0.744 OA
ENDBRANCH  42  43
ENDBRANCH  23  37
BRANCH  24  47
ATOM     47  C   UNL     1       4.996  -8.183  -6.277  1.00  0.00    -0.014 A 
ATOM     48  C   UNL     1       5.821  -9.203  -5.776  1.00  0.00     0.010 A 
ATOM     49  C   UNL     1       3.610  -8.415  -6.381  1.00  0.00     0.010 A 
ATOM     50  C   UNL     1       5.272 -10.428  -5.380  1.00  0.00     0.020 A 
ATOM     51  C   UNL     1       3.056  -9.634  -5.975  1.00  0.00     0.020 A 
ATOM     52  C   UNL     1       3.891 -10.632  -5.471  1.00  0.00     0.054 A 
BRANCH  52  53
ATOM     53  S   UNL     1       3.207 -12.214  -4.899  1.00  0.00     0.124 S 
ATOM     54  O   UNL     1       3.932 -13.180  -5.719  1.00  0.00    -0.237 OA
ATOM     55  O   UNL     1       3.555 -12.202  -3.481  1.00  0.00    -0.237 OA
ATOM     56  O   UNL     1       1.780 -12.097  -5.188  1.00  0.00    -0.744 OA
ENDBRANCH  52  53
ENDBRANCH  24  47
BRANCH  36  57
ATOM     57  C   UNL     1       9.142  -5.758 -11.363  1.00  0.00    -0.014 A 
ATOM     58  C   UNL     1       8.461  -6.111 -12.540  1.00  0.00     0.010 A 
ATOM     59  C   UNL     1      10.537  -5.924 -11.290  1.00  0.00     0.010 A 
ATOM     60  C   UNL     1       9.168  -6.632 -13.624  1.00  0.00     0.020 A 
ATOM     61  C   UNL     1      11.249  -6.419 -12.382  1.00  0.00     0.020 A 
ATOM     62  C   UNL     1      10.557  -6.773 -13.541  1.00  0.00     0.054 A 
BRANCH  62  63
ATOM     63  S   UNL     1      11.448  -7.408 -14.985  1.00  0.00     0.124 S 
ATOM     64  O   UNL     1      10.860  -8.734 -15.150  1.00  0.00    -0.237 OA
ATOM     65  O   UNL     1      11.103  -6.434 -16.017  1.00  0.00    -0.237 OA
ATOM     66  O   UNL     1      12.847  -7.398 -14.565  1.00  0.00    -0.744 OA
ENDBRANCH  62  63
ENDBRANCH  36  57
ENDBRANCH  10  11
ENDBRANCH   3   5
ENDBRANCH   2   3
ENDBRANCH   1   2
BRANCH   1  67
ATOM     67  C   UNL     1       4.133  -1.342   1.782  1.00  0.00     0.275 C 
BRANCH  67  68
ATOM     68  O   UNL     1       3.571  -2.102   0.699  1.00  0.00    -0.458 OA
BRANCH  68  69
ATOM     69  C   UNL     1       2.214  -2.149   0.656  1.00  0.00     0.338 C 
ATOM     70  O   UNL     1       1.438  -1.657   1.456  1.00  0.00    -0.246 OA
BRANCH  69  71
ATOM     71  C   UNL     1       1.792  -2.808  -0.595  1.00  0.00     0.062 A 
ATOM     72  C   UNL     1       2.205  -4.103  -0.881  1.00  0.00     0.038 A 
ATOM     73  C   UNL     1       0.905  -2.146  -1.453  1.00  0.00     0.022 A 
ATOM     74  C   UNL     1       1.764  -4.702  -2.060  1.00  0.00     0.065 A 
ATOM     75  C   UNL     1       0.502  -2.739  -2.666  1.00  0.00    -0.015 A 
ATOM     76  Cl  UNL     1       2.114  -6.384  -2.285  1.00  0.00    -0.082 Cl
ATOM     77  C   UNL     1       1.006  -3.996  -3.018  1.00  0.00     0.057 A 
ATOM     78  C   UNL     1      -0.556  -2.087  -3.510  1.00  0.00     0.049 C 
ATOM     79  N   UNL     1       0.672  -4.582  -4.226  1.00  0.00    -0.376 N 
ATOM     80  C   UNL     1      -0.162  -0.889  -4.331  1.00  0.00    -0.023 C 
ATOM     81  C   UNL     1      -1.191  -3.004  -4.585  1.00  0.00     0.031 C 
ATOM     82  C   UNL     1      -0.101  -3.902  -5.255  1.00  0.00     0.114 C 
ATOM     83  H   UNL     1       0.972  -5.503  -4.398  1.00  0.00     0.161 HD
ATOM     84  C   UNL     1      -0.896  -0.812  -5.447  1.00  0.00    -0.030 C 
ATOM     85  C   UNL     1      -1.859  -1.951  -5.498  1.00  0.00     0.034 C 
BRANCH  82  86
ATOM     86  C   UNL     1      -0.684  -4.957  -6.203  1.00  0.00    -0.025 A 
ATOM     87  C   UNL     1      -0.677  -6.349  -5.961  1.00  0.00     0.007 A 
ATOM     88  C   UNL     1      -1.257  -4.531  -7.397  1.00  0.00     0.007 A 
ATOM     89  C   UNL     1      -1.270  -7.260  -6.856  1.00  0.00     0.022 A 
ATOM     90  C   UNL     1      -1.925  -5.419  -8.226  1.00  0.00     0.022 A 
ATOM     91  C   UNL     1      -1.931  -6.780  -7.982  1.00  0.00     0.082 A 
BRANCH  91  92
ATOM     92  S   UNL     1      -2.753  -7.899  -9.095  1.00  0.00     0.243 S 
ATOM     93  O   UNL     1      -1.721  -8.648  -9.772  1.00  0.00    -0.207 OA
ATOM     94  O   UNL     1      -3.796  -8.549  -8.325  1.00  0.00    -0.207 OA
BRANCH  92  95
ATOM     95  N   UNL     1      -3.518  -6.941 -10.251  1.00  0.00    -0.193 NA
ATOM     96  C   UNL     1      -2.814  -6.407 -11.436  1.00  0.00     0.131 C 
ATOM     97  C   UNL     1      -4.885  -6.425 -10.072  1.00  0.00     0.131 C 
ATOM     98  C   UNL     1      -2.936  -4.876 -11.528  1.00  0.00     0.177 C 
ATOM     99  C   UNL     1      -4.892  -4.896 -10.128  1.00  0.00     0.177 C 
ATOM    100  O   UNL     1      -4.274  -4.394 -11.322  1.00  0.00    -0.379 OA
ENDBRANCH  92  95
ENDBRANCH  91  92
ENDBRANCH  82  86
ENDBRANCH  69  71
ENDBRANCH  68  69
ENDBRANCH  67  68
ENDBRANCH   1  67
TORSDOF 17
