REMARK SMILES Cc1cc(C(=O)N[C@H](CC(C)C)C(=O)OCCOCCOC(=O)c2ccc(-c3c4nc(c(-c5ccc(S(=O)(=O)[O-])cc5)c5ccc([nH]5)c(-c5ccc(S(=O)(=O)[O-])cc5)c5nc(c(-c6ccc(S(=O)(=O)[O-])cc6)c6ccc3[nH]6)C=C5)C=C4)cc2)sc1Br
REMARK SMILES IDX 19 1 18 2 17 3 16 4 15 5 13 6 14 7 8 8 7 9 5 10 6 11 4 13
REMARK SMILES IDX 1 14 2 15 3 16 85 17 84 18 86 19 9 20 10 21 11 22 12 23
REMARK SMILES IDX 20 24 21 25 22 26 23 27 24 28 25 29 83 30 26 31 82 32 27 33
REMARK SMILES IDX 28 34 29 35 76 36 30 37 81 38 75 39 77 40 31 41 80 42 74 43
REMARK SMILES IDX 73 44 32 46 62 47 43 48 61 49 44 50 47 51 60 52 78 53 45 54
REMARK SMILES IDX 46 55 59 57 79 58 48 59 33 60 34 61 42 62 35 63 41 64 36 65
REMARK SMILES IDX 37 66 38 67 39 68 40 69 63 70 64 71 72 72 65 73 71 74 66 75
REMARK SMILES IDX 67 76 68 77 69 78 70 79 49 80 50 81 58 82 51 83 57 84 52 85
REMARK SMILES IDX 53 86 54 87 55 88 56 89
REMARK H PARENT 7 12 77 45 47 56
REMARK Flexibility Score: inf
ROOT
ATOM      1  C   UNL     1      -0.126   1.185  -5.613  1.00  0.00     0.202 C 
ENDROOT
BRANCH   1   2
ATOM      2  O   UNL     1      -0.582   0.337  -6.662  1.00  0.00    -0.374 OA
BRANCH   2   3
ATOM      3  C   UNL     1      -1.824   0.646  -7.301  1.00  0.00     0.202 C 
BRANCH   3   4
ATOM      4  C   UNL     1      -3.076   0.293  -6.502  1.00  0.00     0.261 C 
BRANCH   4   5
ATOM      5  O   UNL     1      -3.201   1.192  -5.385  1.00  0.00    -0.462 OA
BRANCH   5   6
ATOM      6  C   UNL     1      -3.194   0.626  -4.155  1.00  0.00     0.328 C 
ATOM      7  O   UNL     1      -3.258  -0.580  -3.940  1.00  0.00    -0.250 OA
BRANCH   6   8
ATOM      8  C   UNL     1      -3.120   1.657  -3.012  1.00  0.00     0.192 C 
BRANCH   8   9
ATOM      9  N   UNL     1      -4.289   1.432  -2.160  1.00  0.00    -0.338 N 
ATOM     10  C   UNL     1      -4.675   1.873  -0.921  1.00  0.00     0.262 C 
ATOM     11  O   UNL     1      -5.678   1.325  -0.457  1.00  0.00    -0.268 OA
ATOM     12  H   UNL     1      -4.948   0.827  -2.571  1.00  0.00     0.164 HD
BRANCH  10  13
ATOM     13  C   UNL     1      -3.984   2.962  -0.261  1.00  0.00     0.093 A 
ATOM     14  C   UNL     1      -1.212   5.465  -0.009  1.00  0.00     0.046 C 
ATOM     15  C   UNL     1      -2.472   4.692   0.211  1.00  0.00    -0.025 A 
ATOM     16  C   UNL     1      -2.650   3.323  -0.203  1.00  0.00     0.030 A 
ATOM     17  C   UNL     1      -3.634   5.149   0.794  1.00  0.00     0.074 A 
ATOM     18  S   UNL     1      -4.929   4.067   0.657  1.00  0.00    -0.123 S 
ATOM     19  Br  UNL     1      -3.834   6.817   1.631  1.00  0.00    -0.039 Br
ENDBRANCH  10  13
ENDBRANCH   8   9
BRANCH   8  20
ATOM     20  C   UNL     1      -2.752   3.099  -3.402  1.00  0.00     0.040 C 
BRANCH  20  21
ATOM     21  C   UNL     1      -3.649   3.999  -4.258  1.00  0.00    -0.015 C 
ATOM     22  C   UNL     1      -5.141   3.880  -4.003  1.00  0.00     0.007 C 
ATOM     23  C   UNL     1      -3.214   5.457  -4.006  1.00  0.00     0.007 C 
ENDBRANCH  20  21
ENDBRANCH   8  20
ENDBRANCH   6   8
ENDBRANCH   5   6
ENDBRANCH   4   5
ENDBRANCH   3   4
ENDBRANCH   2   3
ENDBRANCH   1   2
BRANCH   1  24
ATOM     24  C   UNL     1       0.435   2.540  -6.025  1.00  0.00     0.261 C 
BRANCH  24  25
ATOM     25  O   UNL     1      -0.578   3.378  -6.562  1.00  0.00    -0.460 OA
BRANCH  25  26
ATOM     26  C   UNL     1      -0.556   3.554  -7.910  1.00  0.00     0.338 C 
ATOM     27  O   UNL     1       0.058   2.906  -8.725  1.00  0.00    -0.246 OA
BRANCH  26  28
ATOM     28  C   UNL     1      -1.343   4.763  -8.206  1.00  0.00     0.060 A 
ATOM     29  C   UNL     1      -1.385   5.230  -9.516  1.00  0.00     0.016 A 
ATOM     30  C   UNL     1      -1.812   5.542  -7.143  1.00  0.00     0.016 A 
ATOM     31  C   UNL     1      -1.660   6.569  -9.714  1.00  0.00     0.010 A 
ATOM     32  C   UNL     1      -2.118   6.859  -7.336  1.00  0.00     0.010 A 
ATOM     33  C   UNL     1      -1.907   7.381  -8.598  1.00  0.00    -0.014 A 
BRANCH  33  34
ATOM     34  C   UNL     1      -2.018   8.811  -8.752  1.00  0.00     0.031 A 
ATOM     35  C   UNL     1      -3.295   9.189  -9.379  1.00  0.00     0.074 A 
ATOM     36  C   UNL     1      -1.115   9.673  -8.242  1.00  0.00     0.049 A 
ATOM     37  N   UNL     1      -3.485   9.457 -10.627  1.00  0.00    -0.248 NA
ATOM     38  C   UNL     1      -4.534   8.979  -8.610  1.00  0.00     0.031 C 
ATOM     39  C   UNL     1       0.019   9.404  -7.351  1.00  0.00     0.029 A 
ATOM     40  N   UNL     1      -1.081  11.023  -8.359  1.00  0.00    -0.354 N 
ATOM     41  C   UNL     1      -4.838   9.732 -10.729  1.00  0.00     0.074 A 
ATOM     42  C   UNL     1      -5.452   9.152  -9.562  1.00  0.00     0.031 C 
ATOM     43  C   UNL     1       0.473  10.572  -6.834  1.00  0.00     0.029 A 
ATOM     44  C   UNL     1      -0.237  11.674  -7.466  1.00  0.00     0.049 A 
ATOM     45  H   UNL     1      -1.615  11.509  -9.029  1.00  0.00     0.167 HD
ATOM     46  C   UNL     1      -5.285  10.706 -11.567  1.00  0.00     0.031 A 
ATOM     47  C   UNL     1      -0.175  13.015  -7.246  1.00  0.00     0.031 A 
ATOM     48  C   UNL     1      -4.253  11.114 -12.491  1.00  0.00     0.049 A 
ATOM     49  C   UNL     1      -0.789  13.672  -8.431  1.00  0.00     0.074 A 
ATOM     50  C   UNL     1      -3.504  10.471 -13.456  1.00  0.00     0.029 A 
ATOM     51  N   UNL     1      -3.569  12.267 -12.175  1.00  0.00    -0.354 N 
ATOM     52  N   UNL     1      -0.263  13.616  -9.624  1.00  0.00    -0.248 NA
ATOM     53  C   UNL     1      -2.220  13.934  -8.396  1.00  0.00     0.031 C 
ATOM     54  C   UNL     1      -2.198  11.032 -13.344  1.00  0.00     0.029 A 
ATOM     55  C   UNL     1      -2.232  12.047 -12.384  1.00  0.00     0.049 A 
ATOM     56  H   UNL     1      -3.971  13.105 -11.853  1.00  0.00     0.167 HD
ATOM     57  C   UNL     1      -1.336  13.392 -10.478  1.00  0.00     0.074 A 
ATOM     58  C   UNL     1      -2.524  13.681  -9.673  1.00  0.00     0.031 C 
ATOM     59  C   UNL     1      -1.172  12.714 -11.653  1.00  0.00     0.031 A 
BRANCH  46  60
ATOM     60  C   UNL     1      -6.459  11.593 -11.239  1.00  0.00    -0.014 A 
ATOM     61  C   UNL     1      -6.860  12.550 -12.190  1.00  0.00     0.010 A 
ATOM     62  C   UNL     1      -7.005  11.710  -9.943  1.00  0.00     0.010 A 
ATOM     63  C   UNL     1      -7.707  13.607 -11.839  1.00  0.00     0.020 A 
ATOM     64  C   UNL     1      -7.885  12.732  -9.594  1.00  0.00     0.020 A 
ATOM     65  C   UNL     1      -8.205  13.694 -10.538  1.00  0.00     0.054 A 
BRANCH  65  66
ATOM     66  S   UNL     1      -9.228  15.108 -10.072  1.00  0.00     0.124 S 
ATOM     67  O   UNL     1      -8.283  16.214 -10.194  1.00  0.00    -0.237 OA
ATOM     68  O   UNL     1     -10.288  15.061 -11.075  1.00  0.00    -0.237 OA
ATOM     69  O   UNL     1      -9.650  14.790  -8.710  1.00  0.00    -0.744 OA
ENDBRANCH  65  66
ENDBRANCH  46  60
BRANCH  47  70
ATOM     70  C   UNL     1       0.043  13.731  -5.958  1.00  0.00    -0.014 A 
ATOM     71  C   UNL     1       0.344  15.107  -5.911  1.00  0.00     0.010 A 
ATOM     72  C   UNL     1      -0.331  13.110  -4.748  1.00  0.00     0.010 A 
ATOM     73  C   UNL     1       0.234  15.840  -4.711  1.00  0.00     0.020 A 
ATOM     74  C   UNL     1      -0.443  13.831  -3.550  1.00  0.00     0.020 A 
ATOM     75  C   UNL     1      -0.176  15.198  -3.539  1.00  0.00     0.054 A 
BRANCH  75  76
ATOM     76  S   UNL     1      -0.462  16.169  -2.025  1.00  0.00     0.124 S 
ATOM     77  O   UNL     1       0.891  16.572  -1.653  1.00  0.00    -0.237 OA
ATOM     78  O   UNL     1      -1.335  17.242  -2.492  1.00  0.00    -0.237 OA
ATOM     79  O   UNL     1      -1.093  15.212  -1.117  1.00  0.00    -0.744 OA
ENDBRANCH  75  76
ENDBRANCH  47  70
BRANCH  59  80
ATOM     80  C   UNL     1       0.237  12.471 -12.152  1.00  0.00    -0.014 A 
ATOM     81  C   UNL     1       1.200  11.692 -11.479  1.00  0.00     0.010 A 
ATOM     82  C   UNL     1       0.540  12.937 -13.443  1.00  0.00     0.010 A 
ATOM     83  C   UNL     1       2.441  11.413 -12.077  1.00  0.00     0.020 A 
ATOM     84  C   UNL     1       1.762  12.648 -14.050  1.00  0.00     0.020 A 
ATOM     85  C   UNL     1       2.714  11.896 -13.361  1.00  0.00     0.054 A 
BRANCH  85  86
ATOM     86  S   UNL     1       4.304  11.516 -14.150  1.00  0.00     0.124 S 
ATOM     87  O   UNL     1       5.251  12.272 -13.335  1.00  0.00    -0.237 OA
ATOM     88  O   UNL     1       4.388  10.062 -14.028  1.00  0.00    -0.237 OA
ATOM     89  O   UNL     1       4.140  12.005 -15.519  1.00  0.00    -0.744 OA
ENDBRANCH  85  86
ENDBRANCH  59  80
ENDBRANCH  33  34
ENDBRANCH  26  28
ENDBRANCH  25  26
ENDBRANCH  24  25
ENDBRANCH   1  24
TORSDOF 21
