REMARK SMILES Nn1c(S[C@@H](C(=O)OCCOCCOC(=O)c2ccc(-c3c4nc(c(-c5ccc(S(=O)(=O)[O-])cc5)c5ccc([nH]5)c(-c5ccc(S(=O)(=O)[O-])cc5)c5nc(c(-c6ccc(S(=O)(=O)[O-])cc6)c6ccc3[nH]6)C=C5)C=C4)cc2)c2ccccc2)nc2ccc(Br)cc2c1=O
REMARK SMILES IDX 11 1 10 2 9 3 8 4 6 5 7 6 5 7 4 8 3 9 2 10 91 11 83 12 90 13
REMARK SMILES IDX 92 14 84 15 89 16 85 17 87 18 86 19 88 20 1 21 77 24 78 25
REMARK SMILES IDX 82 26 79 27 81 28 80 29 12 30 13 31 14 32 15 33 16 34 17 35
REMARK SMILES IDX 18 36 76 37 19 38 75 39 20 40 21 41 22 42 69 43 23 44 74 45
REMARK SMILES IDX 68 46 70 47 24 48 73 49 67 50 66 51 25 53 55 54 36 55 54 56
REMARK SMILES IDX 37 57 40 58 53 59 71 60 38 61 39 62 52 64 72 65 41 66 26 67
REMARK SMILES IDX 27 68 35 69 28 70 34 71 29 72 30 73 31 74 32 75 33 76 56 77
REMARK SMILES IDX 57 78 65 79 58 80 64 81 59 82 60 83 61 84 62 85 63 86 42 87
REMARK SMILES IDX 43 88 51 89 44 90 50 91 45 92 46 93 47 94 48 95 49 96
REMARK H PARENT 1 22 1 23 70 52 40 63
REMARK Flexibility Score: inf
ROOT
ATOM      1  O   UNL     1       2.970  -2.370   1.721  1.00  0.00    -0.374 OA
ENDROOT
BRANCH   1   2
ATOM      2  C   UNL     1       4.254  -1.750   1.725  1.00  0.00     0.202 C 
BRANCH   2   3
ATOM      3  C   UNL     1       4.658  -0.886   0.519  1.00  0.00     0.261 C 
BRANCH   3   4
ATOM      4  O   UNL     1       3.696   0.132   0.150  1.00  0.00    -0.462 OA
BRANCH   4   5
ATOM      5  C   UNL     1       3.496   0.270  -1.194  1.00  0.00     0.324 C 
ATOM      6  O   UNL     1       4.136  -0.381  -2.021  1.00  0.00    -0.251 OA
BRANCH   5   7
ATOM      7  C   UNL     1       2.428   1.290  -1.633  1.00  0.00     0.194 C 
BRANCH   7   8
ATOM      8  S   UNL     1       1.808   2.423  -0.372  1.00  0.00    -0.066 SA
BRANCH   8   9
ATOM      9  C   UNL     1       0.342   2.023   0.497  1.00  0.00     0.191 A 
ATOM     10  N   UNL     1      -0.446   0.881   0.340  1.00  0.00    -0.202 N 
ATOM     11  C   UNL     1      -1.448   0.533   1.255  1.00  0.00     0.280 A 
ATOM     12  N   UNL     1       0.054   2.908   1.409  1.00  0.00    -0.222 NA
ATOM     13  C   UNL     1      -1.740   1.507   2.305  1.00  0.00     0.069 A 
ATOM     14  O   UNL     1      -2.051  -0.540   1.217  1.00  0.00    -0.267 OA
ATOM     15  C   UNL     1      -1.021   2.697   2.285  1.00  0.00     0.079 A 
ATOM     16  C   UNL     1      -2.717   1.241   3.271  1.00  0.00     0.031 A 
ATOM     17  C   UNL     1      -1.350   3.677   3.225  1.00  0.00     0.030 A 
ATOM     18  C   UNL     1      -3.014   2.220   4.210  1.00  0.00     0.018 A 
ATOM     19  C   UNL     1      -2.350   3.445   4.181  1.00  0.00     0.018 A 
ATOM     20  Br  UNL     1      -4.330   1.883   5.524  1.00  0.00    -0.051 Br
BRANCH  10  21
ATOM     21  N   UNL     1      -0.333  -0.004  -0.729  1.00  0.00    -0.334 N 
ATOM     22  H   UNL     1       0.343   0.151  -1.428  1.00  0.00     0.178 HD
ATOM     23  H   UNL     1      -0.928  -0.786  -0.786  1.00  0.00     0.178 HD
ENDBRANCH  10  21
ENDBRANCH   8   9
ENDBRANCH   7   8
BRANCH   7  24
ATOM     24  C   UNL     1       1.446   0.811  -2.703  1.00  0.00    -0.023 A 
ATOM     25  C   UNL     1       1.322  -0.547  -3.066  1.00  0.00     0.005 A 
ATOM     26  C   UNL     1       0.573   1.734  -3.310  1.00  0.00     0.005 A 
ATOM     27  C   UNL     1       0.281  -0.977  -3.893  1.00  0.00     0.000 A 
ATOM     28  C   UNL     1      -0.465   1.300  -4.137  1.00  0.00     0.000 A 
ATOM     29  C   UNL     1      -0.626  -0.056  -4.406  1.00  0.00     0.000 A 
ENDBRANCH   7  24
ENDBRANCH   5   7
ENDBRANCH   4   5
ENDBRANCH   3   4
ENDBRANCH   2   3
ENDBRANCH   1   2
BRANCH   1  30
ATOM     30  C   UNL     1       1.841  -1.520   1.603  1.00  0.00     0.202 C 
BRANCH  30  31
ATOM     31  C   UNL     1       1.540  -0.527   2.730  1.00  0.00     0.261 C 
BRANCH  31  32
ATOM     32  O   UNL     1       2.663   0.198   3.209  1.00  0.00    -0.460 OA
BRANCH  32  33
ATOM     33  C   UNL     1       2.978  -0.066   4.496  1.00  0.00     0.338 C 
ATOM     34  O   UNL     1       2.400  -0.809   5.274  1.00  0.00    -0.246 OA
BRANCH  33  35
ATOM     35  C   UNL     1       4.272   0.559   4.767  1.00  0.00     0.060 A 
ATOM     36  C   UNL     1       4.421   1.946   4.705  1.00  0.00     0.016 A 
ATOM     37  C   UNL     1       5.345  -0.281   5.076  1.00  0.00     0.016 A 
ATOM     38  C   UNL     1       5.667   2.499   4.988  1.00  0.00     0.010 A 
ATOM     39  C   UNL     1       6.585   0.273   5.356  1.00  0.00     0.010 A 
ATOM     40  C   UNL     1       6.745   1.665   5.337  1.00  0.00    -0.014 A 
BRANCH  40  41
ATOM     41  C   UNL     1       8.009   2.245   5.834  1.00  0.00     0.031 A 
ATOM     42  C   UNL     1       9.253   2.206   5.005  1.00  0.00     0.074 A 
ATOM     43  C   UNL     1       8.013   2.753   7.081  1.00  0.00     0.049 A 
ATOM     44  N   UNL     1      10.441   2.661   5.300  1.00  0.00    -0.248 NA
ATOM     45  C   UNL     1       9.160   1.570   3.680  1.00  0.00     0.031 C 
ATOM     46  C   UNL     1       6.845   2.803   7.965  1.00  0.00     0.029 A 
ATOM     47  N   UNL     1       9.015   3.324   7.820  1.00  0.00    -0.354 N 
ATOM     48  C   UNL     1      11.236   2.383   4.197  1.00  0.00     0.074 A 
ATOM     49  C   UNL     1      10.410   1.673   3.244  1.00  0.00     0.031 C 
ATOM     50  C   UNL     1       7.189   3.405   9.112  1.00  0.00     0.029 A 
ATOM     51  C   UNL     1       8.608   3.740   9.066  1.00  0.00     0.049 A 
ATOM     52  H   UNL     1       9.937   3.426   7.491  1.00  0.00     0.167 HD
ATOM     53  C   UNL     1      12.533   2.716   4.001  1.00  0.00     0.031 A 
ATOM     54  C   UNL     1       9.300   4.328  10.061  1.00  0.00     0.031 A 
ATOM     55  C   UNL     1      13.331   3.414   4.978  1.00  0.00     0.049 A 
ATOM     56  C   UNL     1      10.751   4.645   9.831  1.00  0.00     0.074 A 
ATOM     57  C   UNL     1      14.648   3.825   4.868  1.00  0.00     0.029 A 
ATOM     58  N   UNL     1      12.895   3.802   6.238  1.00  0.00    -0.354 N 
ATOM     59  N   UNL     1      11.473   4.439   8.755  1.00  0.00    -0.248 NA
ATOM     60  C   UNL     1      11.478   5.287  10.932  1.00  0.00     0.031 C 
ATOM     61  C   UNL     1      15.030   4.388   6.086  1.00  0.00     0.029 A 
ATOM     62  C   UNL     1      13.928   4.417   6.926  1.00  0.00     0.049 A 
ATOM     63  H   UNL     1      11.987   3.661   6.590  1.00  0.00     0.167 HD
ATOM     64  C   UNL     1      12.733   4.950   9.039  1.00  0.00     0.074 A 
ATOM     65  C   UNL     1      12.668   5.494  10.381  1.00  0.00     0.031 C 
ATOM     66  C   UNL     1      13.843   4.963   8.260  1.00  0.00     0.031 A 
BRANCH  53  67
ATOM     67  C   UNL     1      13.181   2.366   2.685  1.00  0.00    -0.014 A 
ATOM     68  C   UNL     1      14.279   1.486   2.652  1.00  0.00     0.010 A 
ATOM     69  C   UNL     1      12.806   3.032   1.504  1.00  0.00     0.010 A 
ATOM     70  C   UNL     1      15.023   1.320   1.480  1.00  0.00     0.020 A 
ATOM     71  C   UNL     1      13.527   2.844   0.321  1.00  0.00     0.020 A 
ATOM     72  C   UNL     1      14.650   2.013   0.326  1.00  0.00     0.054 A 
BRANCH  72  73
ATOM     73  S   UNL     1      15.672   1.843  -1.163  1.00  0.00     0.124 S 
ATOM     74  O   UNL     1      16.883   2.568  -0.791  1.00  0.00    -0.237 OA
ATOM     75  O   UNL     1      15.815   0.395  -1.286  1.00  0.00    -0.237 OA
ATOM     76  O   UNL     1      14.865   2.471  -2.208  1.00  0.00    -0.744 OA
ENDBRANCH  72  73
ENDBRANCH  53  67
BRANCH  54  77
ATOM     77  C   UNL     1       8.596   4.696  11.322  1.00  0.00    -0.014 A 
ATOM     78  C   UNL     1       8.045   3.701  12.153  1.00  0.00     0.010 A 
ATOM     79  C   UNL     1       8.390   6.046  11.651  1.00  0.00     0.010 A 
ATOM     80  C   UNL     1       7.253   4.049  13.250  1.00  0.00     0.020 A 
ATOM     81  C   UNL     1       7.630   6.399  12.771  1.00  0.00     0.020 A 
ATOM     82  C   UNL     1       7.041   5.397  13.545  1.00  0.00     0.054 A 
BRANCH  82  83
ATOM     83  S   UNL     1       5.968   5.822  14.944  1.00  0.00     0.124 S 
ATOM     84  O   UNL     1       4.647   5.482  14.422  1.00  0.00    -0.237 OA
ATOM     85  O   UNL     1       6.469   4.952  16.005  1.00  0.00    -0.237 OA
ATOM     86  O   UNL     1       6.212   7.248  15.144  1.00  0.00    -0.744 OA
ENDBRANCH  82  83
ENDBRANCH  54  77
BRANCH  66  87
ATOM     87  C   UNL     1      15.096   5.590   8.818  1.00  0.00    -0.014 A 
ATOM     88  C   UNL     1      15.637   6.732   8.195  1.00  0.00     0.010 A 
ATOM     89  C   UNL     1      15.818   4.967   9.851  1.00  0.00     0.010 A 
ATOM     90  C   UNL     1      16.900   7.205   8.556  1.00  0.00     0.020 A 
ATOM     91  C   UNL     1      17.064   5.462  10.242  1.00  0.00     0.020 A 
ATOM     92  C   UNL     1      17.612   6.558   9.569  1.00  0.00     0.054 A 
BRANCH  92  93
ATOM     93  S   UNL     1      19.276   7.149   9.979  1.00  0.00     0.124 S 
ATOM     94  O   UNL     1      20.054   6.699   8.828  1.00  0.00    -0.237 OA
ATOM     95  O   UNL     1      19.085   8.593  10.086  1.00  0.00    -0.237 OA
ATOM     96  O   UNL     1      19.580   6.473  11.239  1.00  0.00    -0.744 OA
ENDBRANCH  92  93
ENDBRANCH  66  87
ENDBRANCH  40  41
ENDBRANCH  33  35
ENDBRANCH  32  33
ENDBRANCH  31  32
ENDBRANCH  30  31
ENDBRANCH   1  30
TORSDOF 21
