REMARK SMILES O=C(OCCOCCOC(=O)c1cc(-c2ccn(C(F)F)c(=O)c2)ccc1O)c1ccc(-c2c3nc(c(-c4ccc(S(=O)(=O)[O-])cc4)c4ccc([nH]4)c(-c4ccc(S(=O)(=O)[O-])cc4)c4nc(c(-c5ccc(S(=O)(=O)[O-])cc5)c5ccc2[nH]5)C=C4)C=C3)cc1
REMARK SMILES IDX 5 1 4 2 3 3 2 4 1 5 29 6 30 7 88 8 31 9 87 10 32 11 33 12
REMARK SMILES IDX 34 13 81 14 35 15 86 16 80 17 82 18 36 19 85 20 79 21 78 22
REMARK SMILES IDX 37 24 67 25 48 26 66 27 49 28 52 29 65 30 83 31 50 32 51 33
REMARK SMILES IDX 64 35 84 36 53 37 38 38 39 39 47 40 40 41 46 42 41 43 42 44
REMARK SMILES IDX 43 45 44 46 45 47 68 48 69 49 77 50 70 51 76 52 71 53 72 54
REMARK SMILES IDX 73 55 74 56 75 57 54 58 55 59 63 60 56 61 62 62 57 63 58 64
REMARK SMILES IDX 59 65 60 66 61 67 6 68 7 69 8 70 9 71 10 72 11 73 12 74
REMARK SMILES IDX 13 75 27 76 14 77 26 78 25 79 28 80 15 82 16 83 24 84 17 85
REMARK SMILES IDX 22 86 18 87 23 88 19 89 20 90 21 91
REMARK H PARENT 82 23 52 34 28 81
REMARK Flexibility Score: inf
ROOT
ATOM      1  C   UNL     1       4.388   0.505   1.480  1.00  0.00     0.202 C 
ENDROOT
BRANCH   1   2
ATOM      2  C   UNL     1       4.229   1.328   0.200  1.00  0.00     0.261 C 
BRANCH   2   3
ATOM      3  O   UNL     1       2.864   1.330  -0.246  1.00  0.00    -0.460 OA
BRANCH   3   4
ATOM      4  C   UNL     1       2.247   0.535  -1.149  1.00  0.00     0.338 C 
ATOM      5  O   UNL     1       1.068   0.788  -1.404  1.00  0.00    -0.246 OA
BRANCH   4   6
ATOM      6  C   UNL     1       2.857  -0.663  -1.824  1.00  0.00     0.060 A 
ATOM      7  C   UNL     1       2.067  -1.293  -2.808  1.00  0.00     0.016 A 
ATOM      8  C   UNL     1       4.082  -1.257  -1.515  1.00  0.00     0.016 A 
ATOM      9  C   UNL     1       2.474  -2.481  -3.425  1.00  0.00     0.010 A 
ATOM     10  C   UNL     1       4.487  -2.450  -2.105  1.00  0.00     0.010 A 
ATOM     11  C   UNL     1       3.687  -3.068  -3.061  1.00  0.00    -0.014 A 
BRANCH  11  12
ATOM     12  C   UNL     1       4.255  -4.224  -3.771  1.00  0.00     0.031 A 
ATOM     13  C   UNL     1       4.226  -5.592  -3.169  1.00  0.00     0.074 A 
ATOM     14  C   UNL     1       4.967  -3.953  -4.879  1.00  0.00     0.049 A 
ATOM     15  N   UNL     1       4.713  -6.703  -3.652  1.00  0.00    -0.248 NA
ATOM     16  C   UNL     1       3.593  -5.732  -1.848  1.00  0.00     0.031 C 
ATOM     17  C   UNL     1       5.123  -2.613  -5.454  1.00  0.00     0.029 A 
ATOM     18  N   UNL     1       5.725  -4.756  -5.684  1.00  0.00    -0.354 N 
ATOM     19  C   UNL     1       4.436  -7.681  -2.704  1.00  0.00     0.074 A 
ATOM     20  C   UNL     1       3.777  -7.024  -1.597  1.00  0.00     0.031 C 
ATOM     21  C   UNL     1       5.941  -2.686  -6.511  1.00  0.00     0.029 A 
ATOM     22  C   UNL     1       6.369  -4.070  -6.683  1.00  0.00     0.049 A 
ATOM     23  H   UNL     1       5.801  -5.730  -5.559  1.00  0.00     0.167 HD
ATOM     24  C   UNL     1       4.709  -9.005  -2.779  1.00  0.00     0.031 A 
ATOM     25  C   UNL     1       7.207  -4.507  -7.641  1.00  0.00     0.031 A 
ATOM     26  C   UNL     1       5.400  -9.597  -3.898  1.00  0.00     0.049 A 
ATOM     27  C   UNL     1       7.479  -5.976  -7.722  1.00  0.00     0.074 A 
ATOM     28  C   UNL     1       5.623 -10.937  -4.156  1.00  0.00     0.029 A 
ATOM     29  N   UNL     1       6.006  -8.884  -4.927  1.00  0.00    -0.354 N 
ATOM     30  N   UNL     1       7.057  -6.925  -6.919  1.00  0.00    -0.248 NA
ATOM     31  C   UNL     1       8.305  -6.447  -8.838  1.00  0.00     0.031 C 
ATOM     32  C   UNL     1       6.435 -11.029  -5.289  1.00  0.00     0.029 A 
ATOM     33  C   UNL     1       6.652  -9.753  -5.789  1.00  0.00     0.049 A 
ATOM     34  H   UNL     1       5.979  -7.905  -5.027  1.00  0.00     0.167 HD
ATOM     35  C   UNL     1       7.557  -8.111  -7.435  1.00  0.00     0.074 A 
ATOM     36  C   UNL     1       8.300  -7.760  -8.632  1.00  0.00     0.031 C 
ATOM     37  C   UNL     1       7.411  -9.373  -6.960  1.00  0.00     0.031 A 
BRANCH  24  38
ATOM     38  C   UNL     1       4.259  -9.911  -1.657  1.00  0.00    -0.014 A 
ATOM     39  C   UNL     1       5.207 -10.650  -0.924  1.00  0.00     0.010 A 
ATOM     40  C   UNL     1       2.892 -10.138  -1.412  1.00  0.00     0.010 A 
ATOM     41  C   UNL     1       4.802 -11.614   0.006  1.00  0.00     0.020 A 
ATOM     42  C   UNL     1       2.481 -11.080  -0.461  1.00  0.00     0.020 A 
ATOM     43  C   UNL     1       3.440 -11.830   0.225  1.00  0.00     0.054 A 
BRANCH  43  44
ATOM     44  S   UNL     1       2.930 -13.105   1.412  1.00  0.00     0.124 S 
ATOM     45  O   UNL     1       3.204 -14.337   0.679  1.00  0.00    -0.237 OA
ATOM     46  O   UNL     1       3.799 -12.844   2.557  1.00  0.00    -0.237 OA
ATOM     47  O   UNL     1       1.515 -12.816   1.639  1.00  0.00    -0.744 OA
ENDBRANCH  43  44
ENDBRANCH  24  38
BRANCH  25  48
ATOM     48  C   UNL     1       7.714  -3.512  -8.623  1.00  0.00    -0.014 A 
ATOM     49  C   UNL     1       8.641  -2.528  -8.225  1.00  0.00     0.010 A 
ATOM     50  C   UNL     1       7.081  -3.393  -9.872  1.00  0.00     0.010 A 
ATOM     51  C   UNL     1       8.852  -1.395  -9.017  1.00  0.00     0.020 A 
ATOM     52  C   UNL     1       7.307  -2.273 -10.676  1.00  0.00     0.020 A 
ATOM     53  C   UNL     1       8.157  -1.261 -10.222  1.00  0.00     0.054 A 
BRANCH  53  54
ATOM     54  S   UNL     1       8.311   0.292 -11.148  1.00  0.00     0.124 S 
ATOM     55  O   UNL     1       7.563   1.219 -10.303  1.00  0.00    -0.237 OA
ATOM     56  O   UNL     1       9.756   0.499 -11.185  1.00  0.00    -0.237 OA
ATOM     57  O   UNL     1       7.694  -0.013 -12.437  1.00  0.00    -0.744 OA
ENDBRANCH  53  54
ENDBRANCH  25  48
BRANCH  37  58
ATOM     58  C   UNL     1       8.107 -10.484  -7.698  1.00  0.00    -0.014 A 
ATOM     59  C   UNL     1       7.350 -11.467  -8.361  1.00  0.00     0.010 A 
ATOM     60  C   UNL     1       9.499 -10.644  -7.584  1.00  0.00     0.010 A 
ATOM     61  C   UNL     1       7.965 -12.624  -8.842  1.00  0.00     0.020 A 
ATOM     62  C   UNL     1      10.121 -11.786  -8.092  1.00  0.00     0.020 A 
ATOM     63  C   UNL     1       9.345 -12.784  -8.687  1.00  0.00     0.054 A 
BRANCH  63  64
ATOM     64  S   UNL     1      10.110 -14.331  -9.240  1.00  0.00     0.124 S 
ATOM     65  O   UNL     1       9.654 -15.278  -8.227  1.00  0.00    -0.237 OA
ATOM     66  O   UNL     1       9.540 -14.510 -10.573  1.00  0.00    -0.237 OA
ATOM     67  O   UNL     1      11.541 -14.034  -9.218  1.00  0.00    -0.744 OA
ENDBRANCH  63  64
ENDBRANCH  37  58
ENDBRANCH  11  12
ENDBRANCH   4   6
ENDBRANCH   3   4
ENDBRANCH   2   3
ENDBRANCH   1   2
BRANCH   1  68
ATOM     68  O   UNL     1       4.034  -0.866   1.318  1.00  0.00    -0.374 OA
BRANCH  68  69
ATOM     69  C   UNL     1       2.699  -1.212   1.699  1.00  0.00     0.202 C 
BRANCH  69  70
ATOM     70  C   UNL     1       2.743  -2.171   2.886  1.00  0.00     0.261 C 
BRANCH  70  71
ATOM     71  O   UNL     1       3.273  -1.459   4.012  1.00  0.00    -0.460 OA
BRANCH  71  72
ATOM     72  C   UNL     1       4.610  -1.561   4.210  1.00  0.00     0.342 C 
ATOM     73  O   UNL     1       5.394  -2.316   3.659  1.00  0.00    -0.246 OA
BRANCH  72  74
ATOM     74  C   UNL     1       5.037  -0.413   5.036  1.00  0.00     0.102 A 
ATOM     75  C   UNL     1       6.160   0.314   4.602  1.00  0.00     0.028 A 
ATOM     76  C   UNL     1       4.325   0.002   6.166  1.00  0.00     0.130 A 
ATOM     77  C   UNL     1       6.532   1.483   5.269  1.00  0.00    -0.017 A 
ATOM     78  C   UNL     1       4.706   1.156   6.845  1.00  0.00     0.048 A 
ATOM     79  C   UNL     1       5.799   1.896   6.392  1.00  0.00     0.012 A 
BRANCH  76  80
ATOM     80  O   UNL     1       3.267  -0.727   6.628  1.00  0.00    -0.507 OA
ATOM     81  H   UNL     1       3.002  -1.505   6.178  1.00  0.00     0.293 HD
ENDBRANCH  76  80
BRANCH  77  82
ATOM     82  C   UNL     1       7.690   2.289   4.851  1.00  0.00    -0.011 A 
ATOM     83  C   UNL     1       9.012   2.073   5.402  1.00  0.00     0.027 A 
ATOM     84  C   UNL     1       7.484   3.328   4.024  1.00  0.00     0.080 A 
ATOM     85  C   UNL     1       9.995   2.950   5.170  1.00  0.00     0.095 A 
ATOM     86  C   UNL     1       8.577   4.301   3.736  1.00  0.00     0.255 A 
ATOM     87  N   UNL     1       9.784   4.061   4.373  1.00  0.00    -0.258 N 
ATOM     88  O   UNL     1       8.332   5.258   3.008  1.00  0.00    -0.269 OA
BRANCH  87  89
ATOM     89  C   UNL     1      10.819   5.050   4.215  1.00  0.00     0.451 C 
ATOM     90  F   UNL     1      11.127   5.250   2.912  1.00  0.00    -0.185 F 
ATOM     91  F   UNL     1      10.429   6.239   4.741  1.00  0.00    -0.185 F 
ENDBRANCH  87  89
ENDBRANCH  77  82
ENDBRANCH  72  74
ENDBRANCH  71  72
ENDBRANCH  70  71
ENDBRANCH  69  70
ENDBRANCH  68  69
ENDBRANCH   1  68
TORSDOF 20
