REMARK SMILES O=C(OCCOCCOC(=O)c1ccc(N2C(=O)[C@@H]3N=NC(c4ccccc4)=C3[C@H]2c2cccc(Br)c2)cc1)c1ccc(-c2c3nc(c(-c4ccc(S(=O)(=O)[O-])cc4)c4ccc([nH]4)c(-c4ccc(S(=O)(=O)[O-])cc4)c4nc(c(-c5ccc(S(=O)(=O)[O-])cc5)c5ccc2[nH]5)C=C4)C=C3)cc1
REMARK SMILES IDX 5 1 4 2 3 3 2 4 1 5 40 6 41 7 99 8 42 9 98 10 43 11 44 12
REMARK SMILES IDX 45 13 92 14 46 15 97 16 91 17 93 18 47 19 96 20 90 21 89 22
REMARK SMILES IDX 48 24 78 25 59 26 77 27 60 28 63 29 76 30 94 31 61 32 62 33
REMARK SMILES IDX 75 35 95 36 64 37 49 38 50 39 58 40 51 41 57 42 52 43 53 44
REMARK SMILES IDX 54 45 55 46 56 47 79 48 80 49 88 50 81 51 87 52 82 53 83 54
REMARK SMILES IDX 84 55 85 56 86 57 65 58 66 59 74 60 67 61 73 62 68 63 69 64
REMARK SMILES IDX 70 65 71 66 72 67 6 68 7 69 8 70 9 71 10 72 11 73 12 74
REMARK SMILES IDX 13 75 39 76 14 77 38 78 15 79 16 80 17 81 30 82 19 83 18 84
REMARK SMILES IDX 29 85 20 86 22 87 21 88 31 89 32 90 37 91 33 92 35 93 34 94
REMARK SMILES IDX 36 95 23 96 24 97 28 98 25 99 27 100 26 101
REMARK H PARENT 93 23 63 34
REMARK Flexibility Score: inf
ROOT
ATOM      1  C   UNL     1       4.880   0.695   0.559  1.00  0.00     0.202 C 
ENDROOT
BRANCH   1   2
ATOM      2  C   UNL     1       4.572   0.657  -0.936  1.00  0.00     0.261 C 
BRANCH   2   3
ATOM      3  O   UNL     1       3.188   0.877  -1.260  1.00  0.00    -0.460 OA
BRANCH   3   4
ATOM      4  C   UNL     1       2.141   0.095  -0.923  1.00  0.00     0.338 C 
ATOM      5  O   UNL     1       1.100   0.618  -0.525  1.00  0.00    -0.246 OA
BRANCH   4   6
ATOM      6  C   UNL     1       2.137  -1.359  -1.234  1.00  0.00     0.060 A 
ATOM      7  C   UNL     1       3.248  -2.115  -1.600  1.00  0.00     0.016 A 
ATOM      8  C   UNL     1       0.866  -1.962  -1.277  1.00  0.00     0.016 A 
ATOM      9  C   UNL     1       3.077  -3.325  -2.245  1.00  0.00     0.010 A 
ATOM     10  C   UNL     1       0.692  -3.201  -1.865  1.00  0.00     0.010 A 
ATOM     11  C   UNL     1       1.790  -3.822  -2.442  1.00  0.00    -0.014 A 
BRANCH  11  12
ATOM     12  C   UNL     1       1.653  -5.051  -3.204  1.00  0.00     0.031 A 
ATOM     13  C   UNL     1       2.383  -6.204  -2.616  1.00  0.00     0.074 A 
ATOM     14  C   UNL     1       0.888  -5.136  -4.311  1.00  0.00     0.049 A 
ATOM     15  N   UNL     1       3.414  -6.814  -3.097  1.00  0.00    -0.248 NA
ATOM     16  C   UNL     1       2.033  -6.611  -1.246  1.00  0.00     0.031 C 
ATOM     17  C   UNL     1      -0.056  -4.153  -4.852  1.00  0.00     0.029 A 
ATOM     18  N   UNL     1       0.721  -6.195  -5.144  1.00  0.00    -0.354 N 
ATOM     19  C   UNL     1       3.722  -7.822  -2.189  1.00  0.00     0.074 A 
ATOM     20  C   UNL     1       2.948  -7.550  -1.004  1.00  0.00     0.031 C 
ATOM     21  C   UNL     1      -0.874  -4.762  -5.742  1.00  0.00     0.029 A 
ATOM     22  C   UNL     1      -0.409  -6.122  -5.950  1.00  0.00     0.049 A 
ATOM     23  H   UNL     1       1.350  -6.952  -5.175  1.00  0.00     0.167 HD
ATOM     24  C   UNL     1       4.424  -8.928  -2.559  1.00  0.00     0.031 A 
ATOM     25  C   UNL     1      -0.948  -7.134  -6.680  1.00  0.00     0.031 A 
ATOM     26  C   UNL     1       5.096  -8.736  -3.816  1.00  0.00     0.049 A 
ATOM     27  C   UNL     1       0.127  -8.141  -6.873  1.00  0.00     0.074 A 
ATOM     28  C   UNL     1       6.093  -7.892  -4.262  1.00  0.00     0.029 A 
ATOM     29  N   UNL     1       4.466  -9.214  -4.940  1.00  0.00    -0.354 N 
ATOM     30  N   UNL     1       1.207  -7.904  -7.567  1.00  0.00    -0.248 NA
ATOM     31  C   UNL     1       0.235  -9.215  -5.897  1.00  0.00     0.031 C 
ATOM     32  C   UNL     1       5.697  -7.530  -5.581  1.00  0.00     0.029 A 
ATOM     33  C   UNL     1       4.531  -8.233  -5.895  1.00  0.00     0.049 A 
ATOM     34  H   UNL     1       4.045 -10.099  -5.041  1.00  0.00     0.167 HD
ATOM     35  C   UNL     1       2.235  -8.482  -6.834  1.00  0.00     0.074 A 
ATOM     36  C   UNL     1       1.566  -9.340  -5.854  1.00  0.00     0.031 C 
ATOM     37  C   UNL     1       3.512  -8.005  -6.898  1.00  0.00     0.031 A 
BRANCH  24  38
ATOM     38  C   UNL     1       4.167 -10.302  -1.996  1.00  0.00    -0.014 A 
ATOM     39  C   UNL     1       4.967 -11.376  -2.434  1.00  0.00     0.010 A 
ATOM     40  C   UNL     1       2.992 -10.624  -1.286  1.00  0.00     0.010 A 
ATOM     41  C   UNL     1       4.567 -12.705  -2.241  1.00  0.00     0.020 A 
ATOM     42  C   UNL     1       2.605 -11.944  -1.053  1.00  0.00     0.020 A 
ATOM     43  C   UNL     1       3.378 -12.977  -1.564  1.00  0.00     0.054 A 
BRANCH  43  44
ATOM     44  S   UNL     1       2.816 -14.690  -1.417  1.00  0.00     0.124 S 
ATOM     45  O   UNL     1       2.559 -15.043  -2.810  1.00  0.00    -0.237 OA
ATOM     46  O   UNL     1       3.968 -15.340  -0.800  1.00  0.00    -0.237 OA
ATOM     47  O   UNL     1       1.632 -14.590  -0.566  1.00  0.00    -0.744 OA
ENDBRANCH  43  44
ENDBRANCH  24  38
BRANCH  25  48
ATOM     48  C   UNL     1      -2.394  -7.454  -6.840  1.00  0.00    -0.014 A 
ATOM     49  C   UNL     1      -2.841  -8.390  -7.793  1.00  0.00     0.010 A 
ATOM     50  C   UNL     1      -3.316  -7.045  -5.853  1.00  0.00     0.010 A 
ATOM     51  C   UNL     1      -4.140  -8.933  -7.728  1.00  0.00     0.020 A 
ATOM     52  C   UNL     1      -4.610  -7.577  -5.783  1.00  0.00     0.020 A 
ATOM     53  C   UNL     1      -5.011  -8.536  -6.709  1.00  0.00     0.054 A 
BRANCH  53  54
ATOM     54  S   UNL     1      -6.622  -9.362  -6.525  1.00  0.00     0.124 S 
ATOM     55  O   UNL     1      -7.360  -8.869  -7.684  1.00  0.00    -0.237 OA
ATOM     56  O   UNL     1      -6.261 -10.777  -6.561  1.00  0.00    -0.237 OA
ATOM     57  O   UNL     1      -7.109  -8.884  -5.232  1.00  0.00    -0.744 OA
ENDBRANCH  53  54
ENDBRANCH  25  48
BRANCH  37  58
ATOM     58  C   UNL     1       3.862  -6.993  -7.965  1.00  0.00    -0.014 A 
ATOM     59  C   UNL     1       3.342  -5.684  -8.012  1.00  0.00     0.010 A 
ATOM     60  C   UNL     1       4.922  -7.325  -8.827  1.00  0.00     0.010 A 
ATOM     61  C   UNL     1       3.874  -4.735  -8.902  1.00  0.00     0.020 A 
ATOM     62  C   UNL     1       5.466  -6.383  -9.700  1.00  0.00     0.020 A 
ATOM     63  C   UNL     1       4.940  -5.092  -9.737  1.00  0.00     0.054 A 
BRANCH  63  64
ATOM     64  S   UNL     1       5.689  -3.847 -10.827  1.00  0.00     0.124 S 
ATOM     65  O   UNL     1       4.641  -3.621 -11.818  1.00  0.00    -0.237 OA
ATOM     66  O   UNL     1       5.948  -2.732  -9.919  1.00  0.00    -0.237 OA
ATOM     67  O   UNL     1       6.889  -4.508 -11.338  1.00  0.00    -0.744 OA
ENDBRANCH  63  64
ENDBRANCH  37  58
ENDBRANCH  11  12
ENDBRANCH   4   6
ENDBRANCH   3   4
ENDBRANCH   2   3
ENDBRANCH   1   2
BRANCH   1  68
ATOM     68  O   UNL     1       4.378  -0.377   1.350  1.00  0.00    -0.374 OA
BRANCH  68  69
ATOM     69  C   UNL     1       3.159  -0.135   2.059  1.00  0.00     0.202 C 
BRANCH  69  70
ATOM     70  C   UNL     1       3.188   0.796   3.280  1.00  0.00     0.261 C 
BRANCH  70  71
ATOM     71  O   UNL     1       3.444   2.178   2.949  1.00  0.00    -0.460 OA
BRANCH  71  72
ATOM     72  C   UNL     1       4.702   2.604   3.195  1.00  0.00     0.338 C 
ATOM     73  O   UNL     1       5.618   1.949   3.684  1.00  0.00    -0.246 OA
BRANCH  72  74
ATOM     74  C   UNL     1       4.930   3.949   2.632  1.00  0.00     0.060 A 
ATOM     75  C   UNL     1       5.968   4.086   1.710  1.00  0.00     0.018 A 
ATOM     76  C   UNL     1       4.216   5.079   3.051  1.00  0.00     0.018 A 
ATOM     77  C   UNL     1       6.305   5.347   1.227  1.00  0.00     0.027 A 
ATOM     78  C   UNL     1       4.587   6.360   2.590  1.00  0.00     0.027 A 
ATOM     79  C   UNL     1       5.647   6.501   1.689  1.00  0.00     0.045 A 
BRANCH  79  80
ATOM     80  N   UNL     1       6.049   7.784   1.181  1.00  0.00    -0.299 N 
ATOM     81  C   UNL     1       6.137   7.827  -0.255  1.00  0.00     0.259 C 
ATOM     82  C   UNL     1       7.253   8.439   1.771  1.00  0.00     0.152 C 
ATOM     83  C   UNL     1       7.487   8.376  -0.618  1.00  0.00     0.248 C 
ATOM     84  O   UNL     1       5.289   7.429  -1.042  1.00  0.00    -0.271 OA
ATOM     85  C   UNL     1       8.187   8.109   0.664  1.00  0.00     0.021 C 
ATOM     86  N   UNL     1       8.288   7.598  -1.565  1.00  0.00    -0.170 NA
ATOM     87  C   UNL     1       9.358   7.562   0.345  1.00  0.00     0.097 C 
ATOM     88  N   UNL     1       9.389   7.293  -1.014  1.00  0.00    -0.154 NA
BRANCH  82  89
ATOM     89  C   UNL     1       7.198   9.988   1.825  1.00  0.00    -0.020 A 
ATOM     90  C   UNL     1       8.419  10.684   1.654  1.00  0.00     0.006 A 
ATOM     91  C   UNL     1       6.021  10.744   1.809  1.00  0.00     0.022 A 
ATOM     92  C   UNL     1       8.464  11.998   1.204  1.00  0.00     0.002 A 
ATOM     93  C   UNL     1       6.079  12.101   1.447  1.00  0.00     0.018 A 
ATOM     94  C   UNL     1       7.282  12.705   1.074  1.00  0.00     0.016 A 
ATOM     95  Br  UNL     1       4.500  13.142   1.401  1.00  0.00    -0.051 Br
ENDBRANCH  82  89
BRANCH  87  96
ATOM     96  C   UNL     1      10.518   7.147   1.145  1.00  0.00     0.002 A 
ATOM     97  C   UNL     1      11.395   8.092   1.701  1.00  0.00     0.010 A 
ATOM     98  C   UNL     1      10.934   5.812   1.075  1.00  0.00     0.010 A 
ATOM     99  C   UNL     1      12.691   7.726   2.083  1.00  0.00     0.001 A 
ATOM    100  C   UNL     1      12.231   5.449   1.448  1.00  0.00     0.001 A 
ATOM    101  C   UNL     1      13.118   6.412   1.922  1.00  0.00     0.000 A 
ENDBRANCH  87  96
ENDBRANCH  79  80
ENDBRANCH  72  74
ENDBRANCH  71  72
ENDBRANCH  70  71
ENDBRANCH  69  70
ENDBRANCH  68  69
ENDBRANCH   1  68
TORSDOF 20
