REMARK SMILES C[N@@H+]1CCN(C(=O)c2ccc3[nH]c4c(c3c2)CSCC4)C[C@H]1C(=O)OCCOCCOC(=O)c1ccc(-c2c3nc(c(-c4ccc(S(=O)(=O)[O-])cc4)c4ccc([nH]4)c(-c4ccc(S(=O)(=O)[O-])cc4)c4nc(c(-c5ccc(S(=O)(=O)[O-])cc5)c5ccc2[nH]5)C=C4)C=C3)cc1
REMARK SMILES IDX 29 1 28 2 27 3 26 4 25 5 23 6 24 7 22 8 1 9 2 10 3 11 4 13
REMARK SMILES IDX 21 14 5 15 6 16 7 17 8 18 9 19 16 20 10 21 15 22 11 23 14 24
REMARK SMILES IDX 12 25 13 26 17 27 20 29 18 30 19 31 30 32 31 33 32 34 33 35
REMARK SMILES IDX 34 36 35 37 93 38 36 39 92 40 37 41 38 42 39 43 86 44 40 45
REMARK SMILES IDX 91 46 85 47 87 48 41 49 90 50 84 51 83 52 42 54 72 55 53 56
REMARK SMILES IDX 71 57 54 58 57 59 70 60 88 61 55 62 56 63 69 65 89 66 58 67
REMARK SMILES IDX 43 68 44 69 52 70 45 71 51 72 46 73 47 74 48 75 49 76 50 77
REMARK SMILES IDX 73 78 74 79 82 80 75 81 81 82 76 83 77 84 78 85 79 86 80 87
REMARK SMILES IDX 59 88 60 89 68 90 61 91 67 92 62 93 63 94 64 95 65 96 66 97
REMARK H PARENT 2 12 12 28 87 53 57 64
REMARK Flexibility Score: inf
ROOT
ATOM      1  C   UNL     1       3.746  -2.779   0.355  1.00  0.00     0.202 C 
ENDROOT
BRANCH   1   2
ATOM      2  O   UNL     1       3.318  -4.140   0.377  1.00  0.00    -0.374 OA
BRANCH   2   3
ATOM      3  C   UNL     1       2.643  -4.648  -0.768  1.00  0.00     0.202 C 
BRANCH   3   4
ATOM      4  C   UNL     1       1.221  -4.172  -1.109  1.00  0.00     0.261 C 
BRANCH   4   5
ATOM      5  O   UNL     1       0.977  -2.758  -1.021  1.00  0.00    -0.459 OA
BRANCH   5   6
ATOM      6  C   UNL     1       0.427  -2.395   0.165  1.00  0.00     0.366 C 
ATOM      7  O   UNL     1       0.333  -3.146   1.137  1.00  0.00    -0.245 OA
BRANCH   6   8
ATOM      8  C   UNL     1      -0.156  -1.001   0.229  1.00  0.00     0.314 C 
ATOM      9  C   UNL     1       1.958   0.250  -0.142  1.00  0.00     0.333 C 
ATOM     10  N   UNL     1       0.537   0.159  -0.429  1.00  0.00    -0.323 N 
ATOM     11  C   UNL     1      -0.151   1.393   0.054  1.00  0.00     0.284 C 
ATOM     12  H   UNL     1       0.477   0.036  -1.440  1.00  0.00     0.348 HD
ATOM     13  C   UNL     1      -1.675   1.392  -0.217  1.00  0.00     0.181 C 
ATOM     14  C   UNL     1      -1.594  -1.062  -0.308  1.00  0.00     0.197 C 
ATOM     15  N   UNL     1      -2.301   0.130   0.180  1.00  0.00    -0.326 N 
BRANCH  15  16
ATOM     16  C   UNL     1      -3.417   0.123   1.002  1.00  0.00     0.254 C 
ATOM     17  O   UNL     1      -3.932   1.139   1.462  1.00  0.00    -0.269 OA
BRANCH  16  18
ATOM     18  C   UNL     1      -4.043  -1.180   1.307  1.00  0.00     0.040 A 
ATOM     19  C   UNL     1      -3.424  -2.096   2.163  1.00  0.00     0.016 A 
ATOM     20  C   UNL     1      -5.249  -1.476   0.663  1.00  0.00     0.024 A 
ATOM     21  C   UNL     1      -3.977  -3.367   2.354  1.00  0.00     0.027 A 
ATOM     22  C   UNL     1      -5.837  -2.736   0.874  1.00  0.00     0.004 A 
ATOM     23  C   UNL     1      -5.181  -3.656   1.698  1.00  0.00     0.046 A 
ATOM     24  C   UNL     1      -7.028  -3.360   0.392  1.00  0.00    -0.009 A 
ATOM     25  N   UNL     1      -5.922  -4.818   1.662  1.00  0.00    -0.358 N 
ATOM     26  C   UNL     1      -7.089  -4.602   0.984  1.00  0.00     0.021 A 
ATOM     27  C   UNL     1      -8.012  -2.801  -0.577  1.00  0.00     0.107 C 
ATOM     28  H   UNL     1      -5.651  -5.675   2.065  1.00  0.00     0.166 HD
ATOM     29  C   UNL     1      -8.171  -5.606   0.841  1.00  0.00     0.065 C 
ATOM     30  S   UNL     1      -9.554  -3.759  -0.814  1.00  0.00    -0.157 SA
ATOM     31  C   UNL     1      -9.507  -4.894   0.623  1.00  0.00     0.076 C 
ENDBRANCH  16  18
ENDBRANCH  15  16
ENDBRANCH   6   8
ENDBRANCH   5   6
ENDBRANCH   4   5
ENDBRANCH   3   4
ENDBRANCH   2   3
ENDBRANCH   1   2
BRANCH   1  32
ATOM     32  C   UNL     1       4.693  -2.329  -0.770  1.00  0.00     0.261 C 
BRANCH  32  33
ATOM     33  O   UNL     1       4.040  -2.372  -2.047  1.00  0.00    -0.460 OA
BRANCH  33  34
ATOM     34  C   UNL     1       4.867  -2.695  -3.075  1.00  0.00     0.338 C 
ATOM     35  O   UNL     1       6.059  -2.449  -3.164  1.00  0.00    -0.246 OA
BRANCH  34  36
ATOM     36  C   UNL     1       4.166  -3.750  -3.830  1.00  0.00     0.060 A 
ATOM     37  C   UNL     1       2.876  -3.551  -4.323  1.00  0.00     0.016 A 
ATOM     38  C   UNL     1       4.729  -5.036  -3.776  1.00  0.00     0.016 A 
ATOM     39  C   UNL     1       2.136  -4.660  -4.725  1.00  0.00     0.010 A 
ATOM     40  C   UNL     1       3.973  -6.143  -4.151  1.00  0.00     0.010 A 
ATOM     41  C   UNL     1       2.668  -5.960  -4.611  1.00  0.00    -0.014 A 
BRANCH  41  42
ATOM     42  C   UNL     1       1.902  -7.062  -5.205  1.00  0.00     0.031 A 
ATOM     43  C   UNL     1       1.718  -6.922  -6.677  1.00  0.00     0.074 A 
ATOM     44  C   UNL     1       1.506  -8.216  -4.628  1.00  0.00     0.049 A 
ATOM     45  N   UNL     1       0.615  -6.791  -7.336  1.00  0.00    -0.248 NA
ATOM     46  C   UNL     1       2.934  -6.812  -7.497  1.00  0.00     0.031 C 
ATOM     47  C   UNL     1       1.850  -8.751  -3.310  1.00  0.00     0.029 A 
ATOM     48  N   UNL     1       0.761  -9.221  -5.183  1.00  0.00    -0.354 N 
ATOM     49  C   UNL     1       0.978  -6.727  -8.679  1.00  0.00     0.074 A 
ATOM     50  C   UNL     1       2.416  -6.625  -8.710  1.00  0.00     0.031 C 
ATOM     51  C   UNL     1       1.506 -10.062  -3.258  1.00  0.00     0.029 A 
ATOM     52  C   UNL     1       0.786 -10.414  -4.473  1.00  0.00     0.049 A 
ATOM     53  H   UNL     1       0.249  -9.108  -6.017  1.00  0.00     0.167 HD
ATOM     54  C   UNL     1       0.087  -6.913  -9.691  1.00  0.00     0.031 A 
ATOM     55  C   UNL     1       0.295 -11.610  -4.885  1.00  0.00     0.031 A 
ATOM     56  C   UNL     1      -1.274  -6.826  -9.242  1.00  0.00     0.049 A 
ATOM     57  C   UNL     1      -0.707 -11.357  -5.945  1.00  0.00     0.074 A 
ATOM     58  C   UNL     1      -2.057  -5.835  -8.687  1.00  0.00     0.029 A 
ATOM     59  N   UNL     1      -1.945  -8.006  -9.038  1.00  0.00    -0.354 N 
ATOM     60  N   UNL     1      -1.856 -10.781  -5.741  1.00  0.00    -0.248 NA
ATOM     61  C   UNL     1      -0.309 -11.481  -7.338  1.00  0.00     0.031 C 
ATOM     62  C   UNL     1      -2.937  -6.511  -7.794  1.00  0.00     0.029 A 
ATOM     63  C   UNL     1      -2.663  -7.879  -7.876  1.00  0.00     0.049 A 
ATOM     64  H   UNL     1      -1.916  -8.799  -9.620  1.00  0.00     0.167 HD
ATOM     65  C   UNL     1      -2.124 -10.102  -6.917  1.00  0.00     0.074 A 
ATOM     66  C   UNL     1      -1.219 -10.684  -7.901  1.00  0.00     0.031 C 
ATOM     67  C   UNL     1      -2.853  -8.948  -6.914  1.00  0.00     0.031 A 
BRANCH  54  68
ATOM     68  C   UNL     1       0.455  -7.465 -11.044  1.00  0.00    -0.014 A 
ATOM     69  C   UNL     1       1.655  -8.164 -11.283  1.00  0.00     0.010 A 
ATOM     70  C   UNL     1      -0.520  -7.504 -12.062  1.00  0.00     0.010 A 
ATOM     71  C   UNL     1       1.892  -8.841 -12.480  1.00  0.00     0.020 A 
ATOM     72  C   UNL     1      -0.313  -8.222 -13.248  1.00  0.00     0.020 A 
ATOM     73  C   UNL     1       0.899  -8.880 -13.451  1.00  0.00     0.054 A 
BRANCH  73  74
ATOM     74  S   UNL     1       1.194  -9.876 -14.932  1.00  0.00     0.124 S 
ATOM     75  O   UNL     1       2.215  -9.092 -15.622  1.00  0.00    -0.237 OA
ATOM     76  O   UNL     1       1.648 -11.145 -14.370  1.00  0.00    -0.237 OA
ATOM     77  O   UNL     1      -0.112  -9.916 -15.585  1.00  0.00    -0.744 OA
ENDBRANCH  73  74
ENDBRANCH  54  68
BRANCH  55  78
ATOM     78  C   UNL     1       0.850 -12.972  -4.681  1.00  0.00    -0.014 A 
ATOM     79  C   UNL     1       2.242 -13.142  -4.557  1.00  0.00     0.010 A 
ATOM     80  C   UNL     1       0.068 -14.110  -4.969  1.00  0.00     0.010 A 
ATOM     81  C   UNL     1       2.844 -14.380  -4.813  1.00  0.00     0.020 A 
ATOM     82  C   UNL     1       0.665 -15.353  -5.230  1.00  0.00     0.020 A 
ATOM     83  C   UNL     1       2.055 -15.467  -5.191  1.00  0.00     0.054 A 
BRANCH  83  84
ATOM     84  S   UNL     1       2.889 -16.987  -5.733  1.00  0.00     0.124 S 
ATOM     85  O   UNL     1       3.536 -16.553  -6.968  1.00  0.00    -0.237 OA
ATOM     86  O   UNL     1       3.792 -17.265  -4.618  1.00  0.00    -0.237 OA
ATOM     87  O   UNL     1       1.798 -17.943  -5.900  1.00  0.00    -0.744 OA
ENDBRANCH  83  84
ENDBRANCH  55  78
BRANCH  67  88
ATOM     88  C   UNL     1      -3.676  -8.611  -5.689  1.00  0.00    -0.014 A 
ATOM     89  C   UNL     1      -5.017  -8.230  -5.887  1.00  0.00     0.010 A 
ATOM     90  C   UNL     1      -3.133  -8.493  -4.394  1.00  0.00     0.010 A 
ATOM     91  C   UNL     1      -5.781  -7.714  -4.838  1.00  0.00     0.020 A 
ATOM     92  C   UNL     1      -3.903  -8.006  -3.330  1.00  0.00     0.020 A 
ATOM     93  C   UNL     1      -5.215  -7.594  -3.568  1.00  0.00     0.054 A 
BRANCH  93  94
ATOM     94  S   UNL     1      -6.208  -6.856  -2.247  1.00  0.00     0.124 S 
ATOM     95  O   UNL     1      -6.205  -5.445  -2.623  1.00  0.00    -0.237 OA
ATOM     96  O   UNL     1      -7.491  -7.543  -2.386  1.00  0.00    -0.237 OA
ATOM     97  O   UNL     1      -5.473  -7.181  -1.024  1.00  0.00    -0.744 OA
ENDBRANCH  93  94
ENDBRANCH  67  88
ENDBRANCH  41  42
ENDBRANCH  34  36
ENDBRANCH  33  34
ENDBRANCH  32  33
ENDBRANCH   1  32
TORSDOF 19
