REMARK SMILES CC1(C)CCN(S(=O)(=O)c2ccc(O)c(C(=O)OCCOCCOC(=O)c3ccc(-c4c5nc(c(-c6ccc(S(=O)(=O)[O-])cc6)c6ccc([nH]6)c(-c6ccc(S(=O)(=O)[O-])cc6)c6nc(c(-c7ccc(S(=O)(=O)[O-])cc7)c7ccc4[nH]7)C=C6)C=C5)cc3)c2)C1
REMARK SMILES IDX 22 1 21 2 20 3 19 4 18 5 16 6 17 7 15 8 10 9 11 10 87 11
REMARK SMILES IDX 12 12 13 13 7 14 8 15 9 16 6 17 1 18 2 19 3 20 4 21 88 22
REMARK SMILES IDX 5 23 14 24 23 26 24 27 25 28 26 29 27 30 28 31 86 32 29 33
REMARK SMILES IDX 85 34 30 35 31 36 32 37 79 38 33 39 84 40 78 41 80 42 34 43
REMARK SMILES IDX 83 44 77 45 76 46 35 48 65 49 46 50 64 51 47 52 50 53 63 54
REMARK SMILES IDX 81 55 48 56 49 57 62 59 82 60 51 61 36 62 37 63 45 64 38 65
REMARK SMILES IDX 44 66 39 67 40 68 41 69 42 70 43 71 66 72 67 73 75 74 68 75
REMARK SMILES IDX 74 76 69 77 70 78 71 79 72 80 73 81 52 82 53 83 61 84 54 85
REMARK SMILES IDX 60 86 55 87 56 88 57 89 58 90 59 91
REMARK H PARENT 14 25 80 47 50 58
REMARK Flexibility Score: inf
ROOT
ATOM      1  C   UNL     1       6.606   5.885   1.581  1.00  0.00     0.202 C 
ENDROOT
BRANCH   1   2
ATOM      2  O   UNL     1       7.453   6.466   0.588  1.00  0.00    -0.374 OA
BRANCH   2   3
ATOM      3  C   UNL     1       6.997   7.676  -0.022  1.00  0.00     0.202 C 
BRANCH   3   4
ATOM      4  C   UNL     1       5.950   7.506  -1.126  1.00  0.00     0.261 C 
BRANCH   4   5
ATOM      5  O   UNL     1       4.726   7.005  -0.569  1.00  0.00    -0.460 OA
BRANCH   5   6
ATOM      6  C   UNL     1       4.246   5.857  -1.101  1.00  0.00     0.342 C 
ATOM      7  O   UNL     1       4.675   5.268  -2.080  1.00  0.00    -0.246 OA
BRANCH   6   8
ATOM      8  C   UNL     1       3.248   5.255  -0.184  1.00  0.00     0.103 A 
ATOM      9  C   UNL     1       2.482   3.240   0.919  1.00  0.00     0.083 A 
ATOM     10  C   UNL     1       1.536   3.983   1.632  1.00  0.00     0.025 A 
ATOM     11  C   UNL     1       3.344   3.869   0.019  1.00  0.00     0.041 A 
ATOM     12  C   UNL     1       1.423   5.357   1.412  1.00  0.00     0.048 A 
ATOM     13  C   UNL     1       2.279   5.992   0.508  1.00  0.00     0.130 A 
BRANCH   9  14
ATOM     14  S   UNL     1       2.654   1.499   1.234  1.00  0.00     0.243 S 
ATOM     15  O   UNL     1       2.206   1.242   2.587  1.00  0.00    -0.207 OA
ATOM     16  O   UNL     1       3.975   1.093   0.803  1.00  0.00    -0.207 OA
BRANCH  14  17
ATOM     17  N   UNL     1       1.522   0.805   0.171  1.00  0.00    -0.197 NA
ATOM     18  C   UNL     1      -0.974  -0.085  -1.551  1.00  0.00     0.012 C 
ATOM     19  C   UNL     1      -0.720  -0.052  -0.037  1.00  0.00    -0.020 C 
ATOM     20  C   UNL     1      -2.059  -0.099   0.704  1.00  0.00     0.012 C 
ATOM     21  C   UNL     1       0.207  -1.185   0.406  1.00  0.00     0.024 C 
ATOM     22  C   UNL     1       0.095   1.185   0.366  1.00  0.00     0.109 C 
ATOM     23  C   UNL     1       1.601  -0.678   0.061  1.00  0.00     0.103 C 
ENDBRANCH  14  17
ENDBRANCH   9  14
BRANCH  13  24
ATOM     24  O   UNL     1       2.146   7.334   0.297  1.00  0.00    -0.507 OA
ATOM     25  H   UNL     1       1.495   7.820   0.764  1.00  0.00     0.293 HD
ENDBRANCH  13  24
ENDBRANCH   6   8
ENDBRANCH   5   6
ENDBRANCH   4   5
ENDBRANCH   3   4
ENDBRANCH   2   3
ENDBRANCH   1   2
BRANCH   1  26
ATOM     26  C   UNL     1       6.693   6.495   2.986  1.00  0.00     0.261 C 
BRANCH  26  27
ATOM     27  O   UNL     1       6.195   7.845   3.030  1.00  0.00    -0.460 OA
BRANCH  27  28
ATOM     28  C   UNL     1       7.151   8.797   3.160  1.00  0.00     0.338 C 
ATOM     29  O   UNL     1       8.349   8.624   3.307  1.00  0.00    -0.246 OA
BRANCH  28  30
ATOM     30  C   UNL     1       6.564  10.132   2.930  1.00  0.00     0.060 A 
ATOM     31  C   UNL     1       7.192  10.963   1.993  1.00  0.00     0.016 A 
ATOM     32  C   UNL     1       5.467  10.591   3.662  1.00  0.00     0.016 A 
ATOM     33  C   UNL     1       6.752  12.274   1.817  1.00  0.00     0.010 A 
ATOM     34  C   UNL     1       5.031  11.909   3.487  1.00  0.00     0.010 A 
ATOM     35  C   UNL     1       5.692  12.767   2.588  1.00  0.00    -0.014 A 
BRANCH  35  36
ATOM     36  C   UNL     1       5.358  14.212   2.546  1.00  0.00     0.031 A 
ATOM     37  C   UNL     1       5.835  15.107   3.659  1.00  0.00     0.074 A 
ATOM     38  C   UNL     1       4.654  14.726   1.521  1.00  0.00     0.049 A 
ATOM     39  N   UNL     1       5.628  16.386   3.838  1.00  0.00    -0.248 NA
ATOM     40  C   UNL     1       6.650  14.475   4.709  1.00  0.00     0.031 C 
ATOM     41  C   UNL     1       4.172  13.971   0.364  1.00  0.00     0.029 A 
ATOM     42  N   UNL     1       4.220  16.007   1.292  1.00  0.00    -0.354 N 
ATOM     43  C   UNL     1       6.277  16.711   5.024  1.00  0.00     0.074 A 
ATOM     44  C   UNL     1       6.859  15.489   5.535  1.00  0.00     0.031 C 
ATOM     45  C   UNL     1       3.502  14.804  -0.450  1.00  0.00     0.029 A 
ATOM     46  C   UNL     1       3.478  16.140   0.143  1.00  0.00     0.049 A 
ATOM     47  H   UNL     1       4.420  16.760   1.894  1.00  0.00     0.167 HD
ATOM     48  C   UNL     1       6.382  17.918   5.630  1.00  0.00     0.031 A 
ATOM     49  C   UNL     1       2.834  17.211  -0.363  1.00  0.00     0.031 A 
ATOM     50  C   UNL     1       5.792  19.129   5.124  1.00  0.00     0.049 A 
ATOM     51  C   UNL     1       2.908  18.529   0.363  1.00  0.00     0.074 A 
ATOM     52  C   UNL     1       5.857  20.405   5.657  1.00  0.00     0.029 A 
ATOM     53  N   UNL     1       5.022  19.215   3.974  1.00  0.00    -0.354 N 
ATOM     54  N   UNL     1       3.545  18.825   1.472  1.00  0.00    -0.248 NA
ATOM     55  C   UNL     1       2.182  19.659  -0.234  1.00  0.00     0.031 C 
ATOM     56  C   UNL     1       5.079  21.251   4.860  1.00  0.00     0.029 A 
ATOM     57  C   UNL     1       4.583  20.516   3.795  1.00  0.00     0.049 A 
ATOM     58  H   UNL     1       4.818  18.462   3.373  1.00  0.00     0.167 HD
ATOM     59  C   UNL     1       3.322  20.181   1.687  1.00  0.00     0.074 A 
ATOM     60  C   UNL     1       2.499  20.649   0.590  1.00  0.00     0.031 C 
ATOM     61  C   UNL     1       3.764  20.969   2.698  1.00  0.00     0.031 A 
BRANCH  48  62
ATOM     62  C   UNL     1       7.138  17.979   6.932  1.00  0.00    -0.014 A 
ATOM     63  C   UNL     1       8.536  17.830   6.974  1.00  0.00     0.010 A 
ATOM     64  C   UNL     1       6.440  18.226   8.128  1.00  0.00     0.010 A 
ATOM     65  C   UNL     1       9.216  17.884   8.194  1.00  0.00     0.020 A 
ATOM     66  C   UNL     1       7.119  18.309   9.347  1.00  0.00     0.020 A 
ATOM     67  C   UNL     1       8.502  18.119   9.374  1.00  0.00     0.054 A 
BRANCH  67  68
ATOM     68  S   UNL     1       9.412  18.201  10.941  1.00  0.00     0.124 S 
ATOM     69  O   UNL     1       9.757  16.798  11.161  1.00  0.00    -0.237 OA
ATOM     70  O   UNL     1      10.532  19.080  10.616  1.00  0.00    -0.237 OA
ATOM     71  O   UNL     1       8.439  18.756  11.879  1.00  0.00    -0.744 OA
ENDBRANCH  67  68
ENDBRANCH  48  62
BRANCH  49  72
ATOM     72  C   UNL     1       2.049  17.077  -1.621  1.00  0.00    -0.014 A 
ATOM     73  C   UNL     1       2.482  17.691  -2.809  1.00  0.00     0.010 A 
ATOM     74  C   UNL     1       0.861  16.322  -1.635  1.00  0.00     0.010 A 
ATOM     75  C   UNL     1       1.735  17.563  -3.984  1.00  0.00     0.020 A 
ATOM     76  C   UNL     1       0.127  16.169  -2.814  1.00  0.00     0.020 A 
ATOM     77  C   UNL     1       0.564  16.800  -3.980  1.00  0.00     0.054 A 
BRANCH  77  78
ATOM     78  S   UNL     1      -0.358  16.600  -5.530  1.00  0.00     0.124 S 
ATOM     79  O   UNL     1      -0.972  17.914  -5.690  1.00  0.00    -0.237 OA
ATOM     80  O   UNL     1       0.698  16.273  -6.485  1.00  0.00    -0.237 OA
ATOM     81  O   UNL     1      -1.283  15.507  -5.238  1.00  0.00    -0.744 OA
ENDBRANCH  77  78
ENDBRANCH  49  72
BRANCH  61  82
ATOM     82  C   UNL     1       3.405  22.432   2.653  1.00  0.00    -0.014 A 
ATOM     83  C   UNL     1       2.097  22.874   2.918  1.00  0.00     0.010 A 
ATOM     84  C   UNL     1       4.412  23.384   2.406  1.00  0.00     0.010 A 
ATOM     85  C   UNL     1       1.797  24.239   2.908  1.00  0.00     0.020 A 
ATOM     86  C   UNL     1       4.123  24.750   2.423  1.00  0.00     0.020 A 
ATOM     87  C   UNL     1       2.813  25.169   2.662  1.00  0.00     0.054 A 
BRANCH  87  88
ATOM     88  S   UNL     1       2.409  26.937   2.706  1.00  0.00     0.124 S 
ATOM     89  O   UNL     1       1.668  27.111   1.460  1.00  0.00    -0.237 OA
ATOM     90  O   UNL     1       1.618  27.055   3.929  1.00  0.00    -0.237 OA
ATOM     91  O   UNL     1       3.715  27.591   2.751  1.00  0.00    -0.744 OA
ENDBRANCH  87  88
ENDBRANCH  61  82
ENDBRANCH  35  36
ENDBRANCH  28  30
ENDBRANCH  27  28
ENDBRANCH  26  27
ENDBRANCH   1  26
TORSDOF 20
