REMARK SMILES O=C(OCCOCCOC(=O)c1cccc(NC(=S)N/N=C\c2c[nH]c3ccccc23)c1)c1ccc(-c2c3nc(c(-c4ccc(S(=O)(=O)[O-])cc4)c4ccc([nH]4)c(-c4ccc(S(=O)(=O)[O-])cc4)c4nc(c(-c5ccc(S(=O)(=O)[O-])cc5)c5ccc2[nH]5)C=C4)C=C3)cc1
REMARK SMILES IDX 7 1 6 2 5 3 4 4 3 5 2 6 1 7 33 8 34 9 92 10 35 11 91 12
REMARK SMILES IDX 36 13 37 14 38 15 85 16 39 17 90 18 84 19 86 20 40 21 89 22
REMARK SMILES IDX 83 23 82 24 41 26 71 27 52 28 70 29 53 30 56 31 69 32 87 33
REMARK SMILES IDX 54 34 55 35 68 37 88 38 57 39 42 40 43 41 51 42 44 43 50 44
REMARK SMILES IDX 45 45 46 46 47 47 48 48 49 49 72 50 73 51 81 52 74 53 80 54
REMARK SMILES IDX 75 55 76 56 77 57 78 58 79 59 58 60 59 61 67 62 60 63 66 64
REMARK SMILES IDX 61 65 62 66 63 67 64 68 65 69 8 70 9 71 10 72 11 73 12 74
REMARK SMILES IDX 13 75 32 76 14 77 16 78 15 79 17 80 18 82 19 83 20 84 21 86
REMARK SMILES IDX 22 87 23 88 24 89 31 90 25 91 26 92 30 93 27 95 29 96 28 97
REMARK H PARENT 86 25 56 36 17 81 20 85 25 94
REMARK Flexibility Score: inf
ROOT
ATOM      1  C   UNL     1       2.768   0.317  -2.244  1.00  0.00     0.202 C 
ENDROOT
BRANCH   1   2
ATOM      2  O   UNL     1       4.084   0.015  -1.759  1.00  0.00    -0.374 OA
BRANCH   2   3
ATOM      3  C   UNL     1       4.250  -1.268  -1.149  1.00  0.00     0.202 C 
BRANCH   3   4
ATOM      4  C   UNL     1       3.866  -1.345   0.328  1.00  0.00     0.261 C 
BRANCH   4   5
ATOM      5  O   UNL     1       2.483  -0.996   0.495  1.00  0.00    -0.460 OA
BRANCH   5   6
ATOM      6  C   UNL     1       1.970   0.150   1.000  1.00  0.00     0.338 C 
ATOM      7  O   UNL     1       0.750   0.241   1.126  1.00  0.00    -0.246 OA
BRANCH   6   8
ATOM      8  C   UNL     1       2.810   1.312   1.420  1.00  0.00     0.060 A 
ATOM      9  C   UNL     1       4.040   1.652   0.853  1.00  0.00     0.016 A 
ATOM     10  C   UNL     1       2.275   2.166   2.397  1.00  0.00     0.016 A 
ATOM     11  C   UNL     1       4.768   2.744   1.300  1.00  0.00     0.010 A 
ATOM     12  C   UNL     1       2.977   3.299   2.818  1.00  0.00     0.010 A 
ATOM     13  C   UNL     1       4.242   3.570   2.288  1.00  0.00    -0.014 A 
BRANCH  13  14
ATOM     14  C   UNL     1       5.106   4.639   2.816  1.00  0.00     0.031 A 
ATOM     15  C   UNL     1       5.766   4.425   4.144  1.00  0.00     0.074 A 
ATOM     16  C   UNL     1       5.394   5.701   2.042  1.00  0.00     0.049 A 
ATOM     17  N   UNL     1       6.581   5.207   4.796  1.00  0.00    -0.248 NA
ATOM     18  C   UNL     1       5.484   3.146   4.820  1.00  0.00     0.031 C 
ATOM     19  C   UNL     1       4.891   5.914   0.681  1.00  0.00     0.029 A 
ATOM     20  N   UNL     1       6.214   6.773   2.264  1.00  0.00    -0.354 N 
ATOM     21  C   UNL     1       6.880   4.534   5.974  1.00  0.00     0.074 A 
ATOM     22  C   UNL     1       6.164   3.279   5.947  1.00  0.00     0.031 C 
ATOM     23  C   UNL     1       5.449   7.026   0.176  1.00  0.00     0.029 A 
ATOM     24  C   UNL     1       6.292   7.636   1.197  1.00  0.00     0.049 A 
ATOM     25  H   UNL     1       6.702   6.913   3.108  1.00  0.00     0.167 HD
ATOM     26  C   UNL     1       7.673   4.942   6.992  1.00  0.00     0.031 A 
ATOM     27  C   UNL     1       6.961   8.798   1.075  1.00  0.00     0.031 A 
ATOM     28  C   UNL     1       8.357   6.205   6.994  1.00  0.00     0.049 A 
ATOM     29  C   UNL     1       7.769   9.269   2.253  1.00  0.00     0.074 A 
ATOM     30  C   UNL     1       9.129   6.772   7.989  1.00  0.00     0.029 A 
ATOM     31  N   UNL     1       8.345   7.101   5.932  1.00  0.00    -0.354 N 
ATOM     32  N   UNL     1       7.985   8.661   3.398  1.00  0.00    -0.248 NA
ATOM     33  C   UNL     1       8.414  10.581   2.133  1.00  0.00     0.031 C 
ATOM     34  C   UNL     1       9.547   8.032   7.545  1.00  0.00     0.029 A 
ATOM     35  C   UNL     1       9.084   8.224   6.251  1.00  0.00     0.049 A 
ATOM     36  H   UNL     1       7.878   6.957   5.077  1.00  0.00     0.167 HD
ATOM     37  C   UNL     1       8.808   9.508   4.129  1.00  0.00     0.074 A 
ATOM     38  C   UNL     1       9.061  10.664   3.288  1.00  0.00     0.031 C 
ATOM     39  C   UNL     1       9.310   9.351   5.379  1.00  0.00     0.031 A 
BRANCH  26  40
ATOM     40  C   UNL     1       7.738   4.049   8.201  1.00  0.00    -0.014 A 
ATOM     41  C   UNL     1       8.422   2.820   8.179  1.00  0.00     0.010 A 
ATOM     42  C   UNL     1       7.042   4.423   9.364  1.00  0.00     0.010 A 
ATOM     43  C   UNL     1       8.354   1.954   9.276  1.00  0.00     0.020 A 
ATOM     44  C   UNL     1       6.993   3.573  10.472  1.00  0.00     0.020 A 
ATOM     45  C   UNL     1       7.627   2.331  10.410  1.00  0.00     0.054 A 
BRANCH  45  46
ATOM     46  S   UNL     1       7.515   1.175  11.804  1.00  0.00     0.124 S 
ATOM     47  O   UNL     1       6.567   0.186  11.298  1.00  0.00    -0.237 OA
ATOM     48  O   UNL     1       8.892   0.709  11.948  1.00  0.00    -0.237 OA
ATOM     49  O   UNL     1       7.024   2.004  12.902  1.00  0.00    -0.744 OA
ENDBRANCH  45  46
ENDBRANCH  26  40
BRANCH  27  50
ATOM     50  C   UNL     1       6.865   9.595  -0.180  1.00  0.00    -0.014 A 
ATOM     51  C   UNL     1       7.984   9.774  -1.012  1.00  0.00     0.010 A 
ATOM     52  C   UNL     1       5.637  10.169  -0.562  1.00  0.00     0.010 A 
ATOM     53  C   UNL     1       7.881  10.520  -2.192  1.00  0.00     0.020 A 
ATOM     54  C   UNL     1       5.523  10.892  -1.754  1.00  0.00     0.020 A 
ATOM     55  C   UNL     1       6.649  11.072  -2.557  1.00  0.00     0.054 A 
BRANCH  55  56
ATOM     56  S   UNL     1       6.525  11.996  -4.114  1.00  0.00     0.124 S 
ATOM     57  O   UNL     1       7.205  13.244  -3.782  1.00  0.00    -0.237 OA
ATOM     58  O   UNL     1       7.223  11.126  -5.056  1.00  0.00    -0.237 OA
ATOM     59  O   UNL     1       5.084  12.108  -4.331  1.00  0.00    -0.744 OA
ENDBRANCH  55  56
ENDBRANCH  27  50
BRANCH  39  60
ATOM     60  C   UNL     1      10.217  10.436   5.886  1.00  0.00    -0.014 A 
ATOM     61  C   UNL     1       9.706  11.677   6.300  1.00  0.00     0.010 A 
ATOM     62  C   UNL     1      11.595  10.179   6.000  1.00  0.00     0.010 A 
ATOM     63  C   UNL     1      10.567  12.659   6.793  1.00  0.00     0.020 A 
ATOM     64  C   UNL     1      12.454  11.149   6.516  1.00  0.00     0.020 A 
ATOM     65  C   UNL     1      11.936  12.389   6.896  1.00  0.00     0.054 A 
BRANCH  65  66
ATOM     66  S   UNL     1      13.030  13.661   7.582  1.00  0.00     0.124 S 
ATOM     67  O   UNL     1      13.158  14.587   6.460  1.00  0.00    -0.237 OA
ATOM     68  O   UNL     1      12.268  14.160   8.725  1.00  0.00    -0.237 OA
ATOM     69  O   UNL     1      14.244  12.924   7.925  1.00  0.00    -0.744 OA
ENDBRANCH  65  66
ENDBRANCH  39  60
ENDBRANCH  13  14
ENDBRANCH   6   8
ENDBRANCH   5   6
ENDBRANCH   4   5
ENDBRANCH   3   4
ENDBRANCH   2   3
ENDBRANCH   1   2
BRANCH   1  70
ATOM     70  C   UNL     1       2.872   0.974  -3.626  1.00  0.00     0.261 C 
BRANCH  70  71
ATOM     71  O   UNL     1       3.437   0.006  -4.525  1.00  0.00    -0.460 OA
BRANCH  71  72
ATOM     72  C   UNL     1       4.801   0.044  -4.556  1.00  0.00     0.338 C 
ATOM     73  O   UNL     1       5.494   1.025  -4.576  1.00  0.00    -0.246 OA
BRANCH  72  74
ATOM     74  C   UNL     1       5.305  -1.340  -4.332  1.00  0.00     0.062 A 
ATOM     75  C   UNL     1       6.567  -1.488  -3.742  1.00  0.00     0.016 A 
ATOM     76  C   UNL     1       4.508  -2.463  -4.569  1.00  0.00     0.041 A 
ATOM     77  C   UNL     1       7.021  -2.753  -3.372  1.00  0.00     0.003 A 
ATOM     78  C   UNL     1       5.005  -3.731  -4.273  1.00  0.00     0.041 A 
ATOM     79  C   UNL     1       6.241  -3.872  -3.642  1.00  0.00     0.026 A 
BRANCH  78  80
ATOM     80  N   UNL     1       4.228  -4.849  -4.590  1.00  0.00    -0.331 N 
ATOM     81  H   UNL     1       3.257  -4.748  -4.462  1.00  0.00     0.169 HD
BRANCH  80  82
ATOM     82  C   UNL     1       4.643  -6.059  -5.054  1.00  0.00     0.191 C 
ATOM     83  S   UNL     1       3.587  -7.359  -4.933  1.00  0.00    -0.039 S 
BRANCH  82  84
ATOM     84  N   UNL     1       5.820  -6.217  -5.738  1.00  0.00    -0.254 N 
ATOM     85  H   UNL     1       6.059  -7.143  -5.970  1.00  0.00     0.193 HD
BRANCH  84  86
ATOM     86  N   UNL     1       6.716  -5.244  -6.144  1.00  0.00    -0.181 NA
ATOM     87  C   UNL     1       6.500  -4.580  -7.253  1.00  0.00     0.143 C 
BRANCH  87  88
ATOM     88  C   UNL     1       5.312  -4.768  -8.056  1.00  0.00     0.020 A 
ATOM     89  C   UNL     1       4.036  -4.447  -7.640  1.00  0.00     0.093 A 
ATOM     90  C   UNL     1       5.123  -5.487  -9.264  1.00  0.00     0.008 A 
ATOM     91  N   UNL     1       3.271  -5.507  -8.048  1.00  0.00    -0.361 N 
ATOM     92  C   UNL     1       3.940  -6.189  -9.032  1.00  0.00     0.046 A 
ATOM     93  C   UNL     1       5.847  -5.767 -10.434  1.00  0.00     0.011 A 
ATOM     94  H   UNL     1       2.383  -5.741  -7.692  1.00  0.00     0.166 HD
ATOM     95  C   UNL     1       3.598  -7.347  -9.723  1.00  0.00     0.027 A 
ATOM     96  C   UNL     1       5.375  -6.781 -11.279  1.00  0.00     0.001 A 
ATOM     97  C   UNL     1       4.328  -7.613 -10.880  1.00  0.00     0.002 A 
ENDBRANCH  87  88
ENDBRANCH  84  86
ENDBRANCH  82  84
ENDBRANCH  80  82
ENDBRANCH  78  80
ENDBRANCH  72  74
ENDBRANCH  71  72
ENDBRANCH  70  71
ENDBRANCH   1  70
TORSDOF 22
