REMARK SMILES COC(=O)c1cc(F)cc(-c2ccc(C(=O)OCCOCCOC(=O)c3ccc(-c4c5nc(c(-c6ccc(S(=O)(=O)[O-])cc6)c6ccc([nH]6)c(-c6ccc(S(=O)(=O)[O-])cc6)c6nc(c(-c7ccc(S(=O)(=O)[O-])cc7)c7ccc4[nH]7)C=C6)C=C5)cc3)cc2C)c1
REMARK SMILES IDX 20 1 19 2 18 3 17 4 15 5 16 6 14 7 11 8 12 9 87 10 13 11
REMARK SMILES IDX 86 12 88 13 10 14 5 15 6 16 89 17 7 18 8 19 9 20 3 21 4 22
REMARK SMILES IDX 2 23 1 24 21 25 22 26 23 27 24 28 25 29 26 30 27 31 85 32
REMARK SMILES IDX 28 33 84 34 29 35 30 36 31 37 78 38 32 39 83 40 77 41 79 42
REMARK SMILES IDX 33 43 82 44 76 45 75 46 34 48 64 49 45 50 63 51 46 52 49 53
REMARK SMILES IDX 62 54 80 55 47 56 48 57 61 59 81 60 50 61 35 62 36 63 44 64
REMARK SMILES IDX 37 65 43 66 38 67 39 68 40 69 41 70 42 71 65 72 66 73 74 74
REMARK SMILES IDX 67 75 73 76 68 77 69 78 70 79 71 80 72 81 51 82 52 83 60 84
REMARK SMILES IDX 53 85 59 86 54 87 55 88 56 89 57 90 58 91
REMARK H PARENT 79 47 49 58
REMARK Flexibility Score: inf
ROOT
ATOM      1  O   UNL     1       3.972  11.692   1.450  1.00  0.00    -0.374 OA
ENDROOT
BRANCH   1   2
ATOM      2  C   UNL     1       4.618  11.250   0.263  1.00  0.00     0.202 C 
BRANCH   2   3
ATOM      3  C   UNL     1       5.803  10.404   0.677  1.00  0.00     0.261 C 
BRANCH   3   4
ATOM      4  O   UNL     1       5.444   9.168   1.316  1.00  0.00    -0.460 OA
BRANCH   4   5
ATOM      5  C   UNL     1       4.604   9.220   2.380  1.00  0.00     0.338 C 
ATOM      6  O   UNL     1       4.701   9.867   3.399  1.00  0.00    -0.246 OA
BRANCH   5   7
ATOM      7  C   UNL     1       3.427   8.390   2.053  1.00  0.00     0.060 A 
ATOM      8  C   UNL     1       1.200   6.811   1.486  1.00  0.00    -0.015 A 
ATOM      9  C   UNL     1       2.260   6.919   0.566  1.00  0.00     0.010 A 
ATOM     10  C   UNL     1       1.214   7.584   2.664  1.00  0.00    -0.042 A 
ATOM     11  C   UNL     1       3.370   7.684   0.852  1.00  0.00     0.016 A 
ATOM     12  C   UNL     1       2.341   8.375   2.934  1.00  0.00     0.019 A 
ATOM     13  C   UNL     1       0.078   7.620   3.648  1.00  0.00     0.045 C 
BRANCH   8  14
ATOM     14  C   UNL     1       0.254   5.731   1.231  1.00  0.00    -0.014 A 
ATOM     15  C   UNL     1      -0.027   3.327   0.951  1.00  0.00     0.063 A 
ATOM     16  C   UNL     1      -1.334   3.533   0.514  1.00  0.00     0.055 A 
ATOM     17  C   UNL     1       0.749   4.418   1.330  1.00  0.00     0.024 A 
ATOM     18  C   UNL     1      -1.835   4.832   0.457  1.00  0.00     0.124 A 
ATOM     19  F   UNL     1      -3.092   5.029   0.036  1.00  0.00    -0.207 F 
ATOM     20  C   UNL     1      -1.055   5.934   0.799  1.00  0.00     0.048 A 
BRANCH  15  21
ATOM     21  C   UNL     1       0.619   1.999   1.004  1.00  0.00     0.337 C 
ATOM     22  O   UNL     1       1.526   1.718   1.769  1.00  0.00    -0.246 OA
BRANCH  21  23
ATOM     23  O   UNL     1       0.128   1.208   0.019  1.00  0.00    -0.465 OA
ATOM     24  C   UNL     1       0.823  -0.033  -0.092  1.00  0.00     0.282 C 
ENDBRANCH  21  23
ENDBRANCH  15  21
ENDBRANCH   8  14
ENDBRANCH   5   7
ENDBRANCH   4   5
ENDBRANCH   3   4
ENDBRANCH   2   3
ENDBRANCH   1   2
BRANCH   1  25
ATOM     25  C   UNL     1       2.776  12.425   1.294  1.00  0.00     0.202 C 
BRANCH  25  26
ATOM     26  C   UNL     1       2.963  13.737   0.523  1.00  0.00     0.261 C 
BRANCH  26  27
ATOM     27  O   UNL     1       3.718  14.693   1.298  1.00  0.00    -0.460 OA
BRANCH  27  28
ATOM     28  C   UNL     1       5.031  14.838   0.943  1.00  0.00     0.338 C 
ATOM     29  O   UNL     1       5.399  15.425  -0.058  1.00  0.00    -0.246 OA
BRANCH  28  30
ATOM     30  C   UNL     1       5.911  14.158   1.937  1.00  0.00     0.060 A 
ATOM     31  C   UNL     1       7.245  13.823   1.641  1.00  0.00     0.016 A 
ATOM     32  C   UNL     1       5.322  13.657   3.090  1.00  0.00     0.016 A 
ATOM     33  C   UNL     1       7.935  12.873   2.424  1.00  0.00     0.010 A 
ATOM     34  C   UNL     1       5.955  12.642   3.771  1.00  0.00     0.010 A 
ATOM     35  C   UNL     1       7.261  12.222   3.452  1.00  0.00    -0.014 A 
BRANCH  35  36
ATOM     36  C   UNL     1       7.692  11.059   4.252  1.00  0.00     0.031 A 
ATOM     37  C   UNL     1       7.568  11.189   5.735  1.00  0.00     0.074 A 
ATOM     38  C   UNL     1       7.736   9.812   3.710  1.00  0.00     0.049 A 
ATOM     39  N   UNL     1       7.688  10.213   6.562  1.00  0.00    -0.248 NA
ATOM     40  C   UNL     1       7.288  12.454   6.427  1.00  0.00     0.031 C 
ATOM     41  C   UNL     1       7.328   8.555   4.351  1.00  0.00     0.029 A 
ATOM     42  N   UNL     1       8.195   9.385   2.465  1.00  0.00    -0.354 N 
ATOM     43  C   UNL     1       7.178  10.609   7.774  1.00  0.00     0.074 A 
ATOM     44  C   UNL     1       7.015  12.035   7.668  1.00  0.00     0.031 C 
ATOM     45  C   UNL     1       7.749   7.508   3.624  1.00  0.00     0.029 A 
ATOM     46  C   UNL     1       8.594   8.038   2.575  1.00  0.00     0.049 A 
ATOM     47  H   UNL     1       8.235   9.931   1.647  1.00  0.00     0.167 HD
ATOM     48  C   UNL     1       6.873   9.642   8.681  1.00  0.00     0.031 A 
ATOM     49  C   UNL     1       9.879   7.667   2.310  1.00  0.00     0.031 A 
ATOM     50  C   UNL     1       7.386   8.345   8.239  1.00  0.00     0.049 A 
ATOM     51  C   UNL     1      10.539   7.151   3.564  1.00  0.00     0.074 A 
ATOM     52  C   UNL     1       6.810   7.200   7.721  1.00  0.00     0.029 A 
ATOM     53  N   UNL     1       8.754   8.234   8.028  1.00  0.00    -0.354 N 
ATOM     54  N   UNL     1      10.063   7.391   4.755  1.00  0.00    -0.248 NA
ATOM     55  C   UNL     1      11.716   6.291   3.611  1.00  0.00     0.031 C 
ATOM     56  C   UNL     1       7.852   6.432   7.122  1.00  0.00     0.029 A 
ATOM     57  C   UNL     1       9.055   7.093   7.319  1.00  0.00     0.049 A 
ATOM     58  H   UNL     1       9.421   8.886   8.344  1.00  0.00     0.167 HD
ATOM     59  C   UNL     1      10.785   6.726   5.697  1.00  0.00     0.074 A 
ATOM     60  C   UNL     1      11.834   6.072   4.936  1.00  0.00     0.031 C 
ATOM     61  C   UNL     1      10.447   6.775   7.017  1.00  0.00     0.031 A 
BRANCH  48  62
ATOM     62  C   UNL     1       6.036   9.802   9.924  1.00  0.00    -0.014 A 
ATOM     63  C   UNL     1       5.824   8.671  10.743  1.00  0.00     0.010 A 
ATOM     64  C   UNL     1       5.374  10.983  10.310  1.00  0.00     0.010 A 
ATOM     65  C   UNL     1       5.002   8.712  11.876  1.00  0.00     0.020 A 
ATOM     66  C   UNL     1       4.564  11.045  11.458  1.00  0.00     0.020 A 
ATOM     67  C   UNL     1       4.376   9.903  12.230  1.00  0.00     0.054 A 
BRANCH  67  68
ATOM     68  S   UNL     1       3.307   9.929  13.692  1.00  0.00     0.124 S 
ATOM     69  O   UNL     1       2.243   9.001  13.318  1.00  0.00    -0.237 OA
ATOM     70  O   UNL     1       4.203   9.468  14.749  1.00  0.00    -0.237 OA
ATOM     71  O   UNL     1       2.896  11.328  13.798  1.00  0.00    -0.744 OA
ENDBRANCH  67  68
ENDBRANCH  48  62
BRANCH  49  72
ATOM     72  C   UNL     1      10.461   8.481   1.192  1.00  0.00    -0.014 A 
ATOM     73  C   UNL     1       9.939   8.204  -0.097  1.00  0.00     0.010 A 
ATOM     74  C   UNL     1      10.924   9.785   1.458  1.00  0.00     0.010 A 
ATOM     75  C   UNL     1       9.649   9.245  -0.989  1.00  0.00     0.020 A 
ATOM     76  C   UNL     1      10.640  10.828   0.558  1.00  0.00     0.020 A 
ATOM     77  C   UNL     1       9.934  10.560  -0.619  1.00  0.00     0.054 A 
BRANCH  77  78
ATOM     78  S   UNL     1       9.171  11.910  -1.580  1.00  0.00     0.124 S 
ATOM     79  O   UNL     1       9.759  11.725  -2.903  1.00  0.00    -0.237 OA
ATOM     80  O   UNL     1       7.745  11.598  -1.484  1.00  0.00    -0.237 OA
ATOM     81  O   UNL     1       9.583  13.117  -0.870  1.00  0.00    -0.744 OA
ENDBRANCH  77  78
ENDBRANCH  49  72
BRANCH  61  82
ATOM     82  C   UNL     1      11.386   6.494   8.161  1.00  0.00    -0.014 A 
ATOM     83  C   UNL     1      12.775   6.388   8.015  1.00  0.00     0.010 A 
ATOM     84  C   UNL     1      10.879   6.494   9.485  1.00  0.00     0.010 A 
ATOM     85  C   UNL     1      13.609   6.209   9.123  1.00  0.00     0.020 A 
ATOM     86  C   UNL     1      11.707   6.383  10.602  1.00  0.00     0.020 A 
ATOM     87  C   UNL     1      13.069   6.203  10.409  1.00  0.00     0.054 A 
BRANCH  87  88
ATOM     88  S   UNL     1      14.172   5.986  11.820  1.00  0.00     0.124 S 
ATOM     89  O   UNL     1      14.416   4.546  11.787  1.00  0.00    -0.237 OA
ATOM     90  O   UNL     1      15.317   6.822  11.465  1.00  0.00    -0.237 OA
ATOM     91  O   UNL     1      13.387   6.464  12.954  1.00  0.00    -0.744 OA
ENDBRANCH  87  88
ENDBRANCH  61  82
ENDBRANCH  35  36
ENDBRANCH  28  30
ENDBRANCH  27  28
ENDBRANCH  26  27
ENDBRANCH  25  26
ENDBRANCH   1  25
TORSDOF 20
