REMARK SMILES O=C(OCCOCCOC(=O)[C@H]1CC2=c3ccccc3=N[C@H]2[C@@H](c2ccccc2)[NH2+]1)c1ccc(-c2c3nc(c(-c4ccc(S(=O)(=O)[O-])cc4)c4ccc([nH]4)c(-c4ccc(S(=O)(=O)[O-])cc4)c4nc(c(-c5ccc(S(=O)(=O)[O-])cc5)c5ccc2[nH]5)C=C4)C=C3)cc1
REMARK SMILES IDX 5 1 4 2 3 3 2 4 1 5 31 6 32 7 90 8 33 9 89 10 34 11 35 12
REMARK SMILES IDX 36 13 83 14 37 15 88 16 82 17 84 18 38 19 87 20 81 21 80 22
REMARK SMILES IDX 39 24 69 25 50 26 68 27 51 28 54 29 67 30 85 31 52 32 53 33
REMARK SMILES IDX 66 35 86 36 55 37 40 38 41 39 49 40 42 41 48 42 43 43 44 44
REMARK SMILES IDX 45 45 46 46 47 47 70 48 71 49 79 50 72 51 78 52 73 53 74 54
REMARK SMILES IDX 75 55 76 56 77 57 56 58 57 59 65 60 58 61 64 62 59 63 60 64
REMARK SMILES IDX 61 65 62 66 63 67 6 68 7 69 8 70 9 71 10 72 11 73 12 74
REMARK SMILES IDX 13 75 30 76 14 77 23 78 15 81 22 82 16 83 20 84 21 85 17 86
REMARK SMILES IDX 19 87 18 88 24 89 25 90 29 91 26 92 28 93 27 94
REMARK H PARENT 84 23 54 34 30 79 30 80
REMARK Flexibility Score: inf
ROOT
ATOM      1  C   UNL     1       4.613   0.790   1.019  1.00  0.00     0.202 C 
ENDROOT
BRANCH   1   2
ATOM      2  C   UNL     1       4.508   1.117  -0.478  1.00  0.00     0.261 C 
BRANCH   2   3
ATOM      3  O   UNL     1       3.170   1.005  -0.979  1.00  0.00    -0.460 OA
BRANCH   3   4
ATOM      4  C   UNL     1       2.558  -0.071  -1.526  1.00  0.00     0.338 C 
ATOM      5  O   UNL     1       1.426   0.093  -1.983  1.00  0.00    -0.246 OA
BRANCH   4   6
ATOM      6  C   UNL     1       3.121  -1.464  -1.521  1.00  0.00     0.060 A 
ATOM      7  C   UNL     1       2.284  -2.479  -2.024  1.00  0.00     0.016 A 
ATOM      8  C   UNL     1       4.359  -1.853  -1.002  1.00  0.00     0.016 A 
ATOM      9  C   UNL     1       2.668  -3.822  -1.985  1.00  0.00     0.010 A 
ATOM     10  C   UNL     1       4.745  -3.183  -0.943  1.00  0.00     0.010 A 
ATOM     11  C   UNL     1       3.904  -4.170  -1.438  1.00  0.00    -0.014 A 
BRANCH  11  12
ATOM     12  C   UNL     1       4.459  -5.525  -1.521  1.00  0.00     0.031 A 
ATOM     13  C   UNL     1       4.531  -6.400  -0.314  1.00  0.00     0.074 A 
ATOM     14  C   UNL     1       5.071  -5.843  -2.675  1.00  0.00     0.049 A 
ATOM     15  N   UNL     1       4.995  -7.615  -0.220  1.00  0.00    -0.248 NA
ATOM     16  C   UNL     1       4.046  -5.836   0.958  1.00  0.00     0.031 C 
ATOM     17  C   UNL     1       5.146  -4.962  -3.846  1.00  0.00     0.029 A 
ATOM     18  N   UNL     1       5.768  -6.956  -3.047  1.00  0.00    -0.354 N 
ATOM     19  C   UNL     1       4.835  -7.978   1.111  1.00  0.00     0.074 A 
ATOM     20  C   UNL     1       4.288  -6.832   1.803  1.00  0.00     0.031 C 
ATOM     21  C   UNL     1       5.842  -5.576  -4.811  1.00  0.00     0.029 A 
ATOM     22  C   UNL     1       6.263  -6.885  -4.325  1.00  0.00     0.049 A 
ATOM     23  H   UNL     1       5.902  -7.733  -2.457  1.00  0.00     0.167 HD
ATOM     24  C   UNL     1       5.106  -9.176   1.677  1.00  0.00     0.031 A 
ATOM     25  C   UNL     1       6.959  -7.789  -5.037  1.00  0.00     0.031 A 
ATOM     26  C   UNL     1       5.691 -10.270   0.940  1.00  0.00     0.049 A 
ATOM     27  C   UNL     1       7.214  -9.123  -4.407  1.00  0.00     0.074 A 
ATOM     28  C   UNL     1       5.935 -11.561   1.368  1.00  0.00     0.029 A 
ATOM     29  N   UNL     1       6.138 -10.191  -0.374  1.00  0.00    -0.354 N 
ATOM     30  N   UNL     1       6.917  -9.519  -3.190  1.00  0.00    -0.248 NA
ATOM     31  C   UNL     1       7.856 -10.144  -5.239  1.00  0.00     0.031 C 
ATOM     32  C   UNL     1       6.597 -12.239   0.340  1.00  0.00     0.029 A 
ATOM     33  C   UNL     1       6.690 -11.399  -0.761  1.00  0.00     0.049 A 
ATOM     34  H   UNL     1       6.071  -9.392  -0.946  1.00  0.00     0.167 HD
ATOM     35  C   UNL     1       7.321 -10.843  -3.112  1.00  0.00     0.074 A 
ATOM     36  C   UNL     1       7.866 -11.184  -4.414  1.00  0.00     0.031 C 
ATOM     37  C   UNL     1       7.247 -11.698  -2.061  1.00  0.00     0.031 A 
BRANCH  24  38
ATOM     38  C   UNL     1       4.751  -9.393   3.128  1.00  0.00    -0.014 A 
ATOM     39  C   UNL     1       5.750  -9.720   4.064  1.00  0.00     0.010 A 
ATOM     40  C   UNL     1       3.406  -9.404   3.545  1.00  0.00     0.010 A 
ATOM     41  C   UNL     1       5.412 -10.088   5.372  1.00  0.00     0.020 A 
ATOM     42  C   UNL     1       3.065  -9.742   4.859  1.00  0.00     0.020 A 
ATOM     43  C   UNL     1       4.069 -10.108   5.757  1.00  0.00     0.054 A 
BRANCH  43  44
ATOM     44  S   UNL     1       3.644 -10.631   7.442  1.00  0.00     0.124 S 
ATOM     45  O   UNL     1       3.867 -12.072   7.383  1.00  0.00    -0.237 OA
ATOM     46  O   UNL     1       4.592  -9.878   8.260  1.00  0.00    -0.237 OA
ATOM     47  O   UNL     1       2.249 -10.221   7.587  1.00  0.00    -0.744 OA
ENDBRANCH  43  44
ENDBRANCH  24  38
BRANCH  25  48
ATOM     48  C   UNL     1       7.302  -7.459  -6.445  1.00  0.00    -0.014 A 
ATOM     49  C   UNL     1       8.248  -6.456  -6.734  1.00  0.00     0.010 A 
ATOM     50  C   UNL     1       6.532  -7.995  -7.491  1.00  0.00     0.010 A 
ATOM     51  C   UNL     1       8.359  -5.941  -8.029  1.00  0.00     0.020 A 
ATOM     52  C   UNL     1       6.660  -7.501  -8.792  1.00  0.00     0.020 A 
ATOM     53  C   UNL     1       7.545  -6.451  -9.044  1.00  0.00     0.054 A 
BRANCH  53  54
ATOM     54  S   UNL     1       7.614  -5.681 -10.686  1.00  0.00     0.124 S 
ATOM     55  O   UNL     1       6.934  -4.410 -10.449  1.00  0.00    -0.237 OA
ATOM     56  O   UNL     1       9.050  -5.590 -10.935  1.00  0.00    -0.237 OA
ATOM     57  O   UNL     1       6.894  -6.625 -11.538  1.00  0.00    -0.744 OA
ENDBRANCH  53  54
ENDBRANCH  25  48
BRANCH  37  58
ATOM     58  C   UNL     1       7.797 -13.085  -2.256  1.00  0.00    -0.014 A 
ATOM     59  C   UNL     1       6.928 -14.191  -2.226  1.00  0.00     0.010 A 
ATOM     60  C   UNL     1       9.184 -13.299  -2.329  1.00  0.00     0.010 A 
ATOM     61  C   UNL     1       7.438 -15.489  -2.219  1.00  0.00     0.020 A 
ATOM     62  C   UNL     1       9.697 -14.597  -2.356  1.00  0.00     0.020 A 
ATOM     63  C   UNL     1       8.821 -15.683  -2.272  1.00  0.00     0.054 A 
BRANCH  63  64
ATOM     64  S   UNL     1       9.467 -17.375  -2.214  1.00  0.00     0.124 S 
ATOM     65  O   UNL     1       9.287 -17.724  -0.808  1.00  0.00    -0.237 OA
ATOM     66  O   UNL     1       8.601 -18.081  -3.156  1.00  0.00    -0.237 OA
ATOM     67  O   UNL     1      10.855 -17.227  -2.648  1.00  0.00    -0.744 OA
ENDBRANCH  63  64
ENDBRANCH  37  58
ENDBRANCH  11  12
ENDBRANCH   4   6
ENDBRANCH   3   4
ENDBRANCH   2   3
ENDBRANCH   1   2
BRANCH   1  68
ATOM     68  O   UNL     1       4.063  -0.444   1.484  1.00  0.00    -0.374 OA
BRANCH  68  69
ATOM     69  C   UNL     1       2.639  -0.480   1.660  1.00  0.00     0.202 C 
BRANCH  69  70
ATOM     70  C   UNL     1       2.240  -0.531   3.134  1.00  0.00     0.261 C 
BRANCH  70  71
ATOM     71  O   UNL     1       2.358   0.808   3.635  1.00  0.00    -0.459 OA
BRANCH  71  72
ATOM     72  C   UNL     1       3.430   1.037   4.435  1.00  0.00     0.365 C 
ATOM     73  O   UNL     1       3.989   0.202   5.137  1.00  0.00    -0.245 OA
BRANCH  72  74
ATOM     74  C   UNL     1       3.933   2.464   4.215  1.00  0.00     0.298 C 
ATOM     75  C   UNL     1       2.804   3.525   4.321  1.00  0.00     0.111 C 
ATOM     76  N   UNL     1       5.220   2.671   4.933  1.00  0.00    -0.326 N 
ATOM     77  C   UNL     1       3.379   4.907   4.327  1.00  0.00    -0.024 C 
ATOM     78  C   UNL     1       5.387   4.021   5.498  1.00  0.00     0.243 C 
ATOM     79  H   UNL     1       5.983   2.502   4.277  1.00  0.00     0.347 HD
ATOM     80  H   UNL     1       5.223   2.022   5.720  1.00  0.00     0.347 HD
ATOM     81  C   UNL     1       2.820   6.095   4.523  1.00  0.00     0.002 A 
ATOM     82  C   UNL     1       4.878   5.012   4.390  1.00  0.00     0.196 C 
ATOM     83  C   UNL     1       1.494   6.573   4.736  1.00  0.00     0.010 A 
ATOM     84  C   UNL     1       3.994   6.978   4.672  1.00  0.00     0.066 A 
ATOM     85  N   UNL     1       5.180   6.447   4.626  1.00  0.00    -0.270 NA
ATOM     86  C   UNL     1       1.323   7.873   5.034  1.00  0.00     0.001 A 
ATOM     87  C   UNL     1       3.720   8.404   4.929  1.00  0.00     0.028 A 
ATOM     88  C   UNL     1       2.448   8.794   5.107  1.00  0.00     0.002 A 
BRANCH  78  89
ATOM     89  C   UNL     1       4.720   4.172   6.880  1.00  0.00     0.012 A 
ATOM     90  C   UNL     1       4.052   3.120   7.537  1.00  0.00     0.010 A 
ATOM     91  C   UNL     1       4.737   5.419   7.524  1.00  0.00     0.010 A 
ATOM     92  C   UNL     1       3.361   3.330   8.733  1.00  0.00     0.001 A 
ATOM     93  C   UNL     1       4.030   5.637   8.708  1.00  0.00     0.001 A 
ATOM     94  C   UNL     1       3.333   4.594   9.308  1.00  0.00     0.000 A 
ENDBRANCH  78  89
ENDBRANCH  72  74
ENDBRANCH  71  72
ENDBRANCH  70  71
ENDBRANCH  69  70
ENDBRANCH  68  69
ENDBRANCH   1  68
TORSDOF 18
