REMARK SMILES O=C(CS[C@H](C(=O)Nc1ccc(C(F)(F)F)cc1)c1ccccc1)OCCOCCOC(=O)c1ccc(-c2c3nc(c(-c4ccc(S(=O)(=O)[O-])cc4)c4ccc([nH]4)c(-c4ccc(S(=O)(=O)[O-])cc4)c4nc(c(-c5ccc(S(=O)(=O)[O-])cc5)c5ccc2[nH]5)C=C4)C=C3)cc1
REMARK SMILES IDX 27 1 26 2 25 3 2 4 1 5 3 6 4 7 5 8 19 9 20 10 24 11 21 12
REMARK SMILES IDX 23 13 22 14 6 15 7 16 8 17 9 19 10 20 18 21 11 22 17 23
REMARK SMILES IDX 12 24 13 25 14 26 15 27 16 28 28 29 29 30 30 31 31 32 32 33
REMARK SMILES IDX 33 34 34 35 35 36 93 37 36 38 92 39 37 40 38 41 39 42 86 43
REMARK SMILES IDX 40 44 91 45 85 46 87 47 41 48 90 49 84 50 83 51 42 53 72 54
REMARK SMILES IDX 53 55 71 56 54 57 57 58 70 59 88 60 55 61 56 62 69 64 89 65
REMARK SMILES IDX 58 66 43 67 44 68 52 69 45 70 51 71 46 72 47 73 48 74 49 75
REMARK SMILES IDX 50 76 73 77 74 78 82 79 75 80 81 81 76 82 77 83 78 84 79 85
REMARK SMILES IDX 80 86 59 87 60 88 68 89 61 90 67 91 62 92 63 93 64 94 65 95
REMARK SMILES IDX 66 96
REMARK H PARENT 8 18 87 52 57 63
REMARK Flexibility Score: inf
ROOT
ATOM      1  C   UNL     1       2.500  -1.655  -0.706  1.00  0.00     0.202 C 
ENDROOT
BRANCH   1   2
ATOM      2  C   UNL     1       1.766  -0.332  -0.941  1.00  0.00     0.261 C 
BRANCH   2   3
ATOM      3  O   UNL     1       0.460  -0.432  -1.533  1.00  0.00    -0.463 OA
BRANCH   3   4
ATOM      4  C   UNL     1       0.164  -0.630  -2.835  1.00  0.00     0.316 C 
ATOM      5  O   UNL     1      -1.015  -0.651  -3.186  1.00  0.00    -0.251 OA
BRANCH   4   6
ATOM      6  C   UNL     1       1.288  -0.807  -3.815  1.00  0.00     0.193 C 
BRANCH   6   7
ATOM      7  S   UNL     1       1.551   0.656  -4.884  1.00  0.00    -0.132 SA
BRANCH   7   8
ATOM      8  C   UNL     1       2.837   1.690  -3.981  1.00  0.00     0.166 C 
BRANCH   8   9
ATOM      9  C   UNL     1       2.185   2.869  -3.267  1.00  0.00    -0.026 A 
ATOM     10  C   UNL     1       2.692   4.168  -3.474  1.00  0.00     0.005 A 
ATOM     11  C   UNL     1       1.060   2.760  -2.432  1.00  0.00     0.005 A 
ATOM     12  C   UNL     1       2.152   5.279  -2.810  1.00  0.00     0.000 A 
ATOM     13  C   UNL     1       0.521   3.865  -1.764  1.00  0.00     0.000 A 
ATOM     14  C   UNL     1       1.079   5.123  -1.939  1.00  0.00     0.000 A 
ENDBRANCH   8   9
BRANCH   8  15
ATOM     15  C   UNL     1       3.962   0.816  -3.356  1.00  0.00     0.242 C 
ATOM     16  O   UNL     1       4.148  -0.345  -3.767  1.00  0.00    -0.273 OA
ATOM     17  N   UNL     1       4.949   1.199  -2.501  1.00  0.00    -0.325 N 
ATOM     18  H   UNL     1       5.582   0.475  -2.291  1.00  0.00     0.169 HD
BRANCH  17  19
ATOM     19  C   UNL     1       5.255   2.396  -1.861  1.00  0.00     0.041 A 
ATOM     20  C   UNL     1       6.569   2.856  -1.971  1.00  0.00     0.027 A 
ATOM     21  C   UNL     1       4.345   3.114  -1.103  1.00  0.00     0.027 A 
ATOM     22  C   UNL     1       6.895   4.143  -1.542  1.00  0.00     0.015 A 
ATOM     23  C   UNL     1       4.665   4.405  -0.677  1.00  0.00     0.015 A 
ATOM     24  C   UNL     1       5.916   4.962  -0.968  1.00  0.00     0.056 A 
BRANCH  24  25
ATOM     25  C   UNL     1       6.193   6.427  -0.720  1.00  0.00     0.416 C 
ATOM     26  F   UNL     1       6.879   6.646   0.429  1.00  0.00    -0.166 F 
ATOM     27  F   UNL     1       6.934   6.975  -1.724  1.00  0.00    -0.166 F 
ATOM     28  F   UNL     1       5.053   7.167  -0.648  1.00  0.00    -0.166 F 
ENDBRANCH  24  25
ENDBRANCH  17  19
ENDBRANCH   8  15
ENDBRANCH   7   8
ENDBRANCH   6   7
ENDBRANCH   4   6
ENDBRANCH   3   4
ENDBRANCH   2   3
ENDBRANCH   1   2
BRANCH   1  29
ATOM     29  O   UNL     1       1.739  -2.850  -0.643  1.00  0.00    -0.374 OA
BRANCH  29  30
ATOM     30  C   UNL     1       0.508  -2.871   0.070  1.00  0.00     0.202 C 
BRANCH  30  31
ATOM     31  C   UNL     1       0.527  -2.577   1.572  1.00  0.00     0.261 C 
BRANCH  31  32
ATOM     32  O   UNL     1       0.953  -1.243   1.905  1.00  0.00    -0.460 OA
BRANCH  32  33
ATOM     33  C   UNL     1       2.150  -1.176   2.531  1.00  0.00     0.338 C 
ATOM     34  O   UNL     1       2.904  -2.112   2.769  1.00  0.00    -0.246 OA
BRANCH  33  35
ATOM     35  C   UNL     1       2.542   0.217   2.811  1.00  0.00     0.060 A 
ATOM     36  C   UNL     1       3.832   0.614   2.434  1.00  0.00     0.016 A 
ATOM     37  C   UNL     1       1.746   1.050   3.603  1.00  0.00     0.016 A 
ATOM     38  C   UNL     1       4.374   1.793   2.941  1.00  0.00     0.010 A 
ATOM     39  C   UNL     1       2.296   2.230   4.118  1.00  0.00     0.010 A 
ATOM     40  C   UNL     1       3.636   2.564   3.849  1.00  0.00    -0.014 A 
BRANCH  40  41
ATOM     41  C   UNL     1       4.353   3.541   4.709  1.00  0.00     0.031 A 
ATOM     42  C   UNL     1       4.810   3.090   6.074  1.00  0.00     0.074 A 
ATOM     43  C   UNL     1       4.644   4.780   4.280  1.00  0.00     0.049 A 
ATOM     44  N   UNL     1       5.466   3.754   6.991  1.00  0.00    -0.248 NA
ATOM     45  C   UNL     1       4.478   1.707   6.457  1.00  0.00     0.031 C 
ATOM     46  C   UNL     1       4.287   5.325   2.974  1.00  0.00     0.029 A 
ATOM     47  N   UNL     1       5.314   5.804   4.902  1.00  0.00    -0.354 N 
ATOM     48  C   UNL     1       5.609   2.878   8.062  1.00  0.00     0.074 A 
ATOM     49  C   UNL     1       4.953   1.644   7.691  1.00  0.00     0.031 C 
ATOM     50  C   UNL     1       4.752   6.583   2.884  1.00  0.00     0.029 A 
ATOM     51  C   UNL     1       5.416   6.941   4.137  1.00  0.00     0.049 A 
ATOM     52  H   UNL     1       5.687   5.730   5.810  1.00  0.00     0.167 HD
ATOM     53  C   UNL     1       6.230   3.078   9.249  1.00  0.00     0.031 A 
ATOM     54  C   UNL     1       5.972   8.136   4.420  1.00  0.00     0.031 A 
ATOM     55  C   UNL     1       6.877   4.306   9.624  1.00  0.00     0.049 A 
ATOM     56  C   UNL     1       6.627   8.349   5.761  1.00  0.00     0.074 A 
ATOM     57  C   UNL     1       7.541   4.605  10.801  1.00  0.00     0.029 A 
ATOM     58  N   UNL     1       6.938   5.441   8.831  1.00  0.00    -0.354 N 
ATOM     59  N   UNL     1       6.765   7.505   6.756  1.00  0.00    -0.248 NA
ATOM     60  C   UNL     1       7.208   9.676   6.012  1.00  0.00     0.031 C 
ATOM     61  C   UNL     1       7.967   5.936  10.736  1.00  0.00     0.029 A 
ATOM     62  C   UNL     1       7.616   6.447   9.496  1.00  0.00     0.049 A 
ATOM     63  H   UNL     1       6.555   5.519   7.927  1.00  0.00     0.167 HD
ATOM     64  C   UNL     1       7.479   8.188   7.736  1.00  0.00     0.074 A 
ATOM     65  C   UNL     1       7.749   9.511   7.211  1.00  0.00     0.031 C 
ATOM     66  C   UNL     1       7.882   7.757   8.958  1.00  0.00     0.031 A 
BRANCH  53  67
ATOM     67  C   UNL     1       6.199   1.948  10.242  1.00  0.00    -0.014 A 
ATOM     68  C   UNL     1       6.963   0.783  10.049  1.00  0.00     0.010 A 
ATOM     69  C   UNL     1       5.399   2.060  11.394  1.00  0.00     0.010 A 
ATOM     70  C   UNL     1       6.894  -0.268  10.968  1.00  0.00     0.020 A 
ATOM     71  C   UNL     1       5.348   1.023  12.329  1.00  0.00     0.020 A 
ATOM     72  C   UNL     1       6.082  -0.143  12.099  1.00  0.00     0.054 A 
BRANCH  72  73
ATOM     73  S   UNL     1       6.014  -1.517  13.282  1.00  0.00     0.124 S 
ATOM     74  O   UNL     1       5.184  -2.486  12.570  1.00  0.00    -0.237 OA
ATOM     75  O   UNL     1       7.421  -1.884  13.430  1.00  0.00    -0.237 OA
ATOM     76  O   UNL     1       5.401  -0.924  14.467  1.00  0.00    -0.744 OA
ENDBRANCH  72  73
ENDBRANCH  53  67
BRANCH  54  77
ATOM     77  C   UNL     1       5.938   9.232   3.413  1.00  0.00    -0.014 A 
ATOM     78  C   UNL     1       7.115   9.649   2.767  1.00  0.00     0.010 A 
ATOM     79  C   UNL     1       4.724   9.872   3.102  1.00  0.00     0.010 A 
ATOM     80  C   UNL     1       7.083  10.699   1.844  1.00  0.00     0.020 A 
ATOM     81  C   UNL     1       4.684  10.904   2.160  1.00  0.00     0.020 A 
ATOM     82  C   UNL     1       5.867  11.319   1.546  1.00  0.00     0.054 A 
BRANCH  82  83
ATOM     83  S   UNL     1       5.839  12.649   0.311  1.00  0.00     0.124 S 
ATOM     84  O   UNL     1       6.406  13.768   1.058  1.00  0.00    -0.237 OA
ATOM     85  O   UNL     1       6.677  12.110  -0.757  1.00  0.00    -0.237 OA
ATOM     86  O   UNL     1       4.421  12.773  -0.023  1.00  0.00    -0.744 OA
ENDBRANCH  82  83
ENDBRANCH  54  77
BRANCH  66  87
ATOM     87  C   UNL     1       8.709   8.702   9.790  1.00  0.00    -0.014 A 
ATOM     88  C   UNL     1       8.140   9.829  10.407  1.00  0.00     0.010 A 
ATOM     89  C   UNL     1      10.075   8.428   9.987  1.00  0.00     0.010 A 
ATOM     90  C   UNL     1       8.934  10.691  11.171  1.00  0.00     0.020 A 
ATOM     91  C   UNL     1      10.865   9.272  10.772  1.00  0.00     0.020 A 
ATOM     92  C   UNL     1      10.293  10.410  11.343  1.00  0.00     0.054 A 
BRANCH  92  93
ATOM     93  S   UNL     1      11.301  11.529  12.354  1.00  0.00     0.124 S 
ATOM     94  O   UNL     1      11.507  12.654  11.447  1.00  0.00    -0.237 OA
ATOM     95  O   UNL     1      10.436  11.796  13.501  1.00  0.00    -0.237 OA
ATOM     96  O   UNL     1      12.495  10.743  12.653  1.00  0.00    -0.744 OA
ENDBRANCH  92  93
ENDBRANCH  66  87
ENDBRANCH  40  41
ENDBRANCH  33  35
ENDBRANCH  32  33
ENDBRANCH  31  32
ENDBRANCH  30  31
ENDBRANCH  29  30
ENDBRANCH   1  29
TORSDOF 23
