REMARK SMILES O=C(OCCOCCOC(=O)[C@H]1CC[C@H]2CCCC[C@@H]2[N@H+]1[C@@H]1CCCSC1)c1ccc(-c2c3nc(c(-c4ccc(S(=O)(=O)[O-])cc4)c4ccc([nH]4)c(-c4ccc(S(=O)(=O)[O-])cc4)c4nc(c(-c5ccc(S(=O)(=O)[O-])cc5)c5ccc2[nH]5)C=C4)C=C3)cc1
REMARK SMILES IDX 5 1 4 2 3 3 2 4 1 5 28 6 29 7 87 8 30 9 86 10 31 11 32 12
REMARK SMILES IDX 33 13 80 14 34 15 85 16 79 17 81 18 35 19 84 20 78 21 77 22
REMARK SMILES IDX 36 24 66 25 47 26 65 27 48 28 51 29 64 30 82 31 49 32 50 33
REMARK SMILES IDX 63 35 83 36 52 37 37 38 38 39 46 40 39 41 45 42 40 43 41 44
REMARK SMILES IDX 42 45 43 46 44 47 67 48 68 49 76 50 69 51 75 52 70 53 71 54
REMARK SMILES IDX 72 55 73 56 74 57 53 58 54 59 62 60 55 61 61 62 56 63 57 64
REMARK SMILES IDX 58 65 59 66 60 67 6 68 7 69 8 70 9 71 10 72 11 73 12 74
REMARK SMILES IDX 13 75 21 76 14 77 20 78 15 80 19 81 16 82 18 83 17 84 22 85
REMARK SMILES IDX 23 86 27 87 24 88 26 89 25 90
REMARK H PARENT 81 23 51 34 21 79
REMARK Flexibility Score: inf
ROOT
ATOM      1  C   UNL     1       4.222   1.446  -0.588  1.00  0.00     0.202 C 
ENDROOT
BRANCH   1   2
ATOM      2  C   UNL     1       3.958   0.152  -1.371  1.00  0.00     0.261 C 
BRANCH   2   3
ATOM      3  O   UNL     1       2.596  -0.283  -1.207  1.00  0.00    -0.460 OA
BRANCH   3   4
ATOM      4  C   UNL     1       2.110  -1.220  -0.357  1.00  0.00     0.338 C 
ATOM      5  O   UNL     1       0.900  -1.446  -0.364  1.00  0.00    -0.246 OA
BRANCH   4   6
ATOM      6  C   UNL     1       2.965  -1.998   0.591  1.00  0.00     0.060 A 
ATOM      7  C   UNL     1       4.190  -1.562   1.089  1.00  0.00     0.016 A 
ATOM      8  C   UNL     1       2.459  -3.219   1.074  1.00  0.00     0.016 A 
ATOM      9  C   UNL     1       4.934  -2.323   1.966  1.00  0.00     0.010 A 
ATOM     10  C   UNL     1       3.180  -3.975   2.007  1.00  0.00     0.010 A 
ATOM     11  C   UNL     1       4.430  -3.527   2.441  1.00  0.00    -0.014 A 
BRANCH  11  12
ATOM     12  C   UNL     1       5.326  -4.293   3.318  1.00  0.00     0.031 A 
ATOM     13  C   UNL     1       6.075  -5.447   2.730  1.00  0.00     0.074 A 
ATOM     14  C   UNL     1       5.622  -3.787   4.531  1.00  0.00     0.049 A 
ATOM     15  N   UNL     1       6.981  -6.204   3.283  1.00  0.00    -0.248 NA
ATOM     16  C   UNL     1       5.787  -5.775   1.322  1.00  0.00     0.031 C 
ATOM     17  C   UNL     1       5.034  -2.567   5.100  1.00  0.00     0.029 A 
ATOM     18  N   UNL     1       6.532  -4.183   5.470  1.00  0.00    -0.354 N 
ATOM     19  C   UNL     1       7.365  -7.103   2.297  1.00  0.00     0.074 A 
ATOM     20  C   UNL     1       6.587  -6.811   1.116  1.00  0.00     0.031 C 
ATOM     21  C   UNL     1       5.632  -2.295   6.270  1.00  0.00     0.029 A 
ATOM     22  C   UNL     1       6.585  -3.356   6.568  1.00  0.00     0.049 A 
ATOM     23  H   UNL     1       7.097  -4.984   5.371  1.00  0.00     0.167 HD
ATOM     24  C   UNL     1       8.289  -8.086   2.383  1.00  0.00     0.031 A 
ATOM     25  C   UNL     1       7.303  -3.470   7.700  1.00  0.00     0.031 A 
ATOM     26  C   UNL     1       9.029  -8.358   3.584  1.00  0.00     0.049 A 
ATOM     27  C   UNL     1       8.230  -4.649   7.813  1.00  0.00     0.074 A 
ATOM     28  C   UNL     1       9.911  -9.389   3.844  1.00  0.00     0.029 A 
ATOM     29  N   UNL     1       8.972  -7.575   4.731  1.00  0.00    -0.354 N 
ATOM     30  N   UNL     1       8.513  -5.561   6.910  1.00  0.00    -0.248 NA
ATOM     31  C   UNL     1       8.926  -4.825   9.091  1.00  0.00     0.031 C 
ATOM     32  C   UNL     1      10.350  -9.256   5.166  1.00  0.00     0.029 A 
ATOM     33  C   UNL     1       9.790  -8.108   5.709  1.00  0.00     0.049 A 
ATOM     34  H   UNL     1       8.428  -6.761   4.832  1.00  0.00     0.167 HD
ATOM     35  C   UNL     1       9.424  -6.419   7.510  1.00  0.00     0.074 A 
ATOM     36  C   UNL     1       9.672  -5.892   8.839  1.00  0.00     0.031 C 
ATOM     37  C   UNL     1       9.997  -7.548   7.021  1.00  0.00     0.031 A 
BRANCH  24  38
ATOM     38  C   UNL     1       8.474  -8.963   1.177  1.00  0.00    -0.014 A 
ATOM     39  C   UNL     1       9.132  -8.498   0.024  1.00  0.00     0.010 A 
ATOM     40  C   UNL     1       7.963 -10.274   1.192  1.00  0.00     0.010 A 
ATOM     41  C   UNL     1       9.249  -9.318  -1.103  1.00  0.00     0.020 A 
ATOM     42  C   UNL     1       8.098 -11.104   0.076  1.00  0.00     0.020 A 
ATOM     43  C   UNL     1       8.729 -10.616  -1.070  1.00  0.00     0.054 A 
BRANCH  43  44
ATOM     44  S   UNL     1       8.909 -11.665  -2.538  1.00  0.00     0.124 S 
ATOM     45  O   UNL     1       7.973 -11.043  -3.471  1.00  0.00    -0.237 OA
ATOM     46  O   UNL     1      10.323 -11.509  -2.871  1.00  0.00    -0.237 OA
ATOM     47  O   UNL     1       8.526 -12.994  -2.066  1.00  0.00    -0.744 OA
ENDBRANCH  43  44
ENDBRANCH  24  38
BRANCH  25  48
ATOM     48  C   UNL     1       7.097  -2.519   8.831  1.00  0.00    -0.014 A 
ATOM     49  C   UNL     1       8.136  -1.707   9.316  1.00  0.00     0.010 A 
ATOM     50  C   UNL     1       5.836  -2.449   9.458  1.00  0.00     0.010 A 
ATOM     51  C   UNL     1       7.930  -0.876  10.424  1.00  0.00     0.020 A 
ATOM     52  C   UNL     1       5.616  -1.595  10.541  1.00  0.00     0.020 A 
ATOM     53  C   UNL     1       6.672  -0.830  11.033  1.00  0.00     0.054 A 
BRANCH  53  54
ATOM     54  S   UNL     1       6.421   0.250  12.470  1.00  0.00     0.124 S 
ATOM     55  O   UNL     1       7.126  -0.476  13.521  1.00  0.00    -0.237 OA
ATOM     56  O   UNL     1       7.040   1.501  12.040  1.00  0.00    -0.237 OA
ATOM     57  O   UNL     1       4.967   0.300  12.611  1.00  0.00    -0.744 OA
ENDBRANCH  53  54
ENDBRANCH  25  48
BRANCH  37  58
ATOM     58  C   UNL     1      10.957  -8.259   7.931  1.00  0.00    -0.014 A 
ATOM     59  C   UNL     1      10.500  -8.967   9.056  1.00  0.00     0.010 A 
ATOM     60  C   UNL     1      12.331  -8.244   7.632  1.00  0.00     0.010 A 
ATOM     61  C   UNL     1      11.409  -9.611   9.896  1.00  0.00     0.020 A 
ATOM     62  C   UNL     1      13.239  -8.915   8.451  1.00  0.00     0.020 A 
ATOM     63  C   UNL     1      12.774  -9.579   9.588  1.00  0.00     0.054 A 
BRANCH  63  64
ATOM     64  S   UNL     1      13.932 -10.446  10.679  1.00  0.00     0.124 S 
ATOM     65  O   UNL     1      13.988  -9.552  11.832  1.00  0.00    -0.237 OA
ATOM     66  O   UNL     1      13.264 -11.725  10.905  1.00  0.00    -0.237 OA
ATOM     67  O   UNL     1      15.159 -10.522   9.889  1.00  0.00    -0.744 OA
ENDBRANCH  63  64
ENDBRANCH  37  58
ENDBRANCH  11  12
ENDBRANCH   4   6
ENDBRANCH   3   4
ENDBRANCH   2   3
ENDBRANCH   1   2
BRANCH   1  68
ATOM     68  O   UNL     1       3.915   1.388   0.809  1.00  0.00    -0.374 OA
BRANCH  68  69
ATOM     69  C   UNL     1       2.542   1.595   1.160  1.00  0.00     0.202 C 
BRANCH  69  70
ATOM     70  C   UNL     1       2.422   2.804   2.084  1.00  0.00     0.261 C 
BRANCH  70  71
ATOM     71  O   UNL     1       2.895   3.937   1.346  1.00  0.00    -0.459 OA
BRANCH  71  72
ATOM     72  C   UNL     1       4.237   4.165   1.486  1.00  0.00     0.365 C 
ATOM     73  O   UNL     1       4.872   3.921   2.509  1.00  0.00    -0.245 OA
BRANCH  72  74
ATOM     74  C   UNL     1       4.762   4.819   0.200  1.00  0.00     0.295 C 
ATOM     75  C   UNL     1       4.539   6.332   0.318  1.00  0.00     0.078 C 
ATOM     76  N   UNL     1       6.095   4.354  -0.299  1.00  0.00    -0.317 N 
ATOM     77  C   UNL     1       5.325   7.142  -0.702  1.00  0.00     0.016 C 
ATOM     78  C   UNL     1       6.570   5.107  -1.479  1.00  0.00     0.188 C 
ATOM     79  H   UNL     1       5.890   3.410  -0.628  1.00  0.00     0.349 HD
ATOM     80  C   UNL     1       5.657   6.278  -1.913  1.00  0.00     0.048 C 
ATOM     81  C   UNL     1       6.754   4.177  -2.695  1.00  0.00     0.065 C 
ATOM     82  C   UNL     1       6.351   7.088  -3.012  1.00  0.00     0.010 C 
ATOM     83  C   UNL     1       7.397   4.933  -3.862  1.00  0.00     0.006 C 
ATOM     84  C   UNL     1       6.643   6.211  -4.228  1.00  0.00     0.001 C 
BRANCH  76  85
ATOM     85  C   UNL     1       7.147   4.066   0.721  1.00  0.00     0.195 C 
ATOM     86  C   UNL     1       7.512   5.308   1.558  1.00  0.00     0.067 C 
ATOM     87  C   UNL     1       8.415   3.394   0.122  1.00  0.00     0.134 C 
ATOM     88  C   UNL     1       8.475   5.006   2.702  1.00  0.00     0.017 C 
ATOM     89  S   UNL     1       9.686   2.940   1.347  1.00  0.00    -0.156 SA
ATOM     90  C   UNL     1       9.829   4.526   2.212  1.00  0.00     0.070 C 
ENDBRANCH  76  85
ENDBRANCH  72  74
ENDBRANCH  71  72
ENDBRANCH  70  71
ENDBRANCH  69  70
ENDBRANCH  68  69
ENDBRANCH   1  68
TORSDOF 18
