REMARK SMILES O=C(CC1(Nc2nc(C3CC3)ns2)CCC1)OCCOCCOC(=O)c1ccc(-c2c3nc(c(-c4ccc(S(=O)(=O)[O-])cc4)c4ccc([nH]4)c(-c4ccc(S(=O)(=O)[O-])cc4)c4nc(c(-c5ccc(S(=O)(=O)[O-])cc5)c5ccc2[nH]5)C=C4)C=C3)cc1
REMARK SMILES IDX 19 1 18 2 17 3 2 4 1 5 3 6 4 7 14 8 16 9 15 10 5 11 6 13
REMARK SMILES IDX 7 14 13 15 8 16 12 17 9 18 10 19 11 20 20 21 21 22 22 23
REMARK SMILES IDX 23 24 24 25 25 26 26 27 27 28 85 29 28 30 84 31 29 32 30 33
REMARK SMILES IDX 31 34 78 35 32 36 83 37 77 38 79 39 33 40 82 41 76 42 75 43
REMARK SMILES IDX 34 45 64 46 45 47 63 48 46 49 49 50 62 51 80 52 47 53 48 54
REMARK SMILES IDX 61 56 81 57 50 58 35 59 36 60 44 61 37 62 43 63 38 64 39 65
REMARK SMILES IDX 40 66 41 67 42 68 65 69 66 70 74 71 67 72 73 73 68 74 69 75
REMARK SMILES IDX 70 76 71 77 72 78 51 79 52 80 60 81 53 82 59 83 54 84 55 85
REMARK SMILES IDX 56 86 57 87 58 88
REMARK H PARENT 5 12 79 44 49 55
REMARK Flexibility Score: inf
ROOT
ATOM      1  C   UNL     1       5.013  -0.332   1.446  1.00  0.00     0.202 C 
ENDROOT
BRANCH   1   2
ATOM      2  C   UNL     1       4.640   0.802   0.484  1.00  0.00     0.261 C 
BRANCH   2   3
ATOM      3  O   UNL     1       3.240   1.101   0.426  1.00  0.00    -0.463 OA
BRANCH   3   4
ATOM      4  C   UNL     1       2.486   0.644  -0.609  1.00  0.00     0.308 C 
ATOM      5  O   UNL     1       1.455   1.226  -0.929  1.00  0.00    -0.252 OA
BRANCH   4   6
ATOM      6  C   UNL     1       2.937  -0.642  -1.254  1.00  0.00     0.151 C 
BRANCH   6   7
ATOM      7  C   UNL     1       3.390  -0.558  -2.711  1.00  0.00     0.050 C 
ATOM      8  C   UNL     1       3.915   0.794  -3.273  1.00  0.00     0.029 C 
ATOM      9  C   UNL     1       4.851  -1.123  -2.867  1.00  0.00     0.029 C 
ATOM     10  C   UNL     1       5.349   0.253  -3.307  1.00  0.00     0.005 C 
BRANCH   7  11
ATOM     11  N   UNL     1       2.537  -1.252  -3.660  1.00  0.00    -0.354 N 
ATOM     12  H   UNL     1       2.851  -1.314  -4.591  1.00  0.00     0.163 HD
BRANCH  11  13
ATOM     13  C   UNL     1       1.343  -1.821  -3.366  1.00  0.00     0.203 A 
ATOM     14  N   UNL     1       0.397  -1.313  -2.612  1.00  0.00    -0.203 NA
ATOM     15  S   UNL     1       0.954  -3.438  -3.837  1.00  0.00     0.004 S 
ATOM     16  C   UNL     1      -0.529  -2.300  -2.311  1.00  0.00     0.147 A 
ATOM     17  N   UNL     1      -0.386  -3.517  -2.843  1.00  0.00    -0.174 NA
BRANCH  16  18
ATOM     18  C   UNL     1      -1.690  -2.021  -1.356  1.00  0.00     0.059 C 
ATOM     19  C   UNL     1      -1.610  -0.849  -0.397  1.00  0.00     0.012 C 
ATOM     20  C   UNL     1      -2.515  -0.771  -1.579  1.00  0.00     0.012 C 
ENDBRANCH  16  18
ENDBRANCH  11  13
ENDBRANCH   7  11
ENDBRANCH   6   7
ENDBRANCH   4   6
ENDBRANCH   3   4
ENDBRANCH   2   3
ENDBRANCH   1   2
BRANCH   1  21
ATOM     21  O   UNL     1       4.295  -1.561   1.403  1.00  0.00    -0.374 OA
BRANCH  21  22
ATOM     22  C   UNL     1       2.974  -1.594   1.960  1.00  0.00     0.202 C 
BRANCH  22  23
ATOM     23  C   UNL     1       2.864  -1.610   3.487  1.00  0.00     0.261 C 
BRANCH  23  24
ATOM     24  O   UNL     1       3.179  -0.323   4.039  1.00  0.00    -0.460 OA
BRANCH  24  25
ATOM     25  C   UNL     1       4.388  -0.247   4.646  1.00  0.00     0.338 C 
ATOM     26  O   UNL     1       5.163  -1.161   4.863  1.00  0.00    -0.246 OA
BRANCH  25  27
ATOM     27  C   UNL     1       4.769   1.175   4.758  1.00  0.00     0.060 A 
ATOM     28  C   UNL     1       6.047   1.538   4.304  1.00  0.00     0.016 A 
ATOM     29  C   UNL     1       3.913   2.119   5.326  1.00  0.00     0.016 A 
ATOM     30  C   UNL     1       6.510   2.830   4.496  1.00  0.00     0.010 A 
ATOM     31  C   UNL     1       4.390   3.409   5.550  1.00  0.00     0.010 A 
ATOM     32  C   UNL     1       5.712   3.738   5.198  1.00  0.00    -0.014 A 
BRANCH  32  33
ATOM     33  C   UNL     1       6.383   4.879   5.851  1.00  0.00     0.031 A 
ATOM     34  C   UNL     1       6.847   4.682   7.271  1.00  0.00     0.074 A 
ATOM     35  C   UNL     1       6.633   6.016   5.185  1.00  0.00     0.049 A 
ATOM     36  N   UNL     1       7.468   5.512   8.064  1.00  0.00    -0.248 NA
ATOM     37  C   UNL     1       6.571   3.365   7.876  1.00  0.00     0.031 C 
ATOM     38  C   UNL     1       6.288   6.274   3.788  1.00  0.00     0.029 A 
ATOM     39  N   UNL     1       7.248   7.165   5.602  1.00  0.00    -0.354 N 
ATOM     40  C   UNL     1       7.636   4.827   9.264  1.00  0.00     0.074 A 
ATOM     41  C   UNL     1       7.032   3.526   9.105  1.00  0.00     0.031 C 
ATOM     42  C   UNL     1       6.701   7.512   3.462  1.00  0.00     0.029 A 
ATOM     43  C   UNL     1       7.307   8.138   4.636  1.00  0.00     0.049 A 
ATOM     44  H   UNL     1       7.614   7.283   6.509  1.00  0.00     0.167 HD
ATOM     45  C   UNL     1       8.241   5.248  10.397  1.00  0.00     0.031 A 
ATOM     46  C   UNL     1       7.787   9.394   4.705  1.00  0.00     0.031 A 
ATOM     47  C   UNL     1       8.828   6.551  10.541  1.00  0.00     0.049 A 
ATOM     48  C   UNL     1       8.401   9.864   5.999  1.00  0.00     0.074 A 
ATOM     49  C   UNL     1       9.477   7.088  11.637  1.00  0.00     0.029 A 
ATOM     50  N   UNL     1       8.827   7.527   9.554  1.00  0.00    -0.354 N 
ATOM     51  N   UNL     1       8.563   9.206   7.125  1.00  0.00    -0.248 NA
ATOM     52  C   UNL     1       8.912  11.239   6.025  1.00  0.00     0.031 C 
ATOM     53  C   UNL     1       9.816   8.411  11.332  1.00  0.00     0.029 A 
ATOM     54  C   UNL     1       9.444   8.672  10.022  1.00  0.00     0.049 A 
ATOM     55  H   UNL     1       8.444   7.419   8.653  1.00  0.00     0.167 HD
ATOM     56  C   UNL     1       9.235  10.075   7.979  1.00  0.00     0.074 A 
ATOM     57  C   UNL     1       9.452  11.300   7.235  1.00  0.00     0.031 C 
ATOM     58  C   UNL     1       9.648   9.877   9.257  1.00  0.00     0.031 A 
BRANCH  45  59
ATOM     59  C   UNL     1       8.238   4.310  11.576  1.00  0.00    -0.014 A 
ATOM     60  C   UNL     1       8.988   3.119  11.577  1.00  0.00     0.010 A 
ATOM     61  C   UNL     1       7.466   4.630  12.707  1.00  0.00     0.010 A 
ATOM     62  C   UNL     1       8.930   2.246  12.667  1.00  0.00     0.020 A 
ATOM     63  C   UNL     1       7.429   3.776  13.812  1.00  0.00     0.020 A 
ATOM     64  C   UNL     1       8.147   2.579  13.777  1.00  0.00     0.054 A 
BRANCH  64  65
ATOM     65  S   UNL     1       8.099   1.436  15.185  1.00  0.00     0.124 S 
ATOM     66  O   UNL     1       7.300   0.335  14.652  1.00  0.00    -0.237 OA
ATOM     67  O   UNL     1       9.512   1.138  15.403  1.00  0.00    -0.237 OA
ATOM     68  O   UNL     1       7.459   2.214  16.242  1.00  0.00    -0.744 OA
ENDBRANCH  64  65
ENDBRANCH  45  59
BRANCH  46  69
ATOM     69  C   UNL     1       7.718  10.284   3.515  1.00  0.00    -0.014 A 
ATOM     70  C   UNL     1       8.889  10.664   2.836  1.00  0.00     0.010 A 
ATOM     71  C   UNL     1       6.475  10.749   3.046  1.00  0.00     0.010 A 
ATOM     72  C   UNL     1       8.821  11.504   1.721  1.00  0.00     0.020 A 
ATOM     73  C   UNL     1       6.400  11.565   1.914  1.00  0.00     0.020 A 
ATOM     74  C   UNL     1       7.576  11.946   1.264  1.00  0.00     0.054 A 
BRANCH  74  75
ATOM     75  S   UNL     1       7.511  12.991  -0.218  1.00  0.00     0.124 S 
ATOM     76  O   UNL     1       8.056  14.252   0.275  1.00  0.00    -0.237 OA
ATOM     77  O   UNL     1       8.357  12.257  -1.156  1.00  0.00    -0.237 OA
ATOM     78  O   UNL     1       6.090  13.014  -0.559  1.00  0.00    -0.744 OA
ENDBRANCH  74  75
ENDBRANCH  46  69
BRANCH  58  79
ATOM     79  C   UNL     1      10.432  10.986   9.907  1.00  0.00    -0.014 A 
ATOM     80  C   UNL     1       9.830  12.201  10.277  1.00  0.00     0.010 A 
ATOM     81  C   UNL     1      11.797  10.783  10.187  1.00  0.00     0.010 A 
ATOM     82  C   UNL     1      10.591  13.213  10.867  1.00  0.00     0.020 A 
ATOM     83  C   UNL     1      12.552  11.778  10.809  1.00  0.00     0.020 A 
ATOM     84  C   UNL     1      11.949  12.996  11.125  1.00  0.00     0.054 A 
BRANCH  84  85
ATOM     85  S   UNL     1      12.913  14.318  11.906  1.00  0.00     0.124 S 
ATOM     86  O   UNL     1      13.061  15.272  10.810  1.00  0.00    -0.237 OA
ATOM     87  O   UNL     1      12.044  14.746  12.999  1.00  0.00    -0.237 OA
ATOM     88  O   UNL     1      14.145  13.650  12.321  1.00  0.00    -0.744 OA
ENDBRANCH  84  85
ENDBRANCH  58  79
ENDBRANCH  32  33
ENDBRANCH  25  27
ENDBRANCH  24  25
ENDBRANCH  23  24
ENDBRANCH  22  23
ENDBRANCH  21  22
ENDBRANCH   1  21
TORSDOF 21
