REMARK SMILES CC1=C[C@H](C)[C@H](CN2C[C@@]34C=C[C@@H](O3)[C@H](C(=O)OCCOCCOC(=O)c3ccc(-c5c6nc(c(-c7ccc(S(=O)(=O)[O-])cc7)c7ccc([nH]7)c(-c7ccc(S(=O)(=O)[O-])cc7)c7nc(c(-c8ccc(S(=O)(=O)[O-])cc8)c8ccc5[nH]8)C=C7)C=C6)cc3)[C@@H]4C2=O)[C@H](C)C1
REMARK SMILES IDX 22 1 21 2 20 3 19 4 18 5 16 6 17 7 15 8 8 9 9 10 88 11 10 12
REMARK SMILES IDX 87 13 89 14 11 15 14 16 12 17 13 18 7 19 6 20 1 21 2 22 3 23
REMARK SMILES IDX 92 24 4 25 90 26 5 27 91 28 23 29 24 30 25 31 26 32 27 33
REMARK SMILES IDX 28 34 86 35 29 36 85 37 30 38 31 39 32 40 79 41 33 42 84 43
REMARK SMILES IDX 78 44 80 45 34 46 83 47 77 48 76 49 35 51 65 52 46 53 64 54
REMARK SMILES IDX 47 55 50 56 63 57 81 58 48 59 49 60 62 62 82 63 51 64 36 65
REMARK SMILES IDX 37 66 45 67 38 68 44 69 39 70 40 71 41 72 42 73 43 74 66 75
REMARK SMILES IDX 67 76 75 77 68 78 74 79 69 80 70 81 71 82 72 83 73 84 52 85
REMARK SMILES IDX 53 86 61 87 54 88 60 89 55 90 56 91 57 92 58 93 59 94
REMARK H PARENT 80 50 50 61
REMARK Flexibility Score: inf
ROOT
ATOM      1  C   UNL     1      -7.205   0.162   9.566  1.00  0.00     0.202 C 
ENDROOT
BRANCH   1   2
ATOM      2  O   UNL     1      -8.258   0.060   8.609  1.00  0.00    -0.374 OA
BRANCH   2   3
ATOM      3  C   UNL     1      -8.531  -1.214   8.034  1.00  0.00     0.202 C 
BRANCH   3   4
ATOM      4  C   UNL     1      -7.454  -1.855   7.145  1.00  0.00     0.261 C 
BRANCH   4   5
ATOM      5  O   UNL     1      -6.122  -1.673   7.654  1.00  0.00    -0.463 OA
BRANCH   5   6
ATOM      6  C   UNL     1      -5.371  -0.834   6.912  1.00  0.00     0.312 C 
ATOM      7  O   UNL     1      -5.700  -0.363   5.824  1.00  0.00    -0.252 OA
BRANCH   6   8
ATOM      8  C   UNL     1      -4.100  -0.377   7.549  1.00  0.00     0.148 C 
ATOM      9  N   UNL     1      -1.305  -1.831   5.513  1.00  0.00    -0.339 N 
ATOM     10  C   UNL     1      -0.672  -1.436   6.809  1.00  0.00     0.160 C 
ATOM     11  C   UNL     1      -2.725  -1.934   5.770  1.00  0.00     0.230 C 
ATOM     12  C   UNL     1      -1.871  -1.266   7.759  1.00  0.00     0.117 C 
ATOM     13  C   UNL     1      -2.920  -0.829   6.747  1.00  0.00     0.133 C 
ATOM     14  O   UNL     1      -3.564  -2.557   5.143  1.00  0.00    -0.274 OA
ATOM     15  C   UNL     1      -2.318  -2.432   8.605  1.00  0.00     0.009 C 
ATOM     16  O   UNL     1      -2.099  -0.202   8.697  1.00  0.00    -0.360 OA
ATOM     17  C   UNL     1      -3.351  -1.992   9.336  1.00  0.00     0.004 C 
ATOM     18  C   UNL     1      -3.547  -0.564   8.959  1.00  0.00     0.157 C 
BRANCH   9  19
ATOM     19  C   UNL     1      -1.157  -0.981   4.345  1.00  0.00     0.124 C 
BRANCH  19  20
ATOM     20  C   UNL     1       0.141  -0.795   3.564  1.00  0.00     0.018 C 
ATOM     21  C   UNL     1       1.641   0.002  -0.581  1.00  0.00     0.039 C 
ATOM     22  C   UNL     1       1.184  -0.304   0.817  1.00  0.00    -0.077 C 
ATOM     23  C   UNL     1       0.968  -1.560   1.230  1.00  0.00    -0.025 C 
ATOM     24  C   UNL     1       1.010   0.874   1.717  1.00  0.00     0.034 C 
ATOM     25  C   UNL     1       0.480  -1.971   2.594  1.00  0.00     0.014 C 
ATOM     26  C   UNL     1       0.085   0.652   2.917  1.00  0.00    -0.005 C 
ATOM     27  C   UNL     1      -0.621  -3.023   2.395  1.00  0.00     0.012 C 
ATOM     28  C   UNL     1      -1.329   1.188   2.570  1.00  0.00     0.008 C 
ENDBRANCH  19  20
ENDBRANCH   9  19
ENDBRANCH   6   8
ENDBRANCH   5   6
ENDBRANCH   4   5
ENDBRANCH   3   4
ENDBRANCH   2   3
ENDBRANCH   1   2
BRANCH   1  29
ATOM     29  C   UNL     1      -7.161  -0.830  10.738  1.00  0.00     0.261 C 
BRANCH  29  30
ATOM     30  O   UNL     1      -7.045  -2.206  10.323  1.00  0.00    -0.460 OA
BRANCH  30  31
ATOM     31  C   UNL     1      -7.923  -3.044  10.932  1.00  0.00     0.338 C 
ATOM     32  O   UNL     1      -8.687  -2.766  11.841  1.00  0.00    -0.246 OA
BRANCH  31  33
ATOM     33  C   UNL     1      -7.980  -4.348  10.246  1.00  0.00     0.060 A 
ATOM     34  C   UNL     1      -9.157  -4.669   9.556  1.00  0.00     0.016 A 
ATOM     35  C   UNL     1      -6.986  -5.309  10.435  1.00  0.00     0.016 A 
ATOM     36  C   UNL     1      -9.366  -5.969   9.098  1.00  0.00     0.010 A 
ATOM     37  C   UNL     1      -7.204  -6.618   9.984  1.00  0.00     0.010 A 
ATOM     38  C   UNL     1      -8.413  -6.964   9.353  1.00  0.00    -0.014 A 
BRANCH  38  39
ATOM     39  C   UNL     1      -8.764  -8.383   9.094  1.00  0.00     0.031 A 
ATOM     40  C   UNL     1      -9.273  -9.236  10.228  1.00  0.00     0.074 A 
ATOM     41  C   UNL     1      -8.681  -8.896   7.853  1.00  0.00     0.049 A 
ATOM     42  N   UNL     1      -9.665 -10.485  10.213  1.00  0.00    -0.248 NA
ATOM     43  C   UNL     1      -9.355  -8.596  11.551  1.00  0.00     0.031 C 
ATOM     44  C   UNL     1      -8.234  -8.169   6.666  1.00  0.00     0.029 A 
ATOM     45  N   UNL     1      -8.971 -10.155   7.388  1.00  0.00    -0.354 N 
ATOM     46  C   UNL     1     -10.032 -10.783  11.521  1.00  0.00     0.074 A 
ATOM     47  C   UNL     1      -9.798  -9.591  12.307  1.00  0.00     0.031 C 
ATOM     48  C   UNL     1      -8.272  -8.997   5.608  1.00  0.00     0.029 A 
ATOM     49  C   UNL     1      -8.724 -10.317   6.046  1.00  0.00     0.049 A 
ATOM     50  H   UNL     1      -9.323 -10.873   7.962  1.00  0.00     0.167 HD
ATOM     51  C   UNL     1     -10.523 -11.942  12.022  1.00  0.00     0.031 A 
ATOM     52  C   UNL     1      -8.833 -11.408   5.262  1.00  0.00     0.031 A 
ATOM     53  C   UNL     1     -10.751 -13.130  11.244  1.00  0.00     0.049 A 
ATOM     54  C   UNL     1      -9.336 -12.699   5.852  1.00  0.00     0.074 A 
ATOM     55  C   UNL     1     -11.275 -14.343  11.659  1.00  0.00     0.029 A 
ATOM     56  N   UNL     1     -10.462 -13.261   9.895  1.00  0.00    -0.354 N 
ATOM     57  N   UNL     1      -9.719 -12.949   7.082  1.00  0.00    -0.248 NA
ATOM     58  C   UNL     1      -9.431 -13.852   4.945  1.00  0.00     0.031 C 
ATOM     59  C   UNL     1     -11.256 -15.223  10.571  1.00  0.00     0.029 A 
ATOM     60  C   UNL     1     -10.768 -14.542   9.467  1.00  0.00     0.049 A 
ATOM     61  H   UNL     1     -10.094 -12.548   9.324  1.00  0.00     0.167 HD
ATOM     62  C   UNL     1     -10.117 -14.282   7.090  1.00  0.00     0.074 A 
ATOM     63  C   UNL     1      -9.945 -14.780   5.741  1.00  0.00     0.031 C 
ATOM     64  C   UNL     1     -10.585 -15.026   8.123  1.00  0.00     0.031 A 
BRANCH  51  65
ATOM     65  C   UNL     1     -10.816 -11.993  13.497  1.00  0.00    -0.014 A 
ATOM     66  C   UNL     1     -11.942 -11.349  14.040  1.00  0.00     0.010 A 
ATOM     67  C   UNL     1      -9.977 -12.739  14.346  1.00  0.00     0.010 A 
ATOM     68  C   UNL     1     -12.206 -11.423  15.410  1.00  0.00     0.020 A 
ATOM     69  C   UNL     1     -10.250 -12.832  15.713  1.00  0.00     0.020 A 
ATOM     70  C   UNL     1     -11.355 -12.161  16.240  1.00  0.00     0.054 A 
BRANCH  70  71
ATOM     71  S   UNL     1     -11.733 -12.263  18.011  1.00  0.00     0.124 S 
ATOM     72  O   UNL     1     -11.330 -10.939  18.481  1.00  0.00    -0.237 OA
ATOM     73  O   UNL     1     -13.170 -12.521  18.020  1.00  0.00    -0.237 OA
ATOM     74  O   UNL     1     -10.902 -13.369  18.480  1.00  0.00    -0.744 OA
ENDBRANCH  70  71
ENDBRANCH  51  65
BRANCH  52  75
ATOM     75  C   UNL     1      -8.430 -11.334   3.832  1.00  0.00    -0.014 A 
ATOM     76  C   UNL     1      -9.391 -11.382   2.807  1.00  0.00     0.010 A 
ATOM     77  C   UNL     1      -7.070 -11.218   3.490  1.00  0.00     0.010 A 
ATOM     78  C   UNL     1      -8.997 -11.331   1.466  1.00  0.00     0.020 A 
ATOM     79  C   UNL     1      -6.675 -11.143   2.153  1.00  0.00     0.020 A 
ATOM     80  C   UNL     1      -7.641 -11.213   1.147  1.00  0.00     0.054 A 
BRANCH  80  81
ATOM     81  S   UNL     1      -7.152 -11.102  -0.597  1.00  0.00     0.124 S 
ATOM     82  O   UNL     1      -7.263 -12.491  -1.031  1.00  0.00    -0.237 OA
ATOM     83  O   UNL     1      -8.147 -10.185  -1.148  1.00  0.00    -0.237 OA
ATOM     84  O   UNL     1      -5.793 -10.571  -0.536  1.00  0.00    -0.744 OA
ENDBRANCH  80  81
ENDBRANCH  52  75
BRANCH  64  85
ATOM     85  C   UNL     1     -10.964 -16.454   7.832  1.00  0.00    -0.014 A 
ATOM     86  C   UNL     1      -9.982 -17.438   7.624  1.00  0.00     0.010 A 
ATOM     87  C   UNL     1     -12.322 -16.823   7.813  1.00  0.00     0.010 A 
ATOM     88  C   UNL     1     -10.352 -18.762   7.369  1.00  0.00     0.020 A 
ATOM     89  C   UNL     1     -12.694 -18.150   7.582  1.00  0.00     0.020 A 
ATOM     90  C   UNL     1     -11.706 -19.109   7.346  1.00  0.00     0.054 A 
BRANCH  90  91
ATOM     91  S   UNL     1     -12.164 -20.839   7.048  1.00  0.00     0.124 S 
ATOM     92  O   UNL     1     -11.979 -20.958   5.605  1.00  0.00    -0.237 OA
ATOM     93  O   UNL     1     -11.202 -21.574   7.867  1.00  0.00    -0.237 OA
ATOM     94  O   UNL     1     -13.548 -20.914   7.509  1.00  0.00    -0.744 OA
ENDBRANCH  90  91
ENDBRANCH  64  85
ENDBRANCH  38  39
ENDBRANCH  31  33
ENDBRANCH  30  31
ENDBRANCH  29  30
ENDBRANCH   1  29
TORSDOF 19
