REMARK SMILES Cc1nc(=O)[nH]c(C)c1CC(=O)N1CC[C@H](C(=O)OCCOCCOC(=O)c2ccc(-c3c4nc(c(-c5ccc(S(=O)(=O)[O-])cc5)c5ccc([nH]5)c(-c5ccc(S(=O)(=O)[O-])cc5)c5nc(c(-c6ccc(S(=O)(=O)[O-])cc6)c6ccc3[nH]6)C=C5)C=C4)cc2)[C@@H]1C
REMARK SMILES IDX 22 1 21 2 20 3 19 4 17 5 18 6 16 7 13 8 14 9 88 10 15 11
REMARK SMILES IDX 89 12 11 13 12 14 10 15 9 16 1 17 2 18 3 19 4 20 7 21 5 22
REMARK SMILES IDX 6 23 8 24 23 26 24 27 25 28 26 29 27 30 28 31 29 32 87 33
REMARK SMILES IDX 30 34 86 35 31 36 32 37 33 38 80 39 34 40 85 41 79 42 81 43
REMARK SMILES IDX 35 44 84 45 78 46 77 47 36 49 66 50 47 51 65 52 48 53 51 54
REMARK SMILES IDX 64 55 82 56 49 57 50 58 63 60 83 61 52 62 37 63 38 64 46 65
REMARK SMILES IDX 39 66 45 67 40 68 41 69 42 70 43 71 44 72 67 73 68 74 76 75
REMARK SMILES IDX 69 76 75 77 70 78 71 79 72 80 73 81 74 82 53 83 54 84 62 85
REMARK SMILES IDX 55 86 61 87 56 88 57 89 58 90 59 91 60 92
REMARK H PARENT 6 25 81 48 51 59
REMARK Flexibility Score: inf
ROOT
ATOM      1  O   UNL     1      -1.748  -0.520   8.271  1.00  0.00    -0.374 OA
ENDROOT
BRANCH   1   2
ATOM      2  C   UNL     1      -1.565   0.713   7.573  1.00  0.00     0.202 C 
BRANCH   2   3
ATOM      3  C   UNL     1      -0.355   0.781   6.636  1.00  0.00     0.261 C 
BRANCH   3   4
ATOM      4  O   UNL     1      -0.558  -0.062   5.487  1.00  0.00    -0.463 OA
BRANCH   4   5
ATOM      5  C   UNL     1       0.290  -1.093   5.285  1.00  0.00     0.311 C 
ATOM      6  O   UNL     1       1.219  -1.383   6.030  1.00  0.00    -0.252 OA
BRANCH   5   7
ATOM      7  C   UNL     1      -0.086  -1.962   4.095  1.00  0.00     0.123 C 
ATOM      8  N   UNL     1      -1.821  -2.352   2.512  1.00  0.00    -0.339 N 
ATOM      9  C   UNL     1      -2.236  -3.027   3.723  1.00  0.00     0.121 C 
ATOM     10  C   UNL     1      -0.784  -1.368   2.852  1.00  0.00     0.096 C 
ATOM     11  C   UNL     1      -0.932  -3.189   4.485  1.00  0.00     0.039 C 
ATOM     12  C   UNL     1      -1.419   0.014   2.987  1.00  0.00     0.032 C 
BRANCH   8  13
ATOM     13  C   UNL     1      -2.521  -2.546   1.341  1.00  0.00     0.227 C 
ATOM     14  O   UNL     1      -3.637  -3.081   1.372  1.00  0.00    -0.275 OA
BRANCH  13  15
ATOM     15  C   UNL     1      -1.875  -2.324  -0.039  1.00  0.00     0.139 C 
BRANCH  15  16
ATOM     16  C   UNL     1      -0.993  -1.139  -0.263  1.00  0.00     0.002 A 
ATOM     17  C   UNL     1       1.196  -2.607  -0.223  1.00  0.00     0.067 C 
ATOM     18  C   UNL     1       0.506  -1.255  -0.263  1.00  0.00     0.049 A 
ATOM     19  N   UNL     1       1.317  -0.248  -0.254  1.00  0.00    -0.198 NA
ATOM     20  C   UNL     1       0.809   1.017  -0.293  1.00  0.00     0.345 A 
ATOM     21  C   UNL     1      -1.440   0.118  -0.454  1.00  0.00     0.022 A 
ATOM     22  O   UNL     1       1.512   2.015  -0.159  1.00  0.00    -0.246 OA
ATOM     23  N   UNL     1      -0.540   1.153  -0.469  1.00  0.00    -0.310 N 
ATOM     24  C   UNL     1      -2.885   0.536  -0.534  1.00  0.00     0.065 C 
ATOM     25  H   UNL     1      -0.891   2.061  -0.618  1.00  0.00     0.171 HD
ENDBRANCH  15  16
ENDBRANCH  13  15
ENDBRANCH   8  13
ENDBRANCH   5   7
ENDBRANCH   4   5
ENDBRANCH   3   4
ENDBRANCH   2   3
ENDBRANCH   1   2
BRANCH   1  26
ATOM     26  C   UNL     1      -2.273  -1.606   7.513  1.00  0.00     0.202 C 
BRANCH  26  27
ATOM     27  C   UNL     1      -3.795  -1.672   7.355  1.00  0.00     0.261 C 
BRANCH  27  28
ATOM     28  O   UNL     1      -4.304  -0.575   6.577  1.00  0.00    -0.460 OA
BRANCH  28  29
ATOM     29  C   UNL     1      -4.922   0.386   7.306  1.00  0.00     0.338 C 
ATOM     30  O   UNL     1      -5.125   0.382   8.508  1.00  0.00    -0.246 OA
BRANCH  29  31
ATOM     31  C   UNL     1      -5.176   1.568   6.463  1.00  0.00     0.060 A 
ATOM     32  C   UNL     1      -4.631   2.789   6.881  1.00  0.00     0.016 A 
ATOM     33  C   UNL     1      -5.993   1.502   5.334  1.00  0.00     0.016 A 
ATOM     34  C   UNL     1      -4.928   3.959   6.187  1.00  0.00     0.010 A 
ATOM     35  C   UNL     1      -6.300   2.681   4.646  1.00  0.00     0.010 A 
ATOM     36  C   UNL     1      -5.789   3.918   5.083  1.00  0.00    -0.014 A 
BRANCH  36  37
ATOM     37  C   UNL     1      -6.226   5.178   4.435  1.00  0.00     0.031 A 
ATOM     38  C   UNL     1      -7.607   5.710   4.707  1.00  0.00     0.074 A 
ATOM     39  C   UNL     1      -5.396   5.835   3.604  1.00  0.00     0.049 A 
ATOM     40  N   UNL     1      -8.216   6.735   4.170  1.00  0.00    -0.248 NA
ATOM     41  C   UNL     1      -8.407   4.992   5.713  1.00  0.00     0.031 C 
ATOM     42  C   UNL     1      -4.019   5.443   3.299  1.00  0.00     0.029 A 
ATOM     43  N   UNL     1      -5.598   6.964   2.849  1.00  0.00    -0.354 N 
ATOM     44  C   UNL     1      -9.478   6.773   4.753  1.00  0.00     0.074 A 
ATOM     45  C   UNL     1      -9.551   5.663   5.678  1.00  0.00     0.031 C 
ATOM     46  C   UNL     1      -3.509   6.305   2.403  1.00  0.00     0.029 A 
ATOM     47  C   UNL     1      -4.535   7.278   2.036  1.00  0.00     0.049 A 
ATOM     48  H   UNL     1      -6.425   7.497   2.886  1.00  0.00     0.167 HD
ATOM     49  C   UNL     1     -10.484   7.651   4.529  1.00  0.00     0.031 A 
ATOM     50  C   UNL     1      -4.417   8.215   1.074  1.00  0.00     0.031 A 
ATOM     51  C   UNL     1     -10.402   8.753   3.605  1.00  0.00     0.049 A 
ATOM     52  C   UNL     1      -5.579   9.134   0.796  1.00  0.00     0.074 A 
ATOM     53  C   UNL     1     -11.355   9.722   3.341  1.00  0.00     0.029 A 
ATOM     54  N   UNL     1      -9.317   9.027   2.787  1.00  0.00    -0.354 N 
ATOM     55  N   UNL     1      -6.750   9.185   1.386  1.00  0.00    -0.248 NA
ATOM     56  C   UNL     1      -5.402  10.124  -0.276  1.00  0.00     0.031 C 
ATOM     57  C   UNL     1     -10.878  10.533   2.308  1.00  0.00     0.029 A 
ATOM     58  C   UNL     1      -9.595  10.120   1.984  1.00  0.00     0.049 A 
ATOM     59  H   UNL     1      -8.474   8.519   2.778  1.00  0.00     0.167 HD
ATOM     60  C   UNL     1      -7.437  10.228   0.773  1.00  0.00     0.074 A 
ATOM     61  C   UNL     1      -6.544  10.796  -0.215  1.00  0.00     0.031 C 
ATOM     62  C   UNL     1      -8.697  10.675   1.004  1.00  0.00     0.031 A 
BRANCH  49  63
ATOM     63  C   UNL     1     -11.787   7.444   5.256  1.00  0.00    -0.014 A 
ATOM     64  C   UNL     1     -11.915   7.710   6.630  1.00  0.00     0.010 A 
ATOM     65  C   UNL     1     -12.929   7.068   4.523  1.00  0.00     0.010 A 
ATOM     66  C   UNL     1     -13.159   7.594   7.259  1.00  0.00     0.020 A 
ATOM     67  C   UNL     1     -14.178   6.977   5.142  1.00  0.00     0.020 A 
ATOM     68  C   UNL     1     -14.284   7.235   6.509  1.00  0.00     0.054 A 
BRANCH  68  69
ATOM     69  S   UNL     1     -15.895   7.160   7.339  1.00  0.00     0.124 S 
ATOM     70  O   UNL     1     -15.740   5.986   8.194  1.00  0.00    -0.237 OA
ATOM     71  O   UNL     1     -15.954   8.442   8.036  1.00  0.00    -0.237 OA
ATOM     72  O   UNL     1     -16.846   7.007   6.240  1.00  0.00    -0.744 OA
ENDBRANCH  68  69
ENDBRANCH  49  63
BRANCH  50  73
ATOM     73  C   UNL     1      -3.176   8.293   0.254  1.00  0.00    -0.014 A 
ATOM     74  C   UNL     1      -2.339   9.421   0.309  1.00  0.00     0.010 A 
ATOM     75  C   UNL     1      -2.845   7.241  -0.622  1.00  0.00     0.010 A 
ATOM     76  C   UNL     1      -1.219   9.513  -0.523  1.00  0.00     0.020 A 
ATOM     77  C   UNL     1      -1.707   7.312  -1.427  1.00  0.00     0.020 A 
ATOM     78  C   UNL     1      -0.912   8.458  -1.388  1.00  0.00     0.054 A 
BRANCH  78  79
ATOM     79  S   UNL     1       0.548   8.597  -2.454  1.00  0.00     0.124 S 
ATOM     80  O   UNL     1       0.123   9.606  -3.419  1.00  0.00    -0.237 OA
ATOM     81  O   UNL     1       1.584   9.016  -1.514  1.00  0.00    -0.237 OA
ATOM     82  O   UNL     1       0.707   7.247  -2.990  1.00  0.00    -0.744 OA
ENDBRANCH  78  79
ENDBRANCH  50  73
BRANCH  62  83
ATOM     83  C   UNL     1      -9.177  11.856   0.200  1.00  0.00    -0.014 A 
ATOM     84  C   UNL     1      -9.456  11.742  -1.173  1.00  0.00     0.010 A 
ATOM     85  C   UNL     1      -9.408  13.086   0.844  1.00  0.00     0.010 A 
ATOM     86  C   UNL     1      -9.924  12.843  -1.894  1.00  0.00     0.020 A 
ATOM     87  C   UNL     1      -9.909  14.181   0.134  1.00  0.00     0.020 A 
ATOM     88  C   UNL     1     -10.151  14.056  -1.235  1.00  0.00     0.054 A 
BRANCH  88  89
ATOM     89  S   UNL     1     -10.803  15.456  -2.185  1.00  0.00     0.124 S 
ATOM     90  O   UNL     1      -9.655  15.825  -3.010  1.00  0.00    -0.237 OA
ATOM     91  O   UNL     1     -11.926  14.859  -2.903  1.00  0.00    -0.237 OA
ATOM     92  O   UNL     1     -11.172  16.430  -1.161  1.00  0.00    -0.744 OA
ENDBRANCH  88  89
ENDBRANCH  62  83
ENDBRANCH  36  37
ENDBRANCH  29  31
ENDBRANCH  28  29
ENDBRANCH  27  28
ENDBRANCH  26  27
ENDBRANCH   1  26
TORSDOF 20
