REMARK SMILES C[C@@](NC(=O)[C@H]1COc2ccccc21)(C(=O)OCCOCCOC(=O)c1ccc(-c2c3nc(c(-c4ccc(S(=O)(=O)[O-])cc4)c4ccc([nH]4)c(-c4ccc(S(=O)(=O)[O-])cc4)c4nc(c(-c5ccc(S(=O)(=O)[O-])cc5)c5ccc2[nH]5)C=C4)C=C3)cc1)C(F)(F)F
REMARK SMILES IDX 21 1 20 2 19 3 18 4 17 5 15 6 16 7 2 8 1 9 3 10 4 11 5 13
REMARK SMILES IDX 6 14 7 15 14 16 8 17 9 18 13 19 10 20 12 21 11 22 86 23
REMARK SMILES IDX 87 24 88 25 89 26 22 27 23 28 24 29 25 30 26 31 27 32 85 33
REMARK SMILES IDX 28 34 84 35 29 36 30 37 31 38 78 39 32 40 83 41 77 42 79 43
REMARK SMILES IDX 33 44 82 45 76 46 75 47 34 49 64 50 45 51 63 52 46 53 49 54
REMARK SMILES IDX 62 55 80 56 47 57 48 58 61 60 81 61 50 62 35 63 36 64 44 65
REMARK SMILES IDX 37 66 43 67 38 68 39 69 40 70 41 71 42 72 65 73 66 74 74 75
REMARK SMILES IDX 67 76 73 77 68 78 69 79 70 80 71 81 72 82 51 83 52 84 60 85
REMARK SMILES IDX 53 86 59 87 54 88 55 89 56 90 57 91 58 92
REMARK H PARENT 3 12 79 48 49 59
REMARK Flexibility Score: inf
ROOT
ATOM      1  C   UNL     1      -3.797   2.587  -0.837  1.00  0.00     0.202 C 
ENDROOT
BRANCH   1   2
ATOM      2  O   UNL     1      -3.886   1.240  -1.334  1.00  0.00    -0.374 OA
BRANCH   2   3
ATOM      3  C   UNL     1      -4.112   0.163  -0.424  1.00  0.00     0.202 C 
BRANCH   3   4
ATOM      4  C   UNL     1      -3.084  -1.202  -0.337  1.00  0.00     0.261 C 
BRANCH   4   5
ATOM      5  O   UNL     1      -1.092  -1.390  -0.658  1.00  0.00    -0.461 OA
BRANCH   5   6
ATOM      6  C   UNL     1       0.120  -1.079  -1.416  1.00  0.00     0.341 C 
ATOM      7  O   UNL     1       0.197  -0.361  -2.420  1.00  0.00    -0.249 OA
BRANCH   6   8
ATOM      8  C   UNL     1       1.299  -1.869  -0.986  1.00  0.00     0.231 C 
ATOM      9  C   UNL     1       1.613  -1.573   0.487  1.00  0.00     0.058 C 
BRANCH   8  10
ATOM     10  N   UNL     1       1.012  -3.313  -1.265  1.00  0.00    -0.332 N 
ATOM     11  C   UNL     1       0.287  -3.813  -2.334  1.00  0.00     0.232 C 
ATOM     12  H   UNL     1       1.374  -3.969  -0.626  1.00  0.00     0.164 HD
ATOM     13  O   UNL     1       0.896  -4.620  -3.050  1.00  0.00    -0.274 OA
BRANCH  11  14
ATOM     14  C   UNL     1      -1.275  -3.711  -2.480  1.00  0.00     0.150 C 
ATOM     15  C   UNL     1      -1.790  -4.849  -1.543  1.00  0.00     0.248 C 
ATOM     16  C   UNL     1      -2.043  -2.581  -1.825  1.00  0.00     0.010 A 
ATOM     17  O   UNL     1      -1.632  -4.475  -0.129  1.00  0.00    -0.492 OA
ATOM     18  C   UNL     1      -1.842  -3.117  -0.147  1.00  0.00     0.123 A 
ATOM     19  C   UNL     1      -2.121  -0.825  -2.212  1.00  0.00     0.008 A 
ATOM     20  C   UNL     1      -1.514  -1.994   1.169  1.00  0.00     0.047 A 
ATOM     21  C   UNL     1      -1.720   0.371  -0.865  1.00  0.00     0.001 A 
ATOM     22  C   UNL     1      -1.454  -0.233   0.828  1.00  0.00     0.004 A 
ENDBRANCH  11  14
ENDBRANCH   8  10
BRANCH   8  23
ATOM     23  C   UNL     1       2.458  -1.247  -1.816  1.00  0.00     0.422 C 
ATOM     24  F   UNL     1       2.532   0.104  -1.680  1.00  0.00    -0.168 F 
ATOM     25  F   UNL     1       3.658  -1.717  -1.381  1.00  0.00    -0.168 F 
ATOM     26  F   UNL     1       2.396  -1.537  -3.134  1.00  0.00    -0.168 F 
ENDBRANCH   8  23
ENDBRANCH   6   8
ENDBRANCH   5   6
ENDBRANCH   4   5
ENDBRANCH   3   4
ENDBRANCH   2   3
ENDBRANCH   1   2
BRANCH   1  27
ATOM     27  C   UNL     1      -2.918   2.992   0.385  1.00  0.00     0.261 C 
BRANCH  27  28
ATOM     28  O   UNL     1      -2.996   2.143   1.538  1.00  0.00    -0.460 OA
BRANCH  28  29
ATOM     29  C   UNL     1      -4.105   2.284   2.292  1.00  0.00     0.338 C 
ATOM     30  O   UNL     1      -4.970   3.129   2.146  1.00  0.00    -0.246 OA
BRANCH  29  31
ATOM     31  C   UNL     1      -4.239   1.095   3.167  1.00  0.00     0.060 A 
ATOM     32  C   UNL     1      -5.471   0.433   3.131  1.00  0.00     0.016 A 
ATOM     33  C   UNL     1      -3.220   0.642   4.013  1.00  0.00     0.016 A 
ATOM     34  C   UNL     1      -5.727  -0.613   4.011  1.00  0.00     0.010 A 
ATOM     35  C   UNL     1      -3.481  -0.408   4.906  1.00  0.00     0.010 A 
ATOM     36  C   UNL     1      -4.762  -0.988   4.954  1.00  0.00    -0.014 A 
BRANCH  36  37
ATOM     37  C   UNL     1      -5.242  -1.733   6.147  1.00  0.00     0.031 A 
ATOM     38  C   UNL     1      -5.663  -0.923   7.350  1.00  0.00     0.074 A 
ATOM     39  C   UNL     1      -5.456  -3.061   6.124  1.00  0.00     0.049 A 
ATOM     40  N   UNL     1      -6.304  -1.304   8.424  1.00  0.00    -0.248 NA
ATOM     41  C   UNL     1      -5.333   0.512   7.325  1.00  0.00     0.031 C 
ATOM     42  C   UNL     1      -5.144  -3.954   5.010  1.00  0.00     0.029 A 
ATOM     43  N   UNL     1      -6.025  -3.882   7.067  1.00  0.00    -0.354 N 
ATOM     44  C   UNL     1      -6.465  -0.155   9.192  1.00  0.00     0.074 A 
ATOM     45  C   UNL     1      -5.816   0.925   8.485  1.00  0.00     0.031 C 
ATOM     46  C   UNL     1      -5.546  -5.199   5.327  1.00  0.00     0.029 A 
ATOM     47  C   UNL     1      -6.136  -5.191   6.666  1.00  0.00     0.049 A 
ATOM     48  H   UNL     1      -6.325  -3.562   7.948  1.00  0.00     0.167 HD
ATOM     49  C   UNL     1      -7.109   0.000  10.372  1.00  0.00     0.031 A 
ATOM     50  C   UNL     1      -6.667  -6.256   7.300  1.00  0.00     0.031 A 
ATOM     51  C   UNL     1      -7.742  -1.067  11.093  1.00  0.00     0.049 A 
ATOM     52  C   UNL     1      -7.310  -6.075   8.653  1.00  0.00     0.074 A 
ATOM     53  C   UNL     1      -8.421  -1.008  12.296  1.00  0.00     0.029 A 
ATOM     54  N   UNL     1      -7.762  -2.390  10.683  1.00  0.00    -0.354 N 
ATOM     55  N   UNL     1      -7.494  -4.973   9.342  1.00  0.00    -0.248 NA
ATOM     56  C   UNL     1      -7.837  -7.285   9.304  1.00  0.00     0.031 C 
ATOM     57  C   UNL     1      -8.808  -2.307  12.641  1.00  0.00     0.029 A 
ATOM     58  C   UNL     1      -8.419  -3.164  11.623  1.00  0.00     0.049 A 
ATOM     59  H   UNL     1      -7.368  -2.730   9.848  1.00  0.00     0.167 HD
ATOM     60  C   UNL     1      -8.193  -5.353  10.486  1.00  0.00     0.074 A 
ATOM     61  C   UNL     1      -8.402  -6.782  10.394  1.00  0.00     0.031 C 
ATOM     62  C   UNL     1      -8.629  -4.585  11.516  1.00  0.00     0.031 A 
BRANCH  49  63
ATOM     63  C   UNL     1      -7.117   1.381  10.968  1.00  0.00    -0.014 A 
ATOM     64  C   UNL     1      -7.900   2.410  10.414  1.00  0.00     0.010 A 
ATOM     65  C   UNL     1      -6.321   1.652  12.095  1.00  0.00     0.010 A 
ATOM     66  C   UNL     1      -7.848   3.700  10.947  1.00  0.00     0.020 A 
ATOM     67  C   UNL     1      -6.286   2.935  12.646  1.00  0.00     0.020 A 
ATOM     68  C   UNL     1      -7.034   3.956  12.055  1.00  0.00     0.054 A 
BRANCH  68  69
ATOM     69  S   UNL     1      -6.977   5.640  12.725  1.00  0.00     0.124 S 
ATOM     70  O   UNL     1      -6.159   6.330  11.730  1.00  0.00    -0.237 OA
ATOM     71  O   UNL     1      -8.386   6.022  12.755  1.00  0.00    -0.237 OA
ATOM     72  O   UNL     1      -6.353   5.470  14.035  1.00  0.00    -0.744 OA
ENDBRANCH  68  69
ENDBRANCH  49  63
BRANCH  50  73
ATOM     73  C   UNL     1      -6.630  -7.603   6.665  1.00  0.00    -0.014 A 
ATOM     74  C   UNL     1      -7.812  -8.222   6.219  1.00  0.00     0.010 A 
ATOM     75  C   UNL     1      -5.410  -8.290   6.538  1.00  0.00     0.010 A 
ATOM     76  C   UNL     1      -7.777  -9.514   5.684  1.00  0.00     0.020 A 
ATOM     77  C   UNL     1      -5.367  -9.572   5.982  1.00  0.00     0.020 A 
ATOM     78  C   UNL     1      -6.554 -10.182   5.572  1.00  0.00     0.054 A 
BRANCH  78  79
ATOM     79  S   UNL     1      -6.527 -11.847   4.851  1.00  0.00     0.124 S 
ATOM     80  O   UNL     1      -7.089 -12.654   5.929  1.00  0.00    -0.237 OA
ATOM     81  O   UNL     1      -7.370 -11.693   3.668  1.00  0.00    -0.237 OA
ATOM     82  O   UNL     1      -5.110 -12.074   4.571  1.00  0.00    -0.744 OA
ENDBRANCH  78  79
ENDBRANCH  50  73
BRANCH  62  83
ATOM     83  C   UNL     1      -9.420  -5.258  12.607  1.00  0.00    -0.014 A 
ATOM     84  C   UNL     1      -8.808  -6.118  13.535  1.00  0.00     0.010 A 
ATOM     85  C   UNL     1     -10.793  -4.976  12.738  1.00  0.00     0.010 A 
ATOM     86  C   UNL     1      -9.561  -6.713  14.552  1.00  0.00     0.020 A 
ATOM     87  C   UNL     1     -11.544  -5.546  13.769  1.00  0.00     0.020 A 
ATOM     88  C   UNL     1     -10.926  -6.425  14.660  1.00  0.00     0.054 A 
BRANCH  88  89
ATOM     89  S   UNL     1     -11.877  -7.179  16.009  1.00  0.00     0.124 S 
ATOM     90  O   UNL     1     -12.048  -8.548  15.531  1.00  0.00    -0.237 OA
ATOM     91  O   UNL     1     -10.989  -7.020  17.158  1.00  0.00    -0.237 OA
ATOM     92  O   UNL     1     -13.099  -6.379  16.060  1.00  0.00    -0.744 OA
ENDBRANCH  88  89
ENDBRANCH  62  83
ENDBRANCH  36  37
ENDBRANCH  29  31
ENDBRANCH  28  29
ENDBRANCH  27  28
ENDBRANCH   1  27
TORSDOF 20
