REMARK SMILES C=C1C(=O)O[C@H]2[C@@H]1[C@H](OC(=O)[C@]1(C)O[C@@H]1C)[C@@H](OC(C)=O)/C(C(=O)OCCOCCOC(=O)c1ccc(-c3c4nc(c(-c5ccc(S(=O)(=O)[O-])cc5)c5ccc([nH]5)c(-c5ccc(S(=O)(=O)[O-])cc5)c5nc(c(-c6ccc(S(=O)(=O)[O-])cc6)c6ccc3[nH]6)C=C5)C=C4)cc1)=C/[C@@H]1O[C@@H]1[C@]1(C)O[C@H]21
REMARK SMILES IDX 27 1 26 2 25 3 23 4 24 5 22 6 94 7 95 8 97 9 96 10 98 11
REMARK SMILES IDX 101 12 100 13 99 14 6 15 1 16 2 17 3 18 7 19 5 20 4 21 17 23
REMARK SMILES IDX 8 24 9 26 10 27 11 28 12 29 14 30 15 31 13 32 16 33 18 34
REMARK SMILES IDX 19 35 20 36 21 37 28 38 29 39 30 40 31 41 32 42 33 43 34 44
REMARK SMILES IDX 35 45 93 46 36 47 92 48 37 49 38 50 39 51 86 52 40 53 91 54
REMARK SMILES IDX 85 55 87 56 41 57 90 58 84 59 83 60 42 62 72 63 53 64 71 65
REMARK SMILES IDX 54 66 57 67 70 68 88 69 55 70 56 71 69 73 89 74 58 75 43 76
REMARK SMILES IDX 44 77 52 78 45 79 51 80 46 81 47 82 48 83 49 84 50 85 73 86
REMARK SMILES IDX 74 87 82 88 75 89 81 90 76 91 77 92 78 93 79 94 80 95 59 96
REMARK SMILES IDX 60 97 68 98 61 99 67 100 62 101 63 102 64 103 65 104 66 105
REMARK H PARENT 87 61 57 72
REMARK Flexibility Score: 90.00
ROOT
ATOM      1  C   UNL     1     -11.488  -3.701  -1.901  1.00  0.00     0.202 C 
ENDROOT
BRANCH   1   2
ATOM      2  C   UNL     1     -11.070  -4.950  -1.111  1.00  0.00     0.261 C 
BRANCH   2   3
ATOM      3  O   UNL     1      -9.909  -4.778  -0.262  1.00  0.00    -0.460 OA
BRANCH   3   4
ATOM      4  C   UNL     1      -8.726  -4.928  -0.902  1.00  0.00     0.337 C 
ATOM      5  O   UNL     1      -8.591  -5.144  -2.097  1.00  0.00    -0.246 OA
BRANCH   4   6
ATOM      6  C   UNL     1      -7.549  -4.720  -0.027  1.00  0.00     0.080 C 
ATOM      7  C   UNL     1      -7.220  -5.548   0.983  1.00  0.00     0.022 C 
BRANCH   7   8
ATOM      8  C   UNL     1      -7.752  -6.842   1.399  1.00  0.00     0.174 C 
ATOM      9  C   UNL     1      -8.037  -8.016   0.490  1.00  0.00     0.186 C 
ATOM     10  O   UNL     1      -6.837  -7.957   1.251  1.00  0.00    -0.362 OA
BRANCH   9  11
ATOM     11  C   UNL     1      -7.969  -7.920  -1.034  1.00  0.00     0.125 C 
ATOM     12  C   UNL     1      -6.982  -7.296  -2.065  1.00  0.00     0.195 C 
ATOM     13  O   UNL     1      -6.901  -8.665  -1.631  1.00  0.00    -0.359 OA
ATOM     14  C   UNL     1      -9.315  -8.297  -1.632  1.00  0.00     0.048 C 
BRANCH  12  15
ATOM     15  C   UNL     1      -5.671  -6.546  -1.872  1.00  0.00     0.220 C 
ATOM     16  C   UNL     1      -6.425  -5.267  -4.896  1.00  0.00     0.021 C 
ATOM     17  C   UNL     1      -5.580  -5.547  -3.898  1.00  0.00     0.041 C 
ATOM     18  C   UNL     1      -4.699  -6.737  -3.967  1.00  0.00     0.334 C 
ATOM     19  C   UNL     1      -5.504  -5.122  -2.466  1.00  0.00     0.115 CG0
ATOM     20  O   UNL     1      -4.684  -7.257  -2.697  1.00  0.00    -0.455 OA
ATOM     21  O   UNL     1      -4.102  -7.149  -4.941  1.00  0.00    -0.247 OA
ATOM     22  G   UNL     1      -6.186  -3.798  -2.035  1.00  0.00     0.000 G0
ENDBRANCH  12  15
ENDBRANCH   9  11
ENDBRANCH   7   8
BRANCH   6  23
ATOM     23  C   UNL     1      -6.521  -3.719  -0.508  1.00  0.00     0.255 C 
BRANCH  23  24
ATOM     24  C   UNL     1      -6.186  -3.798  -2.035  1.00  0.00     0.234 CG0
ATOM     25  G   UNL     1      -5.504  -5.122  -2.466  1.00  0.00     0.000 G0
BRANCH  24  26
ATOM     26  O   UNL     1      -5.149  -2.727  -2.231  1.00  0.00    -0.455 OA
BRANCH  26  27
ATOM     27  C   UNL     1      -5.127  -1.575  -2.963  1.00  0.00     0.341 C 
ATOM     28  O   UNL     1      -4.275  -0.724  -2.732  1.00  0.00    -0.249 OA
BRANCH  27  29
ATOM     29  C   UNL     1      -6.082  -1.333  -4.084  1.00  0.00     0.188 C 
ATOM     30  O   UNL     1      -6.486  -2.441  -4.881  1.00  0.00    -0.354 OA
ATOM     31  C   UNL     1      -5.517  -1.594  -5.488  1.00  0.00     0.160 C 
ATOM     32  C   UNL     1      -7.074  -0.205  -4.045  1.00  0.00     0.058 C 
ATOM     33  C   UNL     1      -4.181  -2.209  -5.708  1.00  0.00     0.042 C 
ENDBRANCH  27  29
ENDBRANCH  26  27
ENDBRANCH  24  26
ENDBRANCH  23  24
BRANCH  23  34
ATOM     34  O   UNL     1      -7.020  -2.388  -0.289  1.00  0.00    -0.453 OA
BRANCH  34  35
ATOM     35  C   UNL     1      -6.269  -1.522   0.438  1.00  0.00     0.303 C 
ATOM     36  C   UNL     1      -6.354  -0.173  -0.210  1.00  0.00     0.139 C 
ATOM     37  O   UNL     1      -5.599  -1.808   1.415  1.00  0.00    -0.253 OA
ENDBRANCH  34  35
ENDBRANCH  23  34
ENDBRANCH   6  23
ENDBRANCH   4   6
ENDBRANCH   3   4
ENDBRANCH   2   3
ENDBRANCH   1   2
BRANCH   1  38
ATOM     38  O   UNL     1     -10.420  -3.226  -2.710  1.00  0.00    -0.374 OA
BRANCH  38  39
ATOM     39  C   UNL     1      -9.886  -1.934  -2.438  1.00  0.00     0.202 C 
BRANCH  39  40
ATOM     40  C   UNL     1      -9.613  -1.588  -0.982  1.00  0.00     0.261 C 
BRANCH  40  41
ATOM     41  O   UNL     1     -10.768  -1.360  -0.211  1.00  0.00    -0.460 OA
BRANCH  41  42
ATOM     42  C   UNL     1     -11.406  -0.188  -0.416  1.00  0.00     0.338 C 
ATOM     43  O   UNL     1     -11.163   0.696  -1.179  1.00  0.00    -0.246 OA
BRANCH  42  44
ATOM     44  C   UNL     1     -12.501  -0.348   0.538  1.00  0.00     0.060 A 
ATOM     45  C   UNL     1     -13.710  -0.878   0.082  1.00  0.00     0.016 A 
ATOM     46  C   UNL     1     -12.178  -0.249   1.894  1.00  0.00     0.016 A 
ATOM     47  C   UNL     1     -14.648  -1.277   1.018  1.00  0.00     0.010 A 
ATOM     48  C   UNL     1     -13.103  -0.675   2.825  1.00  0.00     0.010 A 
ATOM     49  C   UNL     1     -14.348  -1.148   2.382  1.00  0.00    -0.014 A 
BRANCH  49  50
ATOM     50  C   UNL     1     -15.421  -1.267   3.373  1.00  0.00     0.031 A 
ATOM     51  C   UNL     1     -16.027   0.016   3.851  1.00  0.00     0.074 A 
ATOM     52  C   UNL     1     -15.790  -2.473   3.830  1.00  0.00     0.049 A 
ATOM     53  N   UNL     1     -16.926   0.211   4.772  1.00  0.00    -0.248 NA
ATOM     54  C   UNL     1     -15.530   1.254   3.217  1.00  0.00     0.031 C 
ATOM     55  C   UNL     1     -15.238  -3.755   3.386  1.00  0.00     0.029 A 
ATOM     56  N   UNL     1     -16.715  -2.811   4.775  1.00  0.00    -0.354 N 
ATOM     57  C   UNL     1     -17.091   1.589   4.836  1.00  0.00     0.074 A 
ATOM     58  C   UNL     1     -16.170   2.186   3.901  1.00  0.00     0.031 C 
ATOM     59  C   UNL     1     -15.846  -4.746   4.061  1.00  0.00     0.029 A 
ATOM     60  C   UNL     1     -16.799  -4.163   5.001  1.00  0.00     0.049 A 
ATOM     61  H   UNL     1     -17.269  -2.150   5.249  1.00  0.00     0.167 HD
ATOM     62  C   UNL     1     -17.954   2.288   5.605  1.00  0.00     0.031 A 
ATOM     63  C   UNL     1     -17.561  -4.834   5.884  1.00  0.00     0.031 A 
ATOM     64  C   UNL     1     -18.840   1.654   6.537  1.00  0.00     0.049 A 
ATOM     65  C   UNL     1     -18.489  -4.032   6.758  1.00  0.00     0.074 A 
ATOM     66  C   UNL     1     -19.765   2.232   7.382  1.00  0.00     0.029 A 
ATOM     67  N   UNL     1     -18.902   0.281   6.740  1.00  0.00    -0.354 N 
ATOM     68  N   UNL     1     -18.660  -2.729   6.798  1.00  0.00    -0.248 NA
ATOM     69  C   UNL     1     -19.334  -4.782   7.694  1.00  0.00     0.031 C 
ATOM     70  C   UNL     1     -20.358   1.208   8.128  1.00  0.00     0.029 A 
ATOM     71  C   UNL     1     -19.844  -0.011   7.705  1.00  0.00     0.049 A 
ATOM     72  H   UNL     1     -18.355  -0.386   6.265  1.00  0.00     0.167 HD
ATOM     73  C   UNL     1     -19.654  -2.504   7.740  1.00  0.00     0.074 A 
ATOM     74  C   UNL     1     -20.049  -3.808   8.241  1.00  0.00     0.031 C 
ATOM     75  C   UNL     1     -20.201  -1.334   8.156  1.00  0.00     0.031 A 
BRANCH  62  76
ATOM     76  C   UNL     1     -17.931   3.786   5.475  1.00  0.00    -0.014 A 
ATOM     77  C   UNL     1     -18.363   4.421   4.295  1.00  0.00     0.010 A 
ATOM     78  C   UNL     1     -17.436   4.571   6.530  1.00  0.00     0.010 A 
ATOM     79  C   UNL     1     -18.253   5.806   4.153  1.00  0.00     0.020 A 
ATOM     80  C   UNL     1     -17.352   5.961   6.404  1.00  0.00     0.020 A 
ATOM     81  C   UNL     1     -17.742   6.567   5.208  1.00  0.00     0.054 A 
BRANCH  81  82
ATOM     82  S   UNL     1     -17.613   8.364   5.000  1.00  0.00     0.124 S 
ATOM     83  O   UNL     1     -16.479   8.480   4.086  1.00  0.00    -0.237 OA
ATOM     84  O   UNL     1     -18.913   8.716   4.434  1.00  0.00    -0.237 OA
ATOM     85  O   UNL     1     -17.373   8.854   6.355  1.00  0.00    -0.744 OA
ENDBRANCH  81  82
ENDBRANCH  62  76
BRANCH  63  86
ATOM     86  C   UNL     1     -17.487  -6.317   5.958  1.00  0.00    -0.014 A 
ATOM     87  C   UNL     1     -18.553  -7.110   5.498  1.00  0.00     0.010 A 
ATOM     88  C   UNL     1     -16.330  -6.951   6.448  1.00  0.00     0.010 A 
ATOM     89  C   UNL     1     -18.468  -8.506   5.534  1.00  0.00     0.020 A 
ATOM     90  C   UNL     1     -16.230  -8.346   6.463  1.00  0.00     0.020 A 
ATOM     91  C   UNL     1     -17.304  -9.115   6.012  1.00  0.00     0.054 A 
BRANCH  91  92
ATOM     92  S   UNL     1     -17.191 -10.927   5.985  1.00  0.00     0.124 S 
ATOM     93  O   UNL     1     -18.097 -11.304   7.065  1.00  0.00    -0.237 OA
ATOM     94  O   UNL     1     -17.644 -11.249   4.635  1.00  0.00    -0.237 OA
ATOM     95  O   UNL     1     -15.774 -11.183   6.236  1.00  0.00    -0.744 OA
ENDBRANCH  91  92
ENDBRANCH  63  86
BRANCH  75  96
ATOM     96  C   UNL     1     -21.311  -1.418   9.163  1.00  0.00    -0.014 A 
ATOM     97  C   UNL     1     -21.046  -1.693  10.514  1.00  0.00     0.010 A 
ATOM     98  C   UNL     1     -22.624  -1.113   8.758  1.00  0.00     0.010 A 
ATOM     99  C   UNL     1     -22.085  -1.677  11.446  1.00  0.00     0.020 A 
ATOM    100  C   UNL     1     -23.658  -1.070   9.691  1.00  0.00     0.020 A 
ATOM    101  C   UNL     1     -23.383  -1.361  11.029  1.00  0.00     0.054 A 
BRANCH 101 102
ATOM    102  S   UNL     1     -24.698  -1.273  12.271  1.00  0.00     0.124 S 
ATOM    103  O   UNL     1     -24.933  -2.685  12.563  1.00  0.00    -0.237 OA
ATOM    104  O   UNL     1     -24.074  -0.504  13.345  1.00  0.00    -0.237 OA
ATOM    105  O   UNL     1     -25.787  -0.590  11.575  1.00  0.00    -0.744 OA
ENDBRANCH 101 102
ENDBRANCH  75  96
ENDBRANCH  49  50
ENDBRANCH  42  44
ENDBRANCH  41  42
ENDBRANCH  40  41
ENDBRANCH  39  40
ENDBRANCH  38  39
ENDBRANCH   1  38
TORSDOF 22
