REMARK SMILES CCc1n[nH]c(C(=O)N(C)[C@H]2COC[C@H]2C(=O)OCCOCCOC(=O)c2ccc(-c3c4nc(c(-c5ccc(S(=O)(=O)[O-])cc5)c5ccc([nH]5)c(-c5ccc(S(=O)(=O)[O-])cc5)c5nc(c(-c6ccc(S(=O)(=O)[O-])cc6)c6ccc3[nH]6)C=C5)C=C4)cc2)n1
REMARK SMILES IDX 20 1 19 2 18 3 16 4 17 5 15 6 11 7 12 8 13 9 14 10 9 11
REMARK SMILES IDX 10 12 7 13 8 14 6 15 3 16 4 17 87 18 5 19 2 21 1 22 21 23
REMARK SMILES IDX 22 24 23 25 24 26 25 27 26 28 27 29 28 30 86 31 29 32 85 33
REMARK SMILES IDX 30 34 31 35 32 36 79 37 33 38 84 39 78 40 80 41 34 42 83 43
REMARK SMILES IDX 77 44 76 45 35 47 65 48 46 49 64 50 47 51 50 52 63 53 81 54
REMARK SMILES IDX 48 55 49 56 62 58 82 59 51 60 36 61 37 62 45 63 38 64 44 65
REMARK SMILES IDX 39 66 40 67 41 68 42 69 43 70 66 71 67 72 75 73 68 74 74 75
REMARK SMILES IDX 69 76 70 77 71 78 72 79 73 80 52 81 53 82 61 83 54 84 60 85
REMARK SMILES IDX 55 86 56 87 57 88 58 89 59 90
REMARK H PARENT 5 20 80 46 50 57
REMARK Flexibility Score: inf
ROOT
ATOM      1  C   UNL     1       3.317   7.231   6.620  1.00  0.00     0.202 C 
ENDROOT
BRANCH   1   2
ATOM      2  C   UNL     1       2.450   8.313   5.963  1.00  0.00     0.261 C 
BRANCH   2   3
ATOM      3  O   UNL     1       1.563   7.840   4.930  1.00  0.00    -0.463 OA
BRANCH   3   4
ATOM      4  C   UNL     1       2.042   8.040   3.684  1.00  0.00     0.313 C 
ATOM      5  O   UNL     1       3.148   8.521   3.440  1.00  0.00    -0.252 OA
BRANCH   4   6
ATOM      6  C   UNL     1       1.120   7.701   2.552  1.00  0.00     0.150 C 
ATOM      7  C   UNL     1       0.057   6.601   2.431  1.00  0.00     0.127 C 
ATOM      8  C   UNL     1      -0.626   7.123   1.142  1.00  0.00     0.186 C 
ATOM      9  O   UNL     1      -0.582   8.564   1.162  1.00  0.00    -0.378 OA
ATOM     10  C   UNL     1       0.451   8.968   2.068  1.00  0.00     0.177 C 
BRANCH   7  11
ATOM     11  N   UNL     1      -0.877   6.324   3.556  1.00  0.00    -0.333 N 
ATOM     12  C   UNL     1      -2.129   7.098   3.606  1.00  0.00     0.147 C 
BRANCH  11  13
ATOM     13  C   UNL     1      -0.710   5.132   4.354  1.00  0.00     0.291 C 
ATOM     14  O   UNL     1      -0.101   4.159   3.907  1.00  0.00    -0.265 OA
BRANCH  13  15
ATOM     15  C   UNL     1      -1.188   5.197   5.755  1.00  0.00     0.214 A 
ATOM     16  C   UNL     1      -1.828   6.800   8.113  1.00  0.00     0.151 A 
ATOM     17  N   UNL     1      -1.202   5.100   8.792  1.00  0.00    -0.158 NA
ATOM     18  N   UNL     1      -1.674   6.608   6.271  1.00  0.00    -0.207 NA
ATOM     19  N   UNL     1      -0.911   4.075   7.195  1.00  0.00    -0.255 N 
ATOM     20  H   UNL     1      -0.659   3.124   7.151  1.00  0.00     0.192 HD
BRANCH  16  21
ATOM     21  C   UNL     1      -3.190   7.727   8.208  1.00  0.00     0.076 C 
ATOM     22  C   UNL     1      -4.390   7.325   7.308  1.00  0.00     0.012 C 
ENDBRANCH  16  21
ENDBRANCH  13  15
ENDBRANCH  11  13
ENDBRANCH   7  11
ENDBRANCH   4   6
ENDBRANCH   3   4
ENDBRANCH   2   3
ENDBRANCH   1   2
BRANCH   1  23
ATOM     23  O   UNL     1       4.101   6.371   5.799  1.00  0.00    -0.374 OA
BRANCH  23  24
ATOM     24  C   UNL     1       3.470   5.393   4.974  1.00  0.00     0.202 C 
BRANCH  24  25
ATOM     25  C   UNL     1       2.649   4.312   5.660  1.00  0.00     0.261 C 
BRANCH  25  26
ATOM     26  O   UNL     1       1.386   4.912   5.989  1.00  0.00    -0.460 OA
BRANCH  26  27
ATOM     27  C   UNL     1       1.111   5.115   7.285  1.00  0.00     0.338 C 
ATOM     28  O   UNL     1       1.824   4.703   8.192  1.00  0.00    -0.246 OA
BRANCH  27  29
ATOM     29  C   UNL     1      -0.348   5.898   7.505  1.00  0.00     0.060 A 
ATOM     30  C   UNL     1       0.222   6.714   8.948  1.00  0.00     0.016 A 
ATOM     31  C   UNL     1      -2.348   5.201   7.498  1.00  0.00     0.016 A 
ATOM     32  C   UNL     1      -0.748   6.786  10.259  1.00  0.00     0.010 A 
ATOM     33  C   UNL     1      -3.195   5.347   9.076  1.00  0.00     0.010 A 
ATOM     34  C   UNL     1      -2.342   6.202  10.348  1.00  0.00    -0.014 A 
BRANCH  34  35
ATOM     35  C   UNL     1      -3.123   6.802  11.478  1.00  0.00     0.031 A 
ATOM     36  C   UNL     1      -3.947   5.872  12.278  1.00  0.00     0.074 A 
ATOM     37  C   UNL     1      -3.225   8.151  11.624  1.00  0.00     0.049 A 
ATOM     38  N   UNL     1      -4.951   6.136  13.062  1.00  0.00    -0.248 NA
ATOM     39  C   UNL     1      -3.631   4.444  12.119  1.00  0.00     0.031 C 
ATOM     40  C   UNL     1      -2.479   9.182  10.877  1.00  0.00     0.029 A 
ATOM     41  N   UNL     1      -4.103   8.908  12.370  1.00  0.00    -0.354 N 
ATOM     42  C   UNL     1      -5.410   4.898  13.472  1.00  0.00     0.074 A 
ATOM     43  C   UNL     1      -4.648   3.894  12.760  1.00  0.00     0.031 C 
ATOM     44  C   UNL     1      -3.005  10.394  11.103  1.00  0.00     0.029 A 
ATOM     45  C   UNL     1      -4.098  10.254  12.044  1.00  0.00     0.049 A 
ATOM     46  H   UNL     1      -4.681   8.527  13.070  1.00  0.00     0.167 HD
ATOM     47  C   UNL     1      -6.350   4.632  14.405  1.00  0.00     0.031 A 
ATOM     48  C   UNL     1      -4.894  11.267  12.440  1.00  0.00     0.031 A 
ATOM     49  C   UNL     1      -7.072   5.658  15.104  1.00  0.00     0.049 A 
ATOM     50  C   UNL     1      -5.948  10.954  13.460  1.00  0.00     0.074 A 
ATOM     51  C   UNL     1      -7.981   5.523  16.133  1.00  0.00     0.029 A 
ATOM     52  N   UNL     1      -6.958   7.019  14.839  1.00  0.00    -0.354 N 
ATOM     53  N   UNL     1      -6.309   9.782  13.928  1.00  0.00    -0.248 NA
ATOM     54  C   UNL     1      -6.663  12.091  14.047  1.00  0.00     0.031 C 
ATOM     55  C   UNL     1      -8.462   6.797  16.453  1.00  0.00     0.029 A 
ATOM     56  C   UNL     1      -7.798   7.734  15.674  1.00  0.00     0.049 A 
ATOM     57  H   UNL     1      -6.368   7.415  14.159  1.00  0.00     0.167 HD
ATOM     58  C   UNL     1      -7.255  10.043  14.909  1.00  0.00     0.074 A 
ATOM     59  C   UNL     1      -7.406  11.485  14.963  1.00  0.00     0.031 C 
ATOM     60  C   UNL     1      -7.926   9.172  15.701  1.00  0.00     0.031 A 
BRANCH  47  61
ATOM     61  C   UNL     1      -6.606   3.183  14.702  1.00  0.00    -0.014 A 
ATOM     62  C   UNL     1      -5.584   2.362  15.221  1.00  0.00     0.010 A 
ATOM     63  C   UNL     1      -7.859   2.617  14.416  1.00  0.00     0.010 A 
ATOM     64  C   UNL     1      -5.785   0.990  15.370  1.00  0.00     0.020 A 
ATOM     65  C   UNL     1      -8.079   1.252  14.611  1.00  0.00     0.020 A 
ATOM     66  C   UNL     1      -7.032   0.444  15.062  1.00  0.00     0.054 A 
BRANCH  66  67
ATOM     67  S   UNL     1      -7.264  -1.339  15.277  1.00  0.00     0.124 S 
ATOM     68  O   UNL     1      -6.455  -1.883  14.188  1.00  0.00    -0.237 OA
ATOM     69  O   UNL     1      -6.741  -1.567  16.621  1.00  0.00    -0.237 OA
ATOM     70  O   UNL     1      -8.706  -1.522  15.131  1.00  0.00    -0.744 OA
ENDBRANCH  66  67
ENDBRANCH  47  61
BRANCH  48  71
ATOM     71  C   UNL     1      -4.681  12.661  11.941  1.00  0.00    -0.014 A 
ATOM     72  C   UNL     1      -4.117  13.637  12.784  1.00  0.00     0.010 A 
ATOM     73  C   UNL     1      -5.025  13.029  10.626  1.00  0.00     0.010 A 
ATOM     74  C   UNL     1      -3.927  14.950  12.338  1.00  0.00     0.020 A 
ATOM     75  C   UNL     1      -4.813  14.337  10.166  1.00  0.00     0.020 A 
ATOM     76  C   UNL     1      -4.272  15.293  11.029  1.00  0.00     0.054 A 
BRANCH  76  77
ATOM     77  S   UNL     1      -3.964  16.992  10.464  1.00  0.00     0.124 S 
ATOM     78  O   UNL     1      -4.921  17.758  11.256  1.00  0.00    -0.237 OA
ATOM     79  O   UNL     1      -2.558  17.186  10.811  1.00  0.00    -0.237 OA
ATOM     80  O   UNL     1      -4.242  16.934   9.031  1.00  0.00    -0.744 OA
ENDBRANCH  76  77
ENDBRANCH  48  71
BRANCH  60  81
ATOM     81  C   UNL     1      -8.849   9.762  16.732  1.00  0.00    -0.014 A 
ATOM     82  C   UNL     1     -10.043  10.406  16.367  1.00  0.00     0.010 A 
ATOM     83  C   UNL     1      -8.534   9.612  18.095  1.00  0.00     0.010 A 
ATOM     84  C   UNL     1     -10.890  10.922  17.349  1.00  0.00     0.020 A 
ATOM     85  C   UNL     1      -9.398  10.089  19.080  1.00  0.00     0.020 A 
ATOM     86  C   UNL     1     -10.564  10.755  18.699  1.00  0.00     0.054 A 
BRANCH  86  87
ATOM     87  S   UNL     1     -11.708  11.388  19.952  1.00  0.00     0.124 S 
ATOM     88  O   UNL     1     -11.541  12.832  19.813  1.00  0.00    -0.237 OA
ATOM     89  O   UNL     1     -12.994  10.857  19.506  1.00  0.00    -0.237 OA
ATOM     90  O   UNL     1     -11.205  10.820  21.201  1.00  0.00    -0.744 OA
ENDBRANCH  86  87
ENDBRANCH  60  81
ENDBRANCH  34  35
ENDBRANCH  27  29
ENDBRANCH  26  27
ENDBRANCH  25  26
ENDBRANCH  24  25
ENDBRANCH  23  24
ENDBRANCH   1  23
TORSDOF 21
