REMARK SMILES O=C(CCC(=O)OCCOCCOC(=O)c1ccc(-c2c3nc(c(-c4ccc(S(=O)(=O)[O-])cc4)c4ccc([nH]4)c(-c4ccc(S(=O)(=O)[O-])cc4)c4nc(c(-c5ccc(S(=O)(=O)[O-])cc5)c5ccc2[nH]5)C=C4)C=C3)cc1)Nc1cccc2c1C(=O)c1ccccc1C2=O
REMARK SMILES IDX 10 1 9 2 8 3 7 4 5 5 6 6 4 7 3 8 2 9 1 10 76 11 77 13 78 14
REMARK SMILES IDX 82 15 79 16 81 17 83 18 80 19 91 20 84 21 85 22 90 23 92 24
REMARK SMILES IDX 86 25 89 26 87 27 88 28 11 29 12 30 13 31 14 32 15 33 16 34
REMARK SMILES IDX 17 35 75 36 18 37 74 38 19 39 20 40 21 41 68 42 22 43 73 44
REMARK SMILES IDX 67 45 69 46 23 47 72 48 66 49 65 50 24 52 54 53 35 54 53 55
REMARK SMILES IDX 36 56 39 57 52 58 70 59 37 60 38 61 51 63 71 64 40 65 25 66
REMARK SMILES IDX 26 67 34 68 27 69 33 70 28 71 29 72 30 73 31 74 32 75 55 76
REMARK SMILES IDX 56 77 64 78 57 79 63 80 58 81 59 82 60 83 61 84 62 85 41 86
REMARK SMILES IDX 42 87 50 88 43 89 49 90 44 91 45 92 46 93 47 94 48 95
REMARK H PARENT 76 12 69 51 39 62
REMARK Flexibility Score: inf
ROOT
ATOM      1  O   UNL     1       6.758  -0.841  -0.360  1.00  0.00    -0.374 OA
ENDROOT
BRANCH   1   2
ATOM      2  C   UNL     1       5.970  -2.032  -0.427  1.00  0.00     0.202 C 
BRANCH   2   3
ATOM      3  C   UNL     1       5.341  -2.384   0.923  1.00  0.00     0.261 C 
BRANCH   3   4
ATOM      4  O   UNL     1       4.136  -1.613   1.152  1.00  0.00    -0.463 OA
BRANCH   4   5
ATOM      5  C   UNL     1       4.118  -0.822   2.257  1.00  0.00     0.306 C 
ATOM      6  O   UNL     1       5.025  -0.729   3.074  1.00  0.00    -0.252 OA
BRANCH   5   7
ATOM      7  C   UNL     1       2.782  -0.129   2.438  1.00  0.00     0.132 C 
BRANCH   7   8
ATOM      8  C   UNL     1       2.230   0.512   1.170  1.00  0.00     0.112 C 
BRANCH   8   9
ATOM      9  C   UNL     1       1.013  -0.143   0.522  1.00  0.00     0.224 C 
ATOM     10  O   UNL     1       0.220   0.543  -0.117  1.00  0.00    -0.275 OA
ATOM     11  N   UNL     1       1.001  -1.520   0.573  1.00  0.00    -0.325 N 
ATOM     12  H   UNL     1       1.464  -1.950   1.328  1.00  0.00     0.169 HD
BRANCH  11  13
ATOM     13  C   UNL     1       0.372  -2.370  -0.381  1.00  0.00     0.053 A 
ATOM     14  C   UNL     1       0.987  -3.626  -0.422  1.00  0.00     0.027 A 
ATOM     15  C   UNL     1      -0.172  -1.861  -1.566  1.00  0.00     0.057 A 
ATOM     16  C   UNL     1       1.454  -4.084  -1.645  1.00  0.00     0.003 A 
ATOM     17  C   UNL     1       0.568  -2.097  -2.708  1.00  0.00     0.036 A 
ATOM     18  C   UNL     1      -1.641  -2.142  -1.829  1.00  0.00     0.196 C 
ATOM     19  C   UNL     1       1.313  -3.275  -2.772  1.00  0.00     0.013 A 
ATOM     20  C   UNL     1       0.072  -1.506  -3.954  1.00  0.00     0.194 C 
ATOM     21  O   UNL     1      -2.436  -2.260  -0.905  1.00  0.00    -0.288 OA
ATOM     22  C   UNL     1      -2.093  -2.369  -3.249  1.00  0.00     0.034 A 
ATOM     23  C   UNL     1      -1.274  -1.957  -4.305  1.00  0.00     0.034 A 
ATOM     24  O   UNL     1       0.749  -0.761  -4.641  1.00  0.00    -0.289 OA
ATOM     25  C   UNL     1      -3.268  -3.059  -3.549  1.00  0.00     0.013 A 
ATOM     26  C   UNL     1      -1.621  -2.151  -5.643  1.00  0.00     0.013 A 
ATOM     27  C   UNL     1      -3.602  -3.310  -4.889  1.00  0.00     0.001 A 
ATOM     28  C   UNL     1      -2.792  -2.842  -5.931  1.00  0.00     0.001 A 
ENDBRANCH  11  13
ENDBRANCH   8   9
ENDBRANCH   7   8
ENDBRANCH   5   7
ENDBRANCH   4   5
ENDBRANCH   3   4
ENDBRANCH   2   3
ENDBRANCH   1   2
BRANCH   1  29
ATOM     29  C   UNL     1       6.052   0.361  -0.665  1.00  0.00     0.202 C 
BRANCH  29  30
ATOM     30  C   UNL     1       6.110   0.741  -2.148  1.00  0.00     0.261 C 
BRANCH  30  31
ATOM     31  O   UNL     1       5.354  -0.176  -2.960  1.00  0.00    -0.460 OA
BRANCH  31  32
ATOM     32  C   UNL     1       6.081  -1.093  -3.651  1.00  0.00     0.338 C 
ATOM     33  O   UNL     1       7.290  -1.214  -3.655  1.00  0.00    -0.246 OA
BRANCH  32  34
ATOM     34  C   UNL     1       5.170  -2.043  -4.339  1.00  0.00     0.060 A 
ATOM     35  C   UNL     1       5.559  -3.386  -4.458  1.00  0.00     0.016 A 
ATOM     36  C   UNL     1       3.962  -1.626  -4.889  1.00  0.00     0.016 A 
ATOM     37  C   UNL     1       4.734  -4.317  -5.109  1.00  0.00     0.010 A 
ATOM     38  C   UNL     1       3.152  -2.556  -5.548  1.00  0.00     0.010 A 
ATOM     39  C   UNL     1       3.512  -3.915  -5.657  1.00  0.00    -0.014 A 
BRANCH  39  40
ATOM     40  C   UNL     1       2.577  -4.842  -6.367  1.00  0.00     0.031 A 
ATOM     41  C   UNL     1       2.214  -4.544  -7.799  1.00  0.00     0.074 A 
ATOM     42  C   UNL     1       1.931  -5.843  -5.729  1.00  0.00     0.049 A 
ATOM     43  N   UNL     1       1.255  -5.047  -8.532  1.00  0.00    -0.248 NA
ATOM     44  C   UNL     1       3.031  -3.528  -8.482  1.00  0.00     0.031 C 
ATOM     45  C   UNL     1       2.157  -6.273  -4.350  1.00  0.00     0.029 A 
ATOM     46  N   UNL     1       0.884  -6.636  -6.145  1.00  0.00    -0.354 N 
ATOM     47  C   UNL     1       1.345  -4.399  -9.758  1.00  0.00     0.074 A 
ATOM     48  C   UNL     1       2.409  -3.424  -9.646  1.00  0.00     0.031 C 
ATOM     49  C   UNL     1       1.214  -7.167  -4.000  1.00  0.00     0.029 A 
ATOM     50  C   UNL     1       0.331  -7.397  -5.138  1.00  0.00     0.049 A 
ATOM     51  H   UNL     1       0.561  -6.657  -7.075  1.00  0.00     0.167 HD
ATOM     52  C   UNL     1       0.641  -4.618 -10.893  1.00  0.00     0.031 A 
ATOM     53  C   UNL     1      -0.768  -8.178  -5.121  1.00  0.00     0.031 A 
ATOM     54  C   UNL     1      -0.371  -5.622 -11.046  1.00  0.00     0.049 A 
ATOM     55  C   UNL     1      -1.557  -8.394  -6.384  1.00  0.00     0.074 A 
ATOM     56  C   UNL     1      -1.054  -5.986 -12.194  1.00  0.00     0.029 A 
ATOM     57  N   UNL     1      -0.837  -6.432 -10.026  1.00  0.00    -0.354 N 
ATOM     58  N   UNL     1      -1.398  -7.831  -7.556  1.00  0.00    -0.248 NA
ATOM     59  C   UNL     1      -2.644  -9.386  -6.334  1.00  0.00     0.031 C 
ATOM     60  C   UNL     1      -1.943  -7.016 -11.865  1.00  0.00     0.029 A 
ATOM     61  C   UNL     1      -1.797  -7.298 -10.517  1.00  0.00     0.049 A 
ATOM     62  H   UNL     1      -0.531  -6.396  -9.091  1.00  0.00     0.167 HD
ATOM     63  C   UNL     1      -2.307  -8.462  -8.399  1.00  0.00     0.074 A 
ATOM     64  C   UNL     1      -3.043  -9.414  -7.598  1.00  0.00     0.031 C 
ATOM     65  C   UNL     1      -2.487  -8.282  -9.729  1.00  0.00     0.031 A 
BRANCH  52  66
ATOM     66  C   UNL     1       0.991  -3.770 -12.080  1.00  0.00    -0.014 A 
ATOM     67  C   UNL     1       2.174  -4.010 -12.801  1.00  0.00     0.010 A 
ATOM     68  C   UNL     1       0.131  -2.735 -12.484  1.00  0.00     0.010 A 
ATOM     69  C   UNL     1       2.519  -3.195 -13.879  1.00  0.00     0.020 A 
ATOM     70  C   UNL     1       0.463  -1.931 -13.577  1.00  0.00     0.020 A 
ATOM     71  C   UNL     1       1.666  -2.153 -14.252  1.00  0.00     0.054 A 
BRANCH  71  72
ATOM     72  S   UNL     1       2.128  -1.106 -15.659  1.00  0.00     0.124 S 
ATOM     73  O   UNL     1       3.048  -0.158 -15.034  1.00  0.00    -0.237 OA
ATOM     74  O   UNL     1       2.739  -2.054 -16.586  1.00  0.00    -0.237 OA
ATOM     75  O   UNL     1       0.854  -0.544 -16.099  1.00  0.00    -0.744 OA
ENDBRANCH  71  72
ENDBRANCH  52  66
BRANCH  53  76
ATOM     76  C   UNL     1      -1.203  -8.849  -3.867  1.00  0.00    -0.014 A 
ATOM     77  C   UNL     1      -0.934 -10.213  -3.658  1.00  0.00     0.010 A 
ATOM     78  C   UNL     1      -1.954  -8.140  -2.913  1.00  0.00     0.010 A 
ATOM     79  C   UNL     1      -1.446 -10.869  -2.535  1.00  0.00     0.020 A 
ATOM     80  C   UNL     1      -2.455  -8.791  -1.781  1.00  0.00     0.020 A 
ATOM     81  C   UNL     1      -2.214 -10.156  -1.609  1.00  0.00     0.054 A 
BRANCH  81  82
ATOM     82  S   UNL     1      -2.878 -11.029  -0.163  1.00  0.00     0.124 S 
ATOM     83  O   UNL     1      -4.024 -11.729  -0.734  1.00  0.00    -0.237 OA
ATOM     84  O   UNL     1      -1.756 -11.872   0.242  1.00  0.00    -0.237 OA
ATOM     85  O   UNL     1      -3.200  -9.947   0.766  1.00  0.00    -0.744 OA
ENDBRANCH  81  82
ENDBRANCH  53  76
BRANCH  65  86
ATOM     86  C   UNL     1      -3.430  -9.207 -10.442  1.00  0.00    -0.014 A 
ATOM     87  C   UNL     1      -4.817  -8.995 -10.433  1.00  0.00     0.010 A 
ATOM     88  C   UNL     1      -2.895 -10.256 -11.214  1.00  0.00     0.010 A 
ATOM     89  C   UNL     1      -5.658  -9.821 -11.185  1.00  0.00     0.020 A 
ATOM     90  C   UNL     1      -3.731 -11.073 -11.977  1.00  0.00     0.020 A 
ATOM     91  C   UNL     1      -5.109 -10.854 -11.954  1.00  0.00     0.054 A 
BRANCH  91  92
ATOM     92  S   UNL     1      -6.203 -11.859 -12.997  1.00  0.00     0.124 S 
ATOM     93  O   UNL     1      -6.723 -12.832 -12.041  1.00  0.00    -0.237 OA
ATOM     94  O   UNL     1      -7.171 -10.883 -13.491  1.00  0.00    -0.237 OA
ATOM     95  O   UNL     1      -5.303 -12.401 -14.014  1.00  0.00    -0.744 OA
ENDBRANCH  91  92
ENDBRANCH  65  86
ENDBRANCH  39  40
ENDBRANCH  32  34
ENDBRANCH  31  32
ENDBRANCH  30  31
ENDBRANCH  29  30
ENDBRANCH   1  29
TORSDOF 20
