REMARK SMILES O=C(CCn1ccnc1)N[C@H]1C=C[C@H](C(=O)OCCOCCOC(=O)c2ccc(-c3c4nc(c(-c5ccc(S(=O)(=O)[O-])cc5)c5ccc([nH]5)c(-c5ccc(S(=O)(=O)[O-])cc5)c5nc(c(-c6ccc(S(=O)(=O)[O-])cc6)c6ccc3[nH]6)C=C5)C=C4)cc2)C1
REMARK SMILES IDX 19 1 18 2 17 3 15 4 16 5 14 6 11 7 12 8 86 9 13 10 10 11
REMARK SMILES IDX 1 12 2 13 3 15 4 16 5 17 6 18 9 19 7 20 8 21 20 22 21 23
REMARK SMILES IDX 22 24 23 25 24 26 25 27 26 28 27 29 85 30 28 31 84 32 29 33
REMARK SMILES IDX 30 34 31 35 78 36 32 37 83 38 77 39 79 40 33 41 82 42 76 43
REMARK SMILES IDX 75 44 34 46 64 47 45 48 63 49 46 50 49 51 62 52 80 53 47 54
REMARK SMILES IDX 48 55 61 57 81 58 50 59 35 60 36 61 44 62 37 63 43 64 38 65
REMARK SMILES IDX 39 66 40 67 41 68 42 69 65 70 66 71 74 72 67 73 73 74 68 75
REMARK SMILES IDX 69 76 70 77 71 78 72 79 51 80 52 81 60 82 53 83 59 84 54 85
REMARK SMILES IDX 55 86 56 87 57 88 58 89
REMARK H PARENT 10 14 79 45 49 56
REMARK Flexibility Score: inf
ROOT
ATOM      1  C   UNL     1      -2.915  -4.627  -1.208  1.00  0.00     0.202 C 
ENDROOT
BRANCH   1   2
ATOM      2  C   UNL     1      -2.375  -5.160   0.120  1.00  0.00     0.261 C 
BRANCH   2   3
ATOM      3  O   UNL     1      -1.234  -4.420   0.587  1.00  0.00    -0.463 OA
BRANCH   3   4
ATOM      4  C   UNL     1      -0.039  -5.071   0.529  1.00  0.00     0.312 C 
ATOM      5  O   UNL     1       0.097  -6.242   0.193  1.00  0.00    -0.252 OA
BRANCH   4   6
ATOM      6  C   UNL     1       1.114  -4.183   0.999  1.00  0.00     0.124 C 
ATOM      7  C   UNL     1       1.974  -2.437  -0.536  1.00  0.00     0.106 C 
ATOM      8  C   UNL     1       2.852  -3.643  -0.513  1.00  0.00    -0.006 C 
ATOM      9  C   UNL     1       1.020  -2.691   0.646  1.00  0.00     0.048 C 
ATOM     10  C   UNL     1       2.392  -4.584   0.318  1.00  0.00    -0.014 C 
BRANCH   7  11
ATOM     11  N   UNL     1       2.790  -1.258  -0.384  1.00  0.00    -0.350 N 
ATOM     12  O   UNL     1       1.038   0.180  -0.075  1.00  0.00    -0.275 OA
ATOM     13  C   UNL     1       2.247  -0.023  -0.122  1.00  0.00     0.222 C 
ATOM     14  H   UNL     1       3.767  -1.341  -0.469  1.00  0.00     0.164 HD
BRANCH  13  15
ATOM     15  C   UNL     1       3.251   1.074   0.159  1.00  0.00     0.122 C 
BRANCH  15  16
ATOM     16  C   UNL     1       3.994   0.836   1.474  1.00  0.00     0.133 C 
BRANCH  16  17
ATOM     17  N   UNL     1       5.059  -0.143   1.346  1.00  0.00    -0.337 N 
ATOM     18  C   UNL     1       6.260   0.054   0.722  1.00  0.00     0.107 A 
ATOM     19  C   UNL     1       5.005  -1.453   1.732  1.00  0.00     0.199 A 
ATOM     20  C   UNL     1       6.851  -1.188   0.691  1.00  0.00     0.130 A 
ATOM     21  N   UNL     1       6.056  -2.119   1.307  1.00  0.00    -0.245 NA
ENDBRANCH  16  17
ENDBRANCH  15  16
ENDBRANCH  13  15
ENDBRANCH   7  11
ENDBRANCH   4   6
ENDBRANCH   3   4
ENDBRANCH   2   3
ENDBRANCH   1   2
BRANCH   1  22
ATOM     22  O   UNL     1      -2.068  -4.748  -2.350  1.00  0.00    -0.374 OA
BRANCH  22  23
ATOM     23  C   UNL     1      -0.957  -3.865  -2.477  1.00  0.00     0.202 C 
BRANCH  23  24
ATOM     24  C   UNL     1      -1.259  -2.408  -2.796  1.00  0.00     0.261 C 
BRANCH  24  25
ATOM     25  O   UNL     1      -1.864  -1.758  -1.688  1.00  0.00    -0.460 OA
BRANCH  25  26
ATOM     26  C   UNL     1      -3.176  -1.464  -1.852  1.00  0.00     0.338 C 
ATOM     27  O   UNL     1      -3.933  -1.922  -2.681  1.00  0.00    -0.246 OA
BRANCH  26  28
ATOM     28  C   UNL     1      -3.504  -0.357  -0.947  1.00  0.00     0.060 A 
ATOM     29  C   UNL     1      -4.723   0.277  -1.187  1.00  0.00     0.016 A 
ATOM     30  C   UNL     1      -2.514   0.211  -0.130  1.00  0.00     0.016 A 
ATOM     31  C   UNL     1      -4.845   1.594  -0.818  1.00  0.00     0.010 A 
ATOM     32  C   UNL     1      -2.635   1.529   0.233  1.00  0.00     0.010 A 
ATOM     33  C   UNL     1      -3.756   2.225  -0.202  1.00  0.00    -0.014 A 
BRANCH  33  34
ATOM     34  C   UNL     1      -3.880   3.635   0.086  1.00  0.00     0.031 A 
ATOM     35  C   UNL     1      -4.863   3.887   1.158  1.00  0.00     0.074 A 
ATOM     36  C   UNL     1      -3.134   4.577  -0.518  1.00  0.00     0.049 A 
ATOM     37  N   UNL     1      -6.042   4.392   1.023  1.00  0.00    -0.248 NA
ATOM     38  C   UNL     1      -4.601   3.300   2.483  1.00  0.00     0.031 C 
ATOM     39  C   UNL     1      -1.980   4.407  -1.405  1.00  0.00     0.029 A 
ATOM     40  N   UNL     1      -3.201   5.924  -0.372  1.00  0.00    -0.354 N 
ATOM     41  C   UNL     1      -6.583   4.405   2.300  1.00  0.00     0.074 A 
ATOM     42  C   UNL     1      -5.760   3.534   3.100  1.00  0.00     0.031 C 
ATOM     43  C   UNL     1      -1.316   5.583  -1.497  1.00  0.00     0.029 A 
ATOM     44  C   UNL     1      -2.066   6.608  -0.787  1.00  0.00     0.049 A 
ATOM     45  H   UNL     1      -3.991   6.380  -0.001  1.00  0.00     0.167 HD
ATOM     46  C   UNL     1      -7.484   5.354   2.667  1.00  0.00     0.031 A 
ATOM     47  C   UNL     1      -1.746   7.895  -0.484  1.00  0.00     0.031 A 
ATOM     48  C   UNL     1      -8.051   6.020   1.522  1.00  0.00     0.049 A 
ATOM     49  C   UNL     1      -3.009   8.571  -0.079  1.00  0.00     0.074 A 
ATOM     50  C   UNL     1      -8.773   5.597   0.423  1.00  0.00     0.029 A 
ATOM     51  N   UNL     1      -7.526   7.248   1.187  1.00  0.00    -0.354 N 
ATOM     52  N   UNL     1      -3.992   8.789  -0.909  1.00  0.00    -0.248 NA
ATOM     53  C   UNL     1      -3.383   8.536   1.329  1.00  0.00     0.031 C 
ATOM     54  C   UNL     1      -8.256   6.353  -0.669  1.00  0.00     0.029 A 
ATOM     55  C   UNL     1      -7.314   7.253  -0.169  1.00  0.00     0.049 A 
ATOM     56  H   UNL     1      -7.338   7.988   1.808  1.00  0.00     0.167 HD
ATOM     57  C   UNL     1      -5.139   8.470  -0.194  1.00  0.00     0.074 A 
ATOM     58  C   UNL     1      -4.708   8.403   1.203  1.00  0.00     0.031 C 
ATOM     59  C   UNL     1      -6.260   8.003  -0.822  1.00  0.00     0.031 A 
BRANCH  46  60
ATOM     60  C   UNL     1      -7.496   5.962   4.044  1.00  0.00    -0.014 A 
ATOM     61  C   UNL     1      -8.490   6.906   4.358  1.00  0.00     0.010 A 
ATOM     62  C   UNL     1      -6.409   5.850   4.938  1.00  0.00     0.010 A 
ATOM     63  C   UNL     1      -8.364   7.742   5.475  1.00  0.00     0.020 A 
ATOM     64  C   UNL     1      -6.295   6.645   6.075  1.00  0.00     0.020 A 
ATOM     65  C   UNL     1      -7.259   7.611   6.318  1.00  0.00     0.054 A 
BRANCH  65  66
ATOM     66  S   UNL     1      -7.057   8.756   7.701  1.00  0.00     0.124 S 
ATOM     67  O   UNL     1      -6.856  10.026   7.011  1.00  0.00    -0.237 OA
ATOM     68  O   UNL     1      -8.326   8.609   8.408  1.00  0.00    -0.237 OA
ATOM     69  O   UNL     1      -5.890   8.235   8.409  1.00  0.00    -0.744 OA
ENDBRANCH  65  66
ENDBRANCH  46  60
BRANCH  47  70
ATOM     70  C   UNL     1      -0.398   8.442  -0.166  1.00  0.00    -0.014 A 
ATOM     71  C   UNL     1      -0.175   9.827  -0.029  1.00  0.00     0.010 A 
ATOM     72  C   UNL     1       0.623   7.577   0.279  1.00  0.00     0.010 A 
ATOM     73  C   UNL     1       0.995  10.320   0.584  1.00  0.00     0.020 A 
ATOM     74  C   UNL     1       1.790   8.059   0.884  1.00  0.00     0.020 A 
ATOM     75  C   UNL     1       1.962   9.429   1.056  1.00  0.00     0.054 A 
BRANCH  75  76
ATOM     76  S   UNL     1       3.382  10.049   2.009  1.00  0.00     0.124 S 
ATOM     77  O   UNL     1       4.170  10.732   0.987  1.00  0.00    -0.237 OA
ATOM     78  O   UNL     1       2.749  10.911   3.003  1.00  0.00    -0.237 OA
ATOM     79  O   UNL     1       3.991   8.833   2.547  1.00  0.00    -0.744 OA
ENDBRANCH  75  76
ENDBRANCH  47  70
BRANCH  59  80
ATOM     80  C   UNL     1      -6.327   8.075  -2.332  1.00  0.00    -0.014 A 
ATOM     81  C   UNL     1      -5.422   7.426  -3.198  1.00  0.00     0.010 A 
ATOM     82  C   UNL     1      -7.452   8.703  -2.894  1.00  0.00     0.010 A 
ATOM     83  C   UNL     1      -5.624   7.440  -4.588  1.00  0.00     0.020 A 
ATOM     84  C   UNL     1      -7.669   8.704  -4.273  1.00  0.00     0.020 A 
ATOM     85  C   UNL     1      -6.747   8.084  -5.116  1.00  0.00     0.054 A 
BRANCH  85  86
ATOM     86  S   UNL     1      -7.021   8.087  -6.911  1.00  0.00     0.124 S 
ATOM     87  O   UNL     1      -5.931   8.929  -7.396  1.00  0.00    -0.237 OA
ATOM     88  O   UNL     1      -6.925   6.671  -7.258  1.00  0.00    -0.237 OA
ATOM     89  O   UNL     1      -8.358   8.663  -7.058  1.00  0.00    -0.744 OA
ENDBRANCH  85  86
ENDBRANCH  59  80
ENDBRANCH  33  34
ENDBRANCH  26  28
ENDBRANCH  25  26
ENDBRANCH  24  25
ENDBRANCH  23  24
ENDBRANCH  22  23
ENDBRANCH   1  22
TORSDOF 21
