REMARK SMILES CC(C)CCn1nc(C(=O)OCCOCCOC(=O)c2ccc(-c3c4nc(c(-c5ccc(S(=O)(=O)[O-])cc5)c5ccc([nH]5)c(-c5ccc(S(=O)(=O)[O-])cc5)c5nc(c(-c6ccc(S(=O)(=O)[O-])cc6)c6ccc3[nH]6)C=C5)C=C4)cc2)c2c1CCN(C(=O)[C@@H]1CCc3nn(C)c(=O)n3C1)C2
REMARK SMILES IDX 14 1 13 2 12 3 11 4 9 5 10 6 8 7 6 8 7 9 81 10 80 11 82 12
REMARK SMILES IDX 98 13 83 14 84 15 5 16 4 17 2 18 1 19 3 20 85 21 86 22 87 23
REMARK SMILES IDX 88 24 97 25 89 26 96 27 90 28 94 29 91 30 92 31 95 32 93 33
REMARK SMILES IDX 15 34 16 35 17 36 18 37 19 38 20 39 21 40 79 41 22 42 78 43
REMARK SMILES IDX 23 44 24 45 25 46 72 47 26 48 77 49 71 50 73 51 27 52 76 53
REMARK SMILES IDX 70 54 69 55 28 57 58 58 39 59 57 60 40 61 43 62 56 63 74 64
REMARK SMILES IDX 41 65 42 66 55 68 75 69 44 70 29 71 30 72 38 73 31 74 37 75
REMARK SMILES IDX 32 76 33 77 34 78 35 79 36 80 59 81 60 82 68 83 61 84 67 85
REMARK SMILES IDX 62 86 63 87 64 88 65 89 66 90 45 91 46 92 54 93 47 94 53 95
REMARK SMILES IDX 48 96 49 97 50 98 51 99 52 100
REMARK H PARENT 73 56 43 67
REMARK Flexibility Score: inf
ROOT
ATOM      1  O   UNL     1      -2.184   7.915  -4.098  1.00  0.00    -0.374 OA
ENDROOT
BRANCH   1   2
ATOM      2  C   UNL     1      -1.202   7.916  -5.135  1.00  0.00     0.202 C 
BRANCH   2   3
ATOM      3  C   UNL     1       0.192   7.443  -4.718  1.00  0.00     0.261 C 
BRANCH   3   4
ATOM      4  O   UNL     1       0.190   6.025  -4.514  1.00  0.00    -0.458 OA
BRANCH   4   5
ATOM      5  C   UNL     1       0.172   5.589  -3.219  1.00  0.00     0.359 C 
ATOM      6  O   UNL     1       0.368   6.306  -2.246  1.00  0.00    -0.244 OA
BRANCH   5   7
ATOM      7  C   UNL     1      -0.195   4.163  -3.151  1.00  0.00     0.175 A 
ATOM      8  N   UNL     1      -0.717   2.258  -2.304  1.00  0.00    -0.268 N 
ATOM      9  N   UNL     1      -0.505   3.553  -1.984  1.00  0.00    -0.165 NA
ATOM     10  C   UNL     1      -0.421   2.021  -3.608  1.00  0.00     0.046 A 
ATOM     11  C   UNL     1      -0.297   3.247  -4.234  1.00  0.00     0.028 A 
ATOM     12  C   UNL     1      -0.147   0.750  -4.305  1.00  0.00     0.078 C 
ATOM     13  C   UNL     1      -0.101   3.412  -5.726  1.00  0.00     0.159 C 
ATOM     14  C   UNL     1       0.764   1.135  -5.478  1.00  0.00     0.126 C 
ATOM     15  N   UNL     1       0.090   2.077  -6.351  1.00  0.00    -0.338 N 
BRANCH   8  16
ATOM     16  C   UNL     1      -1.330   1.386  -1.316  1.00  0.00     0.145 C 
BRANCH  16  17
ATOM     17  C   UNL     1      -0.917  -0.091  -1.305  1.00  0.00     0.027 C 
BRANCH  17  18
ATOM     18  C   UNL     1       0.587  -0.339  -1.078  1.00  0.00    -0.016 C 
ATOM     19  C   UNL     1       1.011  -0.024   0.353  1.00  0.00     0.007 C 
ATOM     20  C   UNL     1       0.939  -1.788  -1.430  1.00  0.00     0.007 C 
ENDBRANCH  17  18
ENDBRANCH  16  17
ENDBRANCH   8  16
BRANCH  15  21
ATOM     21  C   UNL     1      -0.343   1.853  -7.642  1.00  0.00     0.227 C 
ATOM     22  O   UNL     1      -0.864   2.788  -8.265  1.00  0.00    -0.274 OA
BRANCH  21  23
ATOM     23  C   UNL     1      -0.245   0.487  -8.388  1.00  0.00     0.099 C 
ATOM     24  C   UNL     1      -1.261  -0.601  -8.009  1.00  0.00     0.023 C 
ATOM     25  C   UNL     1       1.147  -0.093  -8.629  1.00  0.00     0.142 C 
ATOM     26  C   UNL     1      -0.811  -1.619  -6.966  1.00  0.00     0.078 C 
ATOM     27  N   UNL     1       1.512  -1.114  -7.671  1.00  0.00    -0.278 N 
ATOM     28  C   UNL     1       0.675  -1.775  -6.846  1.00  0.00     0.133 A 
ATOM     29  C   UNL     1       2.773  -1.273  -7.146  1.00  0.00     0.345 A 
ATOM     30  N   UNL     1       1.254  -2.372  -5.843  1.00  0.00    -0.155 NA
ATOM     31  N   UNL     1       2.590  -2.066  -6.006  1.00  0.00    -0.216 N 
ATOM     32  O   UNL     1       3.797  -0.706  -7.493  1.00  0.00    -0.246 OA
ATOM     33  C   UNL     1       3.544  -2.180  -4.936  1.00  0.00     0.179 C 
ENDBRANCH  21  23
ENDBRANCH  15  21
ENDBRANCH   5   7
ENDBRANCH   4   5
ENDBRANCH   3   4
ENDBRANCH   2   3
ENDBRANCH   1   2
BRANCH   1  34
ATOM     34  C   UNL     1      -2.835   6.689  -3.777  1.00  0.00     0.202 C 
BRANCH  34  35
ATOM     35  C   UNL     1      -3.894   6.190  -4.745  1.00  0.00     0.261 C 
BRANCH  35  36
ATOM     36  O   UNL     1      -3.331   5.781  -5.986  1.00  0.00    -0.460 OA
BRANCH  36  37
ATOM     37  C   UNL     1      -3.576   6.633  -7.013  1.00  0.00     0.338 C 
ATOM     38  O   UNL     1      -3.803   7.822  -6.935  1.00  0.00    -0.246 OA
BRANCH  37  39
ATOM     39  C   UNL     1      -3.724   5.834  -8.238  1.00  0.00     0.060 A 
ATOM     40  C   UNL     1      -4.185   6.500  -9.373  1.00  0.00     0.016 A 
ATOM     41  C   UNL     1      -3.638   4.434  -8.195  1.00  0.00     0.016 A 
ATOM     42  C   UNL     1      -4.721   5.751 -10.399  1.00  0.00     0.010 A 
ATOM     43  C   UNL     1      -4.172   3.686  -9.220  1.00  0.00     0.010 A 
ATOM     44  C   UNL     1      -4.774   4.353 -10.278  1.00  0.00    -0.014 A 
BRANCH  44  45
ATOM     45  C   UNL     1      -5.342   3.594 -11.374  1.00  0.00     0.031 A 
ATOM     46  C   UNL     1      -4.531   3.704 -12.603  1.00  0.00     0.074 A 
ATOM     47  C   UNL     1      -6.455   2.841 -11.287  1.00  0.00     0.049 A 
ATOM     48  N   UNL     1      -4.801   4.442 -13.625  1.00  0.00    -0.248 NA
ATOM     49  C   UNL     1      -3.186   3.111 -12.622  1.00  0.00     0.031 C 
ATOM     50  C   UNL     1      -7.224   2.473 -10.096  1.00  0.00     0.029 A 
ATOM     51  N   UNL     1      -7.103   2.178 -12.283  1.00  0.00    -0.354 N 
ATOM     52  C   UNL     1      -3.769   4.231 -14.524  1.00  0.00     0.074 A 
ATOM     53  C   UNL     1      -2.726   3.554 -13.794  1.00  0.00     0.031 C 
ATOM     54  C   UNL     1      -8.096   1.484 -10.412  1.00  0.00     0.029 A 
ATOM     55  C   UNL     1      -8.056   1.264 -11.848  1.00  0.00     0.049 A 
ATOM     56  H   UNL     1      -6.913   2.334 -13.237  1.00  0.00     0.167 HD
ATOM     57  C   UNL     1      -3.967   4.406 -15.857  1.00  0.00     0.031 A 
ATOM     58  C   UNL     1      -8.748   0.388 -12.623  1.00  0.00     0.031 A 
ATOM     59  C   UNL     1      -5.200   5.104 -16.120  1.00  0.00     0.049 A 
ATOM     60  C   UNL     1      -8.756   0.949 -13.994  1.00  0.00     0.074 A 
ATOM     61  C   UNL     1      -5.685   6.371 -15.873  1.00  0.00     0.029 A 
ATOM     62  N   UNL     1      -6.289   4.305 -16.373  1.00  0.00    -0.354 N 
ATOM     63  N   UNL     1      -9.380   2.049 -14.307  1.00  0.00    -0.248 NA
ATOM     64  C   UNL     1      -7.723   0.531 -14.928  1.00  0.00     0.031 C 
ATOM     65  C   UNL     1      -7.073   6.193 -15.599  1.00  0.00     0.029 A 
ATOM     66  C   UNL     1      -7.388   4.840 -15.755  1.00  0.00     0.049 A 
ATOM     67  H   UNL     1      -6.281   3.482 -16.912  1.00  0.00     0.167 HD
ATOM     68  C   UNL     1      -8.535   2.690 -15.200  1.00  0.00     0.074 A 
ATOM     69  C   UNL     1      -7.601   1.655 -15.640  1.00  0.00     0.031 C 
ATOM     70  C   UNL     1      -8.509   4.053 -15.279  1.00  0.00     0.031 A 
BRANCH  57  71
ATOM     71  C   UNL     1      -3.304   3.554 -16.907  1.00  0.00    -0.014 A 
ATOM     72  C   UNL     1      -3.536   3.853 -18.263  1.00  0.00     0.010 A 
ATOM     73  C   UNL     1      -2.710   2.309 -16.613  1.00  0.00     0.010 A 
ATOM     74  C   UNL     1      -3.235   2.929 -19.270  1.00  0.00     0.020 A 
ATOM     75  C   UNL     1      -2.370   1.397 -17.612  1.00  0.00     0.020 A 
ATOM     76  C   UNL     1      -2.660   1.703 -18.935  1.00  0.00     0.054 A 
BRANCH  76  77
ATOM     77  S   UNL     1      -2.342   0.489 -20.237  1.00  0.00     0.124 S 
ATOM     78  O   UNL     1      -3.692   0.171 -20.690  1.00  0.00    -0.237 OA
ATOM     79  O   UNL     1      -1.521   1.253 -21.173  1.00  0.00    -0.237 OA
ATOM     80  O   UNL     1      -1.644  -0.587 -19.538  1.00  0.00    -0.744 OA
ENDBRANCH  76  77
ENDBRANCH  57  71
BRANCH  58  81
ATOM     81  C   UNL     1      -9.101  -1.029 -12.350  1.00  0.00    -0.014 A 
ATOM     82  C   UNL     1      -9.989  -1.731 -13.191  1.00  0.00     0.010 A 
ATOM     83  C   UNL     1      -8.316  -1.784 -11.456  1.00  0.00     0.010 A 
ATOM     84  C   UNL     1     -10.031  -3.138 -13.194  1.00  0.00     0.020 A 
ATOM     85  C   UNL     1      -8.355  -3.185 -11.451  1.00  0.00     0.020 A 
ATOM     86  C   UNL     1      -9.193  -3.857 -12.339  1.00  0.00     0.054 A 
BRANCH  86  87
ATOM     87  S   UNL     1      -9.104  -5.670 -12.484  1.00  0.00     0.124 S 
ATOM     88  O   UNL     1     -10.395  -6.089 -11.947  1.00  0.00    -0.237 OA
ATOM     89  O   UNL     1      -8.921  -5.867 -13.919  1.00  0.00    -0.237 OA
ATOM     90  O   UNL     1      -7.947  -6.023 -11.662  1.00  0.00    -0.744 OA
ENDBRANCH  86  87
ENDBRANCH  58  81
BRANCH  70  91
ATOM     91  C   UNL     1      -9.661   4.818 -14.666  1.00  0.00    -0.014 A 
ATOM     92  C   UNL     1      -9.987   4.813 -13.295  1.00  0.00     0.010 A 
ATOM     93  C   UNL     1     -10.379   5.671 -15.521  1.00  0.00     0.010 A 
ATOM     94  C   UNL     1     -11.026   5.622 -12.804  1.00  0.00     0.020 A 
ATOM     95  C   UNL     1     -11.398   6.492 -15.037  1.00  0.00     0.020 A 
ATOM     96  C   UNL     1     -11.726   6.456 -13.683  1.00  0.00     0.054 A 
BRANCH  96  97
ATOM     97  S   UNL     1     -13.052   7.522 -13.048  1.00  0.00     0.124 S 
ATOM     98  O   UNL     1     -14.082   6.558 -12.672  1.00  0.00    -0.237 OA
ATOM     99  O   UNL     1     -12.406   8.218 -11.938  1.00  0.00    -0.237 OA
ATOM    100  O   UNL     1     -13.390   8.373 -14.189  1.00  0.00    -0.744 OA
ENDBRANCH  96  97
ENDBRANCH  70  91
ENDBRANCH  44  45
ENDBRANCH  37  39
ENDBRANCH  36  37
ENDBRANCH  35  36
ENDBRANCH  34  35
ENDBRANCH   1  34
TORSDOF 22
