REMARK SMILES Cc1c(CC(=O)N[C@@H](CCO)C(=O)OCCOCCOC(=O)c2ccc(-c3c4nc(c(-c5ccc(S(=O)(=O)[O-])cc5)c5ccc([nH]5)c(-c5ccc(S(=O)(=O)[O-])cc5)c5nc(c(-c6ccc(S(=O)(=O)[O-])cc6)c6ccc3[nH]6)C=C5)C=C4)cc2)cc(-c2ccc(S(C)(=O)=O)cc2)n1-c1ccc(F)cc1
REMARK SMILES IDX 16 1 15 2 14 3 12 4 13 5 8 6 7 7 5 8 6 9 4 11 3 12 1 13 2 14
REMARK SMILES IDX 95 15 83 16 84 17 96 18 97 19 102 20 98 21 101 22 99 23
REMARK SMILES IDX 100 24 85 25 86 26 94 27 87 28 93 29 88 30 89 31 90 32 91 33
REMARK SMILES IDX 92 34 9 35 10 36 11 37 17 39 18 40 19 41 20 42 21 43 22 44
REMARK SMILES IDX 23 45 24 46 82 47 25 48 81 49 26 50 27 51 28 52 75 53 29 54
REMARK SMILES IDX 80 55 74 56 76 57 30 58 79 59 73 60 72 61 31 63 61 64 42 65
REMARK SMILES IDX 60 66 43 67 46 68 59 69 77 70 44 71 45 72 58 74 78 75 47 76
REMARK SMILES IDX 32 77 33 78 41 79 34 80 40 81 35 82 36 83 37 84 38 85 39 86
REMARK SMILES IDX 62 87 63 88 71 89 64 90 70 91 65 92 66 93 67 94 68 95 69 96
REMARK SMILES IDX 48 97 49 98 57 99 50 100 56 101 51 102 52 103 53 104 54 105
REMARK SMILES IDX 55 106
REMARK H PARENT 7 10 11 38 76 62 46 73
REMARK Flexibility Score: inf
ROOT
ATOM      1  C   UNL     1       4.834  -5.404  -5.683  1.00  0.00     0.202 C 
ENDROOT
BRANCH   1   2
ATOM      2  C   UNL     1       3.300  -5.449  -5.762  1.00  0.00     0.261 C 
BRANCH   2   3
ATOM      3  O   UNL     1       2.717  -4.372  -5.011  1.00  0.00    -0.462 OA
BRANCH   3   4
ATOM      4  C   UNL     1       1.794  -4.735  -4.075  1.00  0.00     0.328 C 
ATOM      5  O   UNL     1       1.257  -5.835  -4.000  1.00  0.00    -0.250 OA
BRANCH   4   6
ATOM      6  C   UNL     1       1.405  -3.554  -3.173  1.00  0.00     0.194 C 
BRANCH   6   7
ATOM      7  N   UNL     1       2.415  -2.500  -3.003  1.00  0.00    -0.342 N 
ATOM      8  C   UNL     1       3.003  -2.032  -1.862  1.00  0.00     0.225 C 
ATOM      9  O   UNL     1       3.856  -1.148  -1.977  1.00  0.00    -0.275 OA
ATOM     10  H   UNL     1       2.713  -2.067  -3.835  1.00  0.00     0.164 HD
BRANCH   8  11
ATOM     11  C   UNL     1       2.678  -2.628  -0.499  1.00  0.00     0.137 C 
BRANCH  11  12
ATOM     12  C   UNL     1       1.236  -2.494  -0.120  1.00  0.00    -0.017 A 
ATOM     13  C   UNL     1       0.960   0.084  -0.097  1.00  0.00     0.065 C 
ATOM     14  C   UNL     1       0.484  -1.332  -0.022  1.00  0.00     0.024 A 
ATOM     15  N   UNL     1      -0.839  -1.689   0.222  1.00  0.00    -0.314 N 
ATOM     16  C   UNL     1       0.373  -3.569   0.212  1.00  0.00     0.033 A 
ATOM     17  C   UNL     1      -0.911  -3.077   0.353  1.00  0.00     0.053 A 
BRANCH  15  18
ATOM     18  C   UNL     1      -1.943  -0.798   0.298  1.00  0.00     0.046 A 
ATOM     19  C   UNL     1      -2.846  -0.906   1.364  1.00  0.00     0.029 A 
ATOM     20  C   UNL     1      -2.158   0.133  -0.727  1.00  0.00     0.029 A 
ATOM     21  C   UNL     1      -3.968  -0.079   1.401  1.00  0.00     0.041 A 
ATOM     22  C   UNL     1      -3.291   0.944  -0.690  1.00  0.00     0.041 A 
ATOM     23  C   UNL     1      -4.184   0.831   0.372  1.00  0.00     0.123 A 
ATOM     24  F   UNL     1      -5.276   1.605   0.400  1.00  0.00    -0.207 F 
ENDBRANCH  15  18
BRANCH  17  25
ATOM     25  C   UNL     1      -2.144  -3.864   0.467  1.00  0.00    -0.001 A 
ATOM     26  C   UNL     1      -3.166  -3.741  -0.488  1.00  0.00     0.011 A 
ATOM     27  C   UNL     1      -2.297  -4.778   1.517  1.00  0.00     0.011 A 
ATOM     28  C   UNL     1      -4.344  -4.482  -0.370  1.00  0.00     0.021 A 
ATOM     29  C   UNL     1      -3.473  -5.523   1.642  1.00  0.00     0.021 A 
ATOM     30  C   UNL     1      -4.497  -5.357   0.706  1.00  0.00     0.067 A 
BRANCH  30  31
ATOM     31  S   UNL     1      -6.000  -6.290   0.865  1.00  0.00     0.175 S 
ATOM     32  C   UNL     1      -7.244  -5.059   1.151  1.00  0.00     0.163 C 
ATOM     33  O   UNL     1      -6.260  -6.902  -0.432  1.00  0.00    -0.224 OA
ATOM     34  O   UNL     1      -5.903  -7.095   2.061  1.00  0.00    -0.224 OA
ENDBRANCH  30  31
ENDBRANCH  17  25
ENDBRANCH  11  12
ENDBRANCH   8  11
ENDBRANCH   6   7
BRANCH   6  35
ATOM     35  C   UNL     1       0.086  -2.936  -3.651  1.00  0.00     0.065 C 
BRANCH  35  36
ATOM     36  C   UNL     1       0.177  -2.220  -4.999  1.00  0.00     0.159 C 
BRANCH  36  37
ATOM     37  O   UNL     1       0.403  -3.136  -6.058  1.00  0.00    -0.396 OA
ATOM     38  H   UNL     1       1.242  -3.599  -5.912  1.00  0.00     0.210 HD
ENDBRANCH  36  37
ENDBRANCH  35  36
ENDBRANCH   6  35
ENDBRANCH   4   6
ENDBRANCH   3   4
ENDBRANCH   2   3
ENDBRANCH   1   2
BRANCH   1  39
ATOM     39  O   UNL     1       5.371  -5.325  -4.366  1.00  0.00    -0.374 OA
BRANCH  39  40
ATOM     40  C   UNL     1       5.375  -4.032  -3.738  1.00  0.00     0.202 C 
BRANCH  40  41
ATOM     41  C   UNL     1       6.402  -2.953  -4.215  1.00  0.00     0.261 C 
BRANCH  41  42
ATOM     42  O   UNL     1       5.949  -1.724  -4.926  1.00  0.00    -0.460 OA
BRANCH  42  43
ATOM     43  C   UNL     1       6.657  -1.369  -6.066  1.00  0.00     0.338 C 
ATOM     44  O   UNL     1       7.196  -2.222  -6.763  1.00  0.00    -0.246 OA
BRANCH  43  45
ATOM     45  C   UNL     1       6.666   0.129  -6.513  1.00  0.00     0.060 A 
ATOM     46  C   UNL     1       6.103   0.479  -7.739  1.00  0.00     0.016 A 
ATOM     47  C   UNL     1       7.459   1.164  -5.963  1.00  0.00     0.016 A 
ATOM     48  C   UNL     1       6.259   1.805  -8.325  1.00  0.00     0.010 A 
ATOM     49  C   UNL     1       7.669   2.506  -6.604  1.00  0.00     0.010 A 
ATOM     50  C   UNL     1       7.063   2.899  -7.816  1.00  0.00    -0.014 A 
BRANCH  50  51
ATOM     51  C   UNL     1       7.491   4.119  -8.902  1.00  0.00     0.031 A 
ATOM     52  C   UNL     1       7.830   3.309 -10.105  1.00  0.00     0.074 A 
ATOM     53  C   UNL     1       7.807   5.488  -9.086  1.00  0.00     0.049 A 
ATOM     54  N   UNL     1       8.760   2.406  -9.986  1.00  0.00    -0.248 NA
ATOM     55  C   UNL     1       6.974   3.156 -11.280  1.00  0.00     0.031 C 
ATOM     56  C   UNL     1       7.962   6.540  -8.061  1.00  0.00     0.029 A 
ATOM     57  N   UNL     1       8.092   6.308 -10.260  1.00  0.00    -0.354 N 
ATOM     58  C   UNL     1       8.811   1.732 -11.176  1.00  0.00     0.074 A 
ATOM     59  C   UNL     1       7.561   2.090 -11.840  1.00  0.00     0.031 C 
ATOM     60  C   UNL     1       8.113   7.792  -8.600  1.00  0.00     0.029 A 
ATOM     61  C   UNL     1       8.142   7.760 -10.065  1.00  0.00     0.049 A 
ATOM     62  H   UNL     1       8.244   5.903 -11.144  1.00  0.00     0.167 HD
ATOM     63  C   UNL     1      10.057   1.621 -11.721  1.00  0.00     0.031 A 
ATOM     64  C   UNL     1       8.294   8.840 -10.962  1.00  0.00     0.031 A 
ATOM     65  C   UNL     1      10.277   2.636 -12.720  1.00  0.00     0.049 A 
ATOM     66  C   UNL     1       9.137   8.303 -12.041  1.00  0.00     0.074 A 
ATOM     67  C   UNL     1       9.511   3.084 -13.778  1.00  0.00     0.029 A 
ATOM     68  N   UNL     1      11.168   3.645 -12.414  1.00  0.00    -0.354 N 
ATOM     69  N   UNL     1      10.409   8.103 -11.882  1.00  0.00    -0.248 NA
ATOM     70  C   UNL     1       8.621   8.060 -13.382  1.00  0.00     0.031 C 
ATOM     71  C   UNL     1       9.634   4.489 -13.747  1.00  0.00     0.029 A 
ATOM     72  C   UNL     1      10.740   4.831 -12.982  1.00  0.00     0.049 A 
ATOM     73  H   UNL     1      11.984   3.537 -11.874  1.00  0.00     0.167 HD
ATOM     74  C   UNL     1      10.704   7.222 -12.882  1.00  0.00     0.074 A 
ATOM     75  C   UNL     1       9.682   7.434 -13.892  1.00  0.00     0.031 C 
ATOM     76  C   UNL     1      11.329   6.071 -12.525  1.00  0.00     0.031 A 
BRANCH  63  77
ATOM     77  C   UNL     1      11.117   1.138 -10.759  1.00  0.00    -0.014 A 
ATOM     78  C   UNL     1      11.668  -0.137 -10.944  1.00  0.00     0.010 A 
ATOM     79  C   UNL     1      11.490   1.867  -9.605  1.00  0.00     0.010 A 
ATOM     80  C   UNL     1      12.527  -0.684  -9.980  1.00  0.00     0.020 A 
ATOM     81  C   UNL     1      12.322   1.316  -8.628  1.00  0.00     0.020 A 
ATOM     82  C   UNL     1      12.833   0.037  -8.820  1.00  0.00     0.054 A 
BRANCH  82  83
ATOM     83  S   UNL     1      13.859  -0.751  -7.549  1.00  0.00     0.124 S 
ATOM     84  O   UNL     1      13.186  -2.035  -7.352  1.00  0.00    -0.237 OA
ATOM     85  O   UNL     1      15.159  -0.832  -8.209  1.00  0.00    -0.237 OA
ATOM     86  O   UNL     1      13.778   0.157  -6.409  1.00  0.00    -0.744 OA
ENDBRANCH  82  83
ENDBRANCH  63  77
BRANCH  64  87
ATOM     87  C   UNL     1       8.152  10.414 -11.202  1.00  0.00    -0.014 A 
ATOM     88  C   UNL     1       8.950  11.079 -12.211  1.00  0.00     0.010 A 
ATOM     89  C   UNL     1       7.037  11.173 -10.802  1.00  0.00     0.010 A 
ATOM     90  C   UNL     1       8.588  12.292 -12.870  1.00  0.00     0.020 A 
ATOM     91  C   UNL     1       6.678  12.416 -11.439  1.00  0.00     0.020 A 
ATOM     92  C   UNL     1       7.420  12.941 -12.505  1.00  0.00     0.054 A 
BRANCH  92  93
ATOM     93  S   UNL     1       6.808  14.348 -13.528  1.00  0.00     0.124 S 
ATOM     94  O   UNL     1       7.793  15.396 -13.280  1.00  0.00    -0.237 OA
ATOM     95  O   UNL     1       6.817  13.791 -14.880  1.00  0.00    -0.237 OA
ATOM     96  O   UNL     1       5.475  14.610 -12.988  1.00  0.00    -0.744 OA
ENDBRANCH  92  93
ENDBRANCH  64  87
BRANCH  76  97
ATOM     97  C   UNL     1      12.480   6.160 -11.538  1.00  0.00    -0.014 A 
ATOM     98  C   UNL     1      12.494   6.923 -10.348  1.00  0.00     0.010 A 
ATOM     99  C   UNL     1      13.655   5.459 -11.865  1.00  0.00     0.010 A 
ATOM    100  C   UNL     1      13.648   7.028  -9.556  1.00  0.00     0.020 A 
ATOM    101  C   UNL     1      14.797   5.522 -11.059  1.00  0.00     0.020 A 
ATOM    102  C   UNL     1      14.798   6.332  -9.924  1.00  0.00     0.054 A 
BRANCH 102 103
ATOM    103  S   UNL     1      16.303   6.519  -8.930  1.00  0.00     0.124 S 
ATOM    104  O   UNL     1      16.660   7.916  -9.169  1.00  0.00    -0.237 OA
ATOM    105  O   UNL     1      15.838   6.218  -7.579  1.00  0.00    -0.237 OA
ATOM    106  O   UNL     1      17.225   5.546  -9.511  1.00  0.00    -0.744 OA
ENDBRANCH 102 103
ENDBRANCH  76  97
ENDBRANCH  50  51
ENDBRANCH  43  45
ENDBRANCH  42  43
ENDBRANCH  41  42
ENDBRANCH  40  41
ENDBRANCH  39  40
ENDBRANCH   1  39
TORSDOF 26
