REMARK SMILES O=C(OCCOCCOC(=O)[C@@H]1CC[C@@H](CNC(=O)c2cc(Cl)ccc2Cl)O1)c1ccc(-c2c3nc(c(-c4ccc(S(=O)(=O)[O-])cc4)c4ccc([nH]4)c(-c4ccc(S(=O)(=O)[O-])cc4)c4nc(c(-c5ccc(S(=O)(=O)[O-])cc5)c5ccc2[nH]5)C=C4)C=C3)cc1
REMARK SMILES IDX 6 1 5 2 4 3 3 4 2 5 1 6 29 7 30 8 88 9 31 10 87 11 32 12
REMARK SMILES IDX 33 13 34 14 81 15 35 16 86 17 80 18 82 19 36 20 85 21 79 22
REMARK SMILES IDX 78 23 37 25 67 26 48 27 66 28 49 29 52 30 65 31 83 32 50 33
REMARK SMILES IDX 51 34 64 36 84 37 53 38 38 39 39 40 47 41 40 42 46 43 41 44
REMARK SMILES IDX 42 45 43 46 44 47 45 48 68 49 69 50 77 51 70 52 76 53 71 54
REMARK SMILES IDX 72 55 73 56 74 57 75 58 54 59 55 60 63 61 56 62 62 63 57 64
REMARK SMILES IDX 58 65 59 66 60 67 61 68 7 69 8 70 9 71 10 72 11 73 12 74
REMARK SMILES IDX 13 75 28 76 14 77 15 78 16 79 17 80 18 81 19 83 20 84 21 85
REMARK SMILES IDX 26 86 22 87 25 88 27 89 23 90 24 91
REMARK H PARENT 82 24 52 35 17 82
REMARK Flexibility Score: inf
ROOT
ATOM      1  O   UNL     1       4.140   1.577  -0.797  1.00  0.00    -0.374 OA
ENDROOT
BRANCH   1   2
ATOM      2  C   UNL     1       4.429   0.421  -1.585  1.00  0.00     0.202 C 
BRANCH   2   3
ATOM      3  C   UNL     1       4.242  -0.922  -0.870  1.00  0.00     0.261 C 
BRANCH   3   4
ATOM      4  O   UNL     1       2.863  -1.097  -0.495  1.00  0.00    -0.460 OA
BRANCH   4   5
ATOM      5  C   UNL     1       2.268  -0.786   0.681  1.00  0.00     0.338 C 
ATOM      6  O   UNL     1       1.047  -0.902   0.772  1.00  0.00    -0.246 OA
BRANCH   5   7
ATOM      7  C   UNL     1       3.023  -0.334   1.886  1.00  0.00     0.060 A 
ATOM      8  C   UNL     1       4.233   0.356   1.847  1.00  0.00     0.016 A 
ATOM      9  C   UNL     1       2.433  -0.555   3.142  1.00  0.00     0.016 A 
ATOM     10  C   UNL     1       4.875   0.773   2.990  1.00  0.00     0.010 A 
ATOM     11  C   UNL     1       3.058  -0.110   4.311  1.00  0.00     0.010 A 
ATOM     12  C   UNL     1       4.289   0.547   4.225  1.00  0.00    -0.014 A 
BRANCH  12  13
ATOM     13  C   UNL     1       5.105   0.909   5.388  1.00  0.00     0.031 A 
ATOM     14  C   UNL     1       5.846  -0.187   6.080  1.00  0.00     0.074 A 
ATOM     15  C   UNL     1       5.334   2.211   5.635  1.00  0.00     0.049 A 
ATOM     16  N   UNL     1       6.653  -0.117   7.099  1.00  0.00    -0.248 NA
ATOM     17  C   UNL     1       5.677  -1.547   5.532  1.00  0.00     0.031 C 
ATOM     18  C   UNL     1       4.782   3.328   4.857  1.00  0.00     0.029 A 
ATOM     19  N   UNL     1       6.134   2.817   6.561  1.00  0.00    -0.354 N 
ATOM     20  C   UNL     1       7.059  -1.422   7.340  1.00  0.00     0.074 A 
ATOM     21  C   UNL     1       6.415  -2.267   6.362  1.00  0.00     0.031 C 
ATOM     22  C   UNL     1       5.285   4.481   5.325  1.00  0.00     0.029 A 
ATOM     23  C   UNL     1       6.125   4.189   6.479  1.00  0.00     0.049 A 
ATOM     24  H   UNL     1       6.666   2.319   7.223  1.00  0.00     0.167 HD
ATOM     25  C   UNL     1       7.887  -1.864   8.313  1.00  0.00     0.031 A 
ATOM     26  C   UNL     1       6.704   5.098   7.284  1.00  0.00     0.031 A 
ATOM     27  C   UNL     1       8.488  -0.981   9.273  1.00  0.00     0.049 A 
ATOM     28  C   UNL     1       7.509   4.572   8.440  1.00  0.00     0.074 A 
ATOM     29  C   UNL     1       9.275  -1.293  10.363  1.00  0.00     0.029 A 
ATOM     30  N   UNL     1       8.360   0.404   9.247  1.00  0.00    -0.354 N 
ATOM     31  N   UNL     1       7.812   3.327   8.732  1.00  0.00    -0.248 NA
ATOM     32  C   UNL     1       8.039   5.562   9.382  1.00  0.00     0.031 C 
ATOM     33  C   UNL     1       9.571  -0.101  11.032  1.00  0.00     0.029 A 
ATOM     34  C   UNL     1       9.032   0.961  10.317  1.00  0.00     0.049 A 
ATOM     35  H   UNL     1       7.863   0.912   8.566  1.00  0.00     0.167 HD
ATOM     36  C   UNL     1       8.586   3.383   9.882  1.00  0.00     0.074 A 
ATOM     37  C   UNL     1       8.720   4.789  10.217  1.00  0.00     0.031 C 
ATOM     38  C   UNL     1       9.135   2.372  10.602  1.00  0.00     0.031 A 
BRANCH  25  39
ATOM     39  C   UNL     1       8.076  -3.351   8.429  1.00  0.00    -0.014 A 
ATOM     40  C   UNL     1       8.803  -4.086   7.474  1.00  0.00     0.010 A 
ATOM     41  C   UNL     1       7.469  -4.033   9.499  1.00  0.00     0.010 A 
ATOM     42  C   UNL     1       8.881  -5.479   7.566  1.00  0.00     0.020 A 
ATOM     43  C   UNL     1       7.569  -5.422   9.610  1.00  0.00     0.020 A 
ATOM     44  C   UNL     1       8.259  -6.138   8.631  1.00  0.00     0.054 A 
BRANCH  44  45
ATOM     45  S   UNL     1       8.376  -7.946   8.727  1.00  0.00     0.124 S 
ATOM     46  O   UNL     1       7.509  -8.363   7.627  1.00  0.00    -0.237 OA
ATOM     47  O   UNL     1       9.802  -8.184   8.526  1.00  0.00    -0.237 OA
ATOM     48  O   UNL     1       7.877  -8.256  10.064  1.00  0.00    -0.744 OA
ENDBRANCH  44  45
ENDBRANCH  25  39
BRANCH  26  49
ATOM     49  C   UNL     1       6.476   6.555   7.071  1.00  0.00    -0.014 A 
ATOM     50  C   UNL     1       7.537   7.424   6.768  1.00  0.00     0.010 A 
ATOM     51  C   UNL     1       5.175   7.087   7.180  1.00  0.00     0.010 A 
ATOM     52  C   UNL     1       7.306   8.795   6.600  1.00  0.00     0.020 A 
ATOM     53  C   UNL     1       4.934   8.449   6.981  1.00  0.00     0.020 A 
ATOM     54  C   UNL     1       6.006   9.299   6.708  1.00  0.00     0.054 A 
BRANCH  54  55
ATOM     55  S   UNL     1       5.727  11.075   6.468  1.00  0.00     0.124 S 
ATOM     56  O   UNL     1       6.326  11.643   7.671  1.00  0.00    -0.237 OA
ATOM     57  O   UNL     1       6.439  11.340   5.220  1.00  0.00    -0.237 OA
ATOM     58  O   UNL     1       4.272  11.186   6.382  1.00  0.00    -0.744 OA
ENDBRANCH  54  55
ENDBRANCH  26  49
BRANCH  38  59
ATOM     59  C   UNL     1       9.965   2.766  11.790  1.00  0.00    -0.014 A 
ATOM     60  C   UNL     1       9.373   3.272  12.959  1.00  0.00     0.010 A 
ATOM     61  C   UNL     1      11.356   2.563  11.748  1.00  0.00     0.010 A 
ATOM     62  C   UNL     1      10.166   3.601  14.058  1.00  0.00     0.020 A 
ATOM     63  C   UNL     1      12.147   2.857  12.857  1.00  0.00     0.020 A 
ATOM     64  C   UNL     1      11.548   3.389  14.000  1.00  0.00     0.054 A 
BRANCH  64  65
ATOM     65  S   UNL     1      12.549   3.777  15.459  1.00  0.00     0.124 S 
ATOM     66  O   UNL     1      12.553   5.237  15.444  1.00  0.00    -0.237 OA
ATOM     67  O   UNL     1      11.787   3.160  16.542  1.00  0.00    -0.237 OA
ATOM     68  O   UNL     1      13.836   3.147  15.174  1.00  0.00    -0.744 OA
ENDBRANCH  64  65
ENDBRANCH  38  59
ENDBRANCH  12  13
ENDBRANCH   5   7
ENDBRANCH   4   5
ENDBRANCH   3   4
ENDBRANCH   2   3
ENDBRANCH   1   2
BRANCH   1  69
ATOM     69  C   UNL     1       2.790   2.048  -0.848  1.00  0.00     0.202 C 
BRANCH  69  70
ATOM     70  C   UNL     1       2.740   3.384  -1.580  1.00  0.00     0.261 C 
BRANCH  70  71
ATOM     71  O   UNL     1       3.144   3.153  -2.938  1.00  0.00    -0.461 OA
BRANCH  71  72
ATOM     72  C   UNL     1       4.466   3.355  -3.206  1.00  0.00     0.335 C 
ATOM     73  O   UNL     1       5.261   3.939  -2.481  1.00  0.00    -0.249 OA
BRANCH  72  74
ATOM     74  C   UNL     1       4.862   2.667  -4.513  1.00  0.00     0.228 C 
ATOM     75  C   UNL     1       3.857   2.874  -5.637  1.00  0.00     0.047 C 
ATOM     76  O   UNL     1       5.026   1.242  -4.366  1.00  0.00    -0.361 OA
ATOM     77  C   UNL     1       3.995   1.594  -6.422  1.00  0.00     0.037 C 
ATOM     78  C   UNL     1       4.178   0.575  -5.318  1.00  0.00     0.138 C 
BRANCH  78  79
ATOM     79  C   UNL     1       4.825  -0.748  -5.734  1.00  0.00     0.148 C 
BRANCH  79  80
ATOM     80  N   UNL     1       4.205  -1.374  -6.896  1.00  0.00    -0.349 N 
ATOM     81  C   UNL     1       4.572  -1.308  -8.217  1.00  0.00     0.252 C 
ATOM     82  H   UNL     1       3.410  -1.922  -6.705  1.00  0.00     0.163 HD
ATOM     83  O   UNL     1       3.877  -1.832  -9.085  1.00  0.00    -0.269 OA
BRANCH  81  84
ATOM     84  C   UNL     1       5.823  -0.624  -8.596  1.00  0.00     0.059 A 
ATOM     85  C   UNL     1       7.032  -1.132  -8.098  1.00  0.00     0.036 A 
ATOM     86  C   UNL     1       5.823   0.498  -9.434  1.00  0.00     0.053 A 
ATOM     87  C   UNL     1       8.224  -0.469  -8.375  1.00  0.00     0.041 A 
ATOM     88  C   UNL     1       7.030   1.149  -9.713  1.00  0.00     0.023 A 
ATOM     89  Cl  UNL     1       4.381   1.174 -10.099  1.00  0.00    -0.083 Cl
ATOM     90  Cl  UNL     1       9.697  -1.052  -7.708  1.00  0.00    -0.084 Cl
ATOM     91  C   UNL     1       8.228   0.673  -9.174  1.00  0.00     0.022 A 
ENDBRANCH  81  84
ENDBRANCH  79  80
ENDBRANCH  78  79
ENDBRANCH  72  74
ENDBRANCH  71  72
ENDBRANCH  70  71
ENDBRANCH  69  70
ENDBRANCH   1  69
TORSDOF 20
