REMARK SMILES CCc1cccc(C)c1Nc1ccccc1CC(=O)OCCOCCOC(=O)c1ccc(-c2c3nc(c(-c4ccc(S(=O)(=O)[O-])cc4)c4ccc([nH]4)c(-c4ccc(S(=O)(=O)[O-])cc4)c4nc(c(-c5ccc(S(=O)(=O)[O-])cc5)c5ccc2[nH]5)C=C4)C=C3)cc1
REMARK SMILES IDX 22 1 21 2 20 3 18 4 19 5 17 6 16 7 11 8 12 9 13 10 15 11
REMARK SMILES IDX 14 12 10 13 9 15 3 16 4 17 5 18 7 19 6 20 8 21 2 22 1 23
REMARK SMILES IDX 23 24 24 25 25 26 26 27 27 28 28 29 29 30 30 31 88 32 31 33
REMARK SMILES IDX 87 34 32 35 33 36 34 37 81 38 35 39 86 40 80 41 82 42 36 43
REMARK SMILES IDX 85 44 79 45 78 46 37 48 67 49 48 50 66 51 49 52 52 53 65 54
REMARK SMILES IDX 83 55 50 56 51 57 64 59 84 60 53 61 38 62 39 63 47 64 40 65
REMARK SMILES IDX 46 66 41 67 42 68 43 69 44 70 45 71 68 72 69 73 77 74 70 75
REMARK SMILES IDX 76 76 71 77 72 78 73 79 74 80 75 81 54 82 55 83 63 84 56 85
REMARK SMILES IDX 62 86 57 87 58 88 59 89 60 90 61 91
REMARK H PARENT 10 14 82 47 52 58
REMARK Flexibility Score: inf
ROOT
ATOM      1  C   UNL     1       2.593   4.669   1.186  1.00  0.00     0.202 C 
ENDROOT
BRANCH   1   2
ATOM      2  C   UNL     1       2.421   4.930   2.738  1.00  0.00     0.261 C 
BRANCH   2   3
ATOM      3  O   UNL     1       1.621   3.939   3.945  1.00  0.00    -0.463 OA
BRANCH   3   4
ATOM      4  C   UNL     1       0.514   3.077   4.109  1.00  0.00     0.310 C 
ATOM      5  O   UNL     1      -0.639   3.526   4.175  1.00  0.00    -0.252 OA
BRANCH   4   6
ATOM      6  C   UNL     1       0.599   1.501   4.180  1.00  0.00     0.160 C 
BRANCH   6   7
ATOM      7  C   UNL     1       1.873   0.606   3.847  1.00  0.00    -0.013 A 
ATOM      8  C   UNL     1       2.425  -0.240   2.634  1.00  0.00     0.042 A 
ATOM      9  C   UNL     1       3.634  -0.923   2.906  1.00  0.00     0.026 A 
ATOM     10  C   UNL     1       4.324  -0.740   4.136  1.00  0.00     0.002 A 
ATOM     11  C   UNL     1       2.626   0.670   5.063  1.00  0.00     0.006 A 
ATOM     12  C   UNL     1       3.847   0.048   5.186  1.00  0.00     0.000 A 
BRANCH   8  13
ATOM     13  N   UNL     1       2.281  -0.039   0.905  1.00  0.00    -0.355 N 
ATOM     14  H   UNL     1       2.126  -0.852   0.371  1.00  0.00     0.167 HD
BRANCH  13  15
ATOM     15  C   UNL     1       2.397   1.652  -0.068  1.00  0.00     0.045 A 
ATOM     16  C   UNL     1       1.037   1.505  -1.063  1.00  0.00    -0.024 A 
ATOM     17  C   UNL     1      -0.237   2.372  -0.693  1.00  0.00     0.006 A 
ATOM     18  C   UNL     1      -0.454   3.235   0.620  1.00  0.00     0.001 A 
ATOM     19  C   UNL     1       2.491   2.842   1.616  1.00  0.00    -0.027 A 
ATOM     20  C   UNL     1       0.715   3.529   1.774  1.00  0.00     0.005 A 
ATOM     21  C   UNL     1       3.615   2.880   2.915  1.00  0.00     0.046 C 
BRANCH  16  22
ATOM     22  C   UNL     1       0.604   0.232  -1.811  1.00  0.00     0.034 C 
ATOM     23  C   UNL     1       0.545  -1.086  -1.031  1.00  0.00     0.009 C 
ENDBRANCH  16  22
ENDBRANCH  13  15
ENDBRANCH   8  13
ENDBRANCH   6   7
ENDBRANCH   4   6
ENDBRANCH   3   4
ENDBRANCH   2   3
ENDBRANCH   1   2
BRANCH   1  24
ATOM     24  O   UNL     1       1.640   3.354   0.209  1.00  0.00    -0.374 OA
BRANCH  24  25
ATOM     25  C   UNL     1       1.428   1.609   1.333  1.00  0.00     0.202 C 
BRANCH  25  26
ATOM     26  C   UNL     1       3.643   1.433   1.189  1.00  0.00     0.261 C 
BRANCH  26  27
ATOM     27  O   UNL     1       4.276   2.797   0.004  1.00  0.00    -0.460 OA
BRANCH  27  28
ATOM     28  C   UNL     1       4.180   4.075  -0.939  1.00  0.00     0.338 C 
ATOM     29  O   UNL     1       5.044   4.085  -1.835  1.00  0.00    -0.246 OA
BRANCH  28  30
ATOM     30  C   UNL     1       3.166   5.551  -1.083  1.00  0.00     0.060 A 
ATOM     31  C   UNL     1       3.399   6.844  -0.413  1.00  0.00     0.016 A 
ATOM     32  C   UNL     1       1.804   5.427  -1.376  1.00  0.00     0.016 A 
ATOM     33  C   UNL     1       2.332   7.606   0.399  1.00  0.00     0.010 A 
ATOM     34  C   UNL     1       0.803   6.099  -0.521  1.00  0.00     0.010 A 
ATOM     35  C   UNL     1       1.020   7.088   0.523  1.00  0.00    -0.014 A 
BRANCH  35  36
ATOM     36  C   UNL     1      -0.071   7.077   1.770  1.00  0.00     0.031 A 
ATOM     37  C   UNL     1      -1.459   7.310   1.227  1.00  0.00     0.074 A 
ATOM     38  C   UNL     1      -0.023   6.742   3.159  1.00  0.00     0.049 A 
ATOM     39  N   UNL     1      -2.426   7.842   1.887  1.00  0.00    -0.248 NA
ATOM     40  C   UNL     1      -1.863   7.080  -0.171  1.00  0.00     0.031 C 
ATOM     41  C   UNL     1      -1.049   6.259   4.152  1.00  0.00     0.029 A 
ATOM     42  N   UNL     1       1.065   6.522   4.029  1.00  0.00    -0.354 N 
ATOM     43  C   UNL     1      -3.578   7.645   1.144  1.00  0.00     0.074 A 
ATOM     44  C   UNL     1      -3.149   7.406  -0.188  1.00  0.00     0.031 C 
ATOM     45  C   UNL     1      -0.541   6.125   5.424  1.00  0.00     0.029 A 
ATOM     46  C   UNL     1       0.856   6.518   5.394  1.00  0.00     0.049 A 
ATOM     47  H   UNL     1       1.968   6.373   3.666  1.00  0.00     0.167 HD
ATOM     48  C   UNL     1      -4.766   7.443   1.769  1.00  0.00     0.031 A 
ATOM     49  C   UNL     1       1.672   7.295   6.148  1.00  0.00     0.031 A 
ATOM     50  C   UNL     1      -4.550   7.449   3.220  1.00  0.00     0.049 A 
ATOM     51  C   UNL     1       0.702   8.431   6.356  1.00  0.00     0.074 A 
ATOM     52  C   UNL     1      -4.527   6.441   4.166  1.00  0.00     0.029 A 
ATOM     53  N   UNL     1      -3.894   8.535   3.798  1.00  0.00    -0.354 N 
ATOM     54  N   UNL     1      -0.249   8.715   5.492  1.00  0.00    -0.248 NA
ATOM     55  C   UNL     1       0.491   9.043   7.660  1.00  0.00     0.031 C 
ATOM     56  C   UNL     1      -3.804   6.934   5.303  1.00  0.00     0.029 A 
ATOM     57  C   UNL     1      -3.323   8.212   5.020  1.00  0.00     0.049 A 
ATOM     58  H   UNL     1      -3.843   9.428   3.387  1.00  0.00     0.167 HD
ATOM     59  C   UNL     1      -1.319   9.168   6.198  1.00  0.00     0.074 A 
ATOM     60  C   UNL     1      -0.766   9.491   7.512  1.00  0.00     0.031 C 
ATOM     61  C   UNL     1      -2.612   9.249   5.769  1.00  0.00     0.031 A 
BRANCH  48  62
ATOM     62  C   UNL     1      -6.052   6.984   1.094  1.00  0.00    -0.014 A 
ATOM     63  C   UNL     1      -7.154   6.687   1.917  1.00  0.00     0.010 A 
ATOM     64  C   UNL     1      -6.281   6.840  -0.296  1.00  0.00     0.010 A 
ATOM     65  C   UNL     1      -8.399   6.297   1.400  1.00  0.00     0.020 A 
ATOM     66  C   UNL     1      -7.521   6.443  -0.832  1.00  0.00     0.020 A 
ATOM     67  C   UNL     1      -8.582   6.189   0.025  1.00  0.00     0.054 A 
BRANCH  67  68
ATOM     68  S   UNL     1     -10.227   5.773  -0.609  1.00  0.00     0.124 S 
ATOM     69  O   UNL     1     -10.470   4.462  -0.013  1.00  0.00    -0.237 OA
ATOM     70  O   UNL     1     -11.046   6.864  -0.088  1.00  0.00    -0.237 OA
ATOM     71  O   UNL     1     -10.054   5.769  -2.060  1.00  0.00    -0.744 OA
ENDBRANCH  67  68
ENDBRANCH  48  62
BRANCH  49  72
ATOM     72  C   UNL     1       3.111   7.264   5.606  1.00  0.00    -0.014 A 
ATOM     73  C   UNL     1       3.939   6.129   5.883  1.00  0.00     0.010 A 
ATOM     74  C   UNL     1       3.494   8.048   4.500  1.00  0.00     0.010 A 
ATOM     75  C   UNL     1       5.035   5.761   5.054  1.00  0.00     0.020 A 
ATOM     76  C   UNL     1       4.564   7.667   3.651  1.00  0.00     0.020 A 
ATOM     77  C   UNL     1       5.330   6.526   3.924  1.00  0.00     0.054 A 
BRANCH  77  78
ATOM     78  S   UNL     1       6.479   5.881   2.640  1.00  0.00     0.124 S 
ATOM     79  O   UNL     1       7.723   6.570   2.959  1.00  0.00    -0.237 OA
ATOM     80  O   UNL     1       6.486   4.442   2.881  1.00  0.00    -0.237 OA
ATOM     81  O   UNL     1       5.826   6.289   1.401  1.00  0.00    -0.744 OA
ENDBRANCH  77  78
ENDBRANCH  49  72
BRANCH  61  82
ATOM     82  C   UNL     1      -3.308  10.530   6.064  1.00  0.00    -0.014 A 
ATOM     83  C   UNL     1      -2.584  11.666   6.458  1.00  0.00     0.010 A 
ATOM     84  C   UNL     1      -4.683  10.668   5.805  1.00  0.00     0.010 A 
ATOM     85  C   UNL     1      -3.232  12.837   6.784  1.00  0.00     0.020 A 
ATOM     86  C   UNL     1      -5.327  11.875   6.021  1.00  0.00     0.020 A 
ATOM     87  C   UNL     1      -4.604  12.925   6.577  1.00  0.00     0.054 A 
BRANCH  87  88
ATOM     88  S   UNL     1      -5.418  14.444   7.070  1.00  0.00     0.124 S 
ATOM     89  O   UNL     1      -5.423  14.308   8.525  1.00  0.00    -0.237 OA
ATOM     90  O   UNL     1      -4.522  15.468   6.538  1.00  0.00    -0.237 OA
ATOM     91  O   UNL     1      -6.724  14.360   6.425  1.00  0.00    -0.744 OA
ENDBRANCH  87  88
ENDBRANCH  61  82
ENDBRANCH  35  36
ENDBRANCH  28  30
ENDBRANCH  27  28
ENDBRANCH  26  27
ENDBRANCH  25  26
ENDBRANCH  24  25
ENDBRANCH   1  24
TORSDOF 21
