REMARK SMILES Cc1ccc(C2=NN(C(=O)CCC(=O)OCCOCCOC(=O)c3ccc(-c4c5nc(c(-c6ccc(S(=O)(=O)[O-])cc6)c6ccc([nH]6)c(-c6ccc(S(=O)(=O)[O-])cc6)c6nc(c(-c7ccc(S(=O)(=O)[O-])cc7)c7ccc4[nH]7)C=C6)C=C5)cc3)[C@H](C[C@H]3C=c4cccc(C)c4=NC3=O)C2)cc1
REMARK SMILES IDX 17 1 16 2 15 3 13 4 14 5 12 6 11 7 9 8 10 9 8 10 6 11 7 12
REMARK SMILES IDX 98 13 84 14 5 15 1 16 2 17 3 18 100 19 4 20 99 21 85 22
REMARK SMILES IDX 86 23 87 24 96 25 88 26 95 27 97 28 89 29 94 30 90 31 92 32
REMARK SMILES IDX 91 33 93 34 18 35 19 36 20 37 21 38 22 39 23 40 24 41 25 42
REMARK SMILES IDX 83 43 26 44 82 45 27 46 28 47 29 48 76 49 30 50 81 51 75 52
REMARK SMILES IDX 77 53 31 54 80 55 74 56 73 57 32 59 62 60 43 61 61 62 44 63
REMARK SMILES IDX 47 64 60 65 78 66 45 67 46 68 59 70 79 71 48 72 33 73 34 74
REMARK SMILES IDX 42 75 35 76 41 77 36 78 37 79 38 80 39 81 40 82 63 83 64 84
REMARK SMILES IDX 72 85 65 86 71 87 66 88 67 89 68 90 69 91 70 92 49 93 50 94
REMARK SMILES IDX 58 95 51 96 57 97 52 98 53 99 54 100 55 101 56 102
REMARK H PARENT 77 58 47 69
REMARK Flexibility Score: inf
ROOT
ATOM      1  C   UNL     1      -8.052   1.927  -1.917  1.00  0.00     0.202 C 
ENDROOT
BRANCH   1   2
ATOM      2  C   UNL     1      -7.739   2.543  -0.621  1.00  0.00     0.261 C 
BRANCH   2   3
ATOM      3  O   UNL     1      -7.563   1.638   0.433  1.00  0.00    -0.463 OA
BRANCH   3   4
ATOM      4  C   UNL     1      -8.576   1.690   1.305  1.00  0.00     0.306 C 
ATOM      5  O   UNL     1      -9.495   2.496   1.292  1.00  0.00    -0.252 OA
BRANCH   4   6
ATOM      6  C   UNL     1      -8.421   0.600   2.309  1.00  0.00     0.132 C 
BRANCH   6   7
ATOM      7  C   UNL     1      -7.745  -0.703   1.863  1.00  0.00     0.114 C 
BRANCH   7   8
ATOM      8  C   UNL     1      -6.194  -1.054   1.844  1.00  0.00     0.243 C 
ATOM      9  O   UNL     1      -5.849  -1.607   2.910  1.00  0.00    -0.273 OA
BRANCH   8  10
ATOM     10  N   UNL     1      -5.199  -0.866   0.759  1.00  0.00    -0.230 N 
ATOM     11  C   UNL     1      -2.236  -0.721   0.461  1.00  0.00     0.070 C 
ATOM     12  N   UNL     1      -3.410  -1.214   1.507  1.00  0.00    -0.174 NA
ATOM     13  C   UNL     1      -3.083  -0.186  -1.261  1.00  0.00     0.086 C 
ATOM     14  C   UNL     1      -5.096  -0.160  -1.126  1.00  0.00     0.118 C 
BRANCH  11  15
ATOM     15  C   UNL     1      -0.762  -0.528   0.531  1.00  0.00    -0.002 A 
ATOM     16  C   UNL     1       3.470   0.006  -0.061  1.00  0.00     0.044 C 
ATOM     17  C   UNL     1       2.010  -0.160   0.214  1.00  0.00    -0.051 A 
ATOM     18  C   UNL     1       1.480  -1.378   0.677  1.00  0.00     0.004 A 
ATOM     19  C   UNL     1       1.146   0.877  -0.096  1.00  0.00     0.004 A 
ATOM     20  C   UNL     1       0.101  -1.552   0.870  1.00  0.00     0.010 A 
ATOM     21  C   UNL     1      -0.219   0.668   0.019  1.00  0.00     0.010 A 
ENDBRANCH  11  15
BRANCH  14  22
ATOM     22  C   UNL     1      -6.565  -0.545  -2.642  1.00  0.00     0.045 C 
BRANCH  22  23
ATOM     23  C   UNL     1      -7.381  -2.387  -2.842  1.00  0.00     0.106 C 
ATOM     24  C   UNL     1      -7.189  -3.552  -1.662  1.00  0.00    -0.003 C 
ATOM     25  C   UNL     1      -8.896  -2.702  -3.273  1.00  0.00     0.253 C 
ATOM     26  C   UNL     1      -8.157  -3.883  -0.792  1.00  0.00    -0.003 A 
ATOM     27  N   UNL     1      -9.617  -3.809  -2.728  1.00  0.00    -0.212 NA
ATOM     28  O   UNL     1      -9.426  -1.999  -4.135  1.00  0.00    -0.272 OA
ATOM     29  C   UNL     1      -8.065  -4.150   0.641  1.00  0.00     0.010 A 
ATOM     30  C   UNL     1      -9.297  -4.331  -1.580  1.00  0.00     0.077 A 
ATOM     31  C   UNL     1      -8.911  -4.995   1.241  1.00  0.00     0.001 A 
ATOM     32  C   UNL     1      -9.882  -5.592  -0.923  1.00  0.00    -0.025 A 
ATOM     33  C   UNL     1      -9.705  -5.847   0.397  1.00  0.00     0.005 A 
ATOM     34  C   UNL     1     -10.299  -6.692  -1.832  1.00  0.00     0.047 C 
ENDBRANCH  22  23
ENDBRANCH  14  22
ENDBRANCH   8  10
ENDBRANCH   7   8
ENDBRANCH   6   7
ENDBRANCH   4   6
ENDBRANCH   3   4
ENDBRANCH   2   3
ENDBRANCH   1   2
BRANCH   1  35
ATOM     35  O   UNL     1      -8.940   0.846  -1.906  1.00  0.00    -0.374 OA
BRANCH  35  36
ATOM     36  C   UNL     1      -8.652  -0.451  -1.300  1.00  0.00     0.202 C 
BRANCH  36  37
ATOM     37  C   UNL     1      -7.048  -1.206  -0.862  1.00  0.00     0.261 C 
BRANCH  37  38
ATOM     38  O   UNL     1      -5.569  -1.841  -1.955  1.00  0.00    -0.460 OA
BRANCH  38  39
ATOM     39  C   UNL     1      -4.600  -1.213  -3.290  1.00  0.00     0.338 C 
ATOM     40  O   UNL     1      -4.302  -2.010  -4.186  1.00  0.00    -0.246 OA
BRANCH  39  41
ATOM     41  C   UNL     1      -4.394   0.558  -3.685  1.00  0.00     0.060 A 
ATOM     42  C   UNL     1      -3.278   1.375  -3.450  1.00  0.00     0.016 A 
ATOM     43  C   UNL     1      -5.402   1.405  -4.155  1.00  0.00     0.016 A 
ATOM     44  C   UNL     1      -3.421   2.725  -2.882  1.00  0.00     0.010 A 
ATOM     45  C   UNL     1      -5.555   2.739  -3.650  1.00  0.00     0.010 A 
ATOM     46  C   UNL     1      -4.671   3.312  -2.732  1.00  0.00    -0.014 A 
BRANCH  46  47
ATOM     47  C   UNL     1      -5.173   4.415  -1.756  1.00  0.00     0.031 A 
ATOM     48  C   UNL     1      -5.877   5.609  -2.325  1.00  0.00     0.074 A 
ATOM     49  C   UNL     1      -5.386   4.285  -0.385  1.00  0.00     0.049 A 
ATOM     50  N   UNL     1      -6.325   6.588  -1.616  1.00  0.00    -0.248 NA
ATOM     51  C   UNL     1      -6.154   5.809  -3.743  1.00  0.00     0.031 C 
ATOM     52  C   UNL     1      -6.419   4.923   0.502  1.00  0.00     0.029 A 
ATOM     53  N   UNL     1      -4.960   3.326   0.513  1.00  0.00    -0.354 N 
ATOM     54  C   UNL     1      -7.239   7.285  -2.367  1.00  0.00     0.074 A 
ATOM     55  C   UNL     1      -6.978   6.865  -3.717  1.00  0.00     0.031 C 
ATOM     56  C   UNL     1      -6.340   4.486   1.779  1.00  0.00     0.029 A 
ATOM     57  C   UNL     1      -5.148   3.695   1.860  1.00  0.00     0.049 A 
ATOM     58  H   UNL     1      -4.564   2.467   0.238  1.00  0.00     0.167 HD
ATOM     59  C   UNL     1      -8.187   8.041  -1.738  1.00  0.00     0.031 A 
ATOM     60  C   UNL     1      -4.033   3.925   2.624  1.00  0.00     0.031 A 
ATOM     61  C   UNL     1      -7.979   8.066  -0.278  1.00  0.00     0.049 A 
ATOM     62  C   UNL     1      -3.815   5.386   2.780  1.00  0.00     0.074 A 
ATOM     63  C   UNL     1      -8.675   7.594   0.823  1.00  0.00     0.029 A 
ATOM     64  N   UNL     1      -6.714   8.397   0.200  1.00  0.00    -0.354 N 
ATOM     65  N   UNL     1      -4.654   6.201   2.219  1.00  0.00    -0.248 NA
ATOM     66  C   UNL     1      -2.737   6.088   3.455  1.00  0.00     0.031 C 
ATOM     67  C   UNL     1      -7.776   7.596   1.948  1.00  0.00     0.029 A 
ATOM     68  C   UNL     1      -6.553   8.113   1.544  1.00  0.00     0.049 A 
ATOM     69  H   UNL     1      -6.008   8.792  -0.361  1.00  0.00     0.167 HD
ATOM     70  C   UNL     1      -4.368   7.470   2.500  1.00  0.00     0.074 A 
ATOM     71  C   UNL     1      -3.069   7.365   3.166  1.00  0.00     0.031 C 
ATOM     72  C   UNL     1      -5.267   8.442   2.178  1.00  0.00     0.031 A 
BRANCH  59  73
ATOM     73  C   UNL     1      -9.385   8.682  -2.423  1.00  0.00    -0.014 A 
ATOM     74  C   UNL     1     -10.224   9.546  -1.688  1.00  0.00     0.010 A 
ATOM     75  C   UNL     1      -9.767   8.462  -3.765  1.00  0.00     0.010 A 
ATOM     76  C   UNL     1     -11.349  10.169  -2.260  1.00  0.00     0.020 A 
ATOM     77  C   UNL     1     -10.871   9.100  -4.360  1.00  0.00     0.020 A 
ATOM     78  C   UNL     1     -11.658   9.955  -3.601  1.00  0.00     0.054 A 
BRANCH  78  79
ATOM     79  S   UNL     1     -13.081  10.808  -4.335  1.00  0.00     0.124 S 
ATOM     80  O   UNL     1     -14.200  10.271  -3.565  1.00  0.00    -0.237 OA
ATOM     81  O   UNL     1     -12.765  12.213  -4.093  1.00  0.00    -0.237 OA
ATOM     82  O   UNL     1     -13.045  10.402  -5.739  1.00  0.00    -0.744 OA
ENDBRANCH  78  79
ENDBRANCH  59  73
BRANCH  60  83
ATOM     83  C   UNL     1      -3.025   2.829   2.440  1.00  0.00    -0.014 A 
ATOM     84  C   UNL     1      -3.484   1.692   3.059  1.00  0.00     0.010 A 
ATOM     85  C   UNL     1      -2.568   2.672   1.125  1.00  0.00     0.010 A 
ATOM     86  C   UNL     1      -3.949   0.648   2.236  1.00  0.00     0.020 A 
ATOM     87  C   UNL     1      -3.083   1.588   0.270  1.00  0.00     0.020 A 
ATOM     88  C   UNL     1      -3.806   0.348   0.623  1.00  0.00     0.054 A 
BRANCH  88  89
ATOM     89  S   UNL     1      -3.723  -2.095  -0.201  1.00  0.00     0.124 S 
ATOM     90  O   UNL     1      -2.550  -2.860   0.374  1.00  0.00    -0.237 OA
ATOM     91  O   UNL     1      -4.925  -2.884   0.192  1.00  0.00    -0.237 OA
ATOM     92  O   UNL     1      -3.422  -2.277  -1.633  1.00  0.00    -0.744 OA
ENDBRANCH  88  89
ENDBRANCH  60  83
BRANCH  72  93
ATOM     93  C   UNL     1      -4.915   9.858   2.400  1.00  0.00    -0.014 A 
ATOM     94  C   UNL     1      -4.098  10.250   3.461  1.00  0.00     0.010 A 
ATOM     95  C   UNL     1      -5.381  10.834   1.502  1.00  0.00     0.010 A 
ATOM     96  C   UNL     1      -3.564  11.525   3.484  1.00  0.00     0.020 A 
ATOM     97  C   UNL     1      -4.910  12.131   1.557  1.00  0.00     0.020 A 
ATOM     98  C   UNL     1      -3.961  12.449   2.518  1.00  0.00     0.054 A 
BRANCH  98  99
ATOM     99  S   UNL     1      -3.257  14.096   2.582  1.00  0.00     0.124 S 
ATOM    100  O   UNL     1      -3.369  14.421   4.001  1.00  0.00    -0.237 OA
ATOM    101  O   UNL     1      -1.901  13.856   2.094  1.00  0.00    -0.237 OA
ATOM    102  O   UNL     1      -4.117  14.872   1.694  1.00  0.00    -0.744 OA
ENDBRANCH  98  99
ENDBRANCH  72  93
ENDBRANCH  46  47
ENDBRANCH  39  41
ENDBRANCH  38  39
ENDBRANCH  37  38
ENDBRANCH  36  37
ENDBRANCH  35  36
ENDBRANCH   1  35
TORSDOF 23
