REMARK SMILES [NH3+][C@@]1(C(=O)OCCOCCOC(=O)c2ccc(-c3c4nc(c(-c5ccc(S(=O)(=O)[O-])cc5)c5ccc([nH]5)c(-c5ccc(S(=O)(=O)[O-])cc5)c5nc(c(-c6ccc(S(=O)(=O)[O-])cc6)c6ccc3[nH]6)C=C5)C=C4)cc2)CC[C@H](Sc2cccs2)C1
REMARK SMILES IDX 9 1 8 2 7 3 6 4 5 5 3 6 4 7 2 8 74 9 83 10 75 11 76 12 1 13
REMARK SMILES IDX 77 17 78 18 79 19 82 20 80 21 81 22 10 23 11 24 12 25 13 26
REMARK SMILES IDX 14 27 15 28 73 29 16 30 72 31 17 32 18 33 19 34 66 35 20 36
REMARK SMILES IDX 71 37 65 38 67 39 21 40 70 41 64 42 63 43 22 45 52 46 33 47
REMARK SMILES IDX 51 48 34 49 37 50 50 51 68 52 35 53 36 54 49 56 69 57 38 58
REMARK SMILES IDX 23 59 24 60 32 61 25 62 31 63 26 64 27 65 28 66 29 67 30 68
REMARK SMILES IDX 53 69 54 70 62 71 55 72 61 73 56 74 57 75 58 76 59 77 60 78
REMARK SMILES IDX 39 79 40 80 48 81 41 82 47 83 42 84 43 85 44 86 45 87 46 88
REMARK H PARENT 1 14 1 15 1 16 67 44 37 55
REMARK Flexibility Score: inf
ROOT
ATOM      1  C   UNL     1       2.547   0.475  -3.226  1.00  0.00     0.202 C 
ENDROOT
BRANCH   1   2
ATOM      2  O   UNL     1       1.721  -0.001  -4.287  1.00  0.00    -0.374 OA
BRANCH   2   3
ATOM      3  C   UNL     1       0.676   0.859  -4.741  1.00  0.00     0.202 C 
BRANCH   3   4
ATOM      4  C   UNL     1      -0.587   0.921  -3.877  1.00  0.00     0.261 C 
BRANCH   4   5
ATOM      5  O   UNL     1      -0.317   1.466  -2.574  1.00  0.00    -0.459 OA
BRANCH   5   6
ATOM      6  C   UNL     1      -0.444   0.604  -1.536  1.00  0.00     0.368 C 
ATOM      7  O   UNL     1      -0.833  -0.559  -1.629  1.00  0.00    -0.245 OA
BRANCH   6   8
ATOM      8  C   UNL     1      -0.017   1.218  -0.171  1.00  0.00     0.193 C 
ATOM      9  C   UNL     1      -1.253   1.778   0.529  1.00  0.00     0.082 C 
ATOM     10  C   UNL     1       0.948   2.413  -0.228  1.00  0.00     0.095 C 
ATOM     11  C   UNL     1      -1.365   3.188  -0.039  1.00  0.00     0.022 C 
ATOM     12  C   UNL     1       0.082   3.682  -0.096  1.00  0.00     0.059 C 
BRANCH   8  13
ATOM     13  N   UNL     1       0.591   0.123   0.630  1.00  0.00    -0.343 N 
ATOM     14  H   UNL     1      -0.051  -0.668   0.666  1.00  0.00     0.345 HD
ATOM     15  H   UNL     1       0.774   0.456   1.577  1.00  0.00     0.345 HD
ATOM     16  H   UNL     1       1.467  -0.169   0.197  1.00  0.00     0.345 HD
ENDBRANCH   8  13
BRANCH  12  17
ATOM     17  S   UNL     1       0.428   4.819  -1.467  1.00  0.00    -0.112 SA
BRANCH  17  18
ATOM     18  C   UNL     1      -0.461   6.284  -1.083  1.00  0.00     0.060 A 
ATOM     19  C   UNL     1      -1.151   6.619   0.064  1.00  0.00     0.027 A 
ATOM     20  S   UNL     1      -0.528   7.554  -2.237  1.00  0.00    -0.137 S 
ATOM     21  C   UNL     1      -1.777   7.899  -0.028  1.00  0.00     0.013 A 
ATOM     22  C   UNL     1      -1.512   8.517  -1.227  1.00  0.00     0.066 A 
ENDBRANCH  17  18
ENDBRANCH  12  17
ENDBRANCH   6   8
ENDBRANCH   5   6
ENDBRANCH   4   5
ENDBRANCH   3   4
ENDBRANCH   2   3
ENDBRANCH   1   2
BRANCH   1  23
ATOM     23  C   UNL     1       3.573   1.565  -3.570  1.00  0.00     0.261 C 
BRANCH  23  24
ATOM     24  O   UNL     1       2.958   2.799  -3.979  1.00  0.00    -0.460 OA
BRANCH  24  25
ATOM     25  C   UNL     1       3.200   3.160  -5.263  1.00  0.00     0.338 C 
ATOM     26  O   UNL     1       3.940   2.595  -6.058  1.00  0.00    -0.246 OA
BRANCH  25  27
ATOM     27  C   UNL     1       2.291   4.247  -5.670  1.00  0.00     0.060 A 
ATOM     28  C   UNL     1       1.456   4.014  -6.770  1.00  0.00     0.016 A 
ATOM     29  C   UNL     1       2.295   5.489  -5.034  1.00  0.00     0.016 A 
ATOM     30  C   UNL     1       0.635   5.032  -7.253  1.00  0.00     0.010 A 
ATOM     31  C   UNL     1       1.482   6.515  -5.532  1.00  0.00     0.010 A 
ATOM     32  C   UNL     1       0.662   6.298  -6.654  1.00  0.00    -0.014 A 
BRANCH  32  33
ATOM     33  C   UNL     1      -0.114   7.412  -7.251  1.00  0.00     0.031 A 
ATOM     34  C   UNL     1       0.575   8.399  -8.154  1.00  0.00     0.074 A 
ATOM     35  C   UNL     1      -1.431   7.530  -7.004  1.00  0.00     0.049 A 
ATOM     36  N   UNL     1       0.083   9.455  -8.750  1.00  0.00    -0.248 NA
ATOM     37  C   UNL     1       2.002   8.163  -8.424  1.00  0.00     0.031 C 
ATOM     38  C   UNL     1      -2.220   6.614  -6.180  1.00  0.00     0.029 A 
ATOM     39  N   UNL     1      -2.336   8.475  -7.419  1.00  0.00    -0.354 N 
ATOM     40  C   UNL     1       1.139  10.015  -9.460  1.00  0.00     0.074 A 
ATOM     41  C   UNL     1       2.302   9.191  -9.206  1.00  0.00     0.031 C 
ATOM     42  C   UNL     1      -3.491   7.049  -6.142  1.00  0.00     0.029 A 
ATOM     43  C   UNL     1      -3.597   8.291  -6.905  1.00  0.00     0.049 A 
ATOM     44  H   UNL     1      -2.104   9.213  -8.027  1.00  0.00     0.167 HD
ATOM     45  C   UNL     1       1.139  11.115 -10.250  1.00  0.00     0.031 A 
ATOM     46  C   UNL     1      -4.704   9.052  -7.012  1.00  0.00     0.031 A 
ATOM     47  C   UNL     1      -0.014  11.945 -10.485  1.00  0.00     0.049 A 
ATOM     48  C   UNL     1      -4.655  10.320  -7.824  1.00  0.00     0.074 A 
ATOM     49  C   UNL     1      -0.116  13.068 -11.288  1.00  0.00     0.029 A 
ATOM     50  N   UNL     1      -1.259  11.755  -9.906  1.00  0.00    -0.354 N 
ATOM     51  N   UNL     1      -3.658  10.818  -8.515  1.00  0.00    -0.248 NA
ATOM     52  C   UNL     1      -5.882  11.130  -7.866  1.00  0.00     0.031 C 
ATOM     53  C   UNL     1      -1.405  13.591 -11.147  1.00  0.00     0.029 A 
ATOM     54  C   UNL     1      -2.124  12.761 -10.302  1.00  0.00     0.049 A 
ATOM     55  H   UNL     1      -1.494  11.014  -9.302  1.00  0.00     0.167 HD
ATOM     56  C   UNL     1      -4.141  11.992  -9.085  1.00  0.00     0.074 A 
ATOM     57  C   UNL     1      -5.524  12.118  -8.675  1.00  0.00     0.031 C 
ATOM     58  C   UNL     1      -3.495  12.885  -9.875  1.00  0.00     0.031 A 
BRANCH  45  59
ATOM     59  C   UNL     1       2.441  11.512 -10.893  1.00  0.00    -0.014 A 
ATOM     60  C   UNL     1       2.975  10.783 -11.970  1.00  0.00     0.010 A 
ATOM     61  C   UNL     1       3.113  12.665 -10.446  1.00  0.00     0.010 A 
ATOM     62  C   UNL     1       4.174  11.183 -12.569  1.00  0.00     0.020 A 
ATOM     63  C   UNL     1       4.299  13.082 -11.057  1.00  0.00     0.020 A 
ATOM     64  C   UNL     1       4.829  12.329 -12.107  1.00  0.00     0.054 A 
BRANCH  64  65
ATOM     65  S   UNL     1       6.368  12.841 -12.921  1.00  0.00     0.124 S 
ATOM     66  O   UNL     1       7.312  11.836 -12.440  1.00  0.00    -0.237 OA
ATOM     67  O   UNL     1       6.025  12.753 -14.338  1.00  0.00    -0.237 OA
ATOM     68  O   UNL     1       6.591  14.195 -12.420  1.00  0.00    -0.744 OA
ENDBRANCH  64  65
ENDBRANCH  45  59
BRANCH  46  69
ATOM     69  C   UNL     1      -5.945   8.659  -6.291  1.00  0.00    -0.014 A 
ATOM     70  C   UNL     1      -7.082   8.225  -6.994  1.00  0.00     0.010 A 
ATOM     71  C   UNL     1      -5.992   8.720  -4.885  1.00  0.00     0.010 A 
ATOM     72  C   UNL     1      -8.246   7.870  -6.306  1.00  0.00     0.020 A 
ATOM     73  C   UNL     1      -7.144   8.340  -4.193  1.00  0.00     0.020 A 
ATOM     74  C   UNL     1      -8.269   7.927  -4.909  1.00  0.00     0.054 A 
BRANCH  74  75
ATOM     75  S   UNL     1      -9.771   7.410  -4.033  1.00  0.00     0.124 S 
ATOM     76  O   UNL     1     -10.664   8.539  -4.268  1.00  0.00    -0.237 OA
ATOM     77  O   UNL     1     -10.124   6.168  -4.717  1.00  0.00    -0.237 OA
ATOM     78  O   UNL     1      -9.320   7.244  -2.652  1.00  0.00    -0.744 OA
ENDBRANCH  74  75
ENDBRANCH  46  69
BRANCH  58  79
ATOM     79  C   UNL     1      -4.279  14.078 -10.358  1.00  0.00    -0.014 A 
ATOM     80  C   UNL     1      -4.611  15.128  -9.485  1.00  0.00     0.010 A 
ATOM     81  C   UNL     1      -4.639  14.175 -11.715  1.00  0.00     0.010 A 
ATOM     82  C   UNL     1      -5.315  16.241  -9.953  1.00  0.00     0.020 A 
ATOM     83  C   UNL     1      -5.320  15.298 -12.192  1.00  0.00     0.020 A 
ATOM     84  C   UNL     1      -5.665  16.319 -11.305  1.00  0.00     0.054 A 
BRANCH  84  85
ATOM     85  S   UNL     1      -6.539  17.795 -11.897  1.00  0.00     0.124 S 
ATOM     86  O   UNL     1      -7.882  17.587 -11.364  1.00  0.00    -0.237 OA
ATOM     87  O   UNL     1      -5.782  18.884 -11.285  1.00  0.00    -0.237 OA
ATOM     88  O   UNL     1      -6.425  17.705 -13.351  1.00  0.00    -0.744 OA
ENDBRANCH  84  85
ENDBRANCH  58  79
ENDBRANCH  32  33
ENDBRANCH  25  27
ENDBRANCH  24  25
ENDBRANCH  23  24
ENDBRANCH   1  23
TORSDOF 20
