REMARK SMILES Cc1cc(O[C@@H](C)C(=O)OCCOCCOC(=O)c2ccc(-c3c4nc(c(-c5ccc(S(=O)(=O)[O-])cc5)c5ccc([nH]5)c(-c5ccc(S(=O)(=O)[O-])cc5)c5nc(c(-c6ccc(S(=O)(=O)[O-])cc6)c6ccc3[nH]6)C=C5)C=C4)cc2)n(C)n1
REMARK SMILES IDX 14 1 13 2 12 3 11 4 10 5 8 6 9 7 6 8 7 9 5 10 4 11 1 12 2 13
REMARK SMILES IDX 3 14 81 15 79 16 80 17 15 18 16 19 17 20 18 21 19 22 20 23
REMARK SMILES IDX 78 24 21 25 77 26 22 27 23 28 24 29 71 30 25 31 76 32 70 33
REMARK SMILES IDX 72 34 26 35 75 36 69 37 68 38 27 40 57 41 38 42 56 43 39 44
REMARK SMILES IDX 42 45 55 46 73 47 40 48 41 49 54 51 74 52 43 53 28 54 29 55
REMARK SMILES IDX 37 56 30 57 36 58 31 59 32 60 33 61 34 62 35 63 58 64 59 65
REMARK SMILES IDX 67 66 60 67 66 68 61 69 62 70 63 71 64 72 65 73 44 74 45 75
REMARK SMILES IDX 53 76 46 77 52 78 47 79 48 80 49 81 50 82 51 83
REMARK H PARENT 72 39 42 50
REMARK Flexibility Score: inf
ROOT
ATOM      1  C   UNL     1       1.326  -3.332  -3.336  1.00  0.00     0.202 C 
ENDROOT
BRANCH   1   2
ATOM      2  O   UNL     1       0.292  -3.998  -4.062  1.00  0.00    -0.374 OA
BRANCH   2   3
ATOM      3  C   UNL     1      -1.057  -3.671  -3.716  1.00  0.00     0.202 C 
BRANCH   3   4
ATOM      4  C   UNL     1      -1.567  -4.339  -2.438  1.00  0.00     0.261 C 
BRANCH   4   5
ATOM      5  O   UNL     1      -0.934  -3.720  -1.306  1.00  0.00    -0.461 OA
BRANCH   5   6
ATOM      6  C   UNL     1      -0.311  -4.536  -0.423  1.00  0.00     0.347 C 
ATOM      7  O   UNL     1      -0.422  -5.758  -0.401  1.00  0.00    -0.248 OA
BRANCH   6   8
ATOM      8  C   UNL     1       0.617  -3.763   0.535  1.00  0.00     0.281 C 
ATOM      9  C   UNL     1       0.133  -3.888   1.976  1.00  0.00     0.066 C 
BRANCH   8  10
ATOM     10  O   UNL     1       1.116  -2.466   0.229  1.00  0.00    -0.463 OA
BRANCH  10  11
ATOM     11  C   UNL     1       0.302  -1.406   0.217  1.00  0.00     0.212 A 
ATOM     12  C   UNL     1      -2.547   0.923   0.274  1.00  0.00     0.069 C 
ATOM     13  C   UNL     1      -1.264   0.182   0.214  1.00  0.00     0.063 A 
ATOM     14  C   UNL     1      -1.058  -1.211   0.336  1.00  0.00     0.093 A 
ATOM     15  N   UNL     1      -0.111   0.834   0.036  1.00  0.00    -0.175 NA
ATOM     16  N   UNL     1       0.818  -0.142   0.041  1.00  0.00    -0.237 N 
ATOM     17  C   UNL     1       2.204   0.231  -0.099  1.00  0.00     0.178 C 
ENDBRANCH  10  11
ENDBRANCH   8  10
ENDBRANCH   6   8
ENDBRANCH   5   6
ENDBRANCH   4   5
ENDBRANCH   3   4
ENDBRANCH   2   3
ENDBRANCH   1   2
BRANCH   1  18
ATOM     18  C   UNL     1       1.679  -1.918  -3.811  1.00  0.00     0.261 C 
BRANCH  18  19
ATOM     19  O   UNL     1       0.618  -0.978  -3.576  1.00  0.00    -0.460 OA
BRANCH  19  20
ATOM     20  C   UNL     1      -0.058  -0.596  -4.685  1.00  0.00     0.338 C 
ATOM     21  O   UNL     1       0.181  -0.927  -5.841  1.00  0.00    -0.246 OA
BRANCH  20  22
ATOM     22  C   UNL     1      -1.266   0.165  -4.320  1.00  0.00     0.060 A 
ATOM     23  C   UNL     1      -2.480  -0.230  -4.897  1.00  0.00     0.016 A 
ATOM     24  C   UNL     1      -1.210   1.292  -3.498  1.00  0.00     0.016 A 
ATOM     25  C   UNL     1      -3.634   0.524  -4.690  1.00  0.00     0.010 A 
ATOM     26  C   UNL     1      -2.367   2.056  -3.305  1.00  0.00     0.010 A 
ATOM     27  C   UNL     1      -3.578   1.694  -3.921  1.00  0.00    -0.014 A 
BRANCH  27  28
ATOM     28  C   UNL     1      -4.753   2.601  -3.872  1.00  0.00     0.031 A 
ATOM     29  C   UNL     1      -4.754   3.841  -4.726  1.00  0.00     0.074 A 
ATOM     30  C   UNL     1      -5.813   2.317  -3.093  1.00  0.00     0.049 A 
ATOM     31  N   UNL     1      -5.663   4.777  -4.822  1.00  0.00    -0.248 NA
ATOM     32  C   UNL     1      -3.576   4.057  -5.583  1.00  0.00     0.031 C 
ATOM     33  C   UNL     1      -5.946   1.137  -2.238  1.00  0.00     0.029 A 
ATOM     34  N   UNL     1      -6.981   3.010  -2.890  1.00  0.00    -0.354 N 
ATOM     35  C   UNL     1      -5.160   5.700  -5.732  1.00  0.00     0.074 A 
ATOM     36  C   UNL     1      -3.861   5.222  -6.149  1.00  0.00     0.031 C 
ATOM     37  C   UNL     1      -7.124   1.197  -1.591  1.00  0.00     0.029 A 
ATOM     38  C   UNL     1      -7.816   2.429  -1.965  1.00  0.00     0.049 A 
ATOM     39  H   UNL     1      -7.201   3.845  -3.363  1.00  0.00     0.167 HD
ATOM     40  C   UNL     1      -5.731   6.842  -6.184  1.00  0.00     0.031 A 
ATOM     41  C   UNL     1      -8.992   2.852  -1.460  1.00  0.00     0.031 A 
ATOM     42  C   UNL     1      -7.028   7.314  -5.779  1.00  0.00     0.049 A 
ATOM     43  C   UNL     1      -9.589   4.146  -1.955  1.00  0.00     0.074 A 
ATOM     44  C   UNL     1      -7.707   8.437  -6.219  1.00  0.00     0.029 A 
ATOM     45  N   UNL     1      -7.838   6.699  -4.839  1.00  0.00    -0.354 N 
ATOM     46  N   UNL     1      -9.125   4.976  -2.858  1.00  0.00    -0.248 NA
ATOM     47  C   UNL     1     -10.876   4.553  -1.369  1.00  0.00     0.031 C 
ATOM     48  C   UNL     1      -8.905   8.531  -5.505  1.00  0.00     0.029 A 
ATOM     49  C   UNL     1      -8.997   7.435  -4.662  1.00  0.00     0.049 A 
ATOM     50  H   UNL     1      -7.621   5.863  -4.366  1.00  0.00     0.167 HD
ATOM     51  C   UNL     1     -10.075   5.987  -2.967  1.00  0.00     0.074 A 
ATOM     52  C   UNL     1     -11.146   5.658  -2.051  1.00  0.00     0.031 C 
ATOM     53  C   UNL     1     -10.061   7.090  -3.756  1.00  0.00     0.031 A 
BRANCH  40  54
ATOM     54  C   UNL     1      -4.949   7.685  -7.153  1.00  0.00    -0.014 A 
ATOM     55  C   UNL     1      -4.801   7.303  -8.498  1.00  0.00     0.010 A 
ATOM     56  C   UNL     1      -4.427   8.921  -6.728  1.00  0.00     0.010 A 
ATOM     57  C   UNL     1      -4.130   8.136  -9.398  1.00  0.00     0.020 A 
ATOM     58  C   UNL     1      -3.775   9.766  -7.630  1.00  0.00     0.020 A 
ATOM     59  C   UNL     1      -3.624   9.364  -8.958  1.00  0.00     0.054 A 
BRANCH  59  60
ATOM     60  S   UNL     1      -2.813  10.452 -10.162  1.00  0.00     0.124 S 
ATOM     61  O   UNL     1      -1.543   9.765 -10.382  1.00  0.00    -0.237 OA
ATOM     62  O   UNL     1      -3.741  10.432 -11.289  1.00  0.00    -0.237 OA
ATOM     63  O   UNL     1      -2.715  11.731  -9.463  1.00  0.00    -0.744 OA
ENDBRANCH  59  60
ENDBRANCH  40  54
BRANCH  41  64
ATOM     64  C   UNL     1      -9.677   2.068  -0.395  1.00  0.00    -0.014 A 
ATOM     65  C   UNL     1     -10.896   1.414  -0.647  1.00  0.00     0.010 A 
ATOM     66  C   UNL     1      -9.122   2.005   0.896  1.00  0.00     0.010 A 
ATOM     67  C   UNL     1     -11.564   0.741   0.382  1.00  0.00     0.020 A 
ATOM     68  C   UNL     1      -9.772   1.309   1.919  1.00  0.00     0.020 A 
ATOM     69  C   UNL     1     -10.999   0.696   1.659  1.00  0.00     0.054 A 
BRANCH  69  70
ATOM     70  S   UNL     1     -11.868  -0.200   2.976  1.00  0.00     0.124 S 
ATOM     71  O   UNL     1     -12.936   0.731   3.322  1.00  0.00    -0.237 OA
ATOM     72  O   UNL     1     -12.289  -1.426   2.301  1.00  0.00    -0.237 OA
ATOM     73  O   UNL     1     -10.839  -0.384   3.997  1.00  0.00    -0.744 OA
ENDBRANCH  69  70
ENDBRANCH  41  64
BRANCH  53  74
ATOM     74  C   UNL     1     -11.256   8.005  -3.701  1.00  0.00    -0.014 A 
ATOM     75  C   UNL     1     -11.486   8.842  -2.595  1.00  0.00     0.010 A 
ATOM     76  C   UNL     1     -12.127   8.072  -4.805  1.00  0.00     0.010 A 
ATOM     77  C   UNL     1     -12.582   9.710  -2.582  1.00  0.00     0.020 A 
ATOM     78  C   UNL     1     -13.208   8.957  -4.806  1.00  0.00     0.020 A 
ATOM     79  C   UNL     1     -13.437   9.761  -3.688  1.00  0.00     0.054 A 
BRANCH  79  80
ATOM     80  S   UNL     1     -14.826  10.927  -3.667  1.00  0.00     0.124 S 
ATOM     81  O   UNL     1     -15.762  10.268  -2.760  1.00  0.00    -0.237 OA
ATOM     82  O   UNL     1     -14.212  12.151  -3.156  1.00  0.00    -0.237 OA
ATOM     83  O   UNL     1     -15.250  10.987  -5.064  1.00  0.00    -0.744 OA
ENDBRANCH  79  80
ENDBRANCH  53  74
ENDBRANCH  27  28
ENDBRANCH  20  22
ENDBRANCH  19  20
ENDBRANCH  18  19
ENDBRANCH   1  18
TORSDOF 19
