REMARK SMILES NC(=O)CC[N@@H+]1[C@@H](C(=O)OCCOCCOC(=O)c2ccc(-c3c4nc(c(-c5ccc(S(=O)(=O)[O-])cc5)c5ccc([nH]5)c(-c5ccc(S(=O)(=O)[O-])cc5)c5nc(c(-c6ccc(S(=O)(=O)[O-])cc6)c6ccc3[nH]6)C=C5)C=C4)cc2)CC[C@@H]2CCCC[C@H]21
REMARK SMILES IDX 13 1 12 2 11 3 10 4 8 5 9 6 7 7 6 8 86 9 79 11 81 12 85 13
REMARK SMILES IDX 80 14 82 15 84 16 83 17 5 18 4 19 2 20 1 21 3 24 14 25 15 26
REMARK SMILES IDX 16 27 17 28 18 29 19 30 20 31 78 32 21 33 77 34 22 35 23 36
REMARK SMILES IDX 24 37 71 38 25 39 76 40 70 41 72 42 26 43 75 44 69 45 68 46
REMARK SMILES IDX 27 48 57 49 38 50 56 51 39 52 42 53 55 54 73 55 40 56 41 57
REMARK SMILES IDX 54 59 74 60 43 61 28 62 29 63 37 64 30 65 36 66 31 67 32 68
REMARK SMILES IDX 33 69 34 70 35 71 58 72 59 73 67 74 60 75 66 76 61 77 62 78
REMARK SMILES IDX 63 79 64 80 65 81 44 82 45 83 53 84 46 85 52 86 47 87 48 88
REMARK SMILES IDX 49 89 50 90 51 91
REMARK H PARENT 6 10 1 22 1 23 72 47 42 58
REMARK Flexibility Score: inf
ROOT
ATOM      1  O   UNL     1       3.579  -6.841   1.367  1.00  0.00    -0.374 OA
ENDROOT
BRANCH   1   2
ATOM      2  C   UNL     1       2.438  -6.567   0.555  1.00  0.00     0.202 C 
BRANCH   2   3
ATOM      3  C   UNL     1       1.609  -5.327   0.902  1.00  0.00     0.261 C 
BRANCH   3   4
ATOM      4  O   UNL     1       2.325  -4.095   0.704  1.00  0.00    -0.459 OA
BRANCH   4   5
ATOM      5  C   UNL     1       2.804  -3.519   1.839  1.00  0.00     0.364 C 
ATOM      6  O   UNL     1       2.692  -3.993   2.967  1.00  0.00    -0.245 OA
BRANCH   5   7
ATOM      7  C   UNL     1       3.497  -2.171   1.590  1.00  0.00     0.295 C 
ATOM      8  N   UNL     1       2.549  -0.993   1.475  1.00  0.00    -0.320 N 
ATOM      9  C   UNL     1       3.386   0.257   1.484  1.00  0.00     0.187 C 
ATOM     10  H   UNL     1       2.013  -0.994   0.607  1.00  0.00     0.349 HD
ATOM     11  C   UNL     1       4.425  -2.245   0.373  1.00  0.00     0.078 C 
ATOM     12  C   UNL     1       4.396   0.246   0.293  1.00  0.00     0.048 C 
ATOM     13  C   UNL     1       2.590   1.576   1.418  1.00  0.00     0.065 C 
ATOM     14  C   UNL     1       5.282  -0.998   0.298  1.00  0.00     0.016 C 
ATOM     15  C   UNL     1       5.295   1.491   0.287  1.00  0.00     0.010 C 
ATOM     16  C   UNL     1       3.477   2.819   1.366  1.00  0.00     0.006 C 
ATOM     17  C   UNL     1       4.473   2.767   0.222  1.00  0.00     0.001 C 
BRANCH   8  18
ATOM     18  C   UNL     1       1.539  -1.073   2.571  1.00  0.00     0.273 C 
BRANCH  18  19
ATOM     19  C   UNL     1       0.249  -0.243   2.535  1.00  0.00     0.161 C 
BRANCH  19  20
ATOM     20  C   UNL     1      -0.539  -0.189   1.244  1.00  0.00     0.223 C 
ATOM     21  N   UNL     1       0.088  -0.563   0.103  1.00  0.00    -0.369 N 
ATOM     22  H   UNL     1      -0.396  -0.540  -0.755  1.00  0.00     0.159 HD
ATOM     23  H   UNL     1       1.027  -0.858   0.131  1.00  0.00     0.159 HD
ATOM     24  O   UNL     1      -1.694   0.227   1.218  1.00  0.00    -0.275 OA
ENDBRANCH  19  20
ENDBRANCH  18  19
ENDBRANCH   8  18
ENDBRANCH   5   7
ENDBRANCH   4   5
ENDBRANCH   3   4
ENDBRANCH   2   3
ENDBRANCH   1   2
BRANCH   1  25
ATOM     25  C   UNL     1       4.763  -6.087   1.117  1.00  0.00     0.202 C 
BRANCH  25  26
ATOM     26  C   UNL     1       5.583  -6.456  -0.125  1.00  0.00     0.261 C 
BRANCH  26  27
ATOM     27  O   UNL     1       4.874  -6.192  -1.348  1.00  0.00    -0.460 OA
BRANCH  27  28
ATOM     28  C   UNL     1       4.516  -7.302  -2.037  1.00  0.00     0.338 C 
ATOM     29  O   UNL     1       4.805  -8.461  -1.765  1.00  0.00    -0.246 OA
BRANCH  28  30
ATOM     30  C   UNL     1       3.547  -6.965  -3.097  1.00  0.00     0.060 A 
ATOM     31  C   UNL     1       2.357  -7.703  -3.134  1.00  0.00     0.016 A 
ATOM     32  C   UNL     1       3.827  -6.020  -4.086  1.00  0.00     0.016 A 
ATOM     33  C   UNL     1       1.471  -7.547  -4.196  1.00  0.00     0.010 A 
ATOM     34  C   UNL     1       2.938  -5.871  -5.158  1.00  0.00     0.010 A 
ATOM     35  C   UNL     1       1.779  -6.665  -5.238  1.00  0.00    -0.014 A 
BRANCH  35  36
ATOM     36  C   UNL     1       0.974  -6.707  -6.484  1.00  0.00     0.031 A 
ATOM     37  C   UNL     1       1.494  -7.494  -7.658  1.00  0.00     0.074 A 
ATOM     38  C   UNL     1      -0.227  -6.106  -6.551  1.00  0.00     0.049 A 
ATOM     39  N   UNL     1       0.963  -7.665  -8.841  1.00  0.00    -0.248 NA
ATOM     40  C   UNL     1       2.783  -8.182  -7.472  1.00  0.00     0.031 C 
ATOM     41  C   UNL     1      -0.866  -5.366  -5.463  1.00  0.00     0.029 A 
ATOM     42  N   UNL     1      -1.127  -6.029  -7.584  1.00  0.00    -0.354 N 
ATOM     43  C   UNL     1       1.848  -8.478  -9.539  1.00  0.00     0.074 A 
ATOM     44  C   UNL     1       2.967  -8.740  -8.660  1.00  0.00     0.031 C 
ATOM     45  C   UNL     1      -2.058  -4.910  -5.888  1.00  0.00     0.029 A 
ATOM     46  C   UNL     1      -2.250  -5.296  -7.284  1.00  0.00     0.049 A 
ATOM     47  H   UNL     1      -0.982  -6.459  -8.458  1.00  0.00     0.167 HD
ATOM     48  C   UNL     1       1.738  -8.971 -10.796  1.00  0.00     0.031 A 
ATOM     49  C   UNL     1      -3.305  -4.962  -8.054  1.00  0.00     0.031 A 
ATOM     50  C   UNL     1       0.632  -8.700 -11.675  1.00  0.00     0.049 A 
ATOM     51  C   UNL     1      -3.361  -5.446  -9.480  1.00  0.00     0.074 A 
ATOM     52  C   UNL     1       0.431  -9.147 -12.969  1.00  0.00     0.029 A 
ATOM     53  N   UNL     1      -0.459  -7.907 -11.352  1.00  0.00    -0.354 N 
ATOM     54  N   UNL     1      -2.517  -6.217 -10.124  1.00  0.00    -0.248 NA
ATOM     55  C   UNL     1      -4.517  -5.019 -10.281  1.00  0.00     0.031 C 
ATOM     56  C   UNL     1      -0.757  -8.584 -13.446  1.00  0.00     0.029 A 
ATOM     57  C   UNL     1      -1.325  -7.833 -12.429  1.00  0.00     0.049 A 
ATOM     58  H   UNL     1      -0.597  -7.462 -10.484  1.00  0.00     0.167 HD
ATOM     59  C   UNL     1      -3.056  -6.391 -11.395  1.00  0.00     0.074 A 
ATOM     60  C   UNL     1      -4.303  -5.654 -11.425  1.00  0.00     0.031 C 
ATOM     61  C   UNL     1      -2.564  -7.099 -12.442  1.00  0.00     0.031 A 
BRANCH  48  62
ATOM     62  C   UNL     1       2.861  -9.834 -11.305  1.00  0.00    -0.014 A 
ATOM     63  C   UNL     1       3.047 -11.144 -10.825  1.00  0.00     0.010 A 
ATOM     64  C   UNL     1       3.721  -9.343 -12.304  1.00  0.00     0.010 A 
ATOM     65  C   UNL     1       4.093 -11.933 -11.310  1.00  0.00     0.020 A 
ATOM     66  C   UNL     1       4.753 -10.138 -12.810  1.00  0.00     0.020 A 
ATOM     67  C   UNL     1       4.942 -11.423 -12.298  1.00  0.00     0.054 A 
BRANCH  67  68
ATOM     68  S   UNL     1       6.279 -12.476 -12.926  1.00  0.00     0.124 S 
ATOM     69  O   UNL     1       7.219 -12.468 -11.808  1.00  0.00    -0.237 OA
ATOM     70  O   UNL     1       5.600 -13.748 -13.166  1.00  0.00    -0.237 OA
ATOM     71  O   UNL     1       6.734 -11.780 -14.127  1.00  0.00    -0.744 OA
ENDBRANCH  67  68
ENDBRANCH  48  62
BRANCH  49  72
ATOM     72  C   UNL     1      -4.390  -4.105  -7.503  1.00  0.00    -0.014 A 
ATOM     73  C   UNL     1      -5.677  -4.628  -7.283  1.00  0.00     0.010 A 
ATOM     74  C   UNL     1      -4.144  -2.750  -7.213  1.00  0.00     0.010 A 
ATOM     75  C   UNL     1      -6.703  -3.806  -6.806  1.00  0.00     0.020 A 
ATOM     76  C   UNL     1      -5.159  -1.933  -6.710  1.00  0.00     0.020 A 
ATOM     77  C   UNL     1      -6.437  -2.462  -6.524  1.00  0.00     0.054 A 
BRANCH  77  78
ATOM     78  S   UNL     1      -7.775  -1.421  -5.879  1.00  0.00     0.124 S 
ATOM     79  O   UNL     1      -8.591  -1.205  -7.069  1.00  0.00    -0.237 OA
ATOM     80  O   UNL     1      -8.368  -2.272  -4.850  1.00  0.00    -0.237 OA
ATOM     81  O   UNL     1      -7.076  -0.241  -5.376  1.00  0.00    -0.744 OA
ENDBRANCH  77  78
ENDBRANCH  49  72
BRANCH  61  82
ATOM     82  C   UNL     1      -3.393  -7.147 -13.698  1.00  0.00    -0.014 A 
ATOM     83  C   UNL     1      -3.502  -6.031 -14.546  1.00  0.00     0.010 A 
ATOM     84  C   UNL     1      -4.026  -8.350 -14.064  1.00  0.00     0.010 A 
ATOM     85  C   UNL     1      -4.254  -6.107 -15.721  1.00  0.00     0.020 A 
ATOM     86  C   UNL     1      -4.757  -8.438 -15.252  1.00  0.00     0.020 A 
ATOM     87  C   UNL     1      -4.878  -7.311 -16.066  1.00  0.00     0.054 A 
BRANCH  87  88
ATOM     88  S   UNL     1      -5.811  -7.398 -17.619  1.00  0.00     0.124 S 
ATOM     89  O   UNL     1      -7.024  -6.657 -17.287  1.00  0.00    -0.237 OA
ATOM     90  O   UNL     1      -4.915  -6.744 -18.570  1.00  0.00    -0.237 OA
ATOM     91  O   UNL     1      -5.995  -8.832 -17.832  1.00  0.00    -0.744 OA
ENDBRANCH  87  88
ENDBRANCH  61  82
ENDBRANCH  35  36
ENDBRANCH  28  30
ENDBRANCH  27  28
ENDBRANCH  26  27
ENDBRANCH  25  26
ENDBRANCH   1  25
TORSDOF 20
