REMARK SMILES Cc1c(CC(=O)OCCOCCOC(=O)c2ccc(-c3c4nc(c(-c5ccc(S(=O)(=O)[O-])cc5)c5ccc([nH]5)c(-c5ccc(S(=O)(=O)[O-])cc5)c5nc(c(-c6ccc(S(=O)(=O)[O-])cc6)c6ccc3[nH]6)C=C5)C=C4)cc2)cc(-c2ccccc2)cc1-c1ccccc1
REMARK SMILES IDX 11 1 10 2 9 3 8 4 7 5 5 6 6 7 4 8 3 9 1 10 2 11 85 12 76 13
REMARK SMILES IDX 84 14 77 15 86 16 87 17 91 18 88 19 90 20 89 21 78 22 79 23
REMARK SMILES IDX 83 24 80 25 82 26 81 27 12 28 13 29 14 30 15 31 16 32 17 33
REMARK SMILES IDX 75 34 18 35 74 36 19 37 20 38 21 39 68 40 22 41 73 42 67 43
REMARK SMILES IDX 69 44 23 45 72 46 66 47 65 48 24 50 54 51 35 52 53 53 36 54
REMARK SMILES IDX 39 55 52 56 70 57 37 58 38 59 51 61 71 62 40 63 25 64 26 65
REMARK SMILES IDX 34 66 27 67 33 68 28 69 29 70 30 71 31 72 32 73 55 74 56 75
REMARK SMILES IDX 64 76 57 77 63 78 58 79 59 80 60 81 61 82 62 83 41 84 42 85
REMARK SMILES IDX 50 86 43 87 49 88 44 89 45 90 46 91 47 92 48 93
REMARK H PARENT 69 49 39 60
REMARK Flexibility Score: inf
ROOT
ATOM      1  C   UNL     1      -3.016  -3.040   1.388  1.00  0.00     0.202 C 
ENDROOT
BRANCH   1   2
ATOM      2  O   UNL     1      -3.029  -4.430   1.101  1.00  0.00    -0.374 OA
BRANCH   2   3
ATOM      3  C   UNL     1      -1.809  -5.160   1.203  1.00  0.00     0.202 C 
BRANCH   3   4
ATOM      4  C   UNL     1      -0.461  -4.440   1.238  1.00  0.00     0.261 C 
BRANCH   4   5
ATOM      5  O   UNL     1      -0.302  -3.454   0.214  1.00  0.00    -0.463 OA
BRANCH   5   6
ATOM      6  C   UNL     1       0.823  -3.489  -0.531  1.00  0.00     0.310 C 
ATOM      7  O   UNL     1       1.558  -4.466  -0.642  1.00  0.00    -0.252 OA
BRANCH   6   8
ATOM      8  C   UNL     1       1.029  -2.227  -1.339  1.00  0.00     0.158 C 
BRANCH   8   9
ATOM      9  C   UNL     1       0.350  -0.942  -0.877  1.00  0.00    -0.033 A 
ATOM     10  C   UNL     1       2.558   0.088  -0.165  1.00  0.00     0.045 C 
ATOM     11  C   UNL     1       1.072   0.190  -0.422  1.00  0.00    -0.039 A 
ATOM     12  C   UNL     1       0.392   1.422  -0.222  1.00  0.00    -0.015 A 
ATOM     13  C   UNL     1      -1.051  -0.848  -0.991  1.00  0.00     0.013 A 
ATOM     14  C   UNL     1      -1.015   1.443  -0.283  1.00  0.00     0.017 A 
ATOM     15  C   UNL     1      -1.750   0.313  -0.639  1.00  0.00    -0.017 A 
BRANCH  12  16
ATOM     16  C   UNL     1       1.092   2.714  -0.083  1.00  0.00    -0.018 A 
ATOM     17  C   UNL     1       0.882   3.566   1.011  1.00  0.00     0.009 A 
ATOM     18  C   UNL     1       1.929   3.164  -1.122  1.00  0.00     0.009 A 
ATOM     19  C   UNL     1       1.494   4.823   1.064  1.00  0.00     0.001 A 
ATOM     20  C   UNL     1       2.543   4.415  -1.068  1.00  0.00     0.001 A 
ATOM     21  C   UNL     1       2.322   5.247   0.025  1.00  0.00     0.000 A 
ENDBRANCH  12  16
BRANCH  15  22
ATOM     22  C   UNL     1      -3.215   0.342  -0.651  1.00  0.00    -0.018 A 
ATOM     23  C   UNL     1      -3.934   0.138   0.536  1.00  0.00     0.009 A 
ATOM     24  C   UNL     1      -3.933   0.542  -1.838  1.00  0.00     0.009 A 
ATOM     25  C   UNL     1      -5.327   0.047   0.527  1.00  0.00     0.001 A 
ATOM     26  C   UNL     1      -5.330   0.488  -1.844  1.00  0.00     0.001 A 
ATOM     27  C   UNL     1      -6.025   0.218  -0.666  1.00  0.00     0.000 A 
ENDBRANCH  15  22
ENDBRANCH   8   9
ENDBRANCH   6   8
ENDBRANCH   5   6
ENDBRANCH   4   5
ENDBRANCH   3   4
ENDBRANCH   2   3
ENDBRANCH   1   2
BRANCH   1  28
ATOM     28  C   UNL     1      -3.051  -2.601   2.858  1.00  0.00     0.261 C 
BRANCH  28  29
ATOM     29  O   UNL     1      -2.245  -3.400   3.710  1.00  0.00    -0.460 OA
BRANCH  29  30
ATOM     30  C   UNL     1      -2.784  -3.805   4.898  1.00  0.00     0.338 C 
ATOM     31  O   UNL     1      -3.917  -3.666   5.321  1.00  0.00    -0.246 OA
BRANCH  30  32
ATOM     32  C   UNL     1      -1.752  -4.701   5.444  1.00  0.00     0.060 A 
ATOM     33  C   UNL     1      -0.587  -4.130   5.951  1.00  0.00     0.016 A 
ATOM     34  C   UNL     1      -1.736  -5.963   4.856  1.00  0.00     0.016 A 
ATOM     35  C   UNL     1       0.633  -4.669   5.563  1.00  0.00     0.010 A 
ATOM     36  C   UNL     1      -0.520  -6.461   4.426  1.00  0.00     0.010 A 
ATOM     37  C   UNL     1       0.632  -5.686   4.604  1.00  0.00    -0.014 A 
BRANCH  37  38
ATOM     38  C   UNL     1       1.696  -5.776   3.586  1.00  0.00     0.031 A 
ATOM     39  C   UNL     1       2.145  -7.101   3.155  1.00  0.00     0.074 A 
ATOM     40  C   UNL     1       2.240  -4.701   2.969  1.00  0.00     0.049 A 
ATOM     41  N   UNL     1       3.140  -7.740   3.672  1.00  0.00    -0.248 NA
ATOM     42  C   UNL     1       1.422  -7.817   2.104  1.00  0.00     0.031 C 
ATOM     43  C   UNL     1       3.326  -4.702   1.991  1.00  0.00     0.029 A 
ATOM     44  N   UNL     1       2.007  -3.348   3.191  1.00  0.00    -0.354 N 
ATOM     45  C   UNL     1       3.327  -8.820   2.837  1.00  0.00     0.074 A 
ATOM     46  C   UNL     1       2.112  -8.957   2.050  1.00  0.00     0.031 C 
ATOM     47  C   UNL     1       3.872  -3.471   1.966  1.00  0.00     0.029 A 
ATOM     48  C   UNL     1       3.179  -2.639   2.943  1.00  0.00     0.049 A 
ATOM     49  H   UNL     1       1.151  -2.955   3.477  1.00  0.00     0.167 HD
ATOM     50  C   UNL     1       4.562  -9.221   2.422  1.00  0.00     0.031 A 
ATOM     51  C   UNL     1       3.757  -1.891   3.927  1.00  0.00     0.031 A 
ATOM     52  C   UNL     1       5.526  -8.128   2.534  1.00  0.00     0.049 A 
ATOM     53  C   UNL     1       4.942  -2.639   4.511  1.00  0.00     0.074 A 
ATOM     54  C   UNL     1       6.040  -7.277   1.567  1.00  0.00     0.029 A 
ATOM     55  N   UNL     1       5.816  -7.541   3.761  1.00  0.00    -0.354 N 
ATOM     56  N   UNL     1       5.251  -3.866   4.182  1.00  0.00    -0.248 NA
ATOM     57  C   UNL     1       5.870  -2.091   5.497  1.00  0.00     0.031 C 
ATOM     58  C   UNL     1       6.582  -6.141   2.217  1.00  0.00     0.029 A 
ATOM     59  C   UNL     1       6.428  -6.311   3.582  1.00  0.00     0.049 A 
ATOM     60  H   UNL     1       5.614  -7.944   4.637  1.00  0.00     0.167 HD
ATOM     61  C   UNL     1       6.354  -4.278   4.874  1.00  0.00     0.074 A 
ATOM     62  C   UNL     1       6.714  -3.124   5.680  1.00  0.00     0.031 C 
ATOM     63  C   UNL     1       6.884  -5.529   4.726  1.00  0.00     0.031 A 
BRANCH  50  64
ATOM     64  C   UNL     1       4.703 -10.418   1.509  1.00  0.00    -0.014 A 
ATOM     65  C   UNL     1       5.765 -10.527   0.596  1.00  0.00     0.010 A 
ATOM     66  C   UNL     1       3.795 -11.503   1.561  1.00  0.00     0.010 A 
ATOM     67  C   UNL     1       5.864 -11.614  -0.287  1.00  0.00     0.020 A 
ATOM     68  C   UNL     1       3.861 -12.574   0.659  1.00  0.00     0.020 A 
ATOM     69  C   UNL     1       4.900 -12.622  -0.263  1.00  0.00     0.054 A 
BRANCH  69  70
ATOM     70  S   UNL     1       5.026 -13.995  -1.441  1.00  0.00     0.124 S 
ATOM     71  O   UNL     1       5.156 -13.305  -2.722  1.00  0.00    -0.237 OA
ATOM     72  O   UNL     1       6.220 -14.693  -0.976  1.00  0.00    -0.237 OA
ATOM     73  O   UNL     1       3.770 -14.722  -1.261  1.00  0.00    -0.744 OA
ENDBRANCH  69  70
ENDBRANCH  50  64
BRANCH  51  74
ATOM     74  C   UNL     1       2.783  -0.993   4.627  1.00  0.00    -0.014 A 
ATOM     75  C   UNL     1       2.216   0.036   3.836  1.00  0.00     0.010 A 
ATOM     76  C   UNL     1       2.133  -1.329   5.826  1.00  0.00     0.010 A 
ATOM     77  C   UNL     1       0.961   0.581   4.129  1.00  0.00     0.020 A 
ATOM     78  C   UNL     1       0.875  -0.769   6.133  1.00  0.00     0.020 A 
ATOM     79  C   UNL     1       0.274   0.139   5.253  1.00  0.00     0.054 A 
BRANCH  79  80
ATOM     80  S   UNL     1      -1.472   0.622   5.446  1.00  0.00     0.124 S 
ATOM     81  O   UNL     1      -1.362   2.002   5.906  1.00  0.00    -0.237 OA
ATOM     82  O   UNL     1      -2.005   0.455   4.095  1.00  0.00    -0.237 OA
ATOM     83  O   UNL     1      -1.972  -0.338   6.427  1.00  0.00    -0.744 OA
ENDBRANCH  79  80
ENDBRANCH  51  74
BRANCH  63  84
ATOM     84  C   UNL     1       7.974  -6.118   5.583  1.00  0.00    -0.014 A 
ATOM     85  C   UNL     1       8.191  -5.759   6.921  1.00  0.00     0.010 A 
ATOM     86  C   UNL     1       8.738  -7.194   5.067  1.00  0.00     0.010 A 
ATOM     87  C   UNL     1       9.165  -6.407   7.692  1.00  0.00     0.020 A 
ATOM     88  C   UNL     1       9.675  -7.878   5.841  1.00  0.00     0.020 A 
ATOM     89  C   UNL     1       9.902  -7.461   7.146  1.00  0.00     0.054 A 
BRANCH  89  90
ATOM     90  S   UNL     1      11.114  -8.328   8.171  1.00  0.00     0.124 S 
ATOM     91  O   UNL     1      12.295  -7.482   8.018  1.00  0.00    -0.237 OA
ATOM     92  O   UNL     1      10.496  -8.307   9.496  1.00  0.00    -0.237 OA
ATOM     93  O   UNL     1      11.204  -9.649   7.555  1.00  0.00    -0.744 OA
ENDBRANCH  89  90
ENDBRANCH  63  84
ENDBRANCH  37  38
ENDBRANCH  30  32
ENDBRANCH  29  30
ENDBRANCH  28  29
ENDBRANCH   1  28
TORSDOF 20
