REMARK SMILES O=C1NC[C@@H](CSc2ccnc(C(=O)OCCOCCOC(=O)c3ccc(-c4c5nc(c(-c6ccc(S(=O)(=O)[O-])cc6)c6ccc([nH]6)c(-c6ccc(S(=O)(=O)[O-])cc6)c6nc(c(-c7ccc(S(=O)(=O)[O-])cc7)c7ccc4[nH]7)C=C6)C=C5)cc3)c2)O1
REMARK SMILES IDX 18 1 17 2 16 3 15 4 13 5 14 6 12 7 8 8 9 9 84 10 10 11 11 12
REMARK SMILES IDX 7 13 6 14 5 15 1 16 2 17 3 18 85 19 4 20 19 22 20 23 21 24
REMARK SMILES IDX 22 25 23 26 24 27 25 28 83 29 26 30 82 31 27 32 28 33 29 34
REMARK SMILES IDX 76 35 30 36 81 37 75 38 77 39 31 40 80 41 74 42 73 43 32 45
REMARK SMILES IDX 62 46 43 47 61 48 44 49 47 50 60 51 78 52 45 53 46 54 59 56
REMARK SMILES IDX 79 57 48 58 33 59 34 60 42 61 35 62 41 63 36 64 37 65 38 66
REMARK SMILES IDX 39 67 40 68 63 69 64 70 72 71 65 72 71 73 66 74 67 75 68 76
REMARK SMILES IDX 69 77 70 78 49 79 50 80 58 81 51 82 57 83 52 84 53 85 54 86
REMARK SMILES IDX 55 87 56 88
REMARK H PARENT 3 21 77 44 47 55
REMARK Flexibility Score: inf
ROOT
ATOM      1  O   UNL     1       4.394  -6.347  -4.856  1.00  0.00    -0.374 OA
ENDROOT
BRANCH   1   2
ATOM      2  C   UNL     1       4.229  -5.785  -6.156  1.00  0.00     0.202 C 
BRANCH   2   3
ATOM      3  C   UNL     1       2.831  -5.314  -6.563  1.00  0.00     0.261 C 
BRANCH   3   4
ATOM      4  O   UNL     1       2.334  -4.296  -5.680  1.00  0.00    -0.459 OA
BRANCH   4   5
ATOM      5  C   UNL     1       1.318  -4.714  -4.882  1.00  0.00     0.357 C 
ATOM      6  O   UNL     1       0.731  -5.783  -4.970  1.00  0.00    -0.244 OA
BRANCH   5   7
ATOM      7  C   UNL     1       1.083  -3.756  -3.762  1.00  0.00     0.149 A 
ATOM      8  C   UNL     1       0.801  -1.580  -2.825  1.00  0.00     0.011 A 
ATOM      9  C   UNL     1       0.211  -2.198  -1.729  1.00  0.00     0.035 A 
ATOM     10  C   UNL     1       1.235  -2.377  -3.887  1.00  0.00     0.051 A 
ATOM     11  C   UNL     1       0.202  -3.572  -1.641  1.00  0.00     0.113 A 
ATOM     12  N   UNL     1       0.639  -4.360  -2.627  1.00  0.00    -0.249 NA
BRANCH   8  13
ATOM     13  S   UNL     1       0.770   0.198  -2.950  1.00  0.00    -0.122 SA
BRANCH  13  14
ATOM     14  C   UNL     1       1.922   0.769  -1.625  1.00  0.00     0.122 C 
BRANCH  14  15
ATOM     15  C   UNL     1       1.431   0.907  -0.172  1.00  0.00     0.208 C 
ATOM     16  O   UNL     1      -1.812   0.355   0.903  1.00  0.00    -0.225 OA
ATOM     17  C   UNL     1      -0.609   0.363   0.686  1.00  0.00     0.407 C 
ATOM     18  N   UNL     1       0.266  -0.572   1.152  1.00  0.00    -0.318 N 
ATOM     19  O   UNL     1       0.044   1.277  -0.081  1.00  0.00    -0.443 OA
ATOM     20  C   UNL     1       1.590  -0.325   0.699  1.00  0.00     0.165 C 
ATOM     21  H   UNL     1       0.012  -1.326   1.732  1.00  0.00     0.167 HD
ENDBRANCH  14  15
ENDBRANCH  13  14
ENDBRANCH   8  13
ENDBRANCH   5   7
ENDBRANCH   4   5
ENDBRANCH   3   4
ENDBRANCH   2   3
ENDBRANCH   1   2
BRANCH   1  22
ATOM     22  C   UNL     1       4.409  -5.468  -3.733  1.00  0.00     0.202 C 
BRANCH  22  23
ATOM     23  C   UNL     1       5.644  -4.582  -3.522  1.00  0.00     0.261 C 
BRANCH  23  24
ATOM     24  O   UNL     1       5.839  -3.627  -4.579  1.00  0.00    -0.460 OA
BRANCH  24  25
ATOM     25  C   UNL     1       6.877  -3.919  -5.402  1.00  0.00     0.338 C 
ATOM     26  O   UNL     1       7.662  -4.846  -5.293  1.00  0.00    -0.246 OA
BRANCH  25  27
ATOM     27  C   UNL     1       6.833  -3.065  -6.604  1.00  0.00     0.060 A 
ATOM     28  C   UNL     1       6.847  -3.708  -7.848  1.00  0.00     0.016 A 
ATOM     29  C   UNL     1       6.892  -1.673  -6.520  1.00  0.00     0.016 A 
ATOM     30  C   UNL     1       7.006  -2.966  -9.013  1.00  0.00     0.010 A 
ATOM     31  C   UNL     1       7.057  -0.929  -7.693  1.00  0.00     0.010 A 
ATOM     32  C   UNL     1       7.175  -1.578  -8.936  1.00  0.00    -0.014 A 
BRANCH  32  33
ATOM     33  C   UNL     1       7.683  -0.856 -10.127  1.00  0.00     0.031 A 
ATOM     34  C   UNL     1       9.145  -0.489 -10.181  1.00  0.00     0.074 A 
ATOM     35  C   UNL     1       6.881  -0.598 -11.175  1.00  0.00     0.049 A 
ATOM     36  N   UNL     1       9.815   0.112 -11.130  1.00  0.00    -0.248 NA
ATOM     37  C   UNL     1       9.957  -0.845  -9.005  1.00  0.00     0.031 C 
ATOM     38  C   UNL     1       5.463  -0.947 -11.262  1.00  0.00     0.029 A 
ATOM     39  N   UNL     1       7.153   0.011 -12.374  1.00  0.00    -0.354 N 
ATOM     40  C   UNL     1      11.121   0.214 -10.663  1.00  0.00     0.074 A 
ATOM     41  C   UNL     1      11.141  -0.347  -9.331  1.00  0.00     0.031 C 
ATOM     42  C   UNL     1       4.990  -0.550 -12.457  1.00  0.00     0.029 A 
ATOM     43  C   UNL     1       6.062   0.106 -13.204  1.00  0.00     0.049 A 
ATOM     44  H   UNL     1       8.046   0.348 -12.617  1.00  0.00     0.167 HD
ATOM     45  C   UNL     1      12.211   0.720 -11.290  1.00  0.00     0.031 A 
ATOM     46  C   UNL     1       5.940   0.666 -14.423  1.00  0.00     0.031 A 
ATOM     47  C   UNL     1      12.186   1.284 -12.613  1.00  0.00     0.049 A 
ATOM     48  C   UNL     1       7.154   1.273 -15.078  1.00  0.00     0.074 A 
ATOM     49  C   UNL     1      13.236   1.813 -13.343  1.00  0.00     0.029 A 
ATOM     50  N   UNL     1      11.053   1.395 -13.406  1.00  0.00    -0.354 N 
ATOM     51  N   UNL     1       8.385   1.350 -14.629  1.00  0.00    -0.248 NA
ATOM     52  C   UNL     1       6.963   1.849 -16.416  1.00  0.00     0.031 C 
ATOM     53  C   UNL     1      12.727   2.300 -14.552  1.00  0.00     0.029 A 
ATOM     54  C   UNL     1      11.374   2.004 -14.608  1.00  0.00     0.049 A 
ATOM     55  H   UNL     1      10.154   1.087 -13.151  1.00  0.00     0.167 HD
ATOM     56  C   UNL     1       9.123   1.946 -15.648  1.00  0.00     0.074 A 
ATOM     57  C   UNL     1       8.202   2.196 -16.737  1.00  0.00     0.031 C 
ATOM     58  C   UNL     1      10.446   2.251 -15.683  1.00  0.00     0.031 A 
BRANCH  45  59
ATOM     59  C   UNL     1      13.514   0.719 -10.531  1.00  0.00    -0.014 A 
ATOM     60  C   UNL     1      14.193  -0.478 -10.236  1.00  0.00     0.010 A 
ATOM     61  C   UNL     1      14.082   1.941 -10.128  1.00  0.00     0.010 A 
ATOM     62  C   UNL     1      15.391  -0.455  -9.517  1.00  0.00     0.020 A 
ATOM     63  C   UNL     1      15.297   1.972  -9.438  1.00  0.00     0.020 A 
ATOM     64  C   UNL     1      15.935   0.771  -9.121  1.00  0.00     0.054 A 
BRANCH  64  65
ATOM     65  S   UNL     1      17.501   0.773  -8.205  1.00  0.00     0.124 S 
ATOM     66  O   UNL     1      17.091   0.241  -6.908  1.00  0.00    -0.237 OA
ATOM     67  O   UNL     1      18.343  -0.109  -9.009  1.00  0.00    -0.237 OA
ATOM     68  O   UNL     1      17.899   2.179  -8.202  1.00  0.00    -0.744 OA
ENDBRANCH  64  65
ENDBRANCH  45  59
BRANCH  46  69
ATOM     69  C   UNL     1       4.617   0.679 -15.107  1.00  0.00    -0.014 A 
ATOM     70  C   UNL     1       4.397  -0.081 -16.269  1.00  0.00     0.010 A 
ATOM     71  C   UNL     1       3.565   1.461 -14.594  1.00  0.00     0.010 A 
ATOM     72  C   UNL     1       3.159  -0.042 -16.917  1.00  0.00     0.020 A 
ATOM     73  C   UNL     1       2.317   1.477 -15.220  1.00  0.00     0.020 A 
ATOM     74  C   UNL     1       2.125   0.734 -16.386  1.00  0.00     0.054 A 
BRANCH  74  75
ATOM     75  S   UNL     1       0.513   0.731 -17.217  1.00  0.00     0.124 S 
ATOM     76  O   UNL     1       0.793   1.493 -18.430  1.00  0.00    -0.237 OA
ATOM     77  O   UNL     1       0.262  -0.696 -17.408  1.00  0.00    -0.237 OA
ATOM     78  O   UNL     1      -0.369   1.387 -16.255  1.00  0.00    -0.744 OA
ENDBRANCH  74  75
ENDBRANCH  46  69
BRANCH  58  79
ATOM     79  C   UNL     1      10.988   2.833 -16.964  1.00  0.00    -0.014 A 
ATOM     80  C   UNL     1      10.635   4.122 -17.402  1.00  0.00     0.010 A 
ATOM     81  C   UNL     1      11.886   2.073 -17.737  1.00  0.00     0.010 A 
ATOM     82  C   UNL     1      11.119   4.613 -18.618  1.00  0.00     0.020 A 
ATOM     83  C   UNL     1      12.402   2.575 -18.934  1.00  0.00     0.020 A 
ATOM     84  C   UNL     1      11.994   3.833 -19.380  1.00  0.00     0.054 A 
BRANCH  84  85
ATOM     85  S   UNL     1      12.606   4.489 -20.956  1.00  0.00     0.124 S 
ATOM     86  O   UNL     1      11.423   4.386 -21.807  1.00  0.00    -0.237 OA
ATOM     87  O   UNL     1      13.011   5.847 -20.603  1.00  0.00    -0.237 OA
ATOM     88  O   UNL     1      13.703   3.589 -21.304  1.00  0.00    -0.744 OA
ENDBRANCH  84  85
ENDBRANCH  58  79
ENDBRANCH  32  33
ENDBRANCH  25  27
ENDBRANCH  24  25
ENDBRANCH  23  24
ENDBRANCH  22  23
ENDBRANCH   1  22
TORSDOF 20
