REMARK SMILES O=C(OCCOCCOC(=O)[C@H]1[C@H]2CC[C@H](CC2)[C@@H]1C(=O)Nc1ccc(Cc2ccncc2)cc1)c1ccc(-c2c3nc(c(-c4ccc(S(=O)(=O)[O-])cc4)c4ccc([nH]4)c(-c4ccc(S(=O)(=O)[O-])cc4)c4nc(c(-c5ccc(S(=O)(=O)[O-])cc5)c5ccc2[nH]5)C=C4)C=C3)cc1
REMARK SMILES IDX 7 1 6 2 5 3 4 4 3 5 2 6 1 7 36 8 37 9 95 10 38 11 94 12
REMARK SMILES IDX 39 13 40 14 41 15 88 16 42 17 93 18 87 19 89 20 43 21 92 22
REMARK SMILES IDX 86 23 85 24 44 26 74 27 55 28 73 29 56 30 59 31 72 32 90 33
REMARK SMILES IDX 57 34 58 35 71 37 91 38 60 39 45 40 46 41 54 42 47 43 53 44
REMARK SMILES IDX 48 45 49 46 50 47 51 48 52 49 75 50 76 51 84 52 77 53 83 54
REMARK SMILES IDX 78 55 79 56 80 57 81 58 82 59 61 60 62 61 70 62 63 63 69 64
REMARK SMILES IDX 64 65 65 66 66 67 67 68 68 69 8 70 9 71 10 72 11 73 12 74
REMARK SMILES IDX 13 75 19 76 18 77 14 78 16 79 17 80 15 81 20 82 21 83 22 84
REMARK SMILES IDX 23 86 24 87 35 88 25 89 34 90 26 91 27 92 28 93 29 94 33 95
REMARK SMILES IDX 30 96 32 97 31 98
REMARK H PARENT 89 25 59 36 22 85
REMARK Flexibility Score: inf
ROOT
ATOM      1  C   UNL     1       3.087   2.215   0.006  1.00  0.00     0.202 C 
ENDROOT
BRANCH   1   2
ATOM      2  O   UNL     1       4.334   1.525  -0.087  1.00  0.00    -0.374 OA
BRANCH   2   3
ATOM      3  C   UNL     1       4.418   0.421  -0.986  1.00  0.00     0.202 C 
BRANCH   3   4
ATOM      4  C   UNL     1       3.849  -0.939  -0.572  1.00  0.00     0.261 C 
BRANCH   4   5
ATOM      5  O   UNL     1       2.429  -0.857  -0.342  1.00  0.00    -0.460 OA
BRANCH   5   6
ATOM      6  C   UNL     1       1.794  -0.966   0.852  1.00  0.00     0.338 C 
ATOM      7  O   UNL     1       0.570  -1.047   0.890  1.00  0.00    -0.246 OA
BRANCH   6   8
ATOM      8  C   UNL     1       2.565  -0.958   2.121  1.00  0.00     0.060 A 
ATOM      9  C   UNL     1       3.721  -0.204   2.252  1.00  0.00     0.016 A 
ATOM     10  C   UNL     1       2.103  -1.644   3.244  1.00  0.00     0.016 A 
ATOM     11  C   UNL     1       4.471  -0.159   3.389  1.00  0.00     0.010 A 
ATOM     12  C   UNL     1       2.812  -1.553   4.450  1.00  0.00     0.010 A 
ATOM     13  C   UNL     1       3.992  -0.796   4.512  1.00  0.00    -0.014 A 
BRANCH  13  14
ATOM     14  C   UNL     1       4.868  -0.694   5.675  1.00  0.00     0.031 A 
ATOM     15  C   UNL     1       5.706  -1.879   6.003  1.00  0.00     0.074 A 
ATOM     16  C   UNL     1       5.064   0.520   6.227  1.00  0.00     0.049 A 
ATOM     17  N   UNL     1       6.501  -2.061   7.015  1.00  0.00    -0.248 NA
ATOM     18  C   UNL     1       5.658  -3.007   5.053  1.00  0.00     0.031 C 
ATOM     19  C   UNL     1       4.447   1.774   5.764  1.00  0.00     0.029 A 
ATOM     20  N   UNL     1       5.877   0.915   7.248  1.00  0.00    -0.354 N 
ATOM     21  C   UNL     1       6.996  -3.347   6.862  1.00  0.00     0.074 A 
ATOM     22  C   UNL     1       6.437  -3.895   5.649  1.00  0.00     0.031 C 
ATOM     23  C   UNL     1       4.924   2.796   6.490  1.00  0.00     0.029 A 
ATOM     24  C   UNL     1       5.787   2.258   7.529  1.00  0.00     0.049 A 
ATOM     25  H   UNL     1       6.470   0.299   7.736  1.00  0.00     0.167 HD
ATOM     26  C   UNL     1       7.824  -4.005   7.701  1.00  0.00     0.031 A 
ATOM     27  C   UNL     1       6.301   2.949   8.562  1.00  0.00     0.031 A 
ATOM     28  C   UNL     1       8.332  -3.398   8.899  1.00  0.00     0.049 A 
ATOM     29  C   UNL     1       7.100   2.158   9.561  1.00  0.00     0.074 A 
ATOM     30  C   UNL     1       9.083  -3.962   9.909  1.00  0.00     0.029 A 
ATOM     31  N   UNL     1       8.131  -2.063   9.236  1.00  0.00    -0.354 N 
ATOM     32  N   UNL     1       7.452   0.892   9.509  1.00  0.00    -0.248 NA
ATOM     33  C   UNL     1       7.547   2.866  10.762  1.00  0.00     0.031 C 
ATOM     34  C   UNL     1       9.289  -2.979  10.884  1.00  0.00     0.029 A 
ATOM     35  C   UNL     1       8.727  -1.785  10.449  1.00  0.00     0.049 A 
ATOM     36  H   UNL     1       7.635  -1.411   8.689  1.00  0.00     0.167 HD
ATOM     37  C   UNL     1       8.178   0.652  10.665  1.00  0.00     0.074 A 
ATOM     38  C   UNL     1       8.231   1.914  11.383  1.00  0.00     0.031 C 
ATOM     39  C   UNL     1       8.746  -0.499  11.105  1.00  0.00     0.031 A 
BRANCH  26  40
ATOM     40  C   UNL     1       8.090  -5.451   7.398  1.00  0.00    -0.014 A 
ATOM     41  C   UNL     1       8.888  -5.850   6.311  1.00  0.00     0.010 A 
ATOM     42  C   UNL     1       7.465  -6.436   8.185  1.00  0.00     0.010 A 
ATOM     43  C   UNL     1       9.021  -7.205   5.992  1.00  0.00     0.020 A 
ATOM     44  C   UNL     1       7.617  -7.791   7.887  1.00  0.00     0.020 A 
ATOM     45  C   UNL     1       8.380  -8.167   6.780  1.00  0.00     0.054 A 
BRANCH  45  46
ATOM     46  S   UNL     1       8.568  -9.918   6.346  1.00  0.00     0.124 S 
ATOM     47  O   UNL     1       7.756 -10.016   5.134  1.00  0.00    -0.237 OA
ATOM     48  O   UNL     1      10.009 -10.044   6.147  1.00  0.00    -0.237 OA
ATOM     49  O   UNL     1       8.036 -10.623   7.509  1.00  0.00    -0.744 OA
ENDBRANCH  45  46
ENDBRANCH  26  40
BRANCH  27  50
ATOM     50  C   UNL     1       5.984   4.392   8.752  1.00  0.00    -0.014 A 
ATOM     51  C   UNL     1       6.995   5.368   8.744  1.00  0.00     0.010 A 
ATOM     52  C   UNL     1       4.650   4.805   8.950  1.00  0.00     0.010 A 
ATOM     53  C   UNL     1       6.683   6.717   8.953  1.00  0.00     0.020 A 
ATOM     54  C   UNL     1       4.330   6.154   9.127  1.00  0.00     0.020 A 
ATOM     55  C   UNL     1       5.353   7.101   9.144  1.00  0.00     0.054 A 
BRANCH  55  56
ATOM     56  S   UNL     1       4.970   8.858   9.395  1.00  0.00     0.124 S 
ATOM     57  O   UNL     1       5.491   9.093  10.738  1.00  0.00    -0.237 OA
ATOM     58  O   UNL     1       5.706   9.499   8.308  1.00  0.00    -0.237 OA
ATOM     59  O   UNL     1       3.515   8.913   9.269  1.00  0.00    -0.744 OA
ENDBRANCH  55  56
ENDBRANCH  27  50
BRANCH  39  60
ATOM     60  C   UNL     1       9.507  -0.417  12.394  1.00  0.00    -0.014 A 
ATOM     61  C   UNL     1       8.841  -0.309  13.626  1.00  0.00     0.010 A 
ATOM     62  C   UNL     1      10.908  -0.528  12.364  1.00  0.00     0.010 A 
ATOM     63  C   UNL     1       9.572  -0.288  14.813  1.00  0.00     0.020 A 
ATOM     64  C   UNL     1      11.638  -0.540  13.550  1.00  0.00     0.020 A 
ATOM     65  C   UNL     1      10.965  -0.408  14.767  1.00  0.00     0.054 A 
BRANCH  65  66
ATOM     66  S   UNL     1      11.885  -0.444  16.326  1.00  0.00     0.124 S 
ATOM     67  O   UNL     1      11.817   0.952  16.748  1.00  0.00    -0.237 OA
ATOM     68  O   UNL     1      11.111  -1.384  17.132  1.00  0.00    -0.237 OA
ATOM     69  O   UNL     1      13.212  -0.914  15.934  1.00  0.00    -0.744 OA
ENDBRANCH  65  66
ENDBRANCH  39  60
ENDBRANCH  13  14
ENDBRANCH   6   8
ENDBRANCH   5   6
ENDBRANCH   4   5
ENDBRANCH   3   4
ENDBRANCH   2   3
ENDBRANCH   1   2
BRANCH   1  70
ATOM     70  C   UNL     1       3.299   3.723  -0.149  1.00  0.00     0.261 C 
BRANCH  70  71
ATOM     71  O   UNL     1       3.742   3.999  -1.489  1.00  0.00    -0.463 OA
BRANCH  71  72
ATOM     72  C   UNL     1       5.059   3.751  -1.701  1.00  0.00     0.310 C 
ATOM     73  O   UNL     1       5.883   3.597  -0.808  1.00  0.00    -0.252 OA
BRANCH  72  74
ATOM     74  C   UNL     1       5.366   3.650  -3.190  1.00  0.00     0.115 C 
ATOM     75  C   UNL     1       6.553   4.601  -3.507  1.00  0.00     0.004 C 
ATOM     76  C   UNL     1       5.695   2.200  -3.618  1.00  0.00     0.096 C 
ATOM     77  C   UNL     1       7.843   4.201  -2.757  1.00  0.00     0.005 C 
ATOM     78  C   UNL     1       6.838   4.461  -5.010  1.00  0.00     0.005 C 
ATOM     79  C   UNL     1       7.201   2.156  -4.061  1.00  0.00     0.002 C 
ATOM     80  C   UNL     1       8.082   2.696  -2.915  1.00  0.00     0.005 C 
ATOM     81  C   UNL     1       7.410   3.065  -5.289  1.00  0.00     0.005 C 
BRANCH  76  82
ATOM     82  C   UNL     1       4.827   1.420  -4.662  1.00  0.00     0.228 C 
ATOM     83  O   UNL     1       5.386   0.839  -5.606  1.00  0.00    -0.274 OA
ATOM     84  N   UNL     1       3.519   1.058  -4.507  1.00  0.00    -0.326 N 
ATOM     85  H   UNL     1       3.299   0.238  -5.006  1.00  0.00     0.169 HD
BRANCH  84  86
ATOM     86  C   UNL     1       2.417   1.566  -3.815  1.00  0.00     0.041 A 
ATOM     87  C   UNL     1       1.537   0.654  -3.218  1.00  0.00     0.026 A 
ATOM     88  C   UNL     1       2.119   2.918  -3.752  1.00  0.00     0.026 A 
ATOM     89  C   UNL     1       0.528   1.106  -2.359  1.00  0.00     0.006 A 
ATOM     90  C   UNL     1       1.098   3.378  -2.914  1.00  0.00     0.006 A 
ATOM     91  C   UNL     1       0.364   2.478  -2.132  1.00  0.00    -0.043 A 
BRANCH  91  92
ATOM     92  C   UNL     1      -0.465   2.973  -0.968  1.00  0.00     0.071 C 
BRANCH  92  93
ATOM     93  C   UNL     1      -1.884   3.313  -1.307  1.00  0.00    -0.041 A 
ATOM     94  C   UNL     1      -2.822   2.301  -1.518  1.00  0.00     0.024 A 
ATOM     95  C   UNL     1      -2.297   4.643  -1.408  1.00  0.00     0.024 A 
ATOM     96  C   UNL     1      -4.120   2.660  -1.837  1.00  0.00     0.111 A 
ATOM     97  C   UNL     1      -3.620   4.900  -1.728  1.00  0.00     0.111 A 
ATOM     98  N   UNL     1      -4.541   3.938  -1.952  1.00  0.00    -0.265 NA
ENDBRANCH  92  93
ENDBRANCH  91  92
ENDBRANCH  84  86
ENDBRANCH  76  82
ENDBRANCH  72  74
ENDBRANCH  71  72
ENDBRANCH  70  71
ENDBRANCH   1  70
TORSDOF 21
