REMARK SMILES O=C(OCCOCCOC(=O)c1cc(NC(=O)c2ccc(Br)o2)ccc1O)c1ccc(-c2c3nc(c(-c4ccc(S(=O)(=O)[O-])cc4)c4ccc([nH]4)c(-c4ccc(S(=O)(=O)[O-])cc4)c4nc(c(-c5ccc(S(=O)(=O)[O-])cc5)c5ccc2[nH]5)C=C4)C=C3)cc1
REMARK SMILES IDX 5 1 4 2 3 3 2 4 1 5 28 6 29 7 87 8 30 9 86 10 31 11 32 12
REMARK SMILES IDX 33 13 80 14 34 15 85 16 79 17 81 18 35 19 84 20 78 21 77 22
REMARK SMILES IDX 36 24 66 25 47 26 65 27 48 28 51 29 64 30 82 31 49 32 50 33
REMARK SMILES IDX 63 35 83 36 52 37 37 38 38 39 46 40 39 41 45 42 40 43 41 44
REMARK SMILES IDX 42 45 43 46 44 47 67 48 68 49 76 50 69 51 75 52 70 53 71 54
REMARK SMILES IDX 72 55 73 56 74 57 53 58 54 59 62 60 55 61 61 62 56 63 57 64
REMARK SMILES IDX 58 65 59 66 60 67 6 68 7 69 8 70 9 71 10 72 11 73 12 74
REMARK SMILES IDX 13 75 26 76 14 77 25 78 24 79 27 80 15 82 16 83 17 85 18 86
REMARK SMILES IDX 19 87 23 88 20 89 21 90 22 91
REMARK H PARENT 81 23 51 34 27 81 15 84
REMARK Flexibility Score: inf
ROOT
ATOM      1  C   UNL     1       3.824  -1.784   0.523  1.00  0.00     0.202 C 
ENDROOT
BRANCH   1   2
ATOM      2  C   UNL     1       3.540  -0.491   1.285  1.00  0.00     0.261 C 
BRANCH   2   3
ATOM      3  O   UNL     1       2.192  -0.071   1.048  1.00  0.00    -0.460 OA
BRANCH   3   4
ATOM      4  C   UNL     1       1.751   0.854   0.166  1.00  0.00     0.338 C 
ATOM      5  O   UNL     1       0.537   1.056   0.113  1.00  0.00    -0.246 OA
BRANCH   4   6
ATOM      6  C   UNL     1       2.630   1.675  -0.730  1.00  0.00     0.060 A 
ATOM      7  C   UNL     1       3.881   1.304  -1.239  1.00  0.00     0.016 A 
ATOM      8  C   UNL     1       2.080   2.887  -1.181  1.00  0.00     0.016 A 
ATOM      9  C   UNL     1       4.555   2.085  -2.176  1.00  0.00     0.010 A 
ATOM     10  C   UNL     1       2.744   3.674  -2.123  1.00  0.00     0.010 A 
ATOM     11  C   UNL     1       3.982   3.266  -2.629  1.00  0.00    -0.014 A 
BRANCH  11  12
ATOM     12  C   UNL     1       4.708   4.116  -3.585  1.00  0.00     0.031 A 
ATOM     13  C   UNL     1       5.422   5.319  -3.062  1.00  0.00     0.074 A 
ATOM     14  C   UNL     1       4.704   3.806  -4.892  1.00  0.00     0.049 A 
ATOM     15  N   UNL     1       5.960   6.309  -3.717  1.00  0.00    -0.248 NA
ATOM     16  C   UNL     1       5.535   5.419  -1.597  1.00  0.00     0.031 C 
ATOM     17  C   UNL     1       4.114   2.597  -5.471  1.00  0.00     0.029 A 
ATOM     18  N   UNL     1       5.197   4.490  -5.971  1.00  0.00    -0.354 N 
ATOM     19  C   UNL     1       6.441   7.176  -2.745  1.00  0.00     0.074 A 
ATOM     20  C   UNL     1       6.138   6.590  -1.458  1.00  0.00     0.031 C 
ATOM     21  C   UNL     1       4.260   2.638  -6.806  1.00  0.00     0.029 A 
ATOM     22  C   UNL     1       4.895   3.899  -7.174  1.00  0.00     0.049 A 
ATOM     23  H   UNL     1       5.715   5.324  -5.892  1.00  0.00     0.167 HD
ATOM     24  C   UNL     1       7.055   8.368  -2.923  1.00  0.00     0.031 A 
ATOM     25  C   UNL     1       5.069   4.356  -8.430  1.00  0.00     0.031 A 
ATOM     26  C   UNL     1       7.302   8.935  -4.220  1.00  0.00     0.049 A 
ATOM     27  C   UNL     1       5.695   5.713  -8.610  1.00  0.00     0.074 A 
ATOM     28  C   UNL     1       7.867  10.154  -4.539  1.00  0.00     0.029 A 
ATOM     29  N   UNL     1       6.984   8.308  -5.419  1.00  0.00    -0.354 N 
ATOM     30  N   UNL     1       6.109   6.553  -7.688  1.00  0.00    -0.248 NA
ATOM     31  C   UNL     1       5.872   6.190  -9.986  1.00  0.00     0.031 C 
ATOM     32  C   UNL     1       7.850  10.282  -5.933  1.00  0.00     0.029 A 
ATOM     33  C   UNL     1       7.328   9.119  -6.483  1.00  0.00     0.049 A 
ATOM     34  H   UNL     1       6.573   7.417  -5.499  1.00  0.00     0.167 HD
ATOM     35  C   UNL     1       6.617   7.650  -8.372  1.00  0.00     0.074 A 
ATOM     36  C   UNL     1       6.460   7.364  -9.786  1.00  0.00     0.031 C 
ATOM     37  C   UNL     1       7.165   8.788  -7.879  1.00  0.00     0.031 A 
BRANCH  24  38
ATOM     38  C   UNL     1       7.387   9.148  -1.681  1.00  0.00    -0.014 A 
ATOM     39  C   UNL     1       8.399   8.729  -0.796  1.00  0.00     0.010 A 
ATOM     40  C   UNL     1       6.616  10.277  -1.352  1.00  0.00     0.010 A 
ATOM     41  C   UNL     1       8.578   9.377   0.429  1.00  0.00     0.020 A 
ATOM     42  C   UNL     1       6.812  10.946  -0.141  1.00  0.00     0.020 A 
ATOM     43  C   UNL     1       7.769  10.470   0.757  1.00  0.00     0.054 A 
BRANCH  43  44
ATOM     44  S   UNL     1       7.971  11.253   2.381  1.00  0.00     0.124 S 
ATOM     45  O   UNL     1       7.313  10.289   3.261  1.00  0.00    -0.237 OA
ATOM     46  O   UNL     1       9.422  11.341   2.521  1.00  0.00    -0.237 OA
ATOM     47  O   UNL     1       7.283  12.534   2.236  1.00  0.00    -0.744 OA
ENDBRANCH  43  44
ENDBRANCH  24  38
BRANCH  25  48
ATOM     48  C   UNL     1       4.598   3.538  -9.581  1.00  0.00    -0.014 A 
ATOM     49  C   UNL     1       5.514   2.891 -10.428  1.00  0.00     0.010 A 
ATOM     50  C   UNL     1       3.220   3.341  -9.793  1.00  0.00     0.010 A 
ATOM     51  C   UNL     1       5.061   2.056 -11.456  1.00  0.00     0.020 A 
ATOM     52  C   UNL     1       2.764   2.488 -10.803  1.00  0.00     0.020 A 
ATOM     53  C   UNL     1       3.689   1.852 -11.631  1.00  0.00     0.054 A 
BRANCH  53  54
ATOM     54  S   UNL     1       3.129   0.690 -12.909  1.00  0.00     0.124 S 
ATOM     55  O   UNL     1       3.366   1.447 -14.134  1.00  0.00    -0.237 OA
ATOM     56  O   UNL     1       4.004  -0.461 -12.697  1.00  0.00    -0.237 OA
ATOM     57  O   UNL     1       1.724   0.463 -12.574  1.00  0.00    -0.744 OA
ENDBRANCH  53  54
ENDBRANCH  25  48
BRANCH  37  58
ATOM     58  C   UNL     1       7.680   9.795  -8.868  1.00  0.00    -0.014 A 
ATOM     59  C   UNL     1       6.806  10.661  -9.544  1.00  0.00     0.010 A 
ATOM     60  C   UNL     1       9.070   9.957  -9.015  1.00  0.00     0.010 A 
ATOM     61  C   UNL     1       7.316  11.682 -10.350  1.00  0.00     0.020 A 
ATOM     62  C   UNL     1       9.582  10.989  -9.802  1.00  0.00     0.020 A 
ATOM     63  C   UNL     1       8.701  11.845 -10.465  1.00  0.00     0.054 A 
BRANCH  63  64
ATOM     64  S   UNL     1       9.339  13.246 -11.425  1.00  0.00     0.124 S 
ATOM     65  O   UNL     1       9.115  12.800 -12.798  1.00  0.00    -0.237 OA
ATOM     66  O   UNL     1       8.497  14.352 -10.978  1.00  0.00    -0.237 OA
ATOM     67  O   UNL     1      10.740  13.335 -11.019  1.00  0.00    -0.744 OA
ENDBRANCH  63  64
ENDBRANCH  37  58
ENDBRANCH  11  12
ENDBRANCH   4   6
ENDBRANCH   3   4
ENDBRANCH   2   3
ENDBRANCH   1   2
BRANCH   1  68
ATOM     68  O   UNL     1       3.684  -1.621  -0.885  1.00  0.00    -0.374 OA
BRANCH  68  69
ATOM     69  C   UNL     1       2.458  -2.104  -1.440  1.00  0.00     0.202 C 
BRANCH  69  70
ATOM     70  C   UNL     1       2.743  -3.343  -2.285  1.00  0.00     0.261 C 
BRANCH  70  71
ATOM     71  O   UNL     1       3.375  -4.320  -1.443  1.00  0.00    -0.460 OA
BRANCH  71  72
ATOM     72  C   UNL     1       4.730  -4.355  -1.488  1.00  0.00     0.342 C 
ATOM     73  O   UNL     1       5.459  -3.823  -2.310  1.00  0.00    -0.246 OA
BRANCH  72  74
ATOM     74  C   UNL     1       5.237  -4.955  -0.233  1.00  0.00     0.103 A 
ATOM     75  C   UNL     1       6.342  -4.330   0.391  1.00  0.00     0.045 A 
ATOM     76  C   UNL     1       4.634  -6.072   0.356  1.00  0.00     0.130 A 
ATOM     77  C   UNL     1       6.821  -4.812   1.608  1.00  0.00     0.042 A 
ATOM     78  C   UNL     1       5.117  -6.562   1.563  1.00  0.00     0.049 A 
ATOM     79  C   UNL     1       6.206  -5.939   2.176  1.00  0.00     0.030 A 
BRANCH  76  80
ATOM     80  O   UNL     1       3.592  -6.711  -0.252  1.00  0.00    -0.507 OA
ATOM     81  H   UNL     1       3.256  -6.391  -1.066  1.00  0.00     0.293 HD
ENDBRANCH  76  80
BRANCH  77  82
ATOM     82  N   UNL     1       7.945  -4.318   2.286  1.00  0.00    -0.319 N 
ATOM     83  C   UNL     1       8.697  -3.170   2.181  1.00  0.00     0.291 C 
ATOM     84  H   UNL     1       8.266  -4.926   2.992  1.00  0.00     0.170 HD
ATOM     85  O   UNL     1       9.820  -3.205   2.691  1.00  0.00    -0.265 OA
BRANCH  83  86
ATOM     86  C   UNL     1       8.131  -1.950   1.663  1.00  0.00     0.193 A 
ATOM     87  C   UNL     1       7.140  -1.121   2.160  1.00  0.00     0.057 A 
ATOM     88  O   UNL     1       8.743  -1.344   0.601  1.00  0.00    -0.444 OA
ATOM     89  C   UNL     1       7.169   0.059   1.373  1.00  0.00     0.059 A 
ATOM     90  C   UNL     1       8.149  -0.134   0.427  1.00  0.00     0.170 A 
ATOM     91  Br  UNL     1       8.633   1.109  -0.876  1.00  0.00    -0.008 Br
ENDBRANCH  83  86
ENDBRANCH  77  82
ENDBRANCH  72  74
ENDBRANCH  71  72
ENDBRANCH  70  71
ENDBRANCH  69  70
ENDBRANCH  68  69
ENDBRANCH   1  68
TORSDOF 20
