REMARK SMILES CC1(C)[C@@H](C(=O)OCCOCCOC(=O)c2ccc(-c3c4nc(c(-c5ccc(S(=O)(=O)[O-])cc5)c5ccc([nH]5)c(-c5ccc(S(=O)(=O)[O-])cc5)c5nc(c(-c6ccc(S(=O)(=O)[O-])cc6)c6ccc3[nH]6)C=C5)C=C4)cc2)CC[C@@]1(C)C(N)=O
REMARK SMILES IDX 11 1 10 2 9 3 8 4 7 5 5 6 6 7 4 8 1 9 2 10 3 11 78 12 76 13
REMARK SMILES IDX 77 14 79 15 80 16 81 17 82 18 12 21 13 22 14 23 15 24 16 25
REMARK SMILES IDX 17 26 75 27 18 28 74 29 19 30 20 31 21 32 68 33 22 34 73 35
REMARK SMILES IDX 67 36 69 37 23 38 72 39 66 40 65 41 24 43 54 44 35 45 53 46
REMARK SMILES IDX 36 47 39 48 52 49 70 50 37 51 38 52 51 54 71 55 40 56 25 57
REMARK SMILES IDX 26 58 34 59 27 60 33 61 28 62 29 63 30 64 31 65 32 66 55 67
REMARK SMILES IDX 56 68 64 69 57 70 63 71 58 72 59 73 60 74 61 75 62 76 41 77
REMARK SMILES IDX 42 78 50 79 43 80 49 81 44 82 45 83 46 84 47 85 48 86
REMARK H PARENT 81 19 81 20 69 42 39 53
REMARK Flexibility Score: inf
ROOT
ATOM      1  C   UNL     1       1.888  -0.059   2.951  1.00  0.00     0.202 C 
ENDROOT
BRANCH   1   2
ATOM      2  O   UNL     1       2.326  -0.819   4.064  1.00  0.00    -0.374 OA
BRANCH   2   3
ATOM      3  C   UNL     1       3.305  -1.831   3.882  1.00  0.00     0.202 C 
BRANCH   3   4
ATOM      4  C   UNL     1       3.095  -2.963   2.872  1.00  0.00     0.261 C 
BRANCH   4   5
ATOM      5  O   UNL     1       2.678  -2.553   1.554  1.00  0.00    -0.463 OA
BRANCH   5   6
ATOM      6  C   UNL     1       1.387  -2.877   1.274  1.00  0.00     0.309 C 
ATOM      7  O   UNL     1       0.606  -3.316   2.115  1.00  0.00    -0.252 OA
BRANCH   6   8
ATOM      8  C   UNL     1       1.026  -2.743  -0.204  1.00  0.00     0.106 C 
ATOM      9  C   UNL     1       0.709  -0.124  -0.458  1.00  0.00     0.013 C 
ATOM     10  C   UNL     1       0.208  -1.534  -0.766  1.00  0.00    -0.008 C 
ATOM     11  C   UNL     1       0.319  -1.602  -2.327  1.00  0.00     0.013 C 
ATOM     12  C   UNL     1      -1.262  -1.789  -0.255  1.00  0.00     0.052 C 
ATOM     13  C   UNL     1       0.046  -3.903  -0.474  1.00  0.00     0.017 C 
ATOM     14  C   UNL     1      -1.349  -3.337  -0.145  1.00  0.00     0.018 C 
ATOM     15  C   UNL     1      -2.338  -1.290  -1.244  1.00  0.00     0.022 C 
BRANCH  12  16
ATOM     16  C   UNL     1      -1.593  -1.027   1.070  1.00  0.00     0.223 C 
ATOM     17  N   UNL     1      -1.264  -1.567   2.266  1.00  0.00    -0.369 N 
ATOM     18  O   UNL     1      -2.079   0.106   1.076  1.00  0.00    -0.275 OA
ATOM     19  H   UNL     1      -0.874  -2.470   2.307  1.00  0.00     0.159 HD
ATOM     20  H   UNL     1      -1.416  -1.058   3.094  1.00  0.00     0.159 HD
ENDBRANCH  12  16
ENDBRANCH   6   8
ENDBRANCH   5   6
ENDBRANCH   4   5
ENDBRANCH   3   4
ENDBRANCH   2   3
ENDBRANCH   1   2
BRANCH   1  21
ATOM     21  C   UNL     1       2.869   0.751   2.090  1.00  0.00     0.261 C 
BRANCH  21  22
ATOM     22  O   UNL     1       4.220   0.344   2.131  1.00  0.00    -0.460 OA
BRANCH  22  23
ATOM     23  C   UNL     1       4.942   0.969   3.088  1.00  0.00     0.338 C 
ATOM     24  O   UNL     1       4.572   1.781   3.905  1.00  0.00    -0.246 OA
BRANCH  23  25
ATOM     25  C   UNL     1       6.261   0.338   3.037  1.00  0.00     0.060 A 
ATOM     26  C   UNL     1       6.711  -0.336   4.174  1.00  0.00     0.016 A 
ATOM     27  C   UNL     1       6.999   0.366   1.850  1.00  0.00     0.016 A 
ATOM     28  C   UNL     1       7.948  -0.957   4.140  1.00  0.00     0.010 A 
ATOM     29  C   UNL     1       8.238  -0.254   1.819  1.00  0.00     0.010 A 
ATOM     30  C   UNL     1       8.727  -0.876   2.978  1.00  0.00    -0.014 A 
BRANCH  30  31
ATOM     31  C   UNL     1      10.143  -1.268   3.042  1.00  0.00     0.031 A 
ATOM     32  C   UNL     1      11.162  -0.177   3.198  1.00  0.00     0.074 A 
ATOM     33  C   UNL     1      10.487  -2.564   2.989  1.00  0.00     0.049 A 
ATOM     34  N   UNL     1      12.461  -0.269   3.268  1.00  0.00    -0.248 NA
ATOM     35  C   UNL     1      10.647   1.203   3.278  1.00  0.00     0.031 C 
ATOM     36  C   UNL     1       9.552  -3.683   2.865  1.00  0.00     0.029 A 
ATOM     37  N   UNL     1      11.720  -3.154   3.031  1.00  0.00    -0.354 N 
ATOM     38  C   UNL     1      12.919   1.038   3.385  1.00  0.00     0.074 A 
ATOM     39  C   UNL     1      11.766   1.907   3.342  1.00  0.00     0.031 C 
ATOM     40  C   UNL     1      10.250  -4.831   2.841  1.00  0.00     0.029 A 
ATOM     41  C   UNL     1      11.676  -4.521   2.911  1.00  0.00     0.049 A 
ATOM     42  H   UNL     1      12.557  -2.648   3.138  1.00  0.00     0.167 HD
ATOM     43  C   UNL     1      14.193   1.467   3.523  1.00  0.00     0.031 A 
ATOM     44  C   UNL     1      12.683  -5.412   2.845  1.00  0.00     0.031 A 
ATOM     45  C   UNL     1      15.322   0.579   3.556  1.00  0.00     0.049 A 
ATOM     46  C   UNL     1      14.096  -4.903   2.950  1.00  0.00     0.074 A 
ATOM     47  C   UNL     1      16.658   0.893   3.721  1.00  0.00     0.029 A 
ATOM     48  N   UNL     1      15.244  -0.799   3.410  1.00  0.00    -0.354 N 
ATOM     49  N   UNL     1      14.518  -3.668   3.106  1.00  0.00    -0.248 NA
ATOM     50  C   UNL     1      15.167  -5.903   2.882  1.00  0.00     0.031 C 
ATOM     51  C   UNL     1      17.394  -0.289   3.605  1.00  0.00     0.029 A 
ATOM     52  C   UNL     1      16.512  -1.349   3.446  1.00  0.00     0.049 A 
ATOM     53  H   UNL     1      14.410  -1.309   3.298  1.00  0.00     0.167 HD
ATOM     54  C   UNL     1      15.903  -3.748   3.183  1.00  0.00     0.074 A 
ATOM     55  C   UNL     1      16.244  -5.153   3.074  1.00  0.00     0.031 C 
ATOM     56  C   UNL     1      16.815  -2.754   3.334  1.00  0.00     0.031 A 
BRANCH  43  57
ATOM     57  C   UNL     1      14.428   2.951   3.605  1.00  0.00    -0.014 A 
ATOM     58  C   UNL     1      14.024   3.701   4.725  1.00  0.00     0.010 A 
ATOM     59  C   UNL     1      15.097   3.602   2.553  1.00  0.00     0.010 A 
ATOM     60  C   UNL     1      14.259   5.078   4.778  1.00  0.00     0.020 A 
ATOM     61  C   UNL     1      15.362   4.973   2.615  1.00  0.00     0.020 A 
ATOM     62  C   UNL     1      14.929   5.704   3.723  1.00  0.00     0.054 A 
BRANCH  62  63
ATOM     63  S   UNL     1      15.259   7.484   3.837  1.00  0.00     0.124 S 
ATOM     64  O   UNL     1      13.921   8.050   3.681  1.00  0.00    -0.237 OA
ATOM     65  O   UNL     1      15.845   7.614   5.169  1.00  0.00    -0.237 OA
ATOM     66  O   UNL     1      16.175   7.740   2.729  1.00  0.00    -0.744 OA
ENDBRANCH  62  63
ENDBRANCH  43  57
BRANCH  44  67
ATOM     67  C   UNL     1      12.386  -6.857   2.654  1.00  0.00    -0.014 A 
ATOM     68  C   UNL     1      12.653  -7.791   3.669  1.00  0.00     0.010 A 
ATOM     69  C   UNL     1      11.821  -7.305   1.445  1.00  0.00     0.010 A 
ATOM     70  C   UNL     1      12.380  -9.148   3.472  1.00  0.00     0.020 A 
ATOM     71  C   UNL     1      11.517  -8.656   1.256  1.00  0.00     0.020 A 
ATOM     72  C   UNL     1      11.811  -9.571   2.267  1.00  0.00     0.054 A 
BRANCH  72  73
ATOM     73  S   UNL     1      11.428 -11.331   2.050  1.00  0.00     0.124 S 
ATOM     74  O   UNL     1      12.758 -11.918   1.919  1.00  0.00    -0.237 OA
ATOM     75  O   UNL     1      10.712 -11.650   3.282  1.00  0.00    -0.237 OA
ATOM     76  O   UNL     1      10.610 -11.356   0.839  1.00  0.00    -0.744 OA
ENDBRANCH  72  73
ENDBRANCH  44  67
BRANCH  56  77
ATOM     77  C   UNL     1      18.262  -3.154   3.427  1.00  0.00    -0.014 A 
ATOM     78  C   UNL     1      18.963  -3.628   2.305  1.00  0.00     0.010 A 
ATOM     79  C   UNL     1      18.946  -2.983   4.645  1.00  0.00     0.010 A 
ATOM     80  C   UNL     1      20.317  -3.956   2.409  1.00  0.00     0.020 A 
ATOM     81  C   UNL     1      20.307  -3.277   4.743  1.00  0.00     0.020 A 
ATOM     82  C   UNL     1      20.980  -3.775   3.627  1.00  0.00     0.054 A 
BRANCH  82  83
ATOM     83  S   UNL     1      22.749  -4.161   3.720  1.00  0.00     0.124 S 
ATOM     84  O   UNL     1      22.745  -5.620   3.659  1.00  0.00    -0.237 OA
ATOM     85  O   UNL     1      23.285  -3.483   2.542  1.00  0.00    -0.237 OA
ATOM     86  O   UNL     1      23.161  -3.592   5.001  1.00  0.00    -0.744 OA
ENDBRANCH  82  83
ENDBRANCH  56  77
ENDBRANCH  30  31
ENDBRANCH  23  25
ENDBRANCH  22  23
ENDBRANCH  21  22
ENDBRANCH   1  21
TORSDOF 18
