REMARK SMILES COc1ncccc1CS(=O)(=O)[C@@H](C)CC(=O)OCCOCCOC(=O)c1ccc(-c2c3nc(c(-c4ccc(S(=O)(=O)[O-])cc4)c4ccc([nH]4)c(-c4ccc(S(=O)(=O)[O-])cc4)c4nc(c(-c5ccc(S(=O)(=O)[O-])cc5)c5ccc2[nH]5)C=C4)C=C3)cc1
REMARK SMILES IDX 20 1 19 2 18 3 16 4 17 5 15 6 13 7 14 8 10 9 11 10 12 11
REMARK SMILES IDX 9 12 8 13 3 14 4 15 5 16 7 17 6 18 2 19 1 20 21 21 22 22
REMARK SMILES IDX 23 23 24 24 25 25 26 26 27 27 28 28 86 29 29 30 85 31 30 32
REMARK SMILES IDX 31 33 32 34 79 35 33 36 84 37 78 38 80 39 34 40 83 41 77 42
REMARK SMILES IDX 76 43 35 45 65 46 46 47 64 48 47 49 50 50 63 51 81 52 48 53
REMARK SMILES IDX 49 54 62 56 82 57 51 58 36 59 37 60 45 61 38 62 44 63 39 64
REMARK SMILES IDX 40 65 41 66 42 67 43 68 66 69 67 70 75 71 68 72 74 73 69 74
REMARK SMILES IDX 70 75 71 76 72 77 73 78 52 79 53 80 61 81 54 82 60 83 55 84
REMARK SMILES IDX 56 85 57 86 58 87 59 88
REMARK H PARENT 80 44 50 55
REMARK Flexibility Score: inf
ROOT
ATOM      1  C   UNL     1      -2.010   1.036  -1.655  1.00  0.00     0.202 C 
ENDROOT
BRANCH   1   2
ATOM      2  C   UNL     1      -1.498  -0.303  -2.186  1.00  0.00     0.261 C 
BRANCH   2   3
ATOM      3  O   UNL     1      -0.084  -0.215  -2.471  1.00  0.00    -0.463 OA
BRANCH   3   4
ATOM      4  C   UNL     1       0.280  -0.411  -3.747  1.00  0.00     0.307 C 
ATOM      5  O   UNL     1      -0.472  -0.771  -4.647  1.00  0.00    -0.252 OA
BRANCH   4   6
ATOM      6  C   UNL     1       1.746  -0.174  -4.027  1.00  0.00     0.142 C 
BRANCH   6   7
ATOM      7  C   UNL     1       2.666   0.723  -3.204  1.00  0.00     0.117 C 
ATOM      8  C   UNL     1       4.011   0.820  -3.941  1.00  0.00     0.025 C 
BRANCH   7   9
ATOM      9  S   UNL     1       2.949   0.434  -1.444  1.00  0.00     0.157 S 
ATOM     10  O   UNL     1       1.737   0.822  -0.754  1.00  0.00    -0.228 OA
ATOM     11  O   UNL     1       4.154   1.189  -1.119  1.00  0.00    -0.228 OA
BRANCH   9  12
ATOM     12  C   UNL     1       3.375  -1.276  -1.043  1.00  0.00     0.178 C 
BRANCH  12  13
ATOM     13  C   UNL     1       2.369  -2.263  -1.529  1.00  0.00     0.029 A 
ATOM     14  C   UNL     1       1.201  -2.567  -0.833  1.00  0.00     0.217 A 
ATOM     15  N   UNL     1       0.224  -3.355  -1.331  1.00  0.00    -0.222 NA
ATOM     16  C   UNL     1       0.437  -3.921  -2.539  1.00  0.00     0.115 A 
ATOM     17  C   UNL     1       2.602  -2.966  -2.718  1.00  0.00     0.012 A 
ATOM     18  C   UNL     1       1.617  -3.792  -3.245  1.00  0.00     0.021 A 
BRANCH  14  19
ATOM     19  O   UNL     1       1.167  -2.392   0.526  1.00  0.00    -0.481 OA
ATOM     20  C   UNL     1       0.589  -1.164   0.933  1.00  0.00     0.280 C 
ENDBRANCH  14  19
ENDBRANCH  12  13
ENDBRANCH   9  12
ENDBRANCH   7   9
ENDBRANCH   6   7
ENDBRANCH   4   6
ENDBRANCH   3   4
ENDBRANCH   2   3
ENDBRANCH   1   2
BRANCH   1  21
ATOM     21  O   UNL     1      -2.024   2.097  -2.614  1.00  0.00    -0.374 OA
BRANCH  21  22
ATOM     22  C   UNL     1      -0.777   2.743  -2.863  1.00  0.00     0.202 C 
BRANCH  22  23
ATOM     23  C   UNL     1      -0.380   3.856  -1.887  1.00  0.00     0.261 C 
BRANCH  23  24
ATOM     24  O   UNL     1      -0.094   3.352  -0.573  1.00  0.00    -0.460 OA
BRANCH  24  25
ATOM     25  C   UNL     1      -1.093   3.508   0.324  1.00  0.00     0.338 C 
ATOM     26  O   UNL     1      -2.151   4.098   0.138  1.00  0.00    -0.246 OA
BRANCH  25  27
ATOM     27  C   UNL     1      -0.833   2.726   1.551  1.00  0.00     0.060 A 
ATOM     28  C   UNL     1      -1.921   2.051   2.120  1.00  0.00     0.016 A 
ATOM     29  C   UNL     1       0.413   2.704   2.183  1.00  0.00     0.016 A 
ATOM     30  C   UNL     1      -1.792   1.431   3.361  1.00  0.00     0.010 A 
ATOM     31  C   UNL     1       0.541   2.075   3.430  1.00  0.00     0.010 A 
ATOM     32  C   UNL     1      -0.574   1.481   4.050  1.00  0.00    -0.014 A 
BRANCH  32  33
ATOM     33  C   UNL     1      -0.526   1.050   5.473  1.00  0.00     0.031 A 
ATOM     34  C   UNL     1      -0.494   2.097   6.557  1.00  0.00     0.074 A 
ATOM     35  C   UNL     1      -0.577  -0.253   5.809  1.00  0.00     0.049 A 
ATOM     36  N   UNL     1      -0.488   1.943   7.856  1.00  0.00    -0.248 NA
ATOM     37  C   UNL     1      -0.470   3.503   6.120  1.00  0.00     0.031 C 
ATOM     38  C   UNL     1      -0.663  -1.363   4.864  1.00  0.00     0.029 A 
ATOM     39  N   UNL     1      -0.569  -0.864   7.038  1.00  0.00    -0.354 N 
ATOM     40  C   UNL     1      -0.457   3.226   8.391  1.00  0.00     0.074 A 
ATOM     41  C   UNL     1      -0.403   4.146   7.276  1.00  0.00     0.031 C 
ATOM     42  C   UNL     1      -0.689  -2.521   5.543  1.00  0.00     0.029 A 
ATOM     43  C   UNL     1      -0.603  -2.238   6.973  1.00  0.00     0.049 A 
ATOM     44  H   UNL     1      -0.542  -0.366   7.887  1.00  0.00     0.167 HD
ATOM     45  C   UNL     1      -0.485   3.606   9.691  1.00  0.00     0.031 A 
ATOM     46  C   UNL     1      -0.561  -3.166   7.949  1.00  0.00     0.031 A 
ATOM     47  C   UNL     1      -0.528   2.690  10.801  1.00  0.00     0.049 A 
ATOM     48  C   UNL     1      -0.517  -2.720   9.387  1.00  0.00     0.074 A 
ATOM     49  C   UNL     1      -0.580   2.981  12.153  1.00  0.00     0.029 A 
ATOM     50  N   UNL     1      -0.516   1.308  10.691  1.00  0.00    -0.354 N 
ATOM     51  N   UNL     1      -0.526  -1.502   9.873  1.00  0.00    -0.248 NA
ATOM     52  C   UNL     1      -0.474  -3.776  10.409  1.00  0.00     0.031 C 
ATOM     53  C   UNL     1      -0.529   1.777  12.862  1.00  0.00     0.029 A 
ATOM     54  C   UNL     1      -0.524   0.733  11.951  1.00  0.00     0.049 A 
ATOM     55  H   UNL     1      -0.503   0.808   9.842  1.00  0.00     0.167 HD
ATOM     56  C   UNL     1      -0.522  -1.646  11.257  1.00  0.00     0.074 A 
ATOM     57  C   UNL     1      -0.525  -3.068  11.529  1.00  0.00     0.031 C 
ATOM     58  C   UNL     1      -0.522  -0.685  12.215  1.00  0.00     0.031 A 
BRANCH  45  59
ATOM     59  C   UNL     1      -0.437   5.084   9.987  1.00  0.00    -0.014 A 
ATOM     60  C   UNL     1      -1.524   5.926   9.691  1.00  0.00     0.010 A 
ATOM     61  C   UNL     1       0.699   5.630  10.612  1.00  0.00     0.010 A 
ATOM     62  C   UNL     1      -1.461   7.293   9.979  1.00  0.00     0.020 A 
ATOM     63  C   UNL     1       0.754   6.990  10.930  1.00  0.00     0.020 A 
ATOM     64  C   UNL     1      -0.320   7.816  10.596  1.00  0.00     0.054 A 
BRANCH  64  65
ATOM     65  S   UNL     1      -0.275   9.588  10.979  1.00  0.00     0.124 S 
ATOM     66  O   UNL     1      -0.154  10.181   9.650  1.00  0.00    -0.237 OA
ATOM     67  O   UNL     1      -1.555   9.804  11.648  1.00  0.00    -0.237 OA
ATOM     68  O   UNL     1       0.902   9.730  11.833  1.00  0.00    -0.744 OA
ENDBRANCH  64  65
ENDBRANCH  45  59
BRANCH  46  69
ATOM     69  C   UNL     1      -0.551  -4.614   7.598  1.00  0.00    -0.014 A 
ATOM     70  C   UNL     1      -1.646  -5.441   7.902  1.00  0.00     0.010 A 
ATOM     71  C   UNL     1       0.567  -5.173   6.949  1.00  0.00     0.010 A 
ATOM     72  C   UNL     1      -1.616  -6.803   7.583  1.00  0.00     0.020 A 
ATOM     73  C   UNL     1       0.588  -6.527   6.602  1.00  0.00     0.020 A 
ATOM     74  C   UNL     1      -0.500  -7.336   6.932  1.00  0.00     0.054 A 
BRANCH  74  75
ATOM     75  S   UNL     1      -0.502  -9.096   6.490  1.00  0.00     0.124 S 
ATOM     76  O   UNL     1      -0.362  -9.737   7.794  1.00  0.00    -0.237 OA
ATOM     77  O   UNL     1      -1.802  -9.256   5.843  1.00  0.00    -0.237 OA
ATOM     78  O   UNL     1       0.650  -9.229   5.601  1.00  0.00    -0.744 OA
ENDBRANCH  74  75
ENDBRANCH  46  69
BRANCH  58  79
ATOM     79  C   UNL     1      -0.561  -1.132  13.654  1.00  0.00    -0.014 A 
ATOM     80  C   UNL     1       0.546  -1.752  14.261  1.00  0.00     0.010 A 
ATOM     81  C   UNL     1      -1.708  -0.874  14.429  1.00  0.00     0.010 A 
ATOM     82  C   UNL     1       0.494  -2.135  15.604  1.00  0.00     0.020 A 
ATOM     83  C   UNL     1      -1.751  -1.226  15.780  1.00  0.00     0.020 A 
ATOM     84  C   UNL     1      -0.654  -1.868  16.356  1.00  0.00     0.054 A 
BRANCH  84  85
ATOM     85  S   UNL     1      -0.678  -2.335  18.109  1.00  0.00     0.124 S 
ATOM     86  O   UNL     1      -0.769  -3.790  18.035  1.00  0.00    -0.237 OA
ATOM     87  O   UNL     1       0.594  -1.808  18.597  1.00  0.00    -0.237 OA
ATOM     88  O   UNL     1      -1.865  -1.662  18.632  1.00  0.00    -0.744 OA
ENDBRANCH  84  85
ENDBRANCH  58  79
ENDBRANCH  32  33
ENDBRANCH  25  27
ENDBRANCH  24  25
ENDBRANCH  23  24
ENDBRANCH  22  23
ENDBRANCH  21  22
ENDBRANCH   1  21
TORSDOF 22
