REMARK SMILES O=C1C[C@H](C(=O)N2CCCn3nc(CCC(=O)OCCOCCOC(=O)c4ccc(-c5c6nc(c(-c7ccc(S(=O)(=O)[O-])cc7)c7ccc([nH]7)c(-c7ccc(S(=O)(=O)[O-])cc7)c7nc(c(-c8ccc(S(=O)(=O)[O-])cc8)c8ccc5[nH]8)C=C7)C=C6)cc4)cc3C2)c2ccccc2N1
REMARK SMILES IDX 19 1 18 2 16 3 17 4 15 5 14 6 13 7 88 8 11 9 87 10 12 11
REMARK SMILES IDX 89 12 7 13 5 14 6 15 4 16 1 17 2 18 3 19 96 20 95 21 90 23
REMARK SMILES IDX 94 24 91 25 93 26 92 27 8 28 9 29 10 31 20 33 21 34 22 35
REMARK SMILES IDX 23 36 24 37 25 38 26 39 27 40 28 41 86 42 29 43 85 44 30 45
REMARK SMILES IDX 31 46 32 47 79 48 33 49 84 50 78 51 80 52 34 53 83 54 77 55
REMARK SMILES IDX 76 56 35 58 65 59 46 60 64 61 47 62 50 63 63 64 81 65 48 66
REMARK SMILES IDX 49 67 62 69 82 70 51 71 36 72 37 73 45 74 38 75 44 76 39 77
REMARK SMILES IDX 40 78 41 79 42 80 43 81 66 82 67 83 75 84 68 85 74 86 69 87
REMARK SMILES IDX 70 88 71 89 72 90 73 91 52 92 53 93 61 94 54 95 60 96 55 97
REMARK SMILES IDX 56 98 57 99 58 100 59 101
REMARK H PARENT 96 22 80 57 50 68
REMARK Flexibility Score: 90.00
ROOT
ATOM      1  C   UNL     1      -6.074  -4.577  -2.429  1.00  0.00     0.261 C 
ENDROOT
BRANCH   1   2
ATOM      2  O   UNL     1      -5.312  -4.914  -3.608  1.00  0.00    -0.463 OA
BRANCH   2   3
ATOM      3  C   UNL     1      -5.971  -5.356  -4.700  1.00  0.00     0.306 C 
ATOM      4  O   UNL     1      -7.156  -5.668  -4.708  1.00  0.00    -0.252 OA
BRANCH   3   5
ATOM      5  C   UNL     1      -5.103  -5.402  -5.948  1.00  0.00     0.129 C 
BRANCH   5   6
ATOM      6  C   UNL     1      -4.086  -4.277  -6.195  1.00  0.00     0.070 C 
BRANCH   6   7
ATOM      7  C   UNL     1      -2.884  -4.321  -5.315  1.00  0.00     0.063 A 
ATOM      8  C   UNL     1      -1.571  -4.327  -3.539  1.00  0.00     0.058 A 
ATOM      9  N   UNL     1      -0.916  -4.751  -4.654  1.00  0.00    -0.267 N 
ATOM     10  C   UNL     1      -2.781  -3.869  -3.989  1.00  0.00     0.051 A 
ATOM     11  N   UNL     1      -1.725  -4.848  -5.732  1.00  0.00    -0.178 NA
BRANCH   8  12
ATOM     12  C   UNL     1      -1.004  -4.368  -2.182  1.00  0.00     0.175 C 
BRANCH  12  13
ATOM     13  N   UNL     1      -0.009  -3.322  -2.053  1.00  0.00    -0.336 N 
BRANCH  13  14
ATOM     14  C   UNL     1      -0.113  -2.529  -0.931  1.00  0.00     0.231 C 
ATOM     15  O   UNL     1      -0.699  -2.979   0.068  1.00  0.00    -0.274 OA
BRANCH  14  16
ATOM     16  C   UNL     1       0.442  -1.065  -0.881  1.00  0.00     0.120 C 
ATOM     17  O   UNL     1       3.525   1.849  -2.395  1.00  0.00    -0.275 OA
ATOM     18  C   UNL     1       2.454   1.421  -1.977  1.00  0.00     0.225 C 
ATOM     19  C   UNL     1       1.882  -0.476  -2.156  1.00  0.00     0.118 C 
ATOM     20  N   UNL     1       1.277   2.493  -1.142  1.00  0.00    -0.326 N 
ATOM     21  C   UNL     1      -0.186   1.945  -0.280  1.00  0.00     0.045 A 
ATOM     22  H   UNL     1       1.455   3.461  -1.161  1.00  0.00     0.169 HD
ATOM     23  C   UNL     1      -0.521   0.349   0.019  1.00  0.00    -0.011 A 
ATOM     24  C   UNL     1      -1.155   2.874   0.052  1.00  0.00     0.026 A 
ATOM     25  C   UNL     1      -1.628   0.030   0.821  1.00  0.00     0.007 A 
ATOM     26  C   UNL     1      -2.371   2.392   0.596  1.00  0.00     0.002 A 
ATOM     27  C   UNL     1      -2.586   1.041   0.996  1.00  0.00     0.000 A 
ENDBRANCH  14  16
ENDBRANCH  13  14
BRANCH  13  28
ATOM     28  C   UNL     1       1.043  -3.227  -3.055  1.00  0.00     0.122 C 
BRANCH  28  29
ATOM     29  C   UNL     1       1.452  -4.529  -3.740  1.00  0.00     0.045 CG0
ATOM     30  G   UNL     1       0.479  -5.111  -4.771  1.00  0.00     0.000 G0
ENDBRANCH  28  29
ENDBRANCH  13  28
ENDBRANCH  12  13
ENDBRANCH   8  12
BRANCH   9  31
ATOM     31  C   UNL     1       0.479  -5.111  -4.771  1.00  0.00     0.146 CG0
ATOM     32  G   UNL     1       1.452  -4.529  -3.740  1.00  0.00     0.000 G0
ENDBRANCH   9  31
ENDBRANCH   6   7
ENDBRANCH   5   6
ENDBRANCH   3   5
ENDBRANCH   2   3
ENDBRANCH   1   2
BRANCH   1  33
ATOM     33  C   UNL     1      -6.349  -3.064  -2.355  1.00  0.00     0.202 C 
BRANCH  33  34
ATOM     34  O   UNL     1      -7.389  -2.553  -3.195  1.00  0.00    -0.374 OA
BRANCH  34  35
ATOM     35  C   UNL     1      -7.106  -2.422  -4.587  1.00  0.00     0.202 C 
BRANCH  35  36
ATOM     36  C   UNL     1      -6.741  -1.028  -5.103  1.00  0.00     0.261 C 
BRANCH  36  37
ATOM     37  O   UNL     1      -5.343  -0.803  -4.940  1.00  0.00    -0.460 OA
BRANCH  37  38
ATOM     38  C   UNL     1      -5.047  -0.247  -3.759  1.00  0.00     0.338 C 
ATOM     39  O   UNL     1      -5.812   0.140  -2.892  1.00  0.00    -0.246 OA
BRANCH  38  40
ATOM     40  C   UNL     1      -3.621  -0.415  -3.551  1.00  0.00     0.060 A 
ATOM     41  C   UNL     1      -3.296  -0.811  -2.296  1.00  0.00     0.016 A 
ATOM     42  C   UNL     1      -2.606  -0.278  -4.489  1.00  0.00     0.016 A 
ATOM     43  C   UNL     1      -1.988  -0.679  -1.933  1.00  0.00     0.010 A 
ATOM     44  C   UNL     1      -1.266  -0.226  -4.052  1.00  0.00     0.010 A 
ATOM     45  C   UNL     1      -0.980  -0.073  -2.690  1.00  0.00    -0.014 A 
BRANCH  45  46
ATOM     46  C   UNL     1       0.353   0.879  -2.141  1.00  0.00     0.031 A 
ATOM     47  C   UNL     1       1.586   0.561  -0.424  1.00  0.00     0.074 A 
ATOM     48  C   UNL     1       0.452   1.918  -3.308  1.00  0.00     0.049 A 
ATOM     49  N   UNL     1       1.994   1.358   0.620  1.00  0.00    -0.248 NA
ATOM     50  C   UNL     1       2.670  -0.770   0.005  1.00  0.00     0.031 C 
ATOM     51  C   UNL     1      -0.518   2.285  -4.403  1.00  0.00     0.029 A 
ATOM     52  N   UNL     1       1.446   2.859  -3.764  1.00  0.00    -0.354 N 
ATOM     53  C   UNL     1       3.305   1.037   1.004  1.00  0.00     0.074 A 
ATOM     54  C   UNL     1       3.473  -0.355   0.964  1.00  0.00     0.031 C 
ATOM     55  C   UNL     1       0.056   2.912  -5.467  1.00  0.00     0.029 A 
ATOM     56  C   UNL     1       1.404   3.297  -5.125  1.00  0.00     0.049 A 
ATOM     57  H   UNL     1       2.140   3.193  -3.151  1.00  0.00     0.167 HD
ATOM     58  C   UNL     1       4.340   1.899   0.799  1.00  0.00     0.031 A 
ATOM     59  C   UNL     1       2.338   3.990  -5.884  1.00  0.00     0.031 A 
ATOM     60  C   UNL     1       3.941   3.269   0.740  1.00  0.00     0.049 A 
ATOM     61  C   UNL     1       3.234   4.649  -4.920  1.00  0.00     0.074 A 
ATOM     62  C   UNL     1       3.141   4.056   1.535  1.00  0.00     0.029 A 
ATOM     63  N   UNL     1       4.136   3.925  -0.448  1.00  0.00    -0.354 N 
ATOM     64  N   UNL     1       2.862   5.615  -4.138  1.00  0.00    -0.248 NA
ATOM     65  C   UNL     1       4.492   4.008  -4.601  1.00  0.00     0.031 C 
ATOM     66  C   UNL     1       2.701   5.120   0.720  1.00  0.00     0.029 A 
ATOM     67  C   UNL     1       3.308   5.019  -0.532  1.00  0.00     0.049 A 
ATOM     68  H   UNL     1       4.778   3.651  -1.143  1.00  0.00     0.167 HD
ATOM     69  C   UNL     1       3.563   5.374  -2.976  1.00  0.00     0.074 A 
ATOM     70  C   UNL     1       4.636   4.458  -3.353  1.00  0.00     0.031 C 
ATOM     71  C   UNL     1       3.010   5.699  -1.777  1.00  0.00     0.031 A 
BRANCH  58  72
ATOM     72  C   UNL     1       5.686   1.426   0.282  1.00  0.00    -0.014 A 
ATOM     73  C   UNL     1       6.845   2.056   0.742  1.00  0.00     0.010 A 
ATOM     74  C   UNL     1       5.829   0.500  -0.787  1.00  0.00     0.010 A 
ATOM     75  C   UNL     1       8.098   1.745   0.198  1.00  0.00     0.020 A 
ATOM     76  C   UNL     1       7.078   0.171  -1.329  1.00  0.00     0.020 A 
ATOM     77  C   UNL     1       8.210   0.796  -0.823  1.00  0.00     0.054 A 
BRANCH  77  78
ATOM     78  S   UNL     1       9.861   0.399  -1.457  1.00  0.00     0.124 S 
ATOM     79  O   UNL     1      10.291   1.675  -2.019  1.00  0.00    -0.237 OA
ATOM     80  O   UNL     1      10.556  -0.023  -0.243  1.00  0.00    -0.237 OA
ATOM     81  O   UNL     1       9.615  -0.667  -2.425  1.00  0.00    -0.744 OA
ENDBRANCH  77  78
ENDBRANCH  58  72
BRANCH  59  82
ATOM     82  C   UNL     1       2.744   4.129  -7.359  1.00  0.00    -0.014 A 
ATOM     83  C   UNL     1       3.743   5.065  -7.793  1.00  0.00     0.010 A 
ATOM     84  C   UNL     1       2.456   3.105  -8.273  1.00  0.00     0.010 A 
ATOM     85  C   UNL     1       4.489   4.903  -8.996  1.00  0.00     0.020 A 
ATOM     86  C   UNL     1       3.192   2.939  -9.476  1.00  0.00     0.020 A 
ATOM     87  C   UNL     1       4.234   3.807  -9.815  1.00  0.00     0.054 A 
BRANCH  87  88
ATOM     88  S   UNL     1       5.355   3.404 -11.214  1.00  0.00     0.124 S 
ATOM     89  O   UNL     1       5.047   4.445 -12.191  1.00  0.00    -0.237 OA
ATOM     90  O   UNL     1       6.681   3.486 -10.607  1.00  0.00    -0.237 OA
ATOM     91  O   UNL     1       4.943   2.055 -11.602  1.00  0.00    -0.744 OA
ENDBRANCH  87  88
ENDBRANCH  59  82
BRANCH  71  92
ATOM     92  C   UNL     1       1.933   6.768  -1.748  1.00  0.00    -0.014 A 
ATOM     93  C   UNL     1       0.722   6.762  -2.471  1.00  0.00     0.010 A 
ATOM     94  C   UNL     1       2.156   7.824  -0.846  1.00  0.00     0.010 A 
ATOM     95  C   UNL     1      -0.216   7.800  -2.307  1.00  0.00     0.020 A 
ATOM     96  C   UNL     1       1.215   8.830  -0.646  1.00  0.00     0.020 A 
ATOM     97  C   UNL     1       0.040   8.827  -1.392  1.00  0.00     0.054 A 
BRANCH  97  98
ATOM     98  S   UNL     1      -1.156  10.172  -1.166  1.00  0.00     0.124 S 
ATOM     99  O   UNL     1      -1.104  10.862  -2.452  1.00  0.00    -0.237 OA
ATOM    100  O   UNL     1      -2.398   9.457  -0.883  1.00  0.00    -0.237 OA
ATOM    101  O   UNL     1      -0.617  10.930  -0.037  1.00  0.00    -0.744 OA
ENDBRANCH  97  98
ENDBRANCH  71  92
ENDBRANCH  45  46
ENDBRANCH  38  40
ENDBRANCH  37  38
ENDBRANCH  36  37
ENDBRANCH  35  36
ENDBRANCH  34  35
ENDBRANCH  33  34
ENDBRANCH   1  33
TORSDOF 21
