REMARK SMILES Cc1c(C(=O)OCCOCCOC(=O)c2ccc(-c3c4nc(c(-c5ccc(S(=O)(=O)[O-])cc5)c5ccc([nH]5)c(-c5ccc(S(=O)(=O)[O-])cc5)c5nc(c(-c6ccc(S(=O)(=O)[O-])cc6)c6ccc3[nH]6)C=C5)C=C4)cc2)oc2c1/C(=N/NC(=O)C(c1ccccc1)c1ccccc1)CCC2
REMARK SMILES IDX 9 1 8 2 7 3 6 4 4 5 5 6 3 7 1 8 2 9 77 10 75 11 76 12 78 13
REMARK SMILES IDX 98 14 79 15 96 16 97 17 80 18 81 19 82 21 83 22 84 23 85 24
REMARK SMILES IDX 89 25 86 26 88 27 87 28 90 29 91 30 95 31 92 32 94 33 93 34
REMARK SMILES IDX 10 35 11 36 12 37 13 38 14 39 15 40 16 41 74 42 17 43 73 44
REMARK SMILES IDX 18 45 19 46 20 47 67 48 21 49 72 50 66 51 68 52 22 53 71 54
REMARK SMILES IDX 65 55 64 56 23 58 53 59 34 60 52 61 35 62 38 63 51 64 69 65
REMARK SMILES IDX 36 66 37 67 50 69 70 70 39 71 24 72 25 73 33 74 26 75 32 76
REMARK SMILES IDX 27 77 28 78 29 79 30 80 31 81 54 82 55 83 63 84 56 85 62 86
REMARK SMILES IDX 57 87 58 88 59 89 60 90 61 91 40 92 41 93 49 94 42 95 48 96
REMARK SMILES IDX 43 97 44 98 45 99 46 100 47 101
REMARK H PARENT 80 20 68 57 38 68
REMARK Flexibility Score: inf
ROOT
ATOM      1  O   UNL     1       0.238  -4.143  -3.278  1.00  0.00    -0.374 OA
ENDROOT
BRANCH   1   2
ATOM      2  C   UNL     1      -0.675  -4.003  -4.368  1.00  0.00     0.202 C 
BRANCH   2   3
ATOM      3  C   UNL     1      -1.990  -3.288  -4.050  1.00  0.00     0.261 C 
BRANCH   3   4
ATOM      4  O   UNL     1      -1.765  -1.893  -3.863  1.00  0.00    -0.457 OA
BRANCH   4   5
ATOM      5  C   UNL     1      -1.588  -1.481  -2.582  1.00  0.00     0.374 C 
ATOM      6  O   UNL     1      -1.836  -2.139  -1.576  1.00  0.00    -0.242 OA
BRANCH   5   7
ATOM      7  C   UNL     1      -0.930  -0.203  -2.611  1.00  0.00     0.215 A 
ATOM      8  C   UNL     1       0.386  -0.043  -0.382  1.00  0.00     0.049 C 
ATOM      9  C   UNL     1      -0.119   0.451  -1.689  1.00  0.00     0.012 A 
ATOM     10  C   UNL     1       0.079   1.743  -2.242  1.00  0.00     0.043 A 
ATOM     11  O   UNL     1      -1.042   0.534  -3.759  1.00  0.00    -0.453 OA
ATOM     12  C   UNL     1      -0.422   1.698  -3.525  1.00  0.00     0.114 A 
ATOM     13  C   UNL     1       0.563   2.998  -1.682  1.00  0.00     0.072 C 
ATOM     14  C   UNL     1      -0.504   2.754  -4.554  1.00  0.00     0.076 C 
ATOM     15  N   UNL     1       1.240   2.836  -0.578  1.00  0.00    -0.177 NA
ATOM     16  C   UNL     1      -0.012   4.153  -2.517  1.00  0.00     0.059 C 
ATOM     17  C   UNL     1       0.211   3.991  -4.028  1.00  0.00     0.014 C 
BRANCH  15  18
ATOM     18  N   UNL     1       1.832   3.601   0.397  1.00  0.00    -0.246 N 
ATOM     19  C   UNL     1       1.991   4.949   0.668  1.00  0.00     0.252 C 
ATOM     20  H   UNL     1       2.255   3.041   1.087  1.00  0.00     0.193 HD
ATOM     21  O   UNL     1       2.585   5.286   1.699  1.00  0.00    -0.272 OA
BRANCH  19  22
ATOM     22  C   UNL     1       1.423   5.988  -0.286  1.00  0.00     0.140 C 
BRANCH  22  23
ATOM     23  C   UNL     1       2.297   5.907  -1.618  1.00  0.00    -0.031 A 
ATOM     24  C   UNL     1       3.205   4.830  -1.859  1.00  0.00     0.005 A 
ATOM     25  C   UNL     1       2.255   6.871  -2.636  1.00  0.00     0.005 A 
ATOM     26  C   UNL     1       3.883   4.621  -3.063  1.00  0.00     0.000 A 
ATOM     27  C   UNL     1       2.991   6.696  -3.835  1.00  0.00     0.000 A 
ATOM     28  C   UNL     1       3.772   5.560  -4.063  1.00  0.00     0.000 A 
ENDBRANCH  22  23
BRANCH  22  29
ATOM     29  C   UNL     1      -0.166   5.891  -0.175  1.00  0.00    -0.031 A 
ATOM     30  C   UNL     1      -1.053   6.777  -0.802  1.00  0.00     0.005 A 
ATOM     31  C   UNL     1      -0.796   4.851   0.579  1.00  0.00     0.005 A 
ATOM     32  C   UNL     1      -2.450   6.536  -0.790  1.00  0.00     0.000 A 
ATOM     33  C   UNL     1      -2.164   4.569   0.534  1.00  0.00     0.000 A 
ATOM     34  C   UNL     1      -2.998   5.411  -0.168  1.00  0.00     0.000 A 
ENDBRANCH  22  29
ENDBRANCH  19  22
ENDBRANCH  15  18
ENDBRANCH   5   7
ENDBRANCH   4   5
ENDBRANCH   3   4
ENDBRANCH   2   3
ENDBRANCH   1   2
BRANCH   1  35
ATOM     35  C   UNL     1       1.152  -3.082  -3.009  1.00  0.00     0.202 C 
BRANCH  35  36
ATOM     36  C   UNL     1       2.337  -2.905  -3.942  1.00  0.00     0.261 C 
BRANCH  36  37
ATOM     37  O   UNL     1       1.933  -2.430  -5.219  1.00  0.00    -0.460 OA
BRANCH  37  38
ATOM     38  C   UNL     1       1.949  -3.370  -6.190  1.00  0.00     0.338 C 
ATOM     39  O   UNL     1       1.894  -4.579  -6.041  1.00  0.00    -0.246 OA
BRANCH  38  40
ATOM     40  C   UNL     1       2.248  -2.703  -7.461  1.00  0.00     0.060 A 
ATOM     41  C   UNL     1       2.578  -3.536  -8.529  1.00  0.00     0.016 A 
ATOM     42  C   UNL     1       2.444  -1.312  -7.518  1.00  0.00     0.016 A 
ATOM     43  C   UNL     1       3.274  -2.997  -9.586  1.00  0.00     0.010 A 
ATOM     44  C   UNL     1       3.146  -0.775  -8.575  1.00  0.00     0.010 A 
ATOM     45  C   UNL     1       3.614  -1.636  -9.560  1.00  0.00    -0.014 A 
BRANCH  45  46
ATOM     46  C   UNL     1       4.370  -1.122 -10.681  1.00  0.00     0.031 A 
ATOM     47  C   UNL     1       3.593  -1.131 -11.937  1.00  0.00     0.074 A 
ATOM     48  C   UNL     1       5.624  -0.646 -10.596  1.00  0.00     0.049 A 
ATOM     49  N   UNL     1       3.720  -1.960 -12.917  1.00  0.00    -0.248 NA
ATOM     50  C   UNL     1       2.415  -0.258 -12.026  1.00  0.00     0.031 C 
ATOM     51  C   UNL     1       6.413  -0.355  -9.398  1.00  0.00     0.029 A 
ATOM     52  N   UNL     1       6.434  -0.235 -11.607  1.00  0.00    -0.354 N 
ATOM     53  C   UNL     1       2.783  -1.565 -13.859  1.00  0.00     0.074 A 
ATOM     54  C   UNL     1       1.889  -0.656 -13.185  1.00  0.00     0.031 C 
ATOM     55  C   UNL     1       7.490   0.390  -9.747  1.00  0.00     0.029 A 
ATOM     56  C   UNL     1       7.540   0.496 -11.197  1.00  0.00     0.049 A 
ATOM     57  H   UNL     1       6.252  -0.441 -12.552  1.00  0.00     0.167 HD
ATOM     58  C   UNL     1       2.980  -1.801 -15.184  1.00  0.00     0.031 A 
ATOM     59  C   UNL     1       8.393   1.178 -12.002  1.00  0.00     0.031 A 
ATOM     60  C   UNL     1       4.006  -2.789 -15.404  1.00  0.00     0.049 A 
ATOM     61  C   UNL     1       8.289   0.576 -13.355  1.00  0.00     0.074 A 
ATOM     62  C   UNL     1       4.175  -4.114 -15.054  1.00  0.00     0.029 A 
ATOM     63  N   UNL     1       5.254  -2.320 -15.743  1.00  0.00    -0.354 N 
ATOM     64  N   UNL     1       8.680  -0.637 -13.627  1.00  0.00    -0.248 NA
ATOM     65  C   UNL     1       7.352   1.155 -14.305  1.00  0.00     0.031 C 
ATOM     66  C   UNL     1       5.565  -4.248 -14.767  1.00  0.00     0.029 A 
ATOM     67  C   UNL     1       6.182  -3.020 -15.016  1.00  0.00     0.049 A 
ATOM     68  H   UNL     1       5.447  -1.606 -16.393  1.00  0.00     0.167 HD
ATOM     69  C   UNL     1       7.724  -1.129 -14.503  1.00  0.00     0.074 A 
ATOM     70  C   UNL     1       6.997   0.050 -14.969  1.00  0.00     0.031 C 
ATOM     71  C   UNL     1       7.438  -2.464 -14.553  1.00  0.00     0.031 A 
BRANCH  58  72
ATOM     72  C   UNL     1       2.567  -0.819 -16.250  1.00  0.00    -0.014 A 
ATOM     73  C   UNL     1       2.782  -1.154 -17.600  1.00  0.00     0.010 A 
ATOM     74  C   UNL     1       2.248   0.526 -15.965  1.00  0.00     0.010 A 
ATOM     75  C   UNL     1       2.751  -0.176 -18.602  1.00  0.00     0.020 A 
ATOM     76  C   UNL     1       2.169   1.499 -16.960  1.00  0.00     0.020 A 
ATOM     77  C   UNL     1       2.457   1.147 -18.270  1.00  0.00     0.054 A 
BRANCH  77  78
ATOM     78  S   UNL     1       2.519   2.420 -19.552  1.00  0.00     0.124 S 
ATOM     79  O   UNL     1       3.939   2.435 -19.889  1.00  0.00    -0.237 OA
ATOM     80  O   UNL     1       1.629   1.873 -20.571  1.00  0.00    -0.237 OA
ATOM     81  O   UNL     1       2.022   3.614 -18.872  1.00  0.00    -0.744 OA
ENDBRANCH  77  78
ENDBRANCH  58  72
BRANCH  59  82
ATOM     82  C   UNL     1       9.002   2.512 -11.771  1.00  0.00    -0.014 A 
ATOM     83  C   UNL     1       9.980   3.019 -12.649  1.00  0.00     0.010 A 
ATOM     84  C   UNL     1       8.399   3.416 -10.872  1.00  0.00     0.010 A 
ATOM     85  C   UNL     1      10.280   4.391 -12.685  1.00  0.00     0.020 A 
ATOM     86  C   UNL     1       8.699   4.783 -10.897  1.00  0.00     0.020 A 
ATOM     87  C   UNL     1       9.616   5.269 -11.826  1.00  0.00     0.054 A 
BRANCH  87  88
ATOM     88  S   UNL     1       9.848   7.062 -12.021  1.00  0.00     0.124 S 
ATOM     89  O   UNL     1      11.203   7.258 -11.513  1.00  0.00    -0.237 OA
ATOM     90  O   UNL     1       9.678   7.251 -13.459  1.00  0.00    -0.237 OA
ATOM     91  O   UNL     1       8.787   7.637 -11.195  1.00  0.00    -0.744 OA
ENDBRANCH  87  88
ENDBRANCH  59  82
BRANCH  71  92
ATOM     92  C   UNL     1       8.398  -3.425 -13.887  1.00  0.00    -0.014 A 
ATOM     93  C   UNL     1       8.700  -3.416 -12.511  1.00  0.00     0.010 A 
ATOM     94  C   UNL     1       8.920  -4.464 -14.678  1.00  0.00     0.010 A 
ATOM     95  C   UNL     1       9.529  -4.402 -11.952  1.00  0.00     0.020 A 
ATOM     96  C   UNL     1       9.729  -5.458 -14.126  1.00  0.00     0.020 A 
ATOM     97  C   UNL     1      10.041  -5.417 -12.767  1.00  0.00     0.054 A 
BRANCH  97  98
ATOM     98  S   UNL     1      11.086  -6.710 -12.039  1.00  0.00     0.124 S 
ATOM     99  O   UNL     1      12.301  -5.979 -11.691  1.00  0.00    -0.237 OA
ATOM    100  O   UNL     1      10.287  -7.177 -10.908  1.00  0.00    -0.237 OA
ATOM    101  O   UNL     1      11.240  -7.684 -13.120  1.00  0.00    -0.744 OA
ENDBRANCH  97  98
ENDBRANCH  71  92
ENDBRANCH  45  46
ENDBRANCH  38  40
ENDBRANCH  37  38
ENDBRANCH  36  37
ENDBRANCH  35  36
ENDBRANCH   1  35
TORSDOF 21
