REMARK SMILES CC1(C)O[C@@H]2CC3[C@H]4CCC5=CC(=O)C=C[C@@]5(C)[C@]4(F)[C@H](O)C[C@]3(C)[C@]2(C(=O)OCCOCCOC(=O)c2ccc(-c3c4nc(c(-c5ccc(S(=O)(=O)[O-])cc5)c5ccc([nH]5)c(-c5ccc(S(=O)(=O)[O-])cc5)c5nc(c(-c6ccc(S(=O)(=O)[O-])cc6)c6ccc3[nH]6)C=C5)C=C4)cc2)O1
REMARK SMILES IDX 33 1 32 2 31 3 30 4 29 5 27 6 28 7 26 8 1 9 2 10 4 11 98 12
REMARK SMILES IDX 3 13 5 14 6 15 24 16 7 17 23 18 25 19 8 20 21 21 9 22 19 23
REMARK SMILES IDX 10 24 17 25 20 26 11 27 16 28 18 29 12 30 15 31 13 32 14 33
REMARK SMILES IDX 22 34 34 36 35 37 36 38 37 39 38 40 39 41 97 42 40 43 96 44
REMARK SMILES IDX 41 45 42 46 43 47 90 48 44 49 95 50 89 51 91 52 45 53 94 54
REMARK SMILES IDX 88 55 87 56 46 58 76 59 57 60 75 61 58 62 61 63 74 64 92 65
REMARK SMILES IDX 59 66 60 67 73 69 93 70 62 71 47 72 48 73 56 74 49 75 55 76
REMARK SMILES IDX 50 77 51 78 52 79 53 80 54 81 77 82 78 83 86 84 79 85 85 86
REMARK SMILES IDX 80 87 81 88 82 89 83 90 84 91 63 92 64 93 72 94 65 95 71 96
REMARK SMILES IDX 66 97 67 98 68 99 69 100 70 101
REMARK H PARENT 22 35 91 57 61 68
REMARK Flexibility Score: inf
ROOT
ATOM      1  C   UNL     1      -0.754   2.676   2.371  1.00  0.00     0.202 C 
ENDROOT
BRANCH   1   2
ATOM      2  O   UNL     1      -2.004   3.274   2.670  1.00  0.00    -0.374 OA
BRANCH   2   3
ATOM      3  C   UNL     1      -2.741   2.820   3.796  1.00  0.00     0.202 C 
BRANCH   3   4
ATOM      4  C   UNL     1      -3.186   1.354   3.921  1.00  0.00     0.261 C 
BRANCH   4   5
ATOM      5  O   UNL     1      -2.174   0.348   3.714  1.00  0.00    -0.461 OA
BRANCH   5   6
ATOM      6  C   UNL     1      -2.228  -0.185   2.472  1.00  0.00     0.341 C 
ATOM      7  O   UNL     1      -2.974   0.239   1.584  1.00  0.00    -0.249 OA
BRANCH   6   8
ATOM      8  C   UNL     1      -1.373  -1.413   2.226  1.00  0.00     0.200 C 
ATOM      9  C   UNL     1       0.846   0.272   0.178  1.00  0.00     0.075 C 
ATOM     10  C   UNL     1       0.441  -1.090   0.726  1.00  0.00     0.165 C 
ATOM     11  O   UNL     1       1.002  -1.267   2.026  1.00  0.00    -0.344 OA
ATOM     12  O   UNL     1      -0.995  -1.178   0.810  1.00  0.00    -0.329 OA
ATOM     13  C   UNL     1       1.001  -2.138  -0.256  1.00  0.00     0.075 C 
ATOM     14  C   UNL     1      -0.025  -1.831   2.853  1.00  0.00     0.166 C 
ATOM     15  C   UNL     1       0.022  -3.443   2.734  1.00  0.00     0.040 C 
ATOM     16  C   UNL     1      -2.256  -2.717   2.448  1.00  0.00     0.016 C 
ATOM     17  C   UNL     1      -1.232  -3.726   1.878  1.00  0.00     0.008 C 
ATOM     18  C   UNL     1      -3.652  -2.824   1.819  1.00  0.00     0.046 C 
ATOM     19  C   UNL     1      -2.515  -2.900   3.982  1.00  0.00     0.015 C 
ATOM     20  C   UNL     1      -1.556  -4.685   0.702  1.00  0.00     0.035 C 
ATOM     21  C   UNL     1      -3.689  -3.313   0.387  1.00  0.00     0.154 C 
ATOM     22  C   UNL     1      -0.897  -6.053   0.700  1.00  0.00     0.012 C 
ATOM     23  C   UNL     1      -3.041  -4.729   0.270  1.00  0.00     0.152 C 
ATOM     24  C   UNL     1      -0.884  -6.557  -0.753  1.00  0.00     0.032 C 
ATOM     25  C   UNL     1      -3.197  -5.365  -1.178  1.00  0.00     0.044 C 
ATOM     26  F   UNL     1      -3.678  -5.552   1.169  1.00  0.00    -0.239 F 
ATOM     27  C   UNL     1      -2.255  -6.573  -1.395  1.00  0.00    -0.053 C 
ATOM     28  C   UNL     1      -4.647  -5.790  -1.426  1.00  0.00    -0.009 C 
ATOM     29  C   UNL     1      -2.876  -4.353  -2.314  1.00  0.00     0.024 C 
ATOM     30  C   UNL     1      -2.597  -7.587  -2.212  1.00  0.00     0.052 C 
ATOM     31  C   UNL     1      -4.990  -6.815  -2.219  1.00  0.00     0.048 C 
ATOM     32  C   UNL     1      -3.938  -7.647  -2.837  1.00  0.00     0.178 C 
ATOM     33  O   UNL     1      -4.172  -8.383  -3.786  1.00  0.00    -0.290 OA
BRANCH  21  34
ATOM     34  O   UNL     1      -3.080  -2.350  -0.466  1.00  0.00    -0.390 OA
ATOM     35  H   UNL     1      -2.155  -2.225  -0.204  1.00  0.00     0.211 HD
ENDBRANCH  21  34
ENDBRANCH   6   8
ENDBRANCH   5   6
ENDBRANCH   4   5
ENDBRANCH   3   4
ENDBRANCH   2   3
ENDBRANCH   1   2
BRANCH   1  36
ATOM     36  C   UNL     1       0.391   2.688   3.394  1.00  0.00     0.261 C 
BRANCH  36  37
ATOM     37  O   UNL     1       0.021   2.236   4.703  1.00  0.00    -0.460 OA
BRANCH  37  38
ATOM     38  C   UNL     1       0.022   3.214   5.638  1.00  0.00     0.338 C 
ATOM     39  O   UNL     1       0.321   4.392   5.479  1.00  0.00    -0.246 OA
BRANCH  38  40
ATOM     40  C   UNL     1      -0.575   2.725   6.887  1.00  0.00     0.060 A 
ATOM     41  C   UNL     1      -1.717   3.385   7.360  1.00  0.00     0.016 A 
ATOM     42  C   UNL     1       0.043   1.728   7.643  1.00  0.00     0.016 A 
ATOM     43  C   UNL     1      -2.217   3.087   8.620  1.00  0.00     0.010 A 
ATOM     44  C   UNL     1      -0.449   1.444   8.920  1.00  0.00     0.010 A 
ATOM     45  C   UNL     1      -1.552   2.155   9.425  1.00  0.00    -0.014 A 
BRANCH  45  46
ATOM     46  C   UNL     1      -1.911   2.078  10.858  1.00  0.00     0.031 A 
ATOM     47  C   UNL     1      -1.119   2.892  11.844  1.00  0.00     0.074 A 
ATOM     48  C   UNL     1      -2.967   1.350  11.258  1.00  0.00     0.049 A 
ATOM     49  N   UNL     1      -1.277   3.006  13.136  1.00  0.00    -0.248 NA
ATOM     50  C   UNL     1      -0.004   3.687  11.300  1.00  0.00     0.031 C 
ATOM     51  C   UNL     1      -3.835   0.566  10.380  1.00  0.00     0.029 A 
ATOM     52  N   UNL     1      -3.491   1.161  12.510  1.00  0.00    -0.354 N 
ATOM     53  C   UNL     1      -0.285   3.882  13.561  1.00  0.00     0.074 A 
ATOM     54  C   UNL     1       0.487   4.250  12.394  1.00  0.00     0.031 C 
ATOM     55  C   UNL     1      -4.786  -0.024  11.124  1.00  0.00     0.029 A 
ATOM     56  C   UNL     1      -4.578   0.322  12.528  1.00  0.00     0.049 A 
ATOM     57  H   UNL     1      -3.124   1.586  13.318  1.00  0.00     0.167 HD
ATOM     58  C   UNL     1      -0.043   4.344  14.810  1.00  0.00     0.031 A 
ATOM     59  C   UNL     1      -5.313  -0.125  13.565  1.00  0.00     0.031 A 
ATOM     60  C   UNL     1      -0.804   3.961  15.968  1.00  0.00     0.049 A 
ATOM     61  C   UNL     1      -4.981   0.348  14.955  1.00  0.00     0.074 A 
ATOM     62  C   UNL     1      -0.642   4.371  17.280  1.00  0.00     0.029 A 
ATOM     63  N   UNL     1      -1.868   3.072  15.953  1.00  0.00    -0.354 N 
ATOM     64  N   UNL     1      -4.049   1.189  15.338  1.00  0.00    -0.248 NA
ATOM     65  C   UNL     1      -5.806  -0.181  16.050  1.00  0.00     0.031 C 
ATOM     66  C   UNL     1      -1.580   3.693  18.066  1.00  0.00     0.029 A 
ATOM     67  C   UNL     1      -2.359   2.901  17.235  1.00  0.00     0.049 A 
ATOM     68  H   UNL     1      -2.222   2.629  15.149  1.00  0.00     0.167 HD
ATOM     69  C   UNL     1      -4.190   1.306  16.716  1.00  0.00     0.074 A 
ATOM     70  C   UNL     1      -5.303   0.460  17.097  1.00  0.00     0.031 C 
ATOM     71  C   UNL     1      -3.465   2.049  17.590  1.00  0.00     0.031 A 
BRANCH  58  72
ATOM     72  C   UNL     1       1.117   5.287  14.986  1.00  0.00    -0.014 A 
ATOM     73  C   UNL     1       1.046   6.618  14.540  1.00  0.00     0.010 A 
ATOM     74  C   UNL     1       2.286   4.838  15.626  1.00  0.00     0.010 A 
ATOM     75  C   UNL     1       2.140   7.475  14.697  1.00  0.00     0.020 A 
ATOM     76  C   UNL     1       3.373   5.698  15.805  1.00  0.00     0.020 A 
ATOM     77  C   UNL     1       3.299   7.007  15.323  1.00  0.00     0.054 A 
BRANCH  77  78
ATOM     78  S   UNL     1       4.701   8.141  15.527  1.00  0.00     0.124 S 
ATOM     79  O   UNL     1       5.242   8.195  14.171  1.00  0.00    -0.237 OA
ATOM     80  O   UNL     1       4.059   9.366  15.996  1.00  0.00    -0.237 OA
ATOM     81  O   UNL     1       5.549   7.470  16.509  1.00  0.00    -0.744 OA
ENDBRANCH  77  78
ENDBRANCH  58  72
BRANCH  59  82
ATOM     82  C   UNL     1      -6.423  -1.084  13.325  1.00  0.00    -0.014 A 
ATOM     83  C   UNL     1      -7.763  -0.682  13.459  1.00  0.00     0.010 A 
ATOM     84  C   UNL     1      -6.138  -2.408  12.942  1.00  0.00     0.010 A 
ATOM     85  C   UNL     1      -8.799  -1.591  13.224  1.00  0.00     0.020 A 
ATOM     86  C   UNL     1      -7.172  -3.312  12.684  1.00  0.00     0.020 A 
ATOM     87  C   UNL     1      -8.497  -2.900  12.836  1.00  0.00     0.054 A 
BRANCH  87  88
ATOM     88  S   UNL     1      -9.856  -4.046  12.475  1.00  0.00     0.124 S 
ATOM     89  O   UNL     1     -10.314  -4.404  13.813  1.00  0.00    -0.237 OA
ATOM     90  O   UNL     1     -10.769  -3.218  11.691  1.00  0.00    -0.237 OA
ATOM     91  O   UNL     1      -9.204  -5.119  11.726  1.00  0.00    -0.744 OA
ENDBRANCH  87  88
ENDBRANCH  59  82
BRANCH  71  92
ATOM     92  C   UNL     1      -3.869   2.000  19.038  1.00  0.00    -0.014 A 
ATOM     93  C   UNL     1      -3.581   0.877  19.834  1.00  0.00     0.010 A 
ATOM     94  C   UNL     1      -4.496   3.116  19.621  1.00  0.00     0.010 A 
ATOM     95  C   UNL     1      -3.940   0.861  21.184  1.00  0.00     0.020 A 
ATOM     96  C   UNL     1      -4.834   3.112  20.976  1.00  0.00     0.020 A 
ATOM     97  C   UNL     1      -4.566   1.978  21.746  1.00  0.00     0.054 A 
BRANCH  97  98
ATOM     98  S   UNL     1      -4.983   1.952  23.511  1.00  0.00     0.124 S 
ATOM     99  O   UNL     1      -6.170   1.102  23.529  1.00  0.00    -0.237 OA
ATOM    100  O   UNL     1      -3.787   1.372  24.117  1.00  0.00    -0.237 OA
ATOM    101  O   UNL     1      -5.217   3.358  23.832  1.00  0.00    -0.744 OA
ENDBRANCH  97  98
ENDBRANCH  71  92
ENDBRANCH  45  46
ENDBRANCH  38  40
ENDBRANCH  37  38
ENDBRANCH  36  37
ENDBRANCH   1  36
TORSDOF 18
