REMARK SMILES COc1cccc([C@H](CC(=O)OCCOCCOC(=O)c2ccc(-c3c4nc(c(-c5ccc(S(=O)(=O)[O-])cc5)c5ccc([nH]5)c(-c5ccc(S(=O)(=O)[O-])cc5)c5nc(c(-c6ccc(S(=O)(=O)[O-])cc6)c6ccc3[nH]6)C=C5)C=C4)cc2)NS(=O)(=O)c2ccc3c(c2)C[C@@H](C)N3C(C)=O)c1
REMARK SMILES IDX 14 1 13 2 12 3 10 4 11 5 9 6 8 7 7 8 3 9 4 10 98 11 5 12
REMARK SMILES IDX 6 13 2 14 1 15 81 16 82 18 83 19 84 20 85 21 86 22 90 23
REMARK SMILES IDX 87 24 89 25 88 26 91 27 94 28 92 29 93 30 95 31 96 32 97 33
REMARK SMILES IDX 15 34 16 35 17 36 18 37 19 38 20 39 21 40 22 41 80 42 23 43
REMARK SMILES IDX 79 44 24 45 25 46 26 47 73 48 27 49 78 50 72 51 74 52 28 53
REMARK SMILES IDX 77 54 71 55 70 56 29 58 59 59 40 60 58 61 41 62 44 63 57 64
REMARK SMILES IDX 75 65 42 66 43 67 56 69 76 70 45 71 30 72 31 73 39 74 32 75
REMARK SMILES IDX 38 76 33 77 34 78 35 79 36 80 37 81 60 82 61 83 69 84 62 85
REMARK SMILES IDX 68 86 63 87 64 88 65 89 66 90 67 91 46 92 47 93 55 94 48 95
REMARK SMILES IDX 54 96 49 97 50 98 51 99 52 100 53 101
REMARK H PARENT 81 17 74 57 44 68
REMARK Flexibility Score: inf
ROOT
ATOM      1  C   UNL     1       1.964  -0.629  -1.697  1.00  0.00     0.202 C 
ENDROOT
BRANCH   1   2
ATOM      2  C   UNL     1       1.587   0.432  -2.738  1.00  0.00     0.261 C 
BRANCH   2   3
ATOM      3  O   UNL     1       2.308   1.663  -2.546  1.00  0.00    -0.463 OA
BRANCH   3   4
ATOM      4  C   UNL     1       1.544   2.758  -2.303  1.00  0.00     0.307 C 
ATOM      5  O   UNL     1       0.318   2.780  -2.337  1.00  0.00    -0.252 OA
BRANCH   4   6
ATOM      6  C   UNL     1       2.325   3.954  -1.812  1.00  0.00     0.147 C 
BRANCH   6   7
ATOM      7  C   UNL     1       3.861   3.915  -1.927  1.00  0.00     0.111 C 
BRANCH   7   8
ATOM      8  C   UNL     1       4.274   4.316  -3.326  1.00  0.00    -0.026 A 
ATOM      9  C   UNL     1       4.955   6.056  -4.874  1.00  0.00     0.119 A 
ATOM     10  C   UNL     1       5.346   5.093  -5.798  1.00  0.00     0.046 A 
ATOM     11  C   UNL     1       4.338   5.673  -3.687  1.00  0.00     0.051 A 
ATOM     12  C   UNL     1       5.190   3.739  -5.497  1.00  0.00     0.004 A 
ATOM     13  C   UNL     1       4.679   3.350  -4.257  1.00  0.00     0.005 A 
BRANCH   9  14
ATOM     14  O   UNL     1       5.202   7.373  -5.158  1.00  0.00    -0.497 OA
ATOM     15  C   UNL     1       6.051   7.962  -4.165  1.00  0.00     0.278 C 
ENDBRANCH   9  14
ENDBRANCH   7   8
BRANCH   7  16
ATOM     16  N   UNL     1       4.408   4.798  -0.855  1.00  0.00    -0.203 NA
ATOM     17  H   UNL     1       4.271   4.282   0.015  1.00  0.00     0.142 HD
BRANCH  16  18
ATOM     18  S   UNL     1       5.981   5.387  -0.779  1.00  0.00     0.241 S 
ATOM     19  O   UNL     1       6.662   5.371  -2.049  1.00  0.00    -0.207 OA
ATOM     20  O   UNL     1       5.825   6.619  -0.032  1.00  0.00    -0.207 OA
BRANCH  18  21
ATOM     21  C   UNL     1       6.854   4.263   0.263  1.00  0.00     0.082 A 
ATOM     22  C   UNL     1       6.875   2.883  -0.023  1.00  0.00     0.024 A 
ATOM     23  C   UNL     1       7.522   4.797   1.367  1.00  0.00     0.027 A 
ATOM     24  C   UNL     1       7.474   1.992   0.873  1.00  0.00     0.028 A 
ATOM     25  C   UNL     1       8.075   3.907   2.251  1.00  0.00    -0.021 A 
ATOM     26  C   UNL     1       7.996   2.525   2.034  1.00  0.00     0.047 A 
ATOM     27  C   UNL     1       8.814   4.197   3.526  1.00  0.00     0.063 C 
ATOM     28  N   UNL     1       8.515   1.871   3.164  1.00  0.00    -0.309 N 
ATOM     29  C   UNL     1       8.529   2.878   4.256  1.00  0.00     0.092 C 
ATOM     30  C   UNL     1       7.136   2.949   4.926  1.00  0.00     0.032 C 
BRANCH  28  31
ATOM     31  C   UNL     1       9.343   0.777   3.020  1.00  0.00     0.224 C 
ATOM     32  C   UNL     1      10.784   1.054   3.388  1.00  0.00     0.115 C 
ATOM     33  O   UNL     1       9.008  -0.273   2.480  1.00  0.00    -0.275 OA
ENDBRANCH  28  31
ENDBRANCH  18  21
ENDBRANCH  16  18
ENDBRANCH   7  16
ENDBRANCH   6   7
ENDBRANCH   4   6
ENDBRANCH   3   4
ENDBRANCH   2   3
ENDBRANCH   1   2
BRANCH   1  34
ATOM     34  O   UNL     1       1.821  -0.277  -0.324  1.00  0.00    -0.374 OA
BRANCH  34  35
ATOM     35  C   UNL     1       2.720   0.683   0.224  1.00  0.00     0.202 C 
BRANCH  35  36
ATOM     36  C   UNL     1       4.212   0.330   0.290  1.00  0.00     0.261 C 
BRANCH  36  37
ATOM     37  O   UNL     1       4.819   0.099  -0.998  1.00  0.00    -0.460 OA
BRANCH  37  38
ATOM     38  C   UNL     1       5.338  -1.150  -1.147  1.00  0.00     0.338 C 
ATOM     39  O   UNL     1       5.372  -2.030  -0.303  1.00  0.00    -0.246 OA
BRANCH  38  40
ATOM     40  C   UNL     1       5.704  -1.419  -2.551  1.00  0.00     0.060 A 
ATOM     41  C   UNL     1       5.022  -2.455  -3.203  1.00  0.00     0.016 A 
ATOM     42  C   UNL     1       6.787  -0.792  -3.166  1.00  0.00     0.016 A 
ATOM     43  C   UNL     1       5.447  -2.899  -4.454  1.00  0.00     0.010 A 
ATOM     44  C   UNL     1       7.213  -1.242  -4.426  1.00  0.00     0.010 A 
ATOM     45  C   UNL     1       6.569  -2.321  -5.061  1.00  0.00    -0.014 A 
BRANCH  45  46
ATOM     46  C   UNL     1       7.127  -2.927  -6.300  1.00  0.00     0.031 A 
ATOM     47  C   UNL     1       8.374  -3.770  -6.226  1.00  0.00     0.074 A 
ATOM     48  C   UNL     1       6.505  -2.764  -7.482  1.00  0.00     0.049 A 
ATOM     49  N   UNL     1       9.017  -4.387  -7.185  1.00  0.00    -0.248 NA
ATOM     50  C   UNL     1       8.975  -3.939  -4.894  1.00  0.00     0.031 C 
ATOM     51  C   UNL     1       5.261  -2.024  -7.686  1.00  0.00     0.029 A 
ATOM     52  N   UNL     1       6.835  -3.219  -8.735  1.00  0.00    -0.354 N 
ATOM     53  C   UNL     1      10.106  -5.003  -6.579  1.00  0.00     0.074 A 
ATOM     54  C   UNL     1      10.051  -4.659  -5.173  1.00  0.00     0.031 C 
ATOM     55  C   UNL     1       4.926  -2.085  -8.986  1.00  0.00     0.029 A 
ATOM     56  C   UNL     1       5.952  -2.829  -9.713  1.00  0.00     0.049 A 
ATOM     57  H   UNL     1       7.630  -3.772  -8.916  1.00  0.00     0.167 HD
ATOM     58  C   UNL     1      11.065  -5.785  -7.137  1.00  0.00     0.031 A 
ATOM     59  C   UNL     1       5.971  -3.035 -11.046  1.00  0.00     0.031 A 
ATOM     60  C   UNL     1      11.130  -6.110  -8.540  1.00  0.00     0.049 A 
ATOM     61  C   UNL     1       7.093  -3.828 -11.660  1.00  0.00     0.074 A 
ATOM     62  C   UNL     1      12.048  -6.912  -9.196  1.00  0.00     0.029 A 
ATOM     63  N   UNL     1      10.254  -5.637  -9.507  1.00  0.00    -0.354 N 
ATOM     64  N   UNL     1       8.102  -4.425 -11.069  1.00  0.00    -0.248 NA
ATOM     65  C   UNL     1       7.075  -3.981 -13.121  1.00  0.00     0.031 C 
ATOM     66  C   UNL     1      11.772  -6.864 -10.567  1.00  0.00     0.029 A 
ATOM     67  C   UNL     1      10.634  -6.096 -10.758  1.00  0.00     0.049 A 
ATOM     68  H   UNL     1       9.476  -5.060  -9.330  1.00  0.00     0.167 HD
ATOM     69  C   UNL     1       8.821  -5.050 -12.084  1.00  0.00     0.074 A 
ATOM     70  C   UNL     1       8.126  -4.765 -13.323  1.00  0.00     0.031 C 
ATOM     71  C   UNL     1       9.948  -5.799 -11.993  1.00  0.00     0.031 A 
BRANCH  58  72
ATOM     72  C   UNL     1      12.159  -6.292  -6.229  1.00  0.00    -0.014 A 
ATOM     73  C   UNL     1      11.902  -7.232  -5.214  1.00  0.00     0.010 A 
ATOM     74  C   UNL     1      13.473  -5.815  -6.396  1.00  0.00     0.010 A 
ATOM     75  C   UNL     1      12.921  -7.631  -4.342  1.00  0.00     0.020 A 
ATOM     76  C   UNL     1      14.502  -6.237  -5.550  1.00  0.00     0.020 A 
ATOM     77  C   UNL     1      14.212  -7.121  -4.509  1.00  0.00     0.054 A 
BRANCH  77  78
ATOM     78  S   UNL     1      15.509  -7.632  -3.348  1.00  0.00     0.124 S 
ATOM     79  O   UNL     1      15.122  -6.919  -2.133  1.00  0.00    -0.237 OA
ATOM     80  O   UNL     1      15.347  -9.083  -3.304  1.00  0.00    -0.237 OA
ATOM     81  O   UNL     1      16.743  -7.164  -3.976  1.00  0.00    -0.744 OA
ENDBRANCH  77  78
ENDBRANCH  58  72
BRANCH  59  82
ATOM     82  C   UNL     1       4.876  -2.481 -11.889  1.00  0.00    -0.014 A 
ATOM     83  C   UNL     1       3.933  -3.337 -12.482  1.00  0.00     0.010 A 
ATOM     84  C   UNL     1       4.749  -1.091 -12.070  1.00  0.00     0.010 A 
ATOM     85  C   UNL     1       2.878  -2.815 -13.235  1.00  0.00     0.020 A 
ATOM     86  C   UNL     1       3.679  -0.564 -12.799  1.00  0.00     0.020 A 
ATOM     87  C   UNL     1       2.751  -1.430 -13.379  1.00  0.00     0.054 A 
BRANCH  87  88
ATOM     88  S   UNL     1       1.320  -0.776 -14.282  1.00  0.00     0.124 S 
ATOM     89  O   UNL     1       1.625  -1.157 -15.656  1.00  0.00    -0.237 OA
ATOM     90  O   UNL     1       0.206  -1.487 -13.659  1.00  0.00    -0.237 OA
ATOM     91  O   UNL     1       1.366   0.658 -14.004  1.00  0.00    -0.744 OA
ENDBRANCH  87  88
ENDBRANCH  59  82
BRANCH  71  92
ATOM     92  C   UNL     1      10.494  -6.397 -13.266  1.00  0.00    -0.014 A 
ATOM     93  C   UNL     1      11.093  -5.599 -14.257  1.00  0.00     0.010 A 
ATOM     94  C   UNL     1      10.454  -7.793 -13.448  1.00  0.00     0.010 A 
ATOM     95  C   UNL     1      11.610  -6.181 -15.419  1.00  0.00     0.020 A 
ATOM     96  C   UNL     1      10.998  -8.382 -14.593  1.00  0.00     0.020 A 
ATOM     97  C   UNL     1      11.561  -7.570 -15.579  1.00  0.00     0.054 A 
BRANCH  97  98
ATOM     98  S   UNL     1      12.278  -8.303 -17.075  1.00  0.00     0.124 S 
ATOM     99  O   UNL     1      11.317  -7.907 -18.100  1.00  0.00    -0.237 OA
ATOM    100  O   UNL     1      13.585  -7.655 -17.155  1.00  0.00    -0.237 OA
ATOM    101  O   UNL     1      12.316  -9.733 -16.778  1.00  0.00    -0.744 OA
ENDBRANCH  97  98
ENDBRANCH  71  92
ENDBRANCH  45  46
ENDBRANCH  38  40
ENDBRANCH  37  38
ENDBRANCH  36  37
ENDBRANCH  35  36
ENDBRANCH  34  35
ENDBRANCH   1  34
TORSDOF 24
