REMARK SMILES CC(C)[C@H](NC(=O)Cn1ccc2c(Br)cccc21)C(=O)OCCOCCOC(=O)c1ccc(-c2c3nc(c(-c4ccc(S(=O)(=O)[O-])cc4)c4ccc([nH]4)c(-c4ccc(S(=O)(=O)[O-])cc4)c4nc(c(-c5ccc(S(=O)(=O)[O-])cc5)c5ccc2[nH]5)C=C4)C=C3)cc1
REMARK SMILES IDX 24 1 23 2 22 3 21 4 19 5 20 6 4 7 2 8 1 9 3 10 5 11 6 12
REMARK SMILES IDX 7 14 8 15 9 16 10 17 18 18 11 19 12 20 17 21 13 22 16 23
REMARK SMILES IDX 14 24 15 25 25 26 26 27 27 28 28 29 29 30 30 31 31 32 89 33
REMARK SMILES IDX 32 34 88 35 33 36 34 37 35 38 82 39 36 40 87 41 81 42 83 43
REMARK SMILES IDX 37 44 86 45 80 46 79 47 38 49 68 50 49 51 67 52 50 53 53 54
REMARK SMILES IDX 66 55 84 56 51 57 52 58 65 60 85 61 54 62 39 63 40 64 48 65
REMARK SMILES IDX 41 66 47 67 42 68 43 69 44 70 45 71 46 72 69 73 70 74 78 75
REMARK SMILES IDX 71 76 77 77 72 78 73 79 74 80 75 81 76 82 55 83 56 84 64 85
REMARK SMILES IDX 57 86 63 87 58 88 59 89 60 90 61 91 62 92
REMARK H PARENT 5 13 83 48 53 59
REMARK Flexibility Score: inf
ROOT
ATOM      1  O   UNL     1      -1.908   5.296   1.052  1.00  0.00    -0.374 OA
ENDROOT
BRANCH   1   2
ATOM      2  C   UNL     1      -1.866   4.942   2.440  1.00  0.00     0.202 C 
BRANCH   2   3
ATOM      3  C   UNL     1      -2.641   3.668   2.748  1.00  0.00     0.261 C 
BRANCH   3   4
ATOM      4  O   UNL     1      -1.874   2.517   2.335  1.00  0.00    -0.462 OA
BRANCH   4   5
ATOM      5  C   UNL     1      -2.335   1.881   1.236  1.00  0.00     0.328 C 
ATOM      6  O   UNL     1      -3.378   2.164   0.652  1.00  0.00    -0.250 OA
BRANCH   5   7
ATOM      7  C   UNL     1      -1.456   0.699   0.783  1.00  0.00     0.194 C 
BRANCH   7   8
ATOM      8  C   UNL     1      -2.085  -0.672   1.108  1.00  0.00     0.017 C 
ATOM      9  C   UNL     1      -3.575  -0.636   1.460  1.00  0.00     0.010 C 
ATOM     10  C   UNL     1      -1.829  -1.653  -0.036  1.00  0.00     0.010 C 
ENDBRANCH   7   8
BRANCH   7  11
ATOM     11  N   UNL     1       0.010   0.785   1.000  1.00  0.00    -0.341 N 
ATOM     12  C   UNL     1       0.939   0.262   1.839  1.00  0.00     0.240 C 
ATOM     13  H   UNL     1       0.427   1.395   0.350  1.00  0.00     0.164 HD
ATOM     14  O   UNL     1       2.115   0.547   1.574  1.00  0.00    -0.273 OA
BRANCH  12  15
ATOM     15  C   UNL     1       0.647  -0.671   2.996  1.00  0.00     0.222 C 
BRANCH  15  16
ATOM     16  N   UNL     1      -0.209  -0.087   4.016  1.00  0.00    -0.338 N 
ATOM     17  C   UNL     1      -1.317  -0.694   4.550  1.00  0.00     0.087 A 
ATOM     18  C   UNL     1      -0.021   1.149   4.600  1.00  0.00     0.050 A 
ATOM     19  C   UNL     1      -1.944   0.221   5.362  1.00  0.00     0.029 A 
ATOM     20  C   UNL     1      -1.140   1.396   5.402  1.00  0.00     0.014 A 
ATOM     21  C   UNL     1       1.021   2.078   4.467  1.00  0.00     0.027 A 
ATOM     22  C   UNL     1      -1.243   2.651   6.040  1.00  0.00     0.027 A 
ATOM     23  C   UNL     1       0.898   3.297   5.133  1.00  0.00     0.003 A 
ATOM     24  Br  UNL     1      -2.754   3.085   7.096  1.00  0.00    -0.050 Br
ATOM     25  C   UNL     1      -0.231   3.601   5.883  1.00  0.00     0.016 A 
ENDBRANCH  15  16
ENDBRANCH  12  15
ENDBRANCH   7  11
ENDBRANCH   5   7
ENDBRANCH   4   5
ENDBRANCH   3   4
ENDBRANCH   2   3
ENDBRANCH   1   2
BRANCH   1  26
ATOM     26  C   UNL     1      -0.968   4.648   0.200  1.00  0.00     0.202 C 
BRANCH  26  27
ATOM     27  C   UNL     1       0.371   5.350   0.103  1.00  0.00     0.261 C 
BRANCH  27  28
ATOM     28  O   UNL     1       1.070   5.176   1.320  1.00  0.00    -0.460 OA
BRANCH  28  29
ATOM     29  C   UNL     1       1.048   6.208   2.192  1.00  0.00     0.338 C 
ATOM     30  O   UNL     1       0.343   7.189   2.177  1.00  0.00    -0.246 OA
BRANCH  29  31
ATOM     31  C   UNL     1       2.159   5.961   3.118  1.00  0.00     0.060 A 
ATOM     32  C   UNL     1       2.417   6.919   4.100  1.00  0.00     0.016 A 
ATOM     33  C   UNL     1       3.043   4.896   2.853  1.00  0.00     0.016 A 
ATOM     34  C   UNL     1       3.675   6.938   4.655  1.00  0.00     0.010 A 
ATOM     35  C   UNL     1       4.286   4.910   3.409  1.00  0.00     0.010 A 
ATOM     36  C   UNL     1       4.607   5.998   4.203  1.00  0.00    -0.014 A 
BRANCH  36  37
ATOM     37  C   UNL     1       5.997   6.207   4.491  1.00  0.00     0.031 A 
ATOM     38  C   UNL     1       6.380   5.777   5.842  1.00  0.00     0.074 A 
ATOM     39  C   UNL     1       6.818   6.674   3.533  1.00  0.00     0.049 A 
ATOM     40  N   UNL     1       6.556   6.542   6.864  1.00  0.00    -0.248 NA
ATOM     41  C   UNL     1       6.346   4.340   6.158  1.00  0.00     0.031 C 
ATOM     42  C   UNL     1       6.572   6.853   2.098  1.00  0.00     0.029 A 
ATOM     43  N   UNL     1       8.118   7.015   3.652  1.00  0.00    -0.354 N 
ATOM     44  C   UNL     1       6.909   5.693   7.899  1.00  0.00     0.074 A 
ATOM     45  C   UNL     1       6.545   4.363   7.477  1.00  0.00     0.031 C 
ATOM     46  C   UNL     1       7.756   7.028   1.463  1.00  0.00     0.029 A 
ATOM     47  C   UNL     1       8.812   7.116   2.457  1.00  0.00     0.049 A 
ATOM     48  H   UNL     1       8.542   7.180   4.525  1.00  0.00     0.167 HD
ATOM     49  C   UNL     1       7.734   6.110   8.895  1.00  0.00     0.031 A 
ATOM     50  C   UNL     1      10.165   7.170   2.339  1.00  0.00     0.031 A 
ATOM     51  C   UNL     1       7.894   7.542   8.893  1.00  0.00     0.049 A 
ATOM     52  C   UNL     1      10.670   7.646   3.664  1.00  0.00     0.074 A 
ATOM     53  C   UNL     1       7.013   8.600   9.021  1.00  0.00     0.029 A 
ATOM     54  N   UNL     1       9.011   8.049   8.265  1.00  0.00    -0.354 N 
ATOM     55  N   UNL     1      10.384   8.829   4.147  1.00  0.00    -0.248 NA
ATOM     56  C   UNL     1      11.017   6.641   4.663  1.00  0.00     0.031 C 
ATOM     57  C   UNL     1       7.433   9.545   8.040  1.00  0.00     0.029 A 
ATOM     58  C   UNL     1       8.597   9.063   7.435  1.00  0.00     0.049 A 
ATOM     59  H   UNL     1       9.938   7.741   8.389  1.00  0.00     0.167 HD
ATOM     60  C   UNL     1      10.105   8.617   5.493  1.00  0.00     0.074 A 
ATOM     61  C   UNL     1      10.577   7.257   5.766  1.00  0.00     0.031 C 
ATOM     62  C   UNL     1       9.248   9.424   6.189  1.00  0.00     0.031 A 
BRANCH  49  63
ATOM     63  C   UNL     1       8.695   5.187   9.581  1.00  0.00    -0.014 A 
ATOM     64  C   UNL     1       9.349   5.615  10.748  1.00  0.00     0.010 A 
ATOM     65  C   UNL     1       9.162   4.003   8.970  1.00  0.00     0.010 A 
ATOM     66  C   UNL     1      10.441   4.903  11.260  1.00  0.00     0.020 A 
ATOM     67  C   UNL     1      10.218   3.263   9.495  1.00  0.00     0.020 A 
ATOM     68  C   UNL     1      10.868   3.733  10.626  1.00  0.00     0.054 A 
BRANCH  68  69
ATOM     69  S   UNL     1      12.339   2.879  11.240  1.00  0.00     0.124 S 
ATOM     70  O   UNL     1      13.351   3.930  11.175  1.00  0.00    -0.237 OA
ATOM     71  O   UNL     1      11.921   2.482  12.582  1.00  0.00    -0.237 OA
ATOM     72  O   UNL     1      12.518   1.780  10.295  1.00  0.00    -0.744 OA
ENDBRANCH  68  69
ENDBRANCH  49  63
BRANCH  50  73
ATOM     73  C   UNL     1      10.979   6.370   1.373  1.00  0.00    -0.014 A 
ATOM     74  C   UNL     1      12.382   6.483   1.324  1.00  0.00     0.010 A 
ATOM     75  C   UNL     1      10.400   5.291   0.667  1.00  0.00     0.010 A 
ATOM     76  C   UNL     1      13.171   5.519   0.663  1.00  0.00     0.020 A 
ATOM     77  C   UNL     1      11.175   4.333   0.002  1.00  0.00     0.020 A 
ATOM     78  C   UNL     1      12.561   4.433   0.031  1.00  0.00     0.054 A 
BRANCH  78  79
ATOM     79  S   UNL     1      13.582   3.101  -0.670  1.00  0.00     0.124 S 
ATOM     80  O   UNL     1      14.395   3.809  -1.653  1.00  0.00    -0.237 OA
ATOM     81  O   UNL     1      14.296   2.606   0.504  1.00  0.00    -0.237 OA
ATOM     82  O   UNL     1      12.602   2.173  -1.233  1.00  0.00    -0.744 OA
ENDBRANCH  78  79
ENDBRANCH  50  73
BRANCH  62  83
ATOM     83  C   UNL     1       8.751  10.702   5.543  1.00  0.00    -0.014 A 
ATOM     84  C   UNL     1       7.870  10.740   4.442  1.00  0.00     0.010 A 
ATOM     85  C   UNL     1       9.013  11.902   6.228  1.00  0.00     0.010 A 
ATOM     86  C   UNL     1       7.273  11.950   4.041  1.00  0.00     0.020 A 
ATOM     87  C   UNL     1       8.412  13.102   5.844  1.00  0.00     0.020 A 
ATOM     88  C   UNL     1       7.542  13.123   4.754  1.00  0.00     0.054 A 
BRANCH  88  89
ATOM     89  S   UNL     1       6.734  14.678   4.272  1.00  0.00     0.124 S 
ATOM     90  O   UNL     1       7.136  14.834   2.877  1.00  0.00    -0.237 OA
ATOM     91  O   UNL     1       5.319  14.384   4.490  1.00  0.00    -0.237 OA
ATOM     92  O   UNL     1       7.302  15.666   5.189  1.00  0.00    -0.744 OA
ENDBRANCH  88  89
ENDBRANCH  62  83
ENDBRANCH  36  37
ENDBRANCH  29  31
ENDBRANCH  28  29
ENDBRANCH  27  28
ENDBRANCH  26  27
ENDBRANCH   1  26
TORSDOF 21
