REMARK SMILES COc1ccc(NC(=O)[C@H]2[C@@H](C(=O)OCCOCCOC(=O)c3ccc(-c4c5nc(c(-c6ccc(S(=O)(=O)[O-])cc6)c6ccc([nH]6)c(-c6ccc(S(=O)(=O)[O-])cc6)c6nc(c(-c7ccc(S(=O)(=O)[O-])cc7)c7ccc4[nH]7)C=C6)C=C5)cc3)[C@H]3C=C[C@@H]2C3)c(C)c1
REMARK SMILES IDX 17 1 16 2 15 3 14 4 12 5 13 6 11 7 10 8 86 9 83 10 85 11
REMARK SMILES IDX 87 12 84 13 8 14 7 15 9 17 6 18 3 19 4 20 90 21 5 22 88 23
REMARK SMILES IDX 89 24 2 25 1 26 18 27 19 28 20 29 21 30 22 31 23 32 24 33
REMARK SMILES IDX 82 34 25 35 81 36 26 37 27 38 28 39 75 40 29 41 80 42 74 43
REMARK SMILES IDX 76 44 30 45 79 46 73 47 72 48 31 50 61 51 42 52 60 53 43 54
REMARK SMILES IDX 46 55 59 56 77 57 44 58 45 59 58 61 78 62 47 63 32 64 33 65
REMARK SMILES IDX 41 66 34 67 40 68 35 69 36 70 37 71 38 72 39 73 62 74 63 75
REMARK SMILES IDX 71 76 64 77 70 78 65 79 66 80 67 81 68 82 69 83 48 84 49 85
REMARK SMILES IDX 57 86 50 87 56 88 51 89 52 90 53 91 54 92 55 93
REMARK H PARENT 7 16 76 49 46 60
REMARK Flexibility Score: inf
ROOT
ATOM      1  O   UNL     1       4.697   0.948  -5.399  1.00  0.00    -0.374 OA
ENDROOT
BRANCH   1   2
ATOM      2  C   UNL     1       4.907   0.132  -4.251  1.00  0.00     0.202 C 
BRANCH   2   3
ATOM      3  C   UNL     1       5.716   0.989  -3.307  1.00  0.00     0.261 C 
BRANCH   3   4
ATOM      4  O   UNL     1       4.895   1.994  -2.691  1.00  0.00    -0.463 OA
BRANCH   4   5
ATOM      5  C   UNL     1       4.529   3.091  -3.406  1.00  0.00     0.310 C 
ATOM      6  O   UNL     1       4.913   3.399  -4.525  1.00  0.00    -0.252 OA
BRANCH   5   7
ATOM      7  C   UNL     1       3.399   3.805  -2.702  1.00  0.00     0.119 C 
ATOM      8  C   UNL     1       3.522   5.333  -2.403  1.00  0.00     0.100 C 
ATOM      9  C   UNL     1       3.261   5.380  -0.871  1.00  0.00     0.025 C 
ATOM     10  C   UNL     1       2.975   3.213  -1.325  1.00  0.00     0.027 C 
ATOM     11  C   UNL     1       4.322   4.615  -0.112  1.00  0.00    -0.027 C 
ATOM     12  C   UNL     1       2.123   4.354  -0.766  1.00  0.00     0.017 C 
ATOM     13  C   UNL     1       4.123   3.313  -0.352  1.00  0.00    -0.027 C 
BRANCH   8  14
ATOM     14  C   UNL     1       4.716   6.150  -2.852  1.00  0.00     0.228 C 
ATOM     15  N   UNL     1       4.784   7.509  -2.731  1.00  0.00    -0.326 N 
ATOM     16  H   UNL     1       5.685   7.859  -2.918  1.00  0.00     0.169 HD
ATOM     17  O   UNL     1       5.682   5.622  -3.391  1.00  0.00    -0.274 OA
BRANCH  15  18
ATOM     18  C   UNL     1       3.868   8.528  -2.402  1.00  0.00     0.044 A 
ATOM     19  C   UNL     1       2.105  10.581  -1.619  1.00  0.00     0.119 A 
ATOM     20  C   UNL     1       1.629   9.301  -1.836  1.00  0.00     0.048 A 
ATOM     21  C   UNL     1       3.431  10.879  -1.903  1.00  0.00     0.052 A 
ATOM     22  C   UNL     1       2.505   8.295  -2.221  1.00  0.00     0.030 A 
ATOM     23  C   UNL     1       4.328   9.861  -2.286  1.00  0.00    -0.024 A 
ATOM     24  C   UNL     1       5.752  10.262  -2.563  1.00  0.00     0.047 C 
BRANCH  19  25
ATOM     25  O   UNL     1       1.299  11.576  -1.143  1.00  0.00    -0.497 OA
ATOM     26  C   UNL     1       0.676  11.174   0.079  1.00  0.00     0.278 C 
ENDBRANCH  19  25
ENDBRANCH  15  18
ENDBRANCH   8  14
ENDBRANCH   5   7
ENDBRANCH   4   5
ENDBRANCH   3   4
ENDBRANCH   2   3
ENDBRANCH   1   2
BRANCH   1  27
ATOM     27  C   UNL     1       3.808   0.478  -6.382  1.00  0.00     0.202 C 
BRANCH  27  28
ATOM     28  C   UNL     1       4.345  -0.754  -7.106  1.00  0.00     0.261 C 
BRANCH  28  29
ATOM     29  O   UNL     1       5.543  -0.410  -7.829  1.00  0.00    -0.460 OA
BRANCH  29  30
ATOM     30  C   UNL     1       6.693  -0.903  -7.273  1.00  0.00     0.338 C 
ATOM     31  O   UNL     1       6.999  -2.067  -7.270  1.00  0.00    -0.246 OA
BRANCH  30  32
ATOM     32  C   UNL     1       7.482   0.212  -6.664  1.00  0.00     0.060 A 
ATOM     33  C   UNL     1       8.441  -0.059  -5.671  1.00  0.00     0.016 A 
ATOM     34  C   UNL     1       7.141   1.531  -6.956  1.00  0.00     0.016 A 
ATOM     35  C   UNL     1       9.005   0.991  -4.923  1.00  0.00     0.010 A 
ATOM     36  C   UNL     1       7.638   2.550  -6.167  1.00  0.00     0.010 A 
ATOM     37  C   UNL     1       8.573   2.297  -5.149  1.00  0.00    -0.014 A 
BRANCH  37  38
ATOM     38  C   UNL     1       8.948   3.485  -4.376  1.00  0.00     0.031 A 
ATOM     39  C   UNL     1       9.637   4.601  -5.084  1.00  0.00     0.074 A 
ATOM     40  C   UNL     1       8.408   3.720  -3.155  1.00  0.00     0.049 A 
ATOM     41  N   UNL     1      10.096   5.660  -4.508  1.00  0.00    -0.248 NA
ATOM     42  C   UNL     1       9.909   4.601  -6.525  1.00  0.00     0.031 C 
ATOM     43  C   UNL     1       8.198   5.026  -2.534  1.00  0.00     0.029 A 
ATOM     44  N   UNL     1       7.939   2.830  -2.179  1.00  0.00    -0.354 N 
ATOM     45  C   UNL     1      10.267   6.606  -5.490  1.00  0.00     0.074 A 
ATOM     46  C   UNL     1      10.330   5.856  -6.718  1.00  0.00     0.031 C 
ATOM     47  C   UNL     1       7.859   4.868  -1.246  1.00  0.00     0.029 A 
ATOM     48  C   UNL     1       8.080   3.473  -0.931  1.00  0.00     0.049 A 
ATOM     49  H   UNL     1       7.580   1.927  -2.334  1.00  0.00     0.167 HD
ATOM     50  C   UNL     1      10.148   7.926  -5.167  1.00  0.00     0.031 A 
ATOM     51  C   UNL     1       8.958   3.010   0.005  1.00  0.00     0.031 A 
ATOM     52  C   UNL     1      10.040   8.127  -3.713  1.00  0.00     0.049 A 
ATOM     53  C   UNL     1      10.056   4.016   0.282  1.00  0.00     0.074 A 
ATOM     54  C   UNL     1       9.076   8.681  -2.893  1.00  0.00     0.029 A 
ATOM     55  N   UNL     1      10.935   7.489  -2.856  1.00  0.00    -0.354 N 
ATOM     56  N   UNL     1      10.215   5.092  -0.441  1.00  0.00    -0.248 NA
ATOM     57  C   UNL     1      11.051   3.946   1.346  1.00  0.00     0.031 C 
ATOM     58  C   UNL     1       9.380   8.340  -1.541  1.00  0.00     0.029 A 
ATOM     59  C   UNL     1      10.562   7.619  -1.531  1.00  0.00     0.049 A 
ATOM     60  H   UNL     1      11.736   7.003  -3.158  1.00  0.00     0.167 HD
ATOM     61  C   UNL     1      11.201   5.881   0.052  1.00  0.00     0.074 A 
ATOM     62  C   UNL     1      11.751   5.082   1.137  1.00  0.00     0.031 C 
ATOM     63  C   UNL     1      11.448   7.117  -0.478  1.00  0.00     0.031 A 
BRANCH  50  64
ATOM     64  C   UNL     1       9.916   9.041  -6.182  1.00  0.00    -0.014 A 
ATOM     65  C   UNL     1       9.855  10.384  -5.754  1.00  0.00     0.010 A 
ATOM     66  C   UNL     1       9.667   8.833  -7.557  1.00  0.00     0.010 A 
ATOM     67  C   UNL     1       9.573  11.445  -6.638  1.00  0.00     0.020 A 
ATOM     68  C   UNL     1       9.421   9.883  -8.458  1.00  0.00     0.020 A 
ATOM     69  C   UNL     1       9.366  11.188  -7.991  1.00  0.00     0.054 A 
BRANCH  69  70
ATOM     70  S   UNL     1       9.019  12.557  -9.129  1.00  0.00     0.124 S 
ATOM     71  O   UNL     1       7.718  13.029  -8.663  1.00  0.00    -0.237 OA
ATOM     72  O   UNL     1      10.140  13.462  -8.890  1.00  0.00    -0.237 OA
ATOM     73  O   UNL     1       9.011  11.923 -10.446  1.00  0.00    -0.744 OA
ENDBRANCH  69  70
ENDBRANCH  50  64
BRANCH  51  74
ATOM     74  C   UNL     1       8.953   1.517   0.093  1.00  0.00    -0.014 A 
ATOM     75  C   UNL     1       7.801   0.932   0.678  1.00  0.00     0.010 A 
ATOM     76  C   UNL     1       9.691   0.747  -0.825  1.00  0.00     0.010 A 
ATOM     77  C   UNL     1       7.300  -0.297   0.222  1.00  0.00     0.020 A 
ATOM     78  C   UNL     1       9.186  -0.486  -1.286  1.00  0.00     0.020 A 
ATOM     79  C   UNL     1       7.966  -0.972  -0.800  1.00  0.00     0.054 A 
BRANCH  79  80
ATOM     80  S   UNL     1       7.084  -2.299  -1.701  1.00  0.00     0.124 S 
ATOM     81  O   UNL     1       7.405  -3.482  -0.913  1.00  0.00    -0.237 OA
ATOM     82  O   UNL     1       5.686  -1.870  -1.647  1.00  0.00    -0.237 OA
ATOM     83  O   UNL     1       7.673  -2.241  -3.037  1.00  0.00    -0.744 OA
ENDBRANCH  79  80
ENDBRANCH  51  74
BRANCH  63  84
ATOM     84  C   UNL     1      12.600   7.993  -0.078  1.00  0.00    -0.014 A 
ATOM     85  C   UNL     1      13.153   8.028   1.206  1.00  0.00     0.010 A 
ATOM     86  C   UNL     1      13.159   8.856  -1.051  1.00  0.00     0.010 A 
ATOM     87  C   UNL     1      14.318   8.761   1.459  1.00  0.00     0.020 A 
ATOM     88  C   UNL     1      14.300   9.611  -0.805  1.00  0.00     0.020 A 
ATOM     89  C   UNL     1      14.905   9.513   0.438  1.00  0.00     0.054 A 
BRANCH  89  90
ATOM     90  S   UNL     1      16.479  10.343   0.741  1.00  0.00     0.124 S 
ATOM     91  O   UNL     1      16.254  10.987   2.033  1.00  0.00    -0.237 OA
ATOM     92  O   UNL     1      17.411   9.219   0.753  1.00  0.00    -0.237 OA
ATOM     93  O   UNL     1      16.617  11.257  -0.390  1.00  0.00    -0.744 OA
ENDBRANCH  89  90
ENDBRANCH  63  84
ENDBRANCH  37  38
ENDBRANCH  30  32
ENDBRANCH  29  30
ENDBRANCH  28  29
ENDBRANCH  27  28
ENDBRANCH   1  27
TORSDOF 20
