REMARK SMILES C[C@H]1CCCC[C@H]1[N@H+]1[C@@H](C(=O)OCCOCCOC(=O)c2ccc(-c3c4nc(c(-c5ccc(S(=O)(=O)[O-])cc5)c5ccc([nH]5)c(-c5ccc(S(=O)(=O)[O-])cc5)c5nc(c(-c6ccc(S(=O)(=O)[O-])cc6)c6ccc3[nH]6)C=C5)C=C4)cc2)CC[C@H]2CCCC[C@H]21
REMARK SMILES IDX 16 1 15 2 14 3 13 4 12 5 10 6 11 7 9 8 8 9 88 10 81 12 83 13
REMARK SMILES IDX 87 14 82 15 84 16 86 17 85 18 7 19 1 20 2 21 3 22 4 23 6 24
REMARK SMILES IDX 5 25 17 26 18 27 19 28 20 29 21 30 22 31 80 32 23 33 79 34
REMARK SMILES IDX 24 35 25 36 26 37 73 38 27 39 78 40 72 41 74 42 28 43 77 44
REMARK SMILES IDX 71 45 70 46 29 48 59 49 40 50 58 51 41 52 44 53 57 54 75 55
REMARK SMILES IDX 42 56 43 57 56 59 76 60 45 61 30 62 31 63 39 64 32 65 38 66
REMARK SMILES IDX 33 67 34 68 35 69 36 70 37 71 60 72 61 73 69 74 62 75 68 76
REMARK SMILES IDX 63 77 64 78 65 79 66 80 67 81 46 82 47 83 55 84 48 85 54 86
REMARK SMILES IDX 49 87 50 88 51 89 52 90 53 91
REMARK H PARENT 8 11 74 47 44 58
REMARK Flexibility Score: inf
ROOT
ATOM      1  C   UNL     1      -4.322   0.041   1.156  1.00  0.00     0.202 C 
ENDROOT
BRANCH   1   2
ATOM      2  O   UNL     1      -4.832  -0.197  -0.165  1.00  0.00    -0.374 OA
BRANCH   2   3
ATOM      3  C   UNL     1      -4.141  -0.955  -1.171  1.00  0.00     0.202 C 
BRANCH   3   4
ATOM      4  C   UNL     1      -3.526  -0.158  -2.360  1.00  0.00     0.261 C 
BRANCH   4   5
ATOM      5  O   UNL     1      -2.115  -0.511  -2.592  1.00  0.00    -0.459 OA
BRANCH   5   6
ATOM      6  C   UNL     1      -1.293   0.464  -3.084  1.00  0.00     0.365 C 
ATOM      7  O   UNL     1      -1.738   1.523  -3.532  1.00  0.00    -0.245 OA
BRANCH   6   8
ATOM      8  C   UNL     1       0.254   0.209  -3.046  1.00  0.00     0.295 C 
ATOM      9  N   UNL     1       0.872  -0.943  -2.328  1.00  0.00    -0.318 N 
ATOM     10  C   UNL     1       2.399  -0.935  -3.005  1.00  0.00     0.188 C 
ATOM     11  H   UNL     1       0.448  -1.865  -2.430  1.00  0.00     0.349 HD
ATOM     12  C   UNL     1       1.126   1.391  -2.583  1.00  0.00     0.078 C 
ATOM     13  C   UNL     1       3.118  -0.563  -1.777  1.00  0.00     0.048 C 
ATOM     14  C   UNL     1       3.498  -1.803  -3.749  1.00  0.00     0.065 C 
ATOM     15  C   UNL     1       2.547   1.001  -1.900  1.00  0.00     0.016 C 
ATOM     16  C   UNL     1       2.914  -2.121  -1.148  1.00  0.00     0.010 C 
ATOM     17  C   UNL     1       4.288  -2.924  -3.060  1.00  0.00     0.006 C 
ATOM     18  C   UNL     1       3.955  -3.129  -1.604  1.00  0.00     0.001 C 
BRANCH   9  19
ATOM     19  C   UNL     1       0.729  -0.724  -0.640  1.00  0.00     0.187 C 
ATOM     20  C   UNL     1       2.887   0.337   1.001  1.00  0.00     0.014 C 
ATOM     21  C   UNL     1       1.391   0.246   0.602  1.00  0.00     0.044 C 
ATOM     22  C   UNL     1       0.700   1.619   0.851  1.00  0.00     0.009 C 
ATOM     23  C   UNL     1      -0.793   1.440   1.040  1.00  0.00     0.001 C 
ATOM     24  C   UNL     1      -0.729  -0.787  -0.195  1.00  0.00     0.065 C 
ATOM     25  C   UNL     1      -1.330   0.600  -0.090  1.00  0.00     0.006 C 
ENDBRANCH   9  19
ENDBRANCH   6   8
ENDBRANCH   5   6
ENDBRANCH   4   5
ENDBRANCH   3   4
ENDBRANCH   2   3
ENDBRANCH   1   2
BRANCH   1  26
ATOM     26  C   UNL     1      -3.507  -1.003   1.964  1.00  0.00     0.261 C 
BRANCH  26  27
ATOM     27  O   UNL     1      -3.391  -2.280   1.345  1.00  0.00    -0.460 OA
BRANCH  27  28
ATOM     28  C   UNL     1      -4.456  -3.063   1.565  1.00  0.00     0.338 C 
ATOM     29  O   UNL     1      -5.334  -2.882   2.416  1.00  0.00    -0.246 OA
BRANCH  28  30
ATOM     30  C   UNL     1      -4.579  -4.058   0.497  1.00  0.00     0.060 A 
ATOM     31  C   UNL     1      -5.812  -4.088  -0.160  1.00  0.00     0.016 A 
ATOM     32  C   UNL     1      -3.582  -4.991   0.198  1.00  0.00     0.016 A 
ATOM     33  C   UNL     1      -6.112  -5.133  -1.019  1.00  0.00     0.010 A 
ATOM     34  C   UNL     1      -3.885  -6.043  -0.675  1.00  0.00     0.010 A 
ATOM     35  C   UNL     1      -5.177  -6.156  -1.224  1.00  0.00    -0.014 A 
BRANCH  35  36
ATOM     36  C   UNL     1      -5.661  -7.433  -1.805  1.00  0.00     0.031 A 
ATOM     37  C   UNL     1      -5.937  -8.587  -0.874  1.00  0.00     0.074 A 
ATOM     38  C   UNL     1      -5.967  -7.531  -3.111  1.00  0.00     0.049 A 
ATOM     39  N   UNL     1      -6.394  -9.782  -1.148  1.00  0.00    -0.248 NA
ATOM     40  C   UNL     1      -5.673  -8.362   0.558  1.00  0.00     0.031 C 
ATOM     41  C   UNL     1      -5.834  -6.457  -4.094  1.00  0.00     0.029 A 
ATOM     42  N   UNL     1      -6.475  -8.585  -3.829  1.00  0.00    -0.354 N 
ATOM     43  C   UNL     1      -6.453 -10.453   0.069  1.00  0.00     0.074 A 
ATOM     44  C   UNL     1      -5.961  -9.544   1.080  1.00  0.00     0.031 C 
ATOM     45  C   UNL     1      -6.257  -6.906  -5.288  1.00  0.00     0.029 A 
ATOM     46  C   UNL     1      -6.649  -8.309  -5.164  1.00  0.00     0.049 A 
ATOM     47  H   UNL     1      -6.694  -9.456  -3.425  1.00  0.00     0.167 HD
ATOM     48  C   UNL     1      -6.884 -11.710   0.325  1.00  0.00     0.031 A 
ATOM     49  C   UNL     1      -7.057  -9.104  -6.174  1.00  0.00     0.031 A 
ATOM     50  C   UNL     1      -7.376 -12.611  -0.682  1.00  0.00     0.049 A 
ATOM     51  C   UNL     1      -7.439 -10.532  -5.880  1.00  0.00     0.074 A 
ATOM     52  C   UNL     1      -7.838 -13.906  -0.524  1.00  0.00     0.029 A 
ATOM     53  N   UNL     1      -7.465 -12.316  -2.034  1.00  0.00    -0.354 N 
ATOM     54  N   UNL     1      -7.482 -11.154  -4.726  1.00  0.00    -0.248 NA
ATOM     55  C   UNL     1      -7.833 -11.364  -7.026  1.00  0.00     0.031 C 
ATOM     56  C   UNL     1      -8.141 -14.418  -1.788  1.00  0.00     0.029 A 
ATOM     57  C   UNL     1      -7.946 -13.415  -2.725  1.00  0.00     0.049 A 
ATOM     58  H   UNL     1      -7.223 -11.454  -2.442  1.00  0.00     0.167 HD
ATOM     59  C   UNL     1      -7.950 -12.436  -5.002  1.00  0.00     0.074 A 
ATOM     60  C   UNL     1      -8.175 -12.500  -6.431  1.00  0.00     0.031 C 
ATOM     61  C   UNL     1      -8.181 -13.462  -4.147  1.00  0.00     0.031 A 
BRANCH  48  62
ATOM     62  C   UNL     1      -6.792 -12.208   1.745  1.00  0.00    -0.014 A 
ATOM     63  C   UNL     1      -7.628 -11.709   2.760  1.00  0.00     0.010 A 
ATOM     64  C   UNL     1      -5.872 -13.227   2.057  1.00  0.00     0.010 A 
ATOM     65  C   UNL     1      -7.518 -12.193   4.067  1.00  0.00     0.020 A 
ATOM     66  C   UNL     1      -5.782 -13.736   3.355  1.00  0.00     0.020 A 
ATOM     67  C   UNL     1      -6.595 -13.203   4.356  1.00  0.00     0.054 A 
BRANCH  67  68
ATOM     68  S   UNL     1      -6.488 -13.827   6.056  1.00  0.00     0.124 S 
ATOM     69  O   UNL     1      -5.876 -12.699   6.753  1.00  0.00    -0.237 OA
ATOM     70  O   UNL     1      -7.886 -14.087   6.389  1.00  0.00    -0.237 OA
ATOM     71  O   UNL     1      -5.647 -15.015   5.939  1.00  0.00    -0.744 OA
ENDBRANCH  67  68
ENDBRANCH  48  62
BRANCH  49  72
ATOM     72  C   UNL     1      -7.101  -8.573  -7.565  1.00  0.00    -0.014 A 
ATOM     73  C   UNL     1      -8.323  -8.412  -8.239  1.00  0.00     0.010 A 
ATOM     74  C   UNL     1      -5.906  -8.228  -8.226  1.00  0.00     0.010 A 
ATOM     75  C   UNL     1      -8.349  -7.932  -9.553  1.00  0.00     0.020 A 
ATOM     76  C   UNL     1      -5.930  -7.719  -9.526  1.00  0.00     0.020 A 
ATOM     77  C   UNL     1      -7.152  -7.585 -10.186  1.00  0.00     0.054 A 
BRANCH  77  78
ATOM     78  S   UNL     1      -7.215  -6.920 -11.873  1.00  0.00     0.124 S 
ATOM     79  O   UNL     1      -7.585  -8.099 -12.651  1.00  0.00    -0.237 OA
ATOM     80  O   UNL     1      -8.240  -5.885 -11.765  1.00  0.00    -0.237 OA
ATOM     81  O   UNL     1      -5.859  -6.423 -12.097  1.00  0.00    -0.744 OA
ENDBRANCH  77  78
ENDBRANCH  49  72
BRANCH  61  82
ATOM     82  C   UNL     1      -8.769 -14.732  -4.707  1.00  0.00    -0.014 A 
ATOM     83  C   UNL     1      -8.013 -15.609  -5.503  1.00  0.00     0.010 A 
ATOM     84  C   UNL     1     -10.082 -15.094  -4.347  1.00  0.00     0.010 A 
ATOM     85  C   UNL     1      -8.566 -16.816  -5.944  1.00  0.00     0.020 A 
ATOM     86  C   UNL     1     -10.626 -16.313  -4.759  1.00  0.00     0.020 A 
ATOM     87  C   UNL     1      -9.867 -17.163  -5.563  1.00  0.00     0.054 A 
BRANCH  87  88
ATOM     88  S   UNL     1     -10.533 -18.766  -6.089  1.00  0.00     0.124 S 
ATOM     89  O   UNL     1     -10.742 -18.556  -7.519  1.00  0.00    -0.237 OA
ATOM     90  O   UNL     1      -9.456 -19.689  -5.740  1.00  0.00    -0.237 OA
ATOM     91  O   UNL     1     -11.752 -18.913  -5.297  1.00  0.00    -0.744 OA
ENDBRANCH  87  88
ENDBRANCH  61  82
ENDBRANCH  35  36
ENDBRANCH  28  30
ENDBRANCH  27  28
ENDBRANCH  26  27
ENDBRANCH   1  26
TORSDOF 18
