REMARK SMILES COc1ccc2c(c1)c(CC(=O)OCCOCCOC(=O)c1ccc(-c3c4nc(c(-c5ccc(S(=O)(=O)[O-])cc5)c5ccc([nH]5)c(-c5ccc(S(=O)(=O)[O-])cc5)c5nc(c(-c6ccc(S(=O)(=O)[O-])cc6)c6ccc3[nH]6)C=C5)C=C4)cc1)c(C)n2Cc1ccn(C(F)F)c(=O)c1
REMARK SMILES IDX 15 1 14 2 13 3 11 4 12 5 10 6 9 7 3 8 4 9 8 10 5 11 7 12
REMARK SMILES IDX 6 13 84 14 82 15 83 16 2 17 1 18 85 19 86 20 87 21 95 22
REMARK SMILES IDX 88 23 93 24 89 25 94 26 90 27 91 28 92 29 16 30 17 31 18 32
REMARK SMILES IDX 19 33 20 34 21 35 22 36 23 37 81 38 24 39 80 40 25 41 26 42
REMARK SMILES IDX 27 43 74 44 28 45 79 46 73 47 75 48 29 49 78 50 72 51 71 52
REMARK SMILES IDX 30 54 60 55 41 56 59 57 42 58 45 59 58 60 76 61 43 62 44 63
REMARK SMILES IDX 57 65 77 66 46 67 31 68 32 69 40 70 33 71 39 72 34 73 35 74
REMARK SMILES IDX 36 75 37 76 38 77 61 78 62 79 70 80 63 81 69 82 64 83 65 84
REMARK SMILES IDX 66 85 67 86 68 87 47 88 48 89 56 90 49 91 55 92 50 93 51 94
REMARK SMILES IDX 52 95 53 96 54 97
REMARK H PARENT 75 53 45 64
REMARK Flexibility Score: inf
ROOT
ATOM      1  C   UNL     1      -2.313   6.093  -2.203  1.00  0.00     0.202 C 
ENDROOT
BRANCH   1   2
ATOM      2  C   UNL     1      -2.346   7.108  -1.043  1.00  0.00     0.261 C 
BRANCH   2   3
ATOM      3  O   UNL     1      -1.674   6.710   0.165  1.00  0.00    -0.463 OA
BRANCH   3   4
ATOM      4  C   UNL     1      -2.508   6.249   1.136  1.00  0.00     0.310 C 
ATOM      5  O   UNL     1      -3.728   6.159   1.005  1.00  0.00    -0.252 OA
BRANCH   4   6
ATOM      6  C   UNL     1      -1.851   5.831   2.433  1.00  0.00     0.160 C 
BRANCH   6   7
ATOM      7  C   UNL     1      -0.359   5.614   2.479  1.00  0.00    -0.008 A 
ATOM      8  C   UNL     1       0.866   2.191   1.255  1.00  0.00     0.119 A 
ATOM      9  C   UNL     1       2.222   2.464   1.381  1.00  0.00     0.048 A 
ATOM     10  C   UNL     1      -0.066   3.154   1.657  1.00  0.00     0.057 A 
ATOM     11  C   UNL     1       2.667   3.693   1.904  1.00  0.00     0.031 A 
ATOM     12  C   UNL     1       0.347   4.425   2.115  1.00  0.00     0.007 A 
ATOM     13  C   UNL     1       1.714   4.664   2.276  1.00  0.00     0.049 A 
ATOM     14  N   UNL     1       1.841   5.926   2.847  1.00  0.00    -0.340 N 
ATOM     15  C   UNL     1       0.576   6.453   3.071  1.00  0.00     0.020 A 
ATOM     16  C   UNL     1       0.298   7.696   3.846  1.00  0.00     0.065 C 
BRANCH   8  17
ATOM     17  O   UNL     1       0.296   1.087   0.684  1.00  0.00    -0.497 OA
ATOM     18  C   UNL     1       1.127   0.008   0.287  1.00  0.00     0.278 C 
ENDBRANCH   8  17
BRANCH  14  19
ATOM     19  C   UNL     1       3.116   6.506   3.305  1.00  0.00     0.158 C 
BRANCH  19  20
ATOM     20  C   UNL     1       3.599   7.679   2.483  1.00  0.00    -0.021 A 
ATOM     21  C   UNL     1       3.051   8.995   2.751  1.00  0.00     0.024 A 
ATOM     22  C   UNL     1       4.550   7.572   1.537  1.00  0.00     0.077 A 
ATOM     23  C   UNL     1       3.279  10.015   1.919  1.00  0.00     0.095 A 
ATOM     24  C   UNL     1       4.919   8.741   0.681  1.00  0.00     0.255 A 
ATOM     25  N   UNL     1       4.149   9.878   0.857  1.00  0.00    -0.258 N 
ATOM     26  O   UNL     1       5.844   8.611  -0.115  1.00  0.00    -0.269 OA
BRANCH  25  27
ATOM     27  C   UNL     1       4.347  10.975  -0.057  1.00  0.00     0.451 C 
ATOM     28  F   UNL     1       5.561  11.546   0.139  1.00  0.00    -0.185 F 
ATOM     29  F   UNL     1       4.285  10.553  -1.343  1.00  0.00    -0.185 F 
ENDBRANCH  25  27
ENDBRANCH  19  20
ENDBRANCH  14  19
ENDBRANCH   6   7
ENDBRANCH   4   6
ENDBRANCH   3   4
ENDBRANCH   2   3
ENDBRANCH   1   2
BRANCH   1  30
ATOM     30  O   UNL     1      -2.409   4.693  -1.967  1.00  0.00    -0.374 OA
BRANCH  30  31
ATOM     31  C   UNL     1      -1.384   4.079  -1.191  1.00  0.00     0.202 C 
BRANCH  31  32
ATOM     32  C   UNL     1       0.066   4.070  -1.706  1.00  0.00     0.261 C 
BRANCH  32  33
ATOM     33  O   UNL     1       0.550   5.371  -2.024  1.00  0.00    -0.460 OA
BRANCH  33  34
ATOM     34  C   UNL     1       1.265   5.446  -3.176  1.00  0.00     0.338 C 
ATOM     35  O   UNL     1       1.855   4.548  -3.753  1.00  0.00    -0.246 OA
BRANCH  34  36
ATOM     36  C   UNL     1       0.824   6.708  -3.788  1.00  0.00     0.060 A 
ATOM     37  C   UNL     1       0.799   7.877  -3.023  1.00  0.00     0.016 A 
ATOM     38  C   UNL     1       0.093   6.594  -4.982  1.00  0.00     0.016 A 
ATOM     39  C   UNL     1      -0.057   8.896  -3.409  1.00  0.00     0.010 A 
ATOM     40  C   UNL     1      -0.771   7.615  -5.356  1.00  0.00     0.010 A 
ATOM     41  C   UNL     1      -0.878   8.745  -4.545  1.00  0.00    -0.014 A 
BRANCH  41  42
ATOM     42  C   UNL     1      -1.646   9.913  -4.969  1.00  0.00     0.031 A 
ATOM     43  C   UNL     1      -0.753  11.048  -5.323  1.00  0.00     0.074 A 
ATOM     44  C   UNL     1      -2.977  10.026  -5.145  1.00  0.00     0.049 A 
ATOM     45  N   UNL     1      -0.600  12.153  -4.673  1.00  0.00    -0.248 NA
ATOM     46  C   UNL     1       0.210  10.841  -6.414  1.00  0.00     0.031 C 
ATOM     47  C   UNL     1      -4.015   8.996  -5.116  1.00  0.00     0.029 A 
ATOM     48  N   UNL     1      -3.677  11.151  -5.477  1.00  0.00    -0.354 N 
ATOM     49  C   UNL     1       0.371  12.865  -5.365  1.00  0.00     0.074 A 
ATOM     50  C   UNL     1       0.938  11.953  -6.327  1.00  0.00     0.031 C 
ATOM     51  C   UNL     1      -5.163   9.502  -5.636  1.00  0.00     0.029 A 
ATOM     52  C   UNL     1      -4.985  10.923  -5.888  1.00  0.00     0.049 A 
ATOM     53  H   UNL     1      -3.286  12.053  -5.429  1.00  0.00     0.167 HD
ATOM     54  C   UNL     1       0.521  14.209  -5.216  1.00  0.00     0.031 A 
ATOM     55  C   UNL     1      -5.835  11.840  -6.425  1.00  0.00     0.031 A 
ATOM     56  C   UNL     1      -0.143  14.696  -4.037  1.00  0.00     0.049 A 
ATOM     57  C   UNL     1      -5.360  13.178  -5.995  1.00  0.00     0.074 A 
ATOM     58  C   UNL     1       0.006  14.470  -2.683  1.00  0.00     0.029 A 
ATOM     59  N   UNL     1      -1.390  15.251  -4.194  1.00  0.00    -0.354 N 
ATOM     60  N   UNL     1      -5.388  13.590  -4.760  1.00  0.00    -0.248 NA
ATOM     61  C   UNL     1      -4.463  13.902  -6.880  1.00  0.00     0.031 C 
ATOM     62  C   UNL     1      -1.320  14.445  -2.167  1.00  0.00     0.029 A 
ATOM     63  C   UNL     1      -2.198  14.724  -3.218  1.00  0.00     0.049 A 
ATOM     64  H   UNL     1      -1.655  15.906  -4.880  1.00  0.00     0.167 HD
ATOM     65  C   UNL     1      -4.217  14.316  -4.606  1.00  0.00     0.074 A 
ATOM     66  C   UNL     1      -3.733  14.547  -5.967  1.00  0.00     0.031 C 
ATOM     67  C   UNL     1      -3.608  14.434  -3.391  1.00  0.00     0.031 A 
BRANCH  54  68
ATOM     68  C   UNL     1       1.003  15.114  -6.316  1.00  0.00    -0.014 A 
ATOM     69  C   UNL     1       1.077  14.711  -7.666  1.00  0.00     0.010 A 
ATOM     70  C   UNL     1       1.170  16.488  -6.051  1.00  0.00     0.010 A 
ATOM     71  C   UNL     1       1.327  15.614  -8.698  1.00  0.00     0.020 A 
ATOM     72  C   UNL     1       1.377  17.412  -7.085  1.00  0.00     0.020 A 
ATOM     73  C   UNL     1       1.462  16.964  -8.402  1.00  0.00     0.054 A 
BRANCH  73  74
ATOM     74  S   UNL     1       1.683  18.115  -9.778  1.00  0.00     0.124 S 
ATOM     75  O   UNL     1       3.015  17.756 -10.257  1.00  0.00    -0.237 OA
ATOM     76  O   UNL     1       0.577  17.759 -10.663  1.00  0.00    -0.237 OA
ATOM     77  O   UNL     1       1.578  19.427  -9.147  1.00  0.00    -0.744 OA
ENDBRANCH  73  74
ENDBRANCH  54  68
BRANCH  55  78
ATOM     78  C   UNL     1      -6.707  11.691  -7.623  1.00  0.00    -0.014 A 
ATOM     79  C   UNL     1      -6.375  10.752  -8.617  1.00  0.00     0.010 A 
ATOM     80  C   UNL     1      -7.639  12.699  -7.957  1.00  0.00     0.010 A 
ATOM     81  C   UNL     1      -6.872  10.870  -9.922  1.00  0.00     0.020 A 
ATOM     82  C   UNL     1      -8.141  12.822  -9.264  1.00  0.00     0.020 A 
ATOM     83  C   UNL     1      -7.719  11.929 -10.249  1.00  0.00     0.054 A 
BRANCH  83  84
ATOM     84  S   UNL     1      -8.166  12.168 -11.995  1.00  0.00     0.124 S 
ATOM     85  O   UNL     1      -6.884  12.538 -12.588  1.00  0.00    -0.237 OA
ATOM     86  O   UNL     1      -8.675  10.852 -12.374  1.00  0.00    -0.237 OA
ATOM     87  O   UNL     1      -9.167  13.232 -11.956  1.00  0.00    -0.744 OA
ENDBRANCH  83  84
ENDBRANCH  55  78
BRANCH  67  88
ATOM     88  C   UNL     1      -4.350  13.991  -2.145  1.00  0.00    -0.014 A 
ATOM     89  C   UNL     1      -4.377  14.890  -1.063  1.00  0.00     0.010 A 
ATOM     90  C   UNL     1      -4.827  12.680  -1.936  1.00  0.00     0.010 A 
ATOM     91  C   UNL     1      -4.811  14.486   0.201  1.00  0.00     0.020 A 
ATOM     92  C   UNL     1      -5.292  12.275  -0.673  1.00  0.00     0.020 A 
ATOM     93  C   UNL     1      -5.250  13.176   0.395  1.00  0.00     0.054 A 
BRANCH  93  94
ATOM     94  S   UNL     1      -5.720  12.678   2.074  1.00  0.00     0.124 S 
ATOM     95  O   UNL     1      -4.426  12.620   2.752  1.00  0.00    -0.237 OA
ATOM     96  O   UNL     1      -6.597  13.767   2.501  1.00  0.00    -0.237 OA
ATOM     97  O   UNL     1      -6.381  11.388   1.891  1.00  0.00    -0.744 OA
ENDBRANCH  93  94
ENDBRANCH  67  88
ENDBRANCH  41  42
ENDBRANCH  34  36
ENDBRANCH  33  34
ENDBRANCH  32  33
ENDBRANCH  31  32
ENDBRANCH  30  31
ENDBRANCH   1  30
TORSDOF 22
