REMARK SMILES N#Cc1ccccc1Cn1cccc1C(=O)OCCOCCOC(=O)c1ccc(-c2c3nc(c(-c4ccc(S(=O)(=O)[O-])cc4)c4ccc([nH]4)c(-c4ccc(S(=O)(=O)[O-])cc4)c4nc(c(-c5ccc(S(=O)(=O)[O-])cc5)c5ccc2[nH]5)C=C4)C=C3)cc1
REMARK SMILES IDX 20 1 19 2 18 3 17 4 15 5 16 6 14 7 10 8 11 9 12 10 13 11
REMARK SMILES IDX 9 12 8 13 3 14 4 15 5 16 7 17 6 18 2 19 1 20 21 21 22 22
REMARK SMILES IDX 23 23 24 24 25 25 26 26 27 27 85 28 28 29 84 30 29 31 30 32
REMARK SMILES IDX 31 33 78 34 32 35 83 36 77 37 79 38 33 39 82 40 76 41 75 42
REMARK SMILES IDX 34 44 64 45 45 46 63 47 46 48 49 49 62 50 80 51 47 52 48 53
REMARK SMILES IDX 61 55 81 56 50 57 35 58 36 59 44 60 37 61 43 62 38 63 39 64
REMARK SMILES IDX 40 65 41 66 42 67 65 68 66 69 74 70 67 71 73 72 68 73 69 74
REMARK SMILES IDX 70 75 71 76 72 77 51 78 52 79 60 80 53 81 59 82 54 83 55 84
REMARK SMILES IDX 56 85 57 86 58 87
REMARK H PARENT 79 43 49 54
REMARK Flexibility Score: inf
ROOT
ATOM      1  O   UNL     1      -4.338  -1.994  -3.796  1.00  0.00    -0.374 OA
ENDROOT
BRANCH   1   2
ATOM      2  C   UNL     1      -4.741  -1.858  -2.430  1.00  0.00     0.202 C 
BRANCH   2   3
ATOM      3  C   UNL     1      -4.389  -3.014  -1.495  1.00  0.00     0.261 C 
BRANCH   3   4
ATOM      4  O   UNL     1      -2.965  -3.129  -1.313  1.00  0.00    -0.459 OA
BRANCH   4   5
ATOM      5  C   UNL     1      -2.404  -4.202  -1.927  1.00  0.00     0.355 C 
ATOM      6  O   UNL     1      -3.032  -5.112  -2.453  1.00  0.00    -0.244 OA
BRANCH   5   7
ATOM      7  C   UNL     1      -0.967  -4.051  -2.052  1.00  0.00     0.127 A 
ATOM      8  N   UNL     1      -0.020  -3.499  -1.198  1.00  0.00    -0.338 N 
ATOM      9  C   UNL     1       1.226  -3.892  -1.654  1.00  0.00     0.087 A 
ATOM     10  C   UNL     1       1.106  -4.375  -2.931  1.00  0.00     0.020 A 
ATOM     11  C   UNL     1      -0.269  -4.485  -3.178  1.00  0.00     0.035 A 
BRANCH   8  12
ATOM     12  C   UNL     1      -0.224  -2.805   0.086  1.00  0.00     0.159 C 
BRANCH  12  13
ATOM     13  C   UNL     1       0.392  -1.407   0.143  1.00  0.00    -0.010 A 
ATOM     14  C   UNL     1      -0.373  -0.233   0.304  1.00  0.00     0.057 A 
ATOM     15  C   UNL     1       0.255   1.028   0.344  1.00  0.00     0.020 A 
ATOM     16  C   UNL     1       1.637   1.146   0.220  1.00  0.00     0.001 A 
ATOM     17  C   UNL     1       1.795  -1.255   0.099  1.00  0.00     0.007 A 
ATOM     18  C   UNL     1       2.408   0.000   0.107  1.00  0.00     0.000 A 
BRANCH  14  19
ATOM     19  C   UNL     1      -1.805  -0.268   0.490  1.00  0.00     0.099 C 
ATOM     20  N   UNL     1      -2.939  -0.300   0.664  1.00  0.00    -0.192 NA
ENDBRANCH  14  19
ENDBRANCH  12  13
ENDBRANCH   8  12
ENDBRANCH   5   7
ENDBRANCH   4   5
ENDBRANCH   3   4
ENDBRANCH   2   3
ENDBRANCH   1   2
BRANCH   1  21
ATOM     21  C   UNL     1      -2.969  -1.794  -4.129  1.00  0.00     0.202 C 
BRANCH  21  22
ATOM     22  C   UNL     1      -2.405  -0.381  -4.116  1.00  0.00     0.261 C 
BRANCH  22  23
ATOM     23  O   UNL     1      -2.617   0.306  -2.895  1.00  0.00    -0.460 OA
BRANCH  23  24
ATOM     24  C   UNL     1      -3.712   1.100  -2.946  1.00  0.00     0.338 C 
ATOM     25  O   UNL     1      -4.700   0.963  -3.647  1.00  0.00    -0.246 OA
BRANCH  24  26
ATOM     26  C   UNL     1      -3.455   2.308  -2.173  1.00  0.00     0.060 A 
ATOM     27  C   UNL     1      -4.553   3.120  -1.884  1.00  0.00     0.016 A 
ATOM     28  C   UNL     1      -2.130   2.744  -2.021  1.00  0.00     0.016 A 
ATOM     29  C   UNL     1      -4.320   4.436  -1.558  1.00  0.00     0.010 A 
ATOM     30  C   UNL     1      -1.897   4.063  -1.723  1.00  0.00     0.010 A 
ATOM     31  C   UNL     1      -2.997   4.901  -1.530  1.00  0.00    -0.014 A 
BRANCH  31  32
ATOM     32  C   UNL     1      -2.757   6.255  -1.039  1.00  0.00     0.031 A 
ATOM     33  C   UNL     1      -2.783   6.197   0.508  1.00  0.00     0.074 A 
ATOM     34  C   UNL     1      -2.625   7.226  -2.007  1.00  0.00     0.049 A 
ATOM     35  N   UNL     1      -3.166   7.103   1.339  1.00  0.00    -0.248 NA
ATOM     36  C   UNL     1      -2.471   4.931   1.256  1.00  0.00     0.031 C 
ATOM     37  C   UNL     1      -2.609   6.983  -3.478  1.00  0.00     0.029 A 
ATOM     38  N   UNL     1      -2.465   8.598  -1.992  1.00  0.00    -0.354 N 
ATOM     39  C   UNL     1      -2.865   6.658   2.644  1.00  0.00     0.074 A 
ATOM     40  C   UNL     1      -2.605   5.259   2.546  1.00  0.00     0.031 C 
ATOM     41  C   UNL     1      -2.570   8.145  -4.179  1.00  0.00     0.029 A 
ATOM     42  C   UNL     1      -2.510   9.265  -3.260  1.00  0.00     0.049 A 
ATOM     43  H   UNL     1      -2.326   9.092  -1.152  1.00  0.00     0.167 HD
ATOM     44  C   UNL     1      -2.645   7.541   3.662  1.00  0.00     0.031 A 
ATOM     45  C   UNL     1      -2.529  10.620  -3.515  1.00  0.00     0.031 A 
ATOM     46  C   UNL     1      -2.803   8.865   3.150  1.00  0.00     0.049 A 
ATOM     47  C   UNL     1      -2.204  11.222  -2.215  1.00  0.00     0.074 A 
ATOM     48  C   UNL     1      -3.903   9.506   2.637  1.00  0.00     0.029 A 
ATOM     49  N   UNL     1      -1.650   9.440   2.658  1.00  0.00    -0.354 N 
ATOM     50  N   UNL     1      -1.030  11.198  -1.662  1.00  0.00    -0.248 NA
ATOM     51  C   UNL     1      -3.287  11.832  -1.433  1.00  0.00     0.031 C 
ATOM     52  C   UNL     1      -3.389  10.035   1.438  1.00  0.00     0.029 A 
ATOM     53  C   UNL     1      -1.989  10.053   1.485  1.00  0.00     0.049 A 
ATOM     54  H   UNL     1      -0.757   9.413   3.071  1.00  0.00     0.167 HD
ATOM     55  C   UNL     1      -1.346  11.381  -0.342  1.00  0.00     0.074 A 
ATOM     56  C   UNL     1      -2.614  12.092  -0.315  1.00  0.00     0.031 C 
ATOM     57  C   UNL     1      -0.959  10.432   0.555  1.00  0.00     0.031 A 
BRANCH  44  58
ATOM     58  C   UNL     1      -1.981   7.425   5.002  1.00  0.00    -0.014 A 
ATOM     59  C   UNL     1      -2.107   8.559   5.848  1.00  0.00     0.010 A 
ATOM     60  C   UNL     1      -0.992   6.485   5.315  1.00  0.00     0.010 A 
ATOM     61  C   UNL     1      -1.198   8.822   6.868  1.00  0.00     0.020 A 
ATOM     62  C   UNL     1      -0.098   6.722   6.377  1.00  0.00     0.020 A 
ATOM     63  C   UNL     1      -0.181   7.910   7.113  1.00  0.00     0.054 A 
BRANCH  63  64
ATOM     64  S   UNL     1       1.045   8.340   8.376  1.00  0.00     0.124 S 
ATOM     65  O   UNL     1       1.733   9.474   7.767  1.00  0.00    -0.237 OA
ATOM     66  O   UNL     1       0.203   8.664   9.527  1.00  0.00    -0.237 OA
ATOM     67  O   UNL     1       1.837   7.121   8.516  1.00  0.00    -0.744 OA
ENDBRANCH  63  64
ENDBRANCH  44  58
BRANCH  45  68
ATOM     68  C   UNL     1      -2.822  11.660  -4.600  1.00  0.00    -0.014 A 
ATOM     69  C   UNL     1      -3.181  11.439  -5.934  1.00  0.00     0.010 A 
ATOM     70  C   UNL     1      -2.909  13.029  -4.182  1.00  0.00     0.010 A 
ATOM     71  C   UNL     1      -3.756  12.485  -6.721  1.00  0.00     0.020 A 
ATOM     72  C   UNL     1      -3.532  14.044  -4.913  1.00  0.00     0.020 A 
ATOM     73  C   UNL     1      -3.994  13.757  -6.179  1.00  0.00     0.054 A 
BRANCH  73  74
ATOM     74  S   UNL     1      -5.035  14.984  -7.034  1.00  0.00     0.124 S 
ATOM     75  O   UNL     1      -4.127  15.534  -8.034  1.00  0.00    -0.237 OA
ATOM     76  O   UNL     1      -6.129  14.166  -7.553  1.00  0.00    -0.237 OA
ATOM     77  O   UNL     1      -5.423  15.911  -5.971  1.00  0.00    -0.744 OA
ENDBRANCH  73  74
ENDBRANCH  45  68
BRANCH  57  78
ATOM     78  C   UNL     1       0.325   9.670   0.245  1.00  0.00    -0.014 A 
ATOM     79  C   UNL     1       1.493  10.406  -0.038  1.00  0.00     0.010 A 
ATOM     80  C   UNL     1       0.429   8.264   0.179  1.00  0.00     0.010 A 
ATOM     81  C   UNL     1       2.712   9.785  -0.348  1.00  0.00     0.020 A 
ATOM     82  C   UNL     1       1.651   7.627  -0.140  1.00  0.00     0.020 A 
ATOM     83  C   UNL     1       2.791   8.395  -0.384  1.00  0.00     0.054 A 
BRANCH  83  84
ATOM     84  S   UNL     1       4.409   7.629  -0.716  1.00  0.00     0.124 S 
ATOM     85  O   UNL     1       4.756   8.155  -2.034  1.00  0.00    -0.237 OA
ATOM     86  O   UNL     1       5.226   8.127   0.388  1.00  0.00    -0.237 OA
ATOM     87  O   UNL     1       4.131   6.193  -0.681  1.00  0.00    -0.744 OA
ENDBRANCH  83  84
ENDBRANCH  57  78
ENDBRANCH  31  32
ENDBRANCH  24  26
ENDBRANCH  23  24
ENDBRANCH  22  23
ENDBRANCH  21  22
ENDBRANCH   1  21
TORSDOF 20
