REMARK SMILES NC(=O)C1CC[NH+](Cc2ccc(C(=O)OCCOCCOC(=O)c3ccc(-c4c5nc(c(-c6ccc(S(=O)(=O)[O-])cc6)c6ccc([nH]6)c(-c6ccc(S(=O)(=O)[O-])cc6)c6nc(c(-c7ccc(S(=O)(=O)[O-])cc7)c7ccc4[nH]7)C=C6)C=C5)cc3)cc2)CC1
REMARK SMILES IDX 18 1 17 2 16 3 15 4 13 5 14 6 12 7 9 8 10 9 85 10 11 11
REMARK SMILES IDX 84 12 8 13 7 14 4 15 5 16 87 17 6 18 86 19 2 21 1 22 3 25
REMARK SMILES IDX 19 26 20 27 21 28 22 29 23 30 24 31 25 32 83 33 26 34 82 35
REMARK SMILES IDX 27 36 28 37 29 38 76 39 30 40 81 41 75 42 77 43 31 44 80 45
REMARK SMILES IDX 74 46 73 47 32 49 62 50 43 51 61 52 44 53 47 54 60 55 78 56
REMARK SMILES IDX 45 57 46 58 59 60 79 61 48 62 33 63 34 64 42 65 35 66 41 67
REMARK SMILES IDX 36 68 37 69 38 70 39 71 40 72 63 73 64 74 72 75 65 76 71 77
REMARK SMILES IDX 66 78 67 79 68 80 69 81 70 82 49 83 50 84 58 85 51 86 57 87
REMARK SMILES IDX 52 88 53 89 54 90 55 91 56 92
REMARK H PARENT 7 20 1 23 1 24 77 48 47 59
REMARK Flexibility Score: inf
ROOT
ATOM      1  O   UNL     1      -7.464   3.901   2.369  1.00  0.00    -0.374 OA
ENDROOT
BRANCH   1   2
ATOM      2  C   UNL     1      -6.731   3.154   3.343  1.00  0.00     0.202 C 
BRANCH   2   3
ATOM      3  C   UNL     1      -5.943   1.953   2.813  1.00  0.00     0.261 C 
BRANCH   3   4
ATOM      4  O   UNL     1      -4.898   2.392   1.933  1.00  0.00    -0.460 OA
BRANCH   4   5
ATOM      5  C   UNL     1      -5.082   2.096   0.625  1.00  0.00     0.338 C 
ATOM      6  O   UNL     1      -5.941   1.360   0.159  1.00  0.00    -0.246 OA
BRANCH   5   7
ATOM      7  C   UNL     1      -4.169   2.905  -0.222  1.00  0.00     0.060 A 
ATOM      8  C   UNL     1      -2.412   4.226  -1.960  1.00  0.00     0.006 A 
ATOM      9  C   UNL     1      -3.580   3.630  -2.455  1.00  0.00     0.010 A 
ATOM     10  C   UNL     1      -2.215   4.287  -0.572  1.00  0.00     0.010 A 
ATOM     11  C   UNL     1      -4.450   2.969  -1.591  1.00  0.00     0.016 A 
ATOM     12  C   UNL     1      -3.075   3.610   0.294  1.00  0.00     0.016 A 
BRANCH   8  13
ATOM     13  C   UNL     1      -1.304   4.620  -2.923  1.00  0.00     0.299 C 
BRANCH  13  14
ATOM     14  N   UNL     1      -0.244   3.595  -3.111  1.00  0.00    -0.331 N 
ATOM     15  C   UNL     1       1.182   1.076  -2.512  1.00  0.00     0.089 C 
ATOM     16  C   UNL     1       1.736   2.451  -2.132  1.00  0.00     0.075 C 
ATOM     17  C   UNL     1       0.279   1.226  -3.740  1.00  0.00     0.075 C 
ATOM     18  C   UNL     1       0.610   3.463  -1.925  1.00  0.00     0.263 C 
ATOM     19  C   UNL     1      -0.796   2.300  -3.543  1.00  0.00     0.263 C 
ATOM     20  H   UNL     1       0.354   3.926  -3.869  1.00  0.00     0.348 HD
BRANCH  15  21
ATOM     21  C   UNL     1       0.456   0.406  -1.343  1.00  0.00     0.220 C 
ATOM     22  N   UNL     1       1.228   0.129  -0.255  1.00  0.00    -0.369 N 
ATOM     23  H   UNL     1       0.829  -0.303   0.535  1.00  0.00     0.159 HD
ATOM     24  H   UNL     1       2.185   0.359  -0.258  1.00  0.00     0.159 HD
ATOM     25  O   UNL     1      -0.728   0.091  -1.350  1.00  0.00    -0.275 OA
ENDBRANCH  15  21
ENDBRANCH  13  14
ENDBRANCH   8  13
ENDBRANCH   5   7
ENDBRANCH   4   5
ENDBRANCH   3   4
ENDBRANCH   2   3
ENDBRANCH   1   2
BRANCH   1  26
ATOM     26  C   UNL     1      -6.736   4.868   1.611  1.00  0.00     0.202 C 
BRANCH  26  27
ATOM     27  C   UNL     1      -6.480   6.217   2.291  1.00  0.00     0.261 C 
BRANCH  27  28
ATOM     28  O   UNL     1      -5.577   6.095   3.405  1.00  0.00    -0.460 OA
BRANCH  28  29
ATOM     29  C   UNL     1      -6.160   6.220   4.621  1.00  0.00     0.338 C 
ATOM     30  O   UNL     1      -7.328   6.501   4.853  1.00  0.00    -0.246 OA
BRANCH  29  31
ATOM     31  C   UNL     1      -5.224   5.787   5.675  1.00  0.00     0.060 A 
ATOM     32  C   UNL     1      -5.693   4.857   6.612  1.00  0.00     0.016 A 
ATOM     33  C   UNL     1      -3.939   6.324   5.790  1.00  0.00     0.016 A 
ATOM     34  C   UNL     1      -4.898   4.499   7.698  1.00  0.00     0.010 A 
ATOM     35  C   UNL     1      -3.146   5.968   6.886  1.00  0.00     0.010 A 
ATOM     36  C   UNL     1      -3.636   5.083   7.863  1.00  0.00    -0.014 A 
BRANCH  36  37
ATOM     37  C   UNL     1      -2.897   4.880   9.133  1.00  0.00     0.031 A 
ATOM     38  C   UNL     1      -2.958   5.949  10.191  1.00  0.00     0.074 A 
ATOM     39  C   UNL     1      -2.214   3.744   9.359  1.00  0.00     0.049 A 
ATOM     40  N   UNL     1      -2.389   5.983  11.368  1.00  0.00    -0.248 NA
ATOM     41  C   UNL     1      -3.769   7.137   9.878  1.00  0.00     0.031 C 
ATOM     42  C   UNL     1      -2.125   2.612   8.437  1.00  0.00     0.029 A 
ATOM     43  N   UNL     1      -1.469   3.355  10.443  1.00  0.00    -0.354 N 
ATOM     44  C   UNL     1      -2.770   7.193  11.937  1.00  0.00     0.074 A 
ATOM     45  C   UNL     1      -3.589   7.879  10.960  1.00  0.00     0.031 C 
ATOM     46  C   UNL     1      -1.371   1.652   8.998  1.00  0.00     0.029 A 
ATOM     47  C   UNL     1      -0.897   2.114  10.301  1.00  0.00     0.049 A 
ATOM     48  H   UNL     1      -1.355   3.912  11.247  1.00  0.00     0.167 HD
ATOM     49  C   UNL     1      -2.473   7.687  13.163  1.00  0.00     0.031 A 
ATOM     50  C   UNL     1      -0.074   1.434  11.124  1.00  0.00     0.031 A 
ATOM     51  C   UNL     1      -1.640   7.014  14.123  1.00  0.00     0.049 A 
ATOM     52  C   UNL     1       0.321   2.044  12.443  1.00  0.00     0.074 A 
ATOM     53  C   UNL     1      -1.279   7.430  15.393  1.00  0.00     0.029 A 
ATOM     54  N   UNL     1      -1.029   5.786  13.916  1.00  0.00    -0.354 N 
ATOM     55  N   UNL     1      -0.057   3.184  12.972  1.00  0.00    -0.248 NA
ATOM     56  C   UNL     1       1.251   1.271  13.279  1.00  0.00     0.031 C 
ATOM     57  C   UNL     1      -0.406   6.478  15.933  1.00  0.00     0.029 A 
ATOM     58  C   UNL     1      -0.271   5.441  15.023  1.00  0.00     0.049 A 
ATOM     59  H   UNL     1      -1.120   5.240  13.102  1.00  0.00     0.167 HD
ATOM     60  C   UNL     1       0.564   3.250  14.215  1.00  0.00     0.074 A 
ATOM     61  C   UNL     1       1.336   2.033  14.361  1.00  0.00     0.031 C 
ATOM     62  C   UNL     1       0.496   4.228  15.153  1.00  0.00     0.031 A 
BRANCH  49  63
ATOM     63  C   UNL     1      -3.026   9.044  13.510  1.00  0.00    -0.014 A 
ATOM     64  C   UNL     1      -4.401   9.233  13.747  1.00  0.00     0.010 A 
ATOM     65  C   UNL     1      -2.159  10.147  13.605  1.00  0.00     0.010 A 
ATOM     66  C   UNL     1      -4.903  10.508  14.019  1.00  0.00     0.020 A 
ATOM     67  C   UNL     1      -2.653  11.420  13.904  1.00  0.00     0.020 A 
ATOM     68  C   UNL     1      -4.027  11.596  14.086  1.00  0.00     0.054 A 
BRANCH  68  69
ATOM     69  S   UNL     1      -4.705  13.243  14.430  1.00  0.00     0.124 S 
ATOM     70  O   UNL     1      -5.339  13.577  13.157  1.00  0.00    -0.237 OA
ATOM     71  O   UNL     1      -5.619  12.989  15.540  1.00  0.00    -0.237 OA
ATOM     72  O   UNL     1      -3.527  14.039  14.766  1.00  0.00    -0.744 OA
ENDBRANCH  68  69
ENDBRANCH  49  63
BRANCH  50  73
ATOM     73  C   UNL     1       0.437   0.095  10.722  1.00  0.00    -0.014 A 
ATOM     74  C   UNL     1      -0.006  -1.066  11.379  1.00  0.00     0.010 A 
ATOM     75  C   UNL     1       1.367  -0.025   9.673  1.00  0.00     0.010 A 
ATOM     76  C   UNL     1       0.479  -2.322  11.001  1.00  0.00     0.020 A 
ATOM     77  C   UNL     1       1.834  -1.280   9.275  1.00  0.00     0.020 A 
ATOM     78  C   UNL     1       1.393  -2.421   9.949  1.00  0.00     0.054 A 
BRANCH  78  79
ATOM     79  S   UNL     1       1.964  -4.065   9.435  1.00  0.00     0.124 S 
ATOM     80  O   UNL     1       2.876  -4.421  10.517  1.00  0.00    -0.237 OA
ATOM     81  O   UNL     1       0.719  -4.827   9.378  1.00  0.00    -0.237 OA
ATOM     82  O   UNL     1       2.594  -3.817   8.140  1.00  0.00    -0.744 OA
ENDBRANCH  78  79
ENDBRANCH  50  73
BRANCH  62  83
ATOM     83  C   UNL     1       1.249   4.008  16.439  1.00  0.00    -0.014 A 
ATOM     84  C   UNL     1       2.652   4.093  16.489  1.00  0.00     0.010 A 
ATOM     85  C   UNL     1       0.535   3.765  17.627  1.00  0.00     0.010 A 
ATOM     86  C   UNL     1       3.328   3.906  17.698  1.00  0.00     0.020 A 
ATOM     87  C   UNL     1       1.205   3.604  18.842  1.00  0.00     0.020 A 
ATOM     88  C   UNL     1       2.600   3.662  18.867  1.00  0.00     0.054 A 
BRANCH  88  89
ATOM     89  S   UNL     1       3.497   3.464  20.431  1.00  0.00     0.124 S 
ATOM     90  O   UNL     1       4.067   2.127  20.288  1.00  0.00    -0.237 OA
ATOM     91  O   UNL     1       4.458   4.564  20.392  1.00  0.00    -0.237 OA
ATOM     92  O   UNL     1       2.455   3.592  21.448  1.00  0.00    -0.744 OA
ENDBRANCH  88  89
ENDBRANCH  62  83
ENDBRANCH  36  37
ENDBRANCH  29  31
ENDBRANCH  28  29
ENDBRANCH  27  28
ENDBRANCH  26  27
ENDBRANCH   1  26
TORSDOF 20
