REMARK SMILES COc1ccccc1C[N@@H+](C)[C@@H](C)c1ccc(C(=O)OCCOCCOC(=O)c2ccc(-c3c4nc(c(-c5ccc(S(=O)(=O)[O-])cc5)c5ccc([nH]5)c(-c5ccc(S(=O)(=O)[O-])cc5)c5nc(c(-c6ccc(S(=O)(=O)[O-])cc6)c6ccc3[nH]6)C=C5)C=C4)cc2)o1
REMARK SMILES IDX 22 1 21 2 20 3 18 4 19 5 17 6 14 7 15 8 89 9 16 10 12 11
REMARK SMILES IDX 13 12 10 13 11 14 9 16 8 17 3 18 4 19 5 20 7 21 6 22 2 23
REMARK SMILES IDX 1 24 23 25 24 26 25 27 26 28 27 29 28 30 29 31 30 32 88 33
REMARK SMILES IDX 31 34 87 35 32 36 33 37 34 38 81 39 35 40 86 41 80 42 82 43
REMARK SMILES IDX 36 44 85 45 79 46 78 47 37 49 67 50 48 51 66 52 49 53 52 54
REMARK SMILES IDX 65 55 83 56 50 57 51 58 64 60 84 61 53 62 38 63 39 64 47 65
REMARK SMILES IDX 40 66 46 67 41 68 42 69 43 70 44 71 45 72 68 73 69 74 77 75
REMARK SMILES IDX 70 76 76 77 71 78 72 79 73 80 74 81 75 82 54 83 55 84 63 85
REMARK SMILES IDX 56 86 62 87 57 88 58 89 59 90 60 91 61 92
REMARK H PARENT 10 15 82 48 52 59
REMARK Flexibility Score: inf
ROOT
ATOM      1  C   UNL     1      -0.692   3.959   7.845  1.00  0.00     0.202 C 
ENDROOT
BRANCH   1   2
ATOM      2  C   UNL     1      -1.368   3.531   6.537  1.00  0.00     0.261 C 
BRANCH   2   3
ATOM      3  O   UNL     1      -0.573   2.495   5.939  1.00  0.00    -0.457 OA
BRANCH   3   4
ATOM      4  C   UNL     1      -0.218   2.676   4.636  1.00  0.00     0.374 C 
ATOM      5  O   UNL     1      -0.804   3.419   3.853  1.00  0.00    -0.242 OA
BRANCH   4   6
ATOM      6  C   UNL     1       1.028   1.987   4.401  1.00  0.00     0.212 A 
ATOM      7  C   UNL     1       2.843   1.482   3.258  1.00  0.00     0.162 A 
ATOM      8  C   UNL     1       2.997   0.910   4.505  1.00  0.00     0.053 A 
ATOM      9  O   UNL     1       1.671   2.179   3.211  1.00  0.00    -0.448 OA
ATOM     10  C   UNL     1       1.812   1.186   5.218  1.00  0.00     0.059 A 
BRANCH   7  11
ATOM     11  C   UNL     1       3.686   1.440   2.015  1.00  0.00     0.248 C 
ATOM     12  C   UNL     1       3.063   2.219   0.845  1.00  0.00     0.084 C 
BRANCH  11  13
ATOM     13  N   UNL     1       4.124   0.050   1.706  1.00  0.00    -0.325 N 
ATOM     14  C   UNL     1       5.274   0.062   0.797  1.00  0.00     0.333 C 
ATOM     15  H   UNL     1       4.376  -0.347   2.611  1.00  0.00     0.348 HD
BRANCH  13  16
ATOM     16  C   UNL     1       3.074  -0.833   1.150  1.00  0.00     0.303 C 
BRANCH  16  17
ATOM     17  C   UNL     1       1.971  -1.241   2.106  1.00  0.00     0.048 A 
ATOM     18  C   UNL     1       0.654  -0.767   1.995  1.00  0.00     0.127 A 
ATOM     19  C   UNL     1      -0.307  -1.080   2.962  1.00  0.00     0.047 A 
ATOM     20  C   UNL     1       0.020  -1.909   4.033  1.00  0.00     0.004 A 
ATOM     21  C   UNL     1       2.276  -2.095   3.183  1.00  0.00     0.013 A 
ATOM     22  C   UNL     1       1.310  -2.424   4.139  1.00  0.00     0.001 A 
BRANCH  18  23
ATOM     23  O   UNL     1       0.276   0.124   1.028  1.00  0.00    -0.496 OA
ATOM     24  C   UNL     1       0.028  -0.510  -0.223  1.00  0.00     0.278 C 
ENDBRANCH  18  23
ENDBRANCH  16  17
ENDBRANCH  13  16
ENDBRANCH  11  13
ENDBRANCH   7  11
ENDBRANCH   4   6
ENDBRANCH   3   4
ENDBRANCH   2   3
ENDBRANCH   1   2
BRANCH   1  25
ATOM     25  O   UNL     1       0.432   4.837   7.692  1.00  0.00    -0.374 OA
BRANCH  25  26
ATOM     26  C   UNL     1       1.653   4.258   7.236  1.00  0.00     0.202 C 
BRANCH  26  27
ATOM     27  C   UNL     1       2.549   3.610   8.299  1.00  0.00     0.261 C 
BRANCH  27  28
ATOM     28  O   UNL     1       1.877   2.577   9.037  1.00  0.00    -0.460 OA
BRANCH  28  29
ATOM     29  C   UNL     1       1.429   2.983  10.251  1.00  0.00     0.338 C 
ATOM     30  O   UNL     1       1.605   4.073  10.769  1.00  0.00    -0.246 OA
BRANCH  29  31
ATOM     31  C   UNL     1       0.544   1.964  10.848  1.00  0.00     0.060 A 
ATOM     32  C   UNL     1      -0.644   2.424  11.429  1.00  0.00     0.016 A 
ATOM     33  C   UNL     1       0.902   0.616  10.937  1.00  0.00     0.016 A 
ATOM     34  C   UNL     1      -1.436   1.556  12.174  1.00  0.00     0.010 A 
ATOM     35  C   UNL     1       0.103  -0.256  11.687  1.00  0.00     0.010 A 
ATOM     36  C   UNL     1      -1.038   0.225  12.353  1.00  0.00    -0.014 A 
BRANCH  36  37
ATOM     37  C   UNL     1      -1.721  -0.584  13.393  1.00  0.00     0.031 A 
ATOM     38  C   UNL     1      -1.078  -0.712  14.751  1.00  0.00     0.074 A 
ATOM     39  C   UNL     1      -2.932  -1.123  13.167  1.00  0.00     0.049 A 
ATOM     40  N   UNL     1      -1.532  -1.295  15.830  1.00  0.00    -0.248 NA
ATOM     41  C   UNL     1       0.250  -0.097  14.912  1.00  0.00     0.031 C 
ATOM     42  C   UNL     1      -3.674  -1.040  11.910  1.00  0.00     0.029 A 
ATOM     43  N   UNL     1      -3.757  -1.838  13.999  1.00  0.00    -0.354 N 
ATOM     44  C   UNL     1      -0.547  -1.120  16.796  1.00  0.00     0.074 A 
ATOM     45  C   UNL     1       0.544  -0.409  16.165  1.00  0.00     0.031 C 
ATOM     46  C   UNL     1      -4.851  -1.674  12.056  1.00  0.00     0.029 A 
ATOM     47  C   UNL     1      -4.937  -2.220  13.410  1.00  0.00     0.049 A 
ATOM     48  H   UNL     1      -3.524  -2.055  14.931  1.00  0.00     0.167 HD
ATOM     49  C   UNL     1      -0.551  -1.503  18.096  1.00  0.00     0.031 A 
ATOM     50  C   UNL     1      -5.970  -2.929  13.905  1.00  0.00     0.031 A 
ATOM     51  C   UNL     1      -1.630  -2.217  18.724  1.00  0.00     0.049 A 
ATOM     52  C   UNL     1      -5.937  -3.380  15.342  1.00  0.00     0.074 A 
ATOM     53  C   UNL     1      -1.732  -2.644  20.036  1.00  0.00     0.029 A 
ATOM     54  N   UNL     1      -2.794  -2.612  18.083  1.00  0.00    -0.354 N 
ATOM     55  N   UNL     1      -5.008  -3.184  16.248  1.00  0.00    -0.248 NA
ATOM     56  C   UNL     1      -7.104  -4.130  15.828  1.00  0.00     0.031 C 
ATOM     57  C   UNL     1      -2.941  -3.336  20.177  1.00  0.00     0.029 A 
ATOM     58  C   UNL     1      -3.614  -3.291  18.967  1.00  0.00     0.049 A 
ATOM     59  H   UNL     1      -3.007  -2.435  17.138  1.00  0.00     0.167 HD
ATOM     60  C   UNL     1      -5.494  -3.758  17.419  1.00  0.00     0.074 A 
ATOM     61  C   UNL     1      -6.801  -4.300  17.108  1.00  0.00     0.031 C 
ATOM     62  C   UNL     1      -4.913  -3.825  18.643  1.00  0.00     0.031 A 
BRANCH  49  63
ATOM     63  C   UNL     1       0.671  -1.179  18.913  1.00  0.00    -0.014 A 
ATOM     64  C   UNL     1       0.955   0.141  19.308  1.00  0.00     0.010 A 
ATOM     65  C   UNL     1       1.540  -2.213  19.305  1.00  0.00     0.010 A 
ATOM     66  C   UNL     1       2.110   0.427  20.041  1.00  0.00     0.020 A 
ATOM     67  C   UNL     1       2.683  -1.935  20.060  1.00  0.00     0.020 A 
ATOM     68  C   UNL     1       2.971  -0.613  20.406  1.00  0.00     0.054 A 
BRANCH  68  69
ATOM     69  S   UNL     1       4.461  -0.218  21.362  1.00  0.00     0.124 S 
ATOM     70  O   UNL     1       5.322   0.378  20.344  1.00  0.00    -0.237 OA
ATOM     71  O   UNL     1       3.958   0.704  22.378  1.00  0.00    -0.237 OA
ATOM     72  O   UNL     1       4.902  -1.516  21.868  1.00  0.00    -0.744 OA
ENDBRANCH  68  69
ENDBRANCH  49  63
BRANCH  50  73
ATOM     73  C   UNL     1      -7.133  -3.251  13.034  1.00  0.00    -0.014 A 
ATOM     74  C   UNL     1      -8.377  -2.630  13.235  1.00  0.00     0.010 A 
ATOM     75  C   UNL     1      -6.994  -4.185  11.991  1.00  0.00     0.010 A 
ATOM     76  C   UNL     1      -9.467  -2.948  12.418  1.00  0.00     0.020 A 
ATOM     77  C   UNL     1      -8.073  -4.487  11.157  1.00  0.00     0.020 A 
ATOM     78  C   UNL     1      -9.307  -3.874  11.383  1.00  0.00     0.054 A 
BRANCH  78  79
ATOM     79  S   UNL     1     -10.717  -4.231  10.299  1.00  0.00     0.124 S 
ATOM     80  O   UNL     1     -11.544  -5.083  11.147  1.00  0.00    -0.237 OA
ATOM     81  O   UNL     1     -11.252  -2.899  10.025  1.00  0.00    -0.237 OA
ATOM     82  O   UNL     1     -10.104  -4.895   9.150  1.00  0.00    -0.744 OA
ENDBRANCH  78  79
ENDBRANCH  50  73
BRANCH  62  83
ATOM     83  C   UNL     1      -5.705  -4.469  19.750  1.00  0.00    -0.014 A 
ATOM     84  C   UNL     1      -5.914  -5.859  19.791  1.00  0.00     0.010 A 
ATOM     85  C   UNL     1      -6.222  -3.667  20.785  1.00  0.00     0.010 A 
ATOM     86  C   UNL     1      -6.664  -6.430  20.823  1.00  0.00     0.020 A 
ATOM     87  C   UNL     1      -6.950  -4.238  21.832  1.00  0.00     0.020 A 
ATOM     88  C   UNL     1      -7.183  -5.614  21.834  1.00  0.00     0.054 A 
BRANCH  88  89
ATOM     89  S   UNL     1      -8.140  -6.377  23.173  1.00  0.00     0.124 S 
ATOM     90  O   UNL     1      -9.424  -6.626  22.524  1.00  0.00    -0.237 OA
ATOM     91  O   UNL     1      -7.356  -7.568  23.492  1.00  0.00    -0.237 OA
ATOM     92  O   UNL     1      -8.156  -5.352  24.214  1.00  0.00    -0.744 OA
ENDBRANCH  88  89
ENDBRANCH  62  83
ENDBRANCH  36  37
ENDBRANCH  29  31
ENDBRANCH  28  29
ENDBRANCH  27  28
ENDBRANCH  26  27
ENDBRANCH  25  26
ENDBRANCH   1  25
TORSDOF 22
