REMARK SMILES NS(=O)(=O)c1ccc(-c2coc(=O)n2-c2ccc(C(=O)OCCOCCOC(=O)c3ccc(-c4c5nc(c(-c6ccc(S(=O)(=O)[O-])cc6)c6ccc([nH]6)c(-c6ccc(S(=O)(=O)[O-])cc6)c6nc(c(-c7ccc(S(=O)(=O)[O-])cc7)c7ccc4[nH]7)C=C6)C=C5)cc3)cc2)cc1
REMARK SMILES IDX 23 1 22 2 21 3 19 4 20 5 18 6 15 7 16 8 91 9 17 10 90 11
REMARK SMILES IDX 14 12 9 13 10 14 11 15 12 16 13 17 8 18 5 19 6 20 93 21 7 22
REMARK SMILES IDX 92 23 2 24 3 25 4 26 1 27 24 30 25 31 26 32 27 33 28 34
REMARK SMILES IDX 29 35 30 36 31 37 89 38 32 39 88 40 33 41 34 42 35 43 82 44
REMARK SMILES IDX 36 45 87 46 81 47 83 48 37 49 86 50 80 51 79 52 38 54 68 55
REMARK SMILES IDX 49 56 67 57 50 58 53 59 66 60 84 61 51 62 52 63 65 65 85 66
REMARK SMILES IDX 54 67 39 68 40 69 48 70 41 71 47 72 42 73 43 74 44 75 45 76
REMARK SMILES IDX 46 77 69 78 70 79 78 80 71 81 77 82 72 83 73 84 74 85 75 86
REMARK SMILES IDX 76 87 55 88 56 89 64 90 57 91 63 92 58 93 59 94 60 95 61 96
REMARK SMILES IDX 62 97
REMARK H PARENT 1 28 1 29 83 53 53 64
REMARK Flexibility Score: inf
ROOT
ATOM      1  C   UNL     1      -7.246  -4.405  -5.356  1.00  0.00     0.202 C 
ENDROOT
BRANCH   1   2
ATOM      2  C   UNL     1      -6.339  -4.044  -4.178  1.00  0.00     0.261 C 
BRANCH   2   3
ATOM      3  O   UNL     1      -4.951  -4.001  -4.537  1.00  0.00    -0.460 OA
BRANCH   3   4
ATOM      4  C   UNL     1      -4.223  -5.040  -4.063  1.00  0.00     0.338 C 
ATOM      5  O   UNL     1      -4.606  -5.943  -3.338  1.00  0.00    -0.246 OA
BRANCH   4   6
ATOM      6  C   UNL     1      -2.884  -5.045  -4.682  1.00  0.00     0.060 A 
ATOM      7  C   UNL     1      -0.230  -5.232  -5.517  1.00  0.00     0.053 A 
ATOM      8  C   UNL     1      -1.038  -6.371  -5.531  1.00  0.00     0.028 A 
ATOM      9  C   UNL     1      -0.801  -3.982  -5.215  1.00  0.00     0.028 A 
ATOM     10  C   UNL     1      -2.354  -6.280  -5.082  1.00  0.00     0.018 A 
ATOM     11  C   UNL     1      -2.131  -3.881  -4.808  1.00  0.00     0.018 A 
BRANCH   7  12
ATOM     12  N   UNL     1       1.172  -5.365  -5.623  1.00  0.00    -0.242 N 
ATOM     13  C   UNL     1       2.116  -4.817  -4.797  1.00  0.00     0.095 A 
ATOM     14  C   UNL     1       3.292  -5.244  -5.241  1.00  0.00     0.228 A 
ATOM     15  O   UNL     1       3.213  -6.086  -6.348  1.00  0.00    -0.415 OA
ATOM     16  C   UNL     1       1.833  -6.176  -6.544  1.00  0.00     0.424 A 
ATOM     17  O   UNL     1       1.340  -6.879  -7.417  1.00  0.00    -0.223 OA
BRANCH  13  18
ATOM     18  C   UNL     1       1.830  -4.085  -3.566  1.00  0.00     0.002 A 
ATOM     19  C   UNL     1       1.046  -2.633  -1.306  1.00  0.00     0.082 A 
ATOM     20  C   UNL     1       0.694  -3.980  -1.414  1.00  0.00     0.022 A 
ATOM     21  C   UNL     1       1.805  -2.014  -2.303  1.00  0.00     0.022 A 
ATOM     22  C   UNL     1       1.093  -4.703  -2.538  1.00  0.00     0.012 A 
ATOM     23  C   UNL     1       2.202  -2.743  -3.429  1.00  0.00     0.012 A 
BRANCH  19  24
ATOM     24  S   UNL     1       0.506  -1.755   0.130  1.00  0.00     0.238 S 
ATOM     25  O   UNL     1       1.163  -2.319   1.279  1.00  0.00    -0.207 OA
ATOM     26  O   UNL     1      -0.931  -1.592   0.048  1.00  0.00    -0.207 OA
BRANCH  24  27
ATOM     27  N   UNL     1       1.145  -0.212  -0.046  1.00  0.00    -0.225 NA
ATOM     28  H   UNL     1       0.874   0.361   0.753  1.00  0.00     0.137 HD
ATOM     29  H   UNL     1       0.787   0.209  -0.903  1.00  0.00     0.137 HD
ENDBRANCH  24  27
ENDBRANCH  19  24
ENDBRANCH  13  18
ENDBRANCH   7  12
ENDBRANCH   4   6
ENDBRANCH   3   4
ENDBRANCH   2   3
ENDBRANCH   1   2
BRANCH   1  30
ATOM     30  O   UNL     1      -7.083  -5.676  -5.985  1.00  0.00    -0.374 OA
BRANCH  30  31
ATOM     31  C   UNL     1      -5.914  -5.958  -6.747  1.00  0.00     0.202 C 
BRANCH  31  32
ATOM     32  C   UNL     1      -5.689  -5.225  -8.061  1.00  0.00     0.261 C 
BRANCH  32  33
ATOM     33  O   UNL     1      -5.620  -3.821  -7.880  1.00  0.00    -0.460 OA
BRANCH  33  34
ATOM     34  C   UNL     1      -6.750  -3.168  -8.234  1.00  0.00     0.338 C 
ATOM     35  O   UNL     1      -7.848  -3.654  -8.444  1.00  0.00    -0.246 OA
BRANCH  34  36
ATOM     36  C   UNL     1      -6.416  -1.760  -8.459  1.00  0.00     0.060 A 
ATOM     37  C   UNL     1      -7.439  -0.971  -8.985  1.00  0.00     0.016 A 
ATOM     38  C   UNL     1      -5.070  -1.363  -8.489  1.00  0.00     0.016 A 
ATOM     39  C   UNL     1      -7.082   0.070  -9.808  1.00  0.00     0.010 A 
ATOM     40  C   UNL     1      -4.716  -0.325  -9.310  1.00  0.00     0.010 A 
ATOM     41  C   UNL     1      -5.721   0.291 -10.046  1.00  0.00    -0.014 A 
BRANCH  41  42
ATOM     42  C   UNL     1      -5.359   1.236 -11.075  1.00  0.00     0.031 A 
ATOM     43  C   UNL     1      -5.615   2.631 -10.665  1.00  0.00     0.074 A 
ATOM     44  C   UNL     1      -4.784   0.855 -12.232  1.00  0.00     0.049 A 
ATOM     45  N   UNL     1      -6.544   3.413 -11.097  1.00  0.00    -0.248 NA
ATOM     46  C   UNL     1      -4.896   3.138  -9.484  1.00  0.00     0.031 C 
ATOM     47  C   UNL     1      -4.252  -0.454 -12.623  1.00  0.00     0.029 A 
ATOM     48  N   UNL     1      -4.472   1.628 -13.299  1.00  0.00    -0.354 N 
ATOM     49  C   UNL     1      -6.398   4.595 -10.384  1.00  0.00     0.074 A 
ATOM     50  C   UNL     1      -5.511   4.303  -9.287  1.00  0.00     0.031 C 
ATOM     51  C   UNL     1      -3.463  -0.306 -13.717  1.00  0.00     0.029 A 
ATOM     52  C   UNL     1      -3.563   1.067 -14.186  1.00  0.00     0.049 A 
ATOM     53  H   UNL     1      -4.860   2.522 -13.436  1.00  0.00     0.167 HD
ATOM     54  C   UNL     1      -6.828   5.784 -10.885  1.00  0.00     0.031 A 
ATOM     55  C   UNL     1      -2.906   1.727 -15.177  1.00  0.00     0.031 A 
ATOM     56  C   UNL     1      -7.715   5.597 -12.002  1.00  0.00     0.049 A 
ATOM     57  C   UNL     1      -3.679   2.972 -15.441  1.00  0.00     0.074 A 
ATOM     58  C   UNL     1      -8.968   5.037 -12.155  1.00  0.00     0.029 A 
ATOM     59  N   UNL     1      -7.153   5.631 -13.258  1.00  0.00    -0.354 N 
ATOM     60  N   UNL     1      -4.892   2.966 -15.924  1.00  0.00    -0.248 NA
ATOM     61  C   UNL     1      -3.315   4.168 -14.693  1.00  0.00     0.031 C 
ATOM     62  C   UNL     1      -8.905   4.334 -13.392  1.00  0.00     0.029 A 
ATOM     63  C   UNL     1      -7.653   4.568 -13.968  1.00  0.00     0.049 A 
ATOM     64  H   UNL     1      -6.509   6.298 -13.588  1.00  0.00     0.167 HD
ATOM     65  C   UNL     1      -5.574   3.935 -15.200  1.00  0.00     0.074 A 
ATOM     66  C   UNL     1      -4.532   4.688 -14.500  1.00  0.00     0.031 C 
ATOM     67  C   UNL     1      -6.924   3.860 -15.002  1.00  0.00     0.031 A 
BRANCH  54  68
ATOM     68  C   UNL     1      -6.136   7.090 -10.612  1.00  0.00    -0.014 A 
ATOM     69  C   UNL     1      -6.700   8.274 -11.121  1.00  0.00     0.010 A 
ATOM     70  C   UNL     1      -4.820   7.166 -10.109  1.00  0.00     0.010 A 
ATOM     71  C   UNL     1      -5.957   9.460 -11.180  1.00  0.00     0.020 A 
ATOM     72  C   UNL     1      -4.087   8.351 -10.125  1.00  0.00     0.020 A 
ATOM     73  C   UNL     1      -4.650   9.485 -10.692  1.00  0.00     0.054 A 
BRANCH  73  74
ATOM     74  S   UNL     1      -3.667  10.991 -10.870  1.00  0.00     0.124 S 
ATOM     75  O   UNL     1      -3.547  11.104 -12.320  1.00  0.00    -0.237 OA
ATOM     76  O   UNL     1      -4.513  11.989 -10.222  1.00  0.00    -0.237 OA
ATOM     77  O   UNL     1      -2.428  10.677 -10.162  1.00  0.00    -0.744 OA
ENDBRANCH  73  74
ENDBRANCH  54  68
BRANCH  55  78
ATOM     78  C   UNL     1      -1.477   1.573 -15.572  1.00  0.00    -0.014 A 
ATOM     79  C   UNL     1      -0.972   2.143 -16.758  1.00  0.00     0.010 A 
ATOM     80  C   UNL     1      -0.538   1.107 -14.627  1.00  0.00     0.010 A 
ATOM     81  C   UNL     1       0.415   2.289 -16.965  1.00  0.00     0.020 A 
ATOM     82  C   UNL     1       0.842   1.248 -14.825  1.00  0.00     0.020 A 
ATOM     83  C   UNL     1       1.314   1.858 -15.985  1.00  0.00     0.054 A 
BRANCH  83  84
ATOM     84  S   UNL     1       3.092   2.205 -16.172  1.00  0.00     0.124 S 
ATOM     85  O   UNL     1       3.472   1.312 -17.263  1.00  0.00    -0.237 OA
ATOM     86  O   UNL     1       3.108   3.630 -16.488  1.00  0.00    -0.237 OA
ATOM     87  O   UNL     1       3.650   1.858 -14.866  1.00  0.00    -0.744 OA
ENDBRANCH  83  84
ENDBRANCH  55  78
BRANCH  67  88
ATOM     88  C   UNL     1      -7.712   2.821 -15.772  1.00  0.00    -0.014 A 
ATOM     89  C   UNL     1      -7.561   1.428 -15.605  1.00  0.00     0.010 A 
ATOM     90  C   UNL     1      -8.779   3.287 -16.558  1.00  0.00     0.010 A 
ATOM     91  C   UNL     1      -8.450   0.531 -16.223  1.00  0.00     0.020 A 
ATOM     92  C   UNL     1      -9.676   2.402 -17.160  1.00  0.00     0.020 A 
ATOM     93  C   UNL     1      -9.505   1.028 -16.996  1.00  0.00     0.054 A 
BRANCH  93  94
ATOM     94  S   UNL     1     -10.691  -0.122 -17.752  1.00  0.00     0.124 S 
ATOM     95  O   UNL     1      -9.883  -0.784 -18.773  1.00  0.00    -0.237 OA
ATOM     96  O   UNL     1     -11.095  -0.961 -16.627  1.00  0.00    -0.237 OA
ATOM     97  O   UNL     1     -11.743   0.752 -18.269  1.00  0.00    -0.744 OA
ENDBRANCH  93  94
ENDBRANCH  67  88
ENDBRANCH  41  42
ENDBRANCH  34  36
ENDBRANCH  33  34
ENDBRANCH  32  33
ENDBRANCH  31  32
ENDBRANCH  30  31
ENDBRANCH   1  30
TORSDOF 21
