REMARK SMILES COc1ccc(N2CC[C@H](C(=O)OCCOCCOC(=O)c3ccc(-c4c5nc(c(-c6ccc(S(=O)(=O)[O-])cc6)c6ccc([nH]6)c(-c6ccc(S(=O)(=O)[O-])cc6)c6nc(c(-c7ccc(S(=O)(=O)[O-])cc7)c7ccc4[nH]7)C=C6)C=C5)cc3)C2=O)cc1
REMARK SMILES IDX 17 1 16 2 15 3 14 4 13 5 11 6 12 7 10 8 7 9 8 10 82 11 9 12
REMARK SMILES IDX 83 13 6 14 3 15 4 16 85 17 5 18 84 19 2 20 1 21 18 22 19 23
REMARK SMILES IDX 20 24 21 25 22 26 23 27 81 28 24 29 80 30 25 31 26 32 27 33
REMARK SMILES IDX 74 34 28 35 79 36 73 37 75 38 29 39 78 40 72 41 71 42 30 44
REMARK SMILES IDX 60 45 41 46 59 47 42 48 45 49 58 50 76 51 43 52 44 53 57 55
REMARK SMILES IDX 77 56 46 57 31 58 32 59 40 60 33 61 39 62 34 63 35 64 36 65
REMARK SMILES IDX 37 66 38 67 61 68 62 69 70 70 63 71 69 72 64 73 65 74 66 75
REMARK SMILES IDX 67 76 68 77 47 78 48 79 56 80 49 81 55 82 50 83 51 84 52 85
REMARK SMILES IDX 53 86 54 87
REMARK H PARENT 75 43 45 54
REMARK Flexibility Score: inf
ROOT
ATOM      1  C   UNL     1       2.537   8.453   5.574  1.00  0.00     0.202 C 
ENDROOT
BRANCH   1   2
ATOM      2  O   UNL     1       3.279   9.316   6.437  1.00  0.00    -0.374 OA
BRANCH   2   3
ATOM      3  C   UNL     1       4.703   9.286   6.315  1.00  0.00     0.202 C 
BRANCH   3   4
ATOM      4  C   UNL     1       5.401   8.110   7.000  1.00  0.00     0.261 C 
BRANCH   4   5
ATOM      5  O   UNL     1       4.958   6.855   6.451  1.00  0.00    -0.463 OA
BRANCH   5   6
ATOM      6  C   UNL     1       4.451   5.967   7.334  1.00  0.00     0.318 C 
ATOM      7  O   UNL     1       4.464   6.117   8.554  1.00  0.00    -0.251 OA
BRANCH   6   8
ATOM      8  C   UNL     1       3.765   4.784   6.720  1.00  0.00     0.190 C 
ATOM      9  N   UNL     1       2.370   4.134   4.938  1.00  0.00    -0.312 N 
ATOM     10  C   UNL     1       1.590   3.963   6.139  1.00  0.00     0.127 C 
ATOM     11  C   UNL     1       3.653   4.647   5.220  1.00  0.00     0.241 C 
ATOM     12  C   UNL     1       2.305   4.793   7.173  1.00  0.00     0.047 C 
ATOM     13  O   UNL     1       4.548   4.867   4.419  1.00  0.00    -0.274 OA
BRANCH   9  14
ATOM     14  C   UNL     1       1.954   3.527   3.726  1.00  0.00     0.044 A 
ATOM     15  C   UNL     1       1.067   2.063   1.479  1.00  0.00     0.119 A 
ATOM     16  C   UNL     1       0.158   2.762   2.268  1.00  0.00     0.048 A 
ATOM     17  C   UNL     1       2.426   2.144   1.775  1.00  0.00     0.048 A 
ATOM     18  C   UNL     1       0.593   3.467   3.395  1.00  0.00     0.030 A 
ATOM     19  C   UNL     1       2.868   2.890   2.880  1.00  0.00     0.030 A 
BRANCH  15  20
ATOM     20  O   UNL     1       0.528   1.377   0.426  1.00  0.00    -0.497 OA
ATOM     21  C   UNL     1       1.188   0.158   0.100  1.00  0.00     0.278 C 
ENDBRANCH  15  20
ENDBRANCH   9  14
ENDBRANCH   6   8
ENDBRANCH   5   6
ENDBRANCH   4   5
ENDBRANCH   3   4
ENDBRANCH   2   3
ENDBRANCH   1   2
BRANCH   1  22
ATOM     22  C   UNL     1       2.390   8.896   4.114  1.00  0.00     0.261 C 
BRANCH  22  23
ATOM     23  O   UNL     1       3.638   8.848   3.404  1.00  0.00    -0.460 OA
BRANCH  23  24
ATOM     24  C   UNL     1       4.150  10.054   3.066  1.00  0.00     0.338 C 
ATOM     25  O   UNL     1       3.628  11.148   3.239  1.00  0.00    -0.246 OA
BRANCH  24  26
ATOM     26  C   UNL     1       5.546   9.907   2.609  1.00  0.00     0.060 A 
ATOM     27  C   UNL     1       6.500  10.774   3.160  1.00  0.00     0.016 A 
ATOM     28  C   UNL     1       5.909   8.993   1.617  1.00  0.00     0.016 A 
ATOM     29  C   UNL     1       7.807  10.773   2.678  1.00  0.00     0.010 A 
ATOM     30  C   UNL     1       7.220   9.001   1.128  1.00  0.00     0.010 A 
ATOM     31  C   UNL     1       8.163   9.918   1.628  1.00  0.00    -0.014 A 
BRANCH  31  32
ATOM     32  C   UNL     1       9.466  10.101   0.945  1.00  0.00     0.031 A 
ATOM     33  C   UNL     1       9.507  10.884  -0.340  1.00  0.00     0.074 A 
ATOM     34  C   UNL     1      10.601   9.607   1.472  1.00  0.00     0.049 A 
ATOM     35  N   UNL     1      10.524  11.143  -1.120  1.00  0.00    -0.248 NA
ATOM     36  C   UNL     1       8.230  11.452  -0.804  1.00  0.00     0.031 C 
ATOM     37  C   UNL     1      10.699   8.874   2.734  1.00  0.00     0.029 A 
ATOM     38  N   UNL     1      11.890   9.646   1.003  1.00  0.00    -0.354 N 
ATOM     39  C   UNL     1      10.010  11.893  -2.172  1.00  0.00     0.074 A 
ATOM     40  C   UNL     1       8.588  12.028  -1.943  1.00  0.00     0.031 C 
ATOM     41  C   UNL     1      11.982   8.524   2.935  1.00  0.00     0.029 A 
ATOM     42  C   UNL     1      12.787   8.978   1.802  1.00  0.00     0.049 A 
ATOM     43  H   UNL     1      12.148  10.108   0.173  1.00  0.00     0.167 HD
ATOM     44  C   UNL     1      10.663  12.425  -3.233  1.00  0.00     0.031 A 
ATOM     45  C   UNL     1      14.103   8.741   1.628  1.00  0.00     0.031 A 
ATOM     46  C   UNL     1      12.074  12.278  -3.467  1.00  0.00     0.049 A 
ATOM     47  C   UNL     1      14.795   9.280   0.403  1.00  0.00     0.074 A 
ATOM     48  C   UNL     1      12.831  12.785  -4.509  1.00  0.00     0.029 A 
ATOM     49  N   UNL     1      12.941  11.567  -2.651  1.00  0.00    -0.354 N 
ATOM     50  N   UNL     1      14.299  10.001  -0.575  1.00  0.00    -0.248 NA
ATOM     51  C   UNL     1      16.227   8.980   0.262  1.00  0.00     0.031 C 
ATOM     52  C   UNL     1      14.147  12.337  -4.351  1.00  0.00     0.029 A 
ATOM     53  C   UNL     1      14.221  11.602  -3.178  1.00  0.00     0.049 A 
ATOM     54  H   UNL     1      12.684  11.105  -1.821  1.00  0.00     0.167 HD
ATOM     55  C   UNL     1      15.365  10.266  -1.429  1.00  0.00     0.074 A 
ATOM     56  C   UNL     1      16.532   9.636  -0.850  1.00  0.00     0.031 C 
ATOM     57  C   UNL     1      15.375  10.974  -2.587  1.00  0.00     0.031 A 
BRANCH  44  58
ATOM     58  C   UNL     1       9.844  13.185  -4.242  1.00  0.00    -0.014 A 
ATOM     59  C   UNL     1       9.316  14.455  -3.946  1.00  0.00     0.010 A 
ATOM     60  C   UNL     1       9.625  12.633  -5.517  1.00  0.00     0.010 A 
ATOM     61  C   UNL     1       8.552  15.141  -4.894  1.00  0.00     0.020 A 
ATOM     62  C   UNL     1       8.883  13.327  -6.476  1.00  0.00     0.020 A 
ATOM     63  C   UNL     1       8.336  14.570  -6.152  1.00  0.00     0.054 A 
BRANCH  63  64
ATOM     64  S   UNL     1       7.356  15.489  -7.370  1.00  0.00     0.124 S 
ATOM     65  O   UNL     1       6.002  15.340  -6.842  1.00  0.00    -0.237 OA
ATOM     66  O   UNL     1       7.917  16.835  -7.285  1.00  0.00    -0.237 OA
ATOM     67  O   UNL     1       7.615  14.788  -8.625  1.00  0.00    -0.744 OA
ENDBRANCH  63  64
ENDBRANCH  44  58
BRANCH  45  68
ATOM     68  C   UNL     1      14.851   7.936   2.632  1.00  0.00    -0.014 A 
ATOM     69  C   UNL     1      15.812   8.537   3.463  1.00  0.00     0.010 A 
ATOM     70  C   UNL     1      14.601   6.557   2.762  1.00  0.00     0.010 A 
ATOM     71  C   UNL     1      16.520   7.771   4.395  1.00  0.00     0.020 A 
ATOM     72  C   UNL     1      15.287   5.794   3.710  1.00  0.00     0.020 A 
ATOM     73  C   UNL     1      16.251   6.404   4.514  1.00  0.00     0.054 A 
BRANCH  73  74
ATOM     74  S   UNL     1      17.144   5.441   5.766  1.00  0.00     0.124 S 
ATOM     75  O   UNL     1      18.468   5.315   5.166  1.00  0.00    -0.237 OA
ATOM     76  O   UNL     1      17.061   6.300   6.944  1.00  0.00    -0.237 OA
ATOM     77  O   UNL     1      16.375   4.201   5.854  1.00  0.00    -0.744 OA
ENDBRANCH  73  74
ENDBRANCH  45  68
BRANCH  57  78
ATOM     78  C   UNL     1      16.697  11.148  -3.287  1.00  0.00    -0.014 A 
ATOM     79  C   UNL     1      17.303  10.088  -3.982  1.00  0.00     0.010 A 
ATOM     80  C   UNL     1      17.307  12.417  -3.304  1.00  0.00     0.010 A 
ATOM     81  C   UNL     1      18.509  10.287  -4.662  1.00  0.00     0.020 A 
ATOM     82  C   UNL     1      18.498  12.626  -4.003  1.00  0.00     0.020 A 
ATOM     83  C   UNL     1      19.098  11.555  -4.668  1.00  0.00     0.054 A 
BRANCH  83  84
ATOM     84  S   UNL     1      20.635  11.801  -5.601  1.00  0.00     0.124 S 
ATOM     85  O   UNL     1      21.620  11.152  -4.740  1.00  0.00    -0.237 OA
ATOM     86  O   UNL     1      20.358  11.122  -6.864  1.00  0.00    -0.237 OA
ATOM     87  O   UNL     1      20.754  13.255  -5.696  1.00  0.00    -0.744 OA
ENDBRANCH  83  84
ENDBRANCH  57  78
ENDBRANCH  31  32
ENDBRANCH  24  26
ENDBRANCH  23  24
ENDBRANCH  22  23
ENDBRANCH   1  22
TORSDOF 19
