REMARK SMILES Cc1ncccc1NC(=O)NC[C@H]1CCC[C@H]1C(=O)OCCOCCOC(=O)c1ccc(-c2c3nc(c(-c4ccc(S(=O)(=O)[O-])cc4)c4ccc([nH]4)c(-c4ccc(S(=O)(=O)[O-])cc4)c4nc(c(-c5ccc(S(=O)(=O)[O-])cc5)c5ccc2[nH]5)C=C4)C=C3)cc1
REMARK SMILES IDX 23 1 22 2 21 3 20 4 18 5 19 6 17 7 13 8 14 9 15 10 16 11
REMARK SMILES IDX 12 12 11 13 8 14 9 15 10 17 7 19 1 20 2 21 3 22 4 23 6 24
REMARK SMILES IDX 5 25 24 26 25 27 26 28 27 29 28 30 29 31 30 32 88 33 31 34
REMARK SMILES IDX 87 35 32 36 33 37 34 38 81 39 35 40 86 41 80 42 82 43 36 44
REMARK SMILES IDX 85 45 79 46 78 47 37 49 67 50 48 51 66 52 49 53 52 54 65 55
REMARK SMILES IDX 83 56 50 57 51 58 64 60 84 61 53 62 38 63 39 64 47 65 40 66
REMARK SMILES IDX 46 67 41 68 42 69 43 70 44 71 45 72 68 73 69 74 77 75 70 76
REMARK SMILES IDX 76 77 71 78 72 79 73 80 74 81 75 82 54 83 55 84 63 85 56 86
REMARK SMILES IDX 62 87 57 88 58 89 59 90 60 91 61 92
REMARK H PARENT 8 16 11 18 82 48 52 59
REMARK Flexibility Score: inf
ROOT
ATOM      1  O   UNL     1      -2.859   2.311   0.690  1.00  0.00    -0.374 OA
ENDROOT
BRANCH   1   2
ATOM      2  C   UNL     1      -4.133   2.336   0.041  1.00  0.00     0.202 C 
BRANCH   2   3
ATOM      3  C   UNL     1      -4.086   2.369  -1.490  1.00  0.00     0.261 C 
BRANCH   3   4
ATOM      4  O   UNL     1      -3.867   1.039  -2.001  1.00  0.00    -0.463 OA
BRANCH   4   5
ATOM      5  C   UNL     1      -2.633   0.766  -2.482  1.00  0.00     0.309 C 
ATOM      6  O   UNL     1      -1.740   1.591  -2.633  1.00  0.00    -0.252 OA
BRANCH   5   7
ATOM      7  C   UNL     1      -2.428  -0.707  -2.770  1.00  0.00     0.104 C 
ATOM      8  C   UNL     1      -2.731  -1.739  -1.666  1.00  0.00     0.022 C 
ATOM      9  C   UNL     1      -2.563  -3.038  -2.453  1.00  0.00     0.006 C 
ATOM     10  C   UNL     1      -3.141  -2.760  -3.839  1.00  0.00     0.001 C 
ATOM     11  C   UNL     1      -3.144  -1.237  -4.007  1.00  0.00     0.016 C 
BRANCH   8  12
ATOM     12  C   UNL     1      -4.065  -1.634  -0.902  1.00  0.00     0.122 C 
BRANCH  12  13
ATOM     13  N   UNL     1      -5.253  -1.363  -1.669  1.00  0.00    -0.338 N 
ATOM     14  N   UNL     1      -6.712  -3.189  -2.240  1.00  0.00    -0.306 N 
ATOM     15  C   UNL     1      -6.344  -1.919  -2.152  1.00  0.00     0.319 C 
ATOM     16  H   UNL     1      -7.574  -3.232  -2.712  1.00  0.00     0.171 HD
ATOM     17  O   UNL     1      -7.135  -1.110  -2.663  1.00  0.00    -0.249 OA
ATOM     18  H   UNL     1      -5.247  -0.412  -1.927  1.00  0.00     0.165 HD
BRANCH  14  19
ATOM     19  C   UNL     1      -6.322  -4.495  -1.905  1.00  0.00     0.064 A 
ATOM     20  C   UNL     1      -8.174  -5.497  -3.400  1.00  0.00     0.069 C 
ATOM     21  C   UNL     1      -7.006  -5.600  -2.458  1.00  0.00     0.061 A 
ATOM     22  N   UNL     1      -6.668  -6.898  -2.194  1.00  0.00    -0.259 NA
ATOM     23  C   UNL     1      -5.647  -7.131  -1.353  1.00  0.00     0.111 A 
ATOM     24  C   UNL     1      -5.303  -4.807  -1.018  1.00  0.00     0.030 A 
ATOM     25  C   UNL     1      -4.940  -6.125  -0.744  1.00  0.00     0.022 A 
ENDBRANCH  14  19
ENDBRANCH  12  13
ENDBRANCH   8  12
ENDBRANCH   5   7
ENDBRANCH   4   5
ENDBRANCH   3   4
ENDBRANCH   2   3
ENDBRANCH   1   2
BRANCH   1  26
ATOM     26  C   UNL     1      -2.276   1.033   0.928  1.00  0.00     0.202 C 
BRANCH  26  27
ATOM     27  C   UNL     1      -2.793   0.260   2.156  1.00  0.00     0.261 C 
BRANCH  27  28
ATOM     28  O   UNL     1      -4.195  -0.064   2.082  1.00  0.00    -0.460 OA
BRANCH  28  29
ATOM     29  C   UNL     1      -5.005   0.782   2.770  1.00  0.00     0.338 C 
ATOM     30  O   UNL     1      -4.648   1.705   3.481  1.00  0.00    -0.246 OA
BRANCH  29  31
ATOM     31  C   UNL     1      -6.424   0.564   2.407  1.00  0.00     0.060 A 
ATOM     32  C   UNL     1      -7.190   1.704   2.133  1.00  0.00     0.016 A 
ATOM     33  C   UNL     1      -7.023  -0.699   2.407  1.00  0.00     0.016 A 
ATOM     34  C   UNL     1      -8.565   1.597   1.929  1.00  0.00     0.010 A 
ATOM     35  C   UNL     1      -8.408  -0.804   2.201  1.00  0.00     0.010 A 
ATOM     36  C   UNL     1      -9.194   0.347   2.006  1.00  0.00    -0.014 A 
BRANCH  36  37
ATOM     37  C   UNL     1     -10.681   0.283   2.029  1.00  0.00     0.031 A 
ATOM     38  C   UNL     1     -11.392   0.058   3.340  1.00  0.00     0.074 A 
ATOM     39  C   UNL     1     -11.401   0.491   0.910  1.00  0.00     0.049 A 
ATOM     40  N   UNL     1     -12.676  -0.000   3.589  1.00  0.00    -0.248 NA
ATOM     41  C   UNL     1     -10.543  -0.125   4.527  1.00  0.00     0.031 C 
ATOM     42  C   UNL     1     -10.846   0.767  -0.414  1.00  0.00     0.029 A 
ATOM     43  N   UNL     1     -12.761   0.511   0.715  1.00  0.00    -0.354 N 
ATOM     44  C   UNL     1     -12.789  -0.238   4.955  1.00  0.00     0.074 A 
ATOM     45  C   UNL     1     -11.443  -0.345   5.474  1.00  0.00     0.031 C 
ATOM     46  C   UNL     1     -11.857   0.940  -1.283  1.00  0.00     0.029 A 
ATOM     47  C   UNL     1     -13.129   0.749  -0.589  1.00  0.00     0.049 A 
ATOM     48  H   UNL     1     -13.412   0.368   1.440  1.00  0.00     0.167 HD
ATOM     49  C   UNL     1     -13.908  -0.350   5.711  1.00  0.00     0.031 A 
ATOM     50  C   UNL     1     -14.349   0.791  -1.163  1.00  0.00     0.031 A 
ATOM     51  C   UNL     1     -15.249  -0.254   5.195  1.00  0.00     0.049 A 
ATOM     52  C   UNL     1     -15.578   0.585  -0.316  1.00  0.00     0.074 A 
ATOM     53  C   UNL     1     -16.445  -0.333   5.889  1.00  0.00     0.029 A 
ATOM     54  N   UNL     1     -15.576  -0.071   3.860  1.00  0.00    -0.354 N 
ATOM     55  N   UNL     1     -15.667   0.390   0.978  1.00  0.00    -0.248 NA
ATOM     56  C   UNL     1     -16.875   0.611  -1.010  1.00  0.00     0.031 C 
ATOM     57  C   UNL     1     -17.493  -0.268   4.966  1.00  0.00     0.029 A 
ATOM     58  C   UNL     1     -16.953  -0.071   3.705  1.00  0.00     0.049 A 
ATOM     59  H   UNL     1     -14.925   0.043   3.130  1.00  0.00     0.167 HD
ATOM     60  C   UNL     1     -17.028   0.302   1.257  1.00  0.00     0.074 A 
ATOM     61  C   UNL     1     -17.725   0.477   0.000  1.00  0.00     0.031 C 
ATOM     62  C   UNL     1     -17.643   0.099   2.450  1.00  0.00     0.031 A 
BRANCH  49  63
ATOM     63  C   UNL     1     -13.730  -0.638   7.181  1.00  0.00    -0.014 A 
ATOM     64  C   UNL     1     -13.201   0.324   8.061  1.00  0.00     0.010 A 
ATOM     65  C   UNL     1     -14.132  -1.885   7.697  1.00  0.00     0.010 A 
ATOM     66  C   UNL     1     -13.034   0.027   9.418  1.00  0.00     0.020 A 
ATOM     67  C   UNL     1     -13.997  -2.174   9.057  1.00  0.00     0.020 A 
ATOM     68  C   UNL     1     -13.429  -1.222   9.906  1.00  0.00     0.054 A 
BRANCH  68  69
ATOM     69  S   UNL     1     -13.206  -1.578  11.671  1.00  0.00     0.124 S 
ATOM     70  O   UNL     1     -11.754  -1.708  11.770  1.00  0.00    -0.237 OA
ATOM     71  O   UNL     1     -13.775  -0.395  12.310  1.00  0.00    -0.237 OA
ATOM     72  O   UNL     1     -13.955  -2.815  11.874  1.00  0.00    -0.744 OA
ENDBRANCH  68  69
ENDBRANCH  49  63
BRANCH  50  73
ATOM     73  C   UNL     1     -14.469   1.028  -2.630  1.00  0.00    -0.014 A 
ATOM     74  C   UNL     1     -15.027   2.219  -3.125  1.00  0.00     0.010 A 
ATOM     75  C   UNL     1     -14.015   0.057  -3.543  1.00  0.00     0.010 A 
ATOM     76  C   UNL     1     -15.139   2.431  -4.503  1.00  0.00     0.020 A 
ATOM     77  C   UNL     1     -14.097   0.278  -4.920  1.00  0.00     0.020 A 
ATOM     78  C   UNL     1     -14.667   1.461  -5.392  1.00  0.00     0.054 A 
BRANCH  78  79
ATOM     79  S   UNL     1     -14.764   1.786  -7.174  1.00  0.00     0.124 S 
ATOM     80  O   UNL     1     -16.198   1.680  -7.425  1.00  0.00    -0.237 OA
ATOM     81  O   UNL     1     -14.201   3.130  -7.279  1.00  0.00    -0.237 OA
ATOM     82  O   UNL     1     -13.946   0.728  -7.762  1.00  0.00    -0.744 OA
ENDBRANCH  78  79
ENDBRANCH  50  73
BRANCH  62  83
ATOM     83  C   UNL     1     -19.152   0.090   2.469  1.00  0.00    -0.014 A 
ATOM     84  C   UNL     1     -19.889  -0.965   1.903  1.00  0.00     0.010 A 
ATOM     85  C   UNL     1     -19.842   1.131   3.118  1.00  0.00     0.010 A 
ATOM     86  C   UNL     1     -21.287  -0.962   1.957  1.00  0.00     0.020 A 
ATOM     87  C   UNL     1     -21.237   1.123   3.203  1.00  0.00     0.020 A 
ATOM     88  C   UNL     1     -21.952   0.082   2.608  1.00  0.00     0.054 A 
BRANCH  88  89
ATOM     89  S   UNL     1     -23.763   0.040   2.701  1.00  0.00     0.124 S 
ATOM     90  O   UNL     1     -24.147   0.332   1.323  1.00  0.00    -0.237 OA
ATOM     91  O   UNL     1     -24.029  -1.324   3.151  1.00  0.00    -0.237 OA
ATOM     92  O   UNL     1     -24.086   1.084   3.672  1.00  0.00    -0.744 OA
ENDBRANCH  88  89
ENDBRANCH  62  83
ENDBRANCH  36  37
ENDBRANCH  29  31
ENDBRANCH  28  29
ENDBRANCH  27  28
ENDBRANCH  26  27
ENDBRANCH   1  26
TORSDOF 20
