REMARK SMILES C[C@@H](C[C@H]([NH3+])C(=O)OCCOCCOC(=O)c1ccc(-c2c3nc(c(-c4ccc(S(=O)(=O)[O-])cc4)c4ccc([nH]4)c(-c4ccc(S(=O)(=O)[O-])cc4)c4nc(c(-c5ccc(S(=O)(=O)[O-])cc5)c5ccc2[nH]5)C=C4)C=C3)cc1)C1CCOCC1
REMARK SMILES IDX 11 1 10 2 9 3 8 4 6 5 7 6 4 7 3 8 2 9 1 10 77 11 78 12 82 13
REMARK SMILES IDX 79 14 81 15 80 16 5 17 12 21 13 22 14 23 15 24 16 25 17 26
REMARK SMILES IDX 18 27 76 28 19 29 75 30 20 31 21 32 22 33 69 34 23 35 74 36
REMARK SMILES IDX 68 37 70 38 24 39 73 40 67 41 66 42 25 44 55 45 36 46 54 47
REMARK SMILES IDX 37 48 40 49 53 50 71 51 38 52 39 53 52 55 72 56 41 57 26 58
REMARK SMILES IDX 27 59 35 60 28 61 34 62 29 63 30 64 31 65 32 66 33 67 56 68
REMARK SMILES IDX 57 69 65 70 58 71 64 72 59 73 60 74 61 75 62 76 63 77 42 78
REMARK SMILES IDX 43 79 51 80 44 81 50 82 45 83 46 84 47 85 48 86 49 87
REMARK H PARENT 5 18 5 19 5 20 70 43 40 54
REMARK Flexibility Score: inf
ROOT
ATOM      1  O   UNL     1       3.432   4.542  -4.147  1.00  0.00    -0.374 OA
ENDROOT
BRANCH   1   2
ATOM      2  C   UNL     1       2.280   5.397  -4.160  1.00  0.00     0.202 C 
BRANCH   2   3
ATOM      3  C   UNL     1       0.974   4.711  -4.577  1.00  0.00     0.261 C 
BRANCH   3   4
ATOM      4  O   UNL     1       0.452   3.951  -3.470  1.00  0.00    -0.459 OA
BRANCH   4   5
ATOM      5  C   UNL     1       0.138   2.651  -3.705  1.00  0.00     0.364 C 
ATOM      6  O   UNL     1       0.101   2.124  -4.812  1.00  0.00    -0.245 OA
BRANCH   5   7
ATOM      7  C   UNL     1      -0.117   1.870  -2.399  1.00  0.00     0.292 C 
BRANCH   7   8
ATOM      8  C   UNL     1      -1.519   2.104  -1.805  1.00  0.00     0.081 C 
BRANCH   8   9
ATOM      9  C   UNL     1      -1.824   3.166  -0.715  1.00  0.00    -0.004 C 
ATOM     10  C   UNL     1      -1.626   4.596  -1.226  1.00  0.00     0.008 C 
BRANCH   9  11
ATOM     11  C   UNL     1      -1.278   2.936   0.739  1.00  0.00    -0.004 C 
ATOM     12  C   UNL     1      -0.064   3.813   1.112  1.00  0.00     0.032 C 
ATOM     13  C   UNL     1      -1.116   1.450   1.128  1.00  0.00     0.032 C 
ATOM     14  C   UNL     1       0.583   3.398   2.423  1.00  0.00     0.160 C 
ATOM     15  C   UNL     1      -0.334   1.239   2.417  1.00  0.00     0.160 C 
ATOM     16  O   UNL     1       0.868   2.002   2.409  1.00  0.00    -0.381 OA
ENDBRANCH   9  11
ENDBRANCH   8   9
ENDBRANCH   7   8
BRANCH   7  17
ATOM     17  N   UNL     1       1.043   1.944  -1.500  1.00  0.00    -0.346 N 
ATOM     18  H   UNL     1       1.198   2.913  -1.223  1.00  0.00     0.345 HD
ATOM     19  H   UNL     1       1.870   1.593  -1.983  1.00  0.00     0.345 HD
ATOM     20  H   UNL     1       0.867   1.377  -0.670  1.00  0.00     0.345 HD
ENDBRANCH   7  17
ENDBRANCH   5   7
ENDBRANCH   4   5
ENDBRANCH   3   4
ENDBRANCH   2   3
ENDBRANCH   1   2
BRANCH   1  21
ATOM     21  C   UNL     1       3.529   3.659  -3.030  1.00  0.00     0.202 C 
BRANCH  21  22
ATOM     22  C   UNL     1       4.252   4.215  -1.799  1.00  0.00     0.261 C 
BRANCH  22  23
ATOM     23  O   UNL     1       3.608   5.388  -1.277  1.00  0.00    -0.460 OA
BRANCH  23  24
ATOM     24  C   UNL     1       4.201   6.550  -1.631  1.00  0.00     0.338 C 
ATOM     25  O   UNL     1       5.255   6.686  -2.240  1.00  0.00    -0.246 OA
BRANCH  24  26
ATOM     26  C   UNL     1       3.318   7.688  -1.321  1.00  0.00     0.060 A 
ATOM     27  C   UNL     1       3.110   8.627  -2.338  1.00  0.00     0.016 A 
ATOM     28  C   UNL     1       2.764   7.880  -0.052  1.00  0.00     0.016 A 
ATOM     29  C   UNL     1       2.397   9.791  -2.074  1.00  0.00     0.010 A 
ATOM     30  C   UNL     1       2.049   9.055   0.212  1.00  0.00     0.010 A 
ATOM     31  C   UNL     1       1.896  10.033  -0.788  1.00  0.00    -0.014 A 
BRANCH  31  32
ATOM     32  C   UNL     1       1.335  11.371  -0.481  1.00  0.00     0.031 A 
ATOM     33  C   UNL     1       2.195  12.387   0.222  1.00  0.00     0.074 A 
ATOM     34  C   UNL     1       0.097  11.701  -0.892  1.00  0.00     0.049 A 
ATOM     35  N   UNL     1       1.928  13.634   0.514  1.00  0.00    -0.248 NA
ATOM     36  C   UNL     1       3.532  11.942   0.645  1.00  0.00     0.031 C 
ATOM     37  C   UNL     1      -0.819  10.816  -1.610  1.00  0.00     0.029 A 
ATOM     38  N   UNL     1      -0.597  12.880  -0.773  1.00  0.00    -0.354 N 
ATOM     39  C   UNL     1       3.061  14.123   1.154  1.00  0.00     0.074 A 
ATOM     40  C   UNL     1       4.004  13.029   1.238  1.00  0.00     0.031 C 
ATOM     41  C   UNL     1      -1.953  11.486  -1.877  1.00  0.00     0.029 A 
ATOM     42  C   UNL     1      -1.853  12.837  -1.328  1.00  0.00     0.049 A 
ATOM     43  H   UNL     1      -0.229  13.680  -0.333  1.00  0.00     0.167 HD
ATOM     44  C   UNL     1       3.300  15.372   1.621  1.00  0.00     0.031 A 
ATOM     45  C   UNL     1      -2.816  13.778  -1.383  1.00  0.00     0.031 A 
ATOM     46  C   UNL     1       2.356  16.456   1.549  1.00  0.00     0.049 A 
ATOM     47  C   UNL     1      -2.550  15.142  -0.803  1.00  0.00     0.074 A 
ATOM     48  C   UNL     1       2.513  17.764   1.976  1.00  0.00     0.029 A 
ATOM     49  N   UNL     1       1.076  16.359   1.025  1.00  0.00    -0.354 N 
ATOM     50  N   UNL     1      -1.459  15.598  -0.235  1.00  0.00    -0.248 NA
ATOM     51  C   UNL     1      -3.643  16.122  -0.884  1.00  0.00     0.031 C 
ATOM     52  C   UNL     1       1.308  18.442   1.762  1.00  0.00     0.029 A 
ATOM     53  C   UNL     1       0.420  17.573   1.147  1.00  0.00     0.049 A 
ATOM     54  H   UNL     1       0.690  15.546   0.626  1.00  0.00     0.167 HD
ATOM     55  C   UNL     1      -1.728  16.923   0.092  1.00  0.00     0.074 A 
ATOM     56  C   UNL     1      -3.077  17.200  -0.359  1.00  0.00     0.031 C 
ATOM     57  C   UNL     1      -0.928  17.831   0.706  1.00  0.00     0.031 A 
BRANCH  44  58
ATOM     58  C   UNL     1       4.628  15.623   2.284  1.00  0.00    -0.014 A 
ATOM     59  C   UNL     1       5.817  15.687   1.536  1.00  0.00     0.010 A 
ATOM     60  C   UNL     1       4.682  15.833   3.675  1.00  0.00     0.010 A 
ATOM     61  C   UNL     1       7.041  15.917   2.171  1.00  0.00     0.020 A 
ATOM     62  C   UNL     1       5.901  16.089   4.310  1.00  0.00     0.020 A 
ATOM     63  C   UNL     1       7.075  16.112   3.555  1.00  0.00     0.054 A 
BRANCH  63  64
ATOM     64  S   UNL     1       8.675  16.425   4.353  1.00  0.00     0.124 S 
ATOM     65  O   UNL     1       9.294  15.103   4.314  1.00  0.00    -0.237 OA
ATOM     66  O   UNL     1       9.279  17.428   3.479  1.00  0.00    -0.237 OA
ATOM     67  O   UNL     1       8.310  16.902   5.685  1.00  0.00    -0.744 OA
ENDBRANCH  63  64
ENDBRANCH  44  58
BRANCH  45  68
ATOM     68  C   UNL     1      -4.129  13.454  -2.004  1.00  0.00    -0.014 A 
ATOM     69  C   UNL     1      -4.506  14.022  -3.232  1.00  0.00     0.010 A 
ATOM     70  C   UNL     1      -5.007  12.558  -1.365  1.00  0.00     0.010 A 
ATOM     71  C   UNL     1      -5.742  13.707  -3.808  1.00  0.00     0.020 A 
ATOM     72  C   UNL     1      -6.230  12.221  -1.949  1.00  0.00     0.020 A 
ATOM     73  C   UNL     1      -6.594  12.805  -3.164  1.00  0.00     0.054 A 
BRANCH  73  74
ATOM     74  S   UNL     1      -8.163  12.358  -3.958  1.00  0.00     0.124 S 
ATOM     75  O   UNL     1      -8.971  13.552  -3.726  1.00  0.00    -0.237 OA
ATOM     76  O   UNL     1      -7.761  12.124  -5.343  1.00  0.00    -0.237 OA
ATOM     77  O   UNL     1      -8.585  11.164  -3.230  1.00  0.00    -0.744 OA
ENDBRANCH  73  74
ENDBRANCH  45  68
BRANCH  57  78
ATOM     78  C   UNL     1      -1.483  19.215   0.913  1.00  0.00    -0.014 A 
ATOM     79  C   UNL     1      -2.480  19.464   1.873  1.00  0.00     0.010 A 
ATOM     80  C   UNL     1      -0.968  20.291   0.166  1.00  0.00     0.010 A 
ATOM     81  C   UNL     1      -2.977  20.757   2.057  1.00  0.00     0.020 A 
ATOM     82  C   UNL     1      -1.444  21.589   0.365  1.00  0.00     0.020 A 
ATOM     83  C   UNL     1      -2.458  21.812   1.299  1.00  0.00     0.054 A 
BRANCH  83  84
ATOM     84  S   UNL     1      -3.098  23.486   1.577  1.00  0.00     0.124 S 
ATOM     85  O   UNL     1      -4.401  23.426   0.921  1.00  0.00    -0.237 OA
ATOM     86  O   UNL     1      -3.131  23.581   3.034  1.00  0.00    -0.237 OA
ATOM     87  O   UNL     1      -2.112  24.346   0.925  1.00  0.00    -0.744 OA
ENDBRANCH  83  84
ENDBRANCH  57  78
ENDBRANCH  31  32
ENDBRANCH  24  26
ENDBRANCH  23  24
ENDBRANCH  22  23
ENDBRANCH  21  22
ENDBRANCH   1  21
TORSDOF 21
