REMARK SMILES C[C@H](CC(=O)OCCOCCOC(=O)c1ccc(-c2c3nc(c(-c4ccc(S(=O)(=O)[O-])cc4)c4ccc([nH]4)c(-c4ccc(S(=O)(=O)[O-])cc4)c4nc(c(-c5ccc(S(=O)(=O)[O-])cc5)c5ccc2[nH]5)C=C4)C=C3)cc1)[NH2+][C@H](C)c1ccccc1
REMARK SMILES IDX 8 1 7 2 6 3 4 4 5 5 3 6 2 7 1 8 75 9 76 12 77 13 78 14 79 15
REMARK SMILES IDX 83 16 80 17 82 18 81 19 9 20 10 21 11 22 12 23 13 24 14 25
REMARK SMILES IDX 15 26 16 27 74 28 17 29 73 30 18 31 19 32 20 33 67 34 21 35
REMARK SMILES IDX 72 36 66 37 68 38 22 39 71 40 65 41 64 42 23 44 53 45 34 46
REMARK SMILES IDX 52 47 35 48 38 49 51 50 69 51 36 52 37 53 50 55 70 56 39 57
REMARK SMILES IDX 24 58 25 59 33 60 26 61 32 62 27 63 28 64 29 65 30 66 31 67
REMARK SMILES IDX 54 68 55 69 63 70 56 71 62 72 57 73 58 74 59 75 60 76 61 77
REMARK SMILES IDX 40 78 41 79 49 80 42 81 48 82 43 83 44 84 45 85 46 86 47 87
REMARK H PARENT 75 10 75 11 68 43 38 54
REMARK Flexibility Score: inf
ROOT
ATOM      1  C   UNL     1       3.595   2.443   3.182  1.00  0.00     0.202 C 
ENDROOT
BRANCH   1   2
ATOM      2  C   UNL     1       2.744   2.628   4.445  1.00  0.00     0.261 C 
BRANCH   2   3
ATOM      3  O   UNL     1       1.329   2.412   4.264  1.00  0.00    -0.463 OA
BRANCH   3   4
ATOM      4  C   UNL     1       0.536   3.505   4.458  1.00  0.00     0.311 C 
ATOM      5  O   UNL     1       0.948   4.655   4.572  1.00  0.00    -0.252 OA
BRANCH   4   6
ATOM      6  C   UNL     1      -0.924   3.154   4.625  1.00  0.00     0.187 C 
BRANCH   6   7
ATOM      7  C   UNL     1      -1.660   2.411   3.492  1.00  0.00     0.190 C 
ATOM      8  C   UNL     1      -1.656   3.216   2.192  1.00  0.00     0.076 C 
BRANCH   7   9
ATOM      9  N   UNL     1      -1.181   1.039   3.377  1.00  0.00    -0.338 N 
ATOM     10  H   UNL     1      -1.133   0.675   4.328  1.00  0.00     0.347 HD
ATOM     11  H   UNL     1      -0.322   1.161   2.841  1.00  0.00     0.347 HD
BRANCH   9  12
ATOM     12  C   UNL     1      -1.887   0.019   2.585  1.00  0.00     0.210 C 
ATOM     13  C   UNL     1      -1.578   0.037   1.086  1.00  0.00     0.081 C 
BRANCH  12  14
ATOM     14  C   UNL     1      -3.376  -0.201   2.830  1.00  0.00     0.009 A 
ATOM     15  C   UNL     1      -4.354   0.783   2.617  1.00  0.00     0.010 A 
ATOM     16  C   UNL     1      -3.824  -1.492   3.168  1.00  0.00     0.010 A 
ATOM     17  C   UNL     1      -5.714   0.509   2.790  1.00  0.00     0.001 A 
ATOM     18  C   UNL     1      -5.185  -1.778   3.308  1.00  0.00     0.001 A 
ATOM     19  C   UNL     1      -6.130  -0.773   3.131  1.00  0.00     0.000 A 
ENDBRANCH  12  14
ENDBRANCH   9  12
ENDBRANCH   7   9
ENDBRANCH   6   7
ENDBRANCH   4   6
ENDBRANCH   3   4
ENDBRANCH   2   3
ENDBRANCH   1   2
BRANCH   1  20
ATOM     20  O   UNL     1       3.377   3.350   2.103  1.00  0.00    -0.374 OA
BRANCH  20  21
ATOM     21  C   UNL     1       2.135   3.250   1.415  1.00  0.00     0.202 C 
BRANCH  21  22
ATOM     22  C   UNL     1       1.923   1.995   0.563  1.00  0.00     0.261 C 
BRANCH  22  23
ATOM     23  O   UNL     1       1.911   0.790   1.354  1.00  0.00    -0.460 OA
BRANCH  23  24
ATOM     24  C   UNL     1       2.715  -0.193   0.880  1.00  0.00     0.338 C 
ATOM     25  O   UNL     1       3.350  -0.187  -0.165  1.00  0.00    -0.246 OA
BRANCH  24  26
ATOM     26  C   UNL     1       2.849  -1.278   1.865  1.00  0.00     0.060 A 
ATOM     27  C   UNL     1       4.109  -1.483   2.441  1.00  0.00     0.016 A 
ATOM     28  C   UNL     1       1.806  -2.177   2.097  1.00  0.00     0.016 A 
ATOM     29  C   UNL     1       4.344  -2.620   3.212  1.00  0.00     0.010 A 
ATOM     30  C   UNL     1       2.046  -3.318   2.873  1.00  0.00     0.010 A 
ATOM     31  C   UNL     1       3.326  -3.567   3.399  1.00  0.00    -0.014 A 
BRANCH  31  32
ATOM     32  C   UNL     1       3.649  -4.870   4.032  1.00  0.00     0.031 A 
ATOM     33  C   UNL     1       3.889  -6.076   3.162  1.00  0.00     0.074 A 
ATOM     34  C   UNL     1       3.769  -4.970   5.369  1.00  0.00     0.049 A 
ATOM     35  N   UNL     1       4.213  -7.296   3.509  1.00  0.00    -0.248 NA
ATOM     36  C   UNL     1       3.745  -5.883   1.710  1.00  0.00     0.031 C 
ATOM     37  C   UNL     1       3.586  -3.871   6.317  1.00  0.00     0.029 A 
ATOM     38  N   UNL     1       4.077  -6.049   6.159  1.00  0.00    -0.354 N 
ATOM     39  C   UNL     1       4.309  -8.016   2.323  1.00  0.00     0.074 A 
ATOM     40  C   UNL     1       3.980  -7.104   1.249  1.00  0.00     0.031 C 
ATOM     41  C   UNL     1       3.786  -4.333   7.563  1.00  0.00     0.029 A 
ATOM     42  C   UNL     1       4.089  -5.762   7.503  1.00  0.00     0.049 A 
ATOM     43  H   UNL     1       4.271  -6.943   5.797  1.00  0.00     0.167 HD
ATOM     44  C   UNL     1       4.648  -9.315   2.143  1.00  0.00     0.031 A 
ATOM     45  C   UNL     1       4.309  -6.561   8.565  1.00  0.00     0.031 A 
ATOM     46  C   UNL     1       4.966 -10.225   3.212  1.00  0.00     0.049 A 
ATOM     47  C   UNL     1       4.638  -8.013   8.344  1.00  0.00     0.074 A 
ATOM     48  C   UNL     1       5.342 -11.554   3.128  1.00  0.00     0.029 A 
ATOM     49  N   UNL     1       4.939  -9.901   4.559  1.00  0.00    -0.354 N 
ATOM     50  N   UNL     1       4.761  -8.666   7.212  1.00  0.00    -0.248 NA
ATOM     51  C   UNL     1       4.869  -8.833   9.542  1.00  0.00     0.031 C 
ATOM     52  C   UNL     1       5.498 -12.047   4.428  1.00  0.00     0.029 A 
ATOM     53  C   UNL     1       5.268 -11.011   5.319  1.00  0.00     0.049 A 
ATOM     54  H   UNL     1       4.719  -9.013   4.923  1.00  0.00     0.167 HD
ATOM     55  C   UNL     1       5.105  -9.968   7.562  1.00  0.00     0.074 A 
ATOM     56  C   UNL     1       5.183 -10.006   9.008  1.00  0.00     0.031 C 
ATOM     57  C   UNL     1       5.338 -11.034   6.758  1.00  0.00     0.031 A 
BRANCH  44  58
ATOM     58  C   UNL     1       4.667  -9.838   0.731  1.00  0.00    -0.014 A 
ATOM     59  C   UNL     1       5.690  -9.477  -0.164  1.00  0.00     0.010 A 
ATOM     60  C   UNL     1       3.667 -10.731   0.305  1.00  0.00     0.010 A 
ATOM     61  C   UNL     1       5.691  -9.969  -1.472  1.00  0.00     0.020 A 
ATOM     62  C   UNL     1       3.678 -11.243  -0.996  1.00  0.00     0.020 A 
ATOM     63  C   UNL     1       4.681 -10.845  -1.882  1.00  0.00     0.054 A 
BRANCH  63  64
ATOM     64  S   UNL     1       4.712 -11.480  -3.581  1.00  0.00     0.124 S 
ATOM     65  O   UNL     1       4.260 -10.319  -4.344  1.00  0.00    -0.237 OA
ATOM     66  O   UNL     1       6.114 -11.844  -3.764  1.00  0.00    -0.237 OA
ATOM     67  O   UNL     1       3.779 -12.604  -3.548  1.00  0.00    -0.744 OA
ENDBRANCH  63  64
ENDBRANCH  44  58
BRANCH  45  68
ATOM     68  C   UNL     1       4.219  -6.002   9.941  1.00  0.00    -0.014 A 
ATOM     69  C   UNL     1       5.375  -5.816  10.719  1.00  0.00     0.010 A 
ATOM     70  C   UNL     1       2.969  -5.641  10.475  1.00  0.00     0.010 A 
ATOM     71  C   UNL     1       5.281  -5.289  12.011  1.00  0.00     0.020 A 
ATOM     72  C   UNL     1       2.873  -5.091  11.757  1.00  0.00     0.020 A 
ATOM     73  C   UNL     1       4.030  -4.928  12.521  1.00  0.00     0.054 A 
BRANCH  73  74
ATOM     74  S   UNL     1       3.935  -4.188  14.175  1.00  0.00     0.124 S 
ATOM     75  O   UNL     1       4.103  -5.353  15.038  1.00  0.00    -0.237 OA
ATOM     76  O   UNL     1       5.049  -3.243  14.164  1.00  0.00    -0.237 OA
ATOM     77  O   UNL     1       2.609  -3.575  14.198  1.00  0.00    -0.744 OA
ENDBRANCH  73  74
ENDBRANCH  45  68
BRANCH  57  78
ATOM     78  C   UNL     1       5.723 -12.330   7.419  1.00  0.00    -0.014 A 
ATOM     79  C   UNL     1       4.770 -13.114   8.093  1.00  0.00     0.010 A 
ATOM     80  C   UNL     1       7.047 -12.796   7.315  1.00  0.00     0.010 A 
ATOM     81  C   UNL     1       5.141 -14.329   8.676  1.00  0.00     0.020 A 
ATOM     82  C   UNL     1       7.415 -14.022   7.877  1.00  0.00     0.020 A 
ATOM     83  C   UNL     1       6.462 -14.774   8.566  1.00  0.00     0.054 A 
BRANCH  83  84
ATOM     84  S   UNL     1       6.910 -16.376   9.291  1.00  0.00     0.124 S 
ATOM     85  O   UNL     1       6.991 -16.053  10.713  1.00  0.00    -0.237 OA
ATOM     86  O   UNL     1       5.790 -17.230   8.904  1.00  0.00    -0.237 OA
ATOM     87  O   UNL     1       8.182 -16.701   8.651  1.00  0.00    -0.744 OA
ENDBRANCH  83  84
ENDBRANCH  57  78
ENDBRANCH  31  32
ENDBRANCH  24  26
ENDBRANCH  23  24
ENDBRANCH  22  23
ENDBRANCH  21  22
ENDBRANCH  20  21
ENDBRANCH   1  20
TORSDOF 21
