REMARK SMILES Cc1nsc(NC(=O)C2([NH3+])CCCCC2)c1C(=O)OCCOCCOC(=O)c1ccc(-c2c3nc(c(-c4ccc(S(=O)(=O)[O-])cc4)c4ccc([nH]4)c(-c4ccc(S(=O)(=O)[O-])cc4)c4nc(c(-c5ccc(S(=O)(=O)[O-])cc5)c5ccc2[nH]5)C=C4)C=C3)cc1
REMARK SMILES IDX 22 1 21 2 20 3 19 4 17 5 18 6 16 7 1 8 2 9 3 10 4 11 5 12
REMARK SMILES IDX 6 13 7 14 8 16 9 17 11 18 15 19 12 20 14 21 13 22 10 23
REMARK SMILES IDX 23 27 24 28 25 29 26 30 27 31 28 32 29 33 87 34 30 35 86 36
REMARK SMILES IDX 31 37 32 38 33 39 80 40 34 41 85 42 79 43 81 44 35 45 84 46
REMARK SMILES IDX 78 47 77 48 36 50 66 51 47 52 65 53 48 54 51 55 64 56 82 57
REMARK SMILES IDX 49 58 50 59 63 61 83 62 52 63 37 64 38 65 46 66 39 67 45 68
REMARK SMILES IDX 40 69 41 70 42 71 43 72 44 73 67 74 68 75 76 76 69 77 75 78
REMARK SMILES IDX 70 79 71 80 72 81 73 82 74 83 53 84 54 85 62 86 55 87 61 88
REMARK SMILES IDX 56 89 57 90 58 91 59 92 60 93
REMARK H PARENT 6 15 10 24 10 25 10 26 81 49 51 60
REMARK Flexibility Score: inf
ROOT
ATOM      1  O   UNL     1       2.344   5.379  -0.771  1.00  0.00    -0.374 OA
ENDROOT
BRANCH   1   2
ATOM      2  C   UNL     1       2.231   4.927   0.578  1.00  0.00     0.202 C 
BRANCH   2   3
ATOM      3  C   UNL     1       0.950   4.213   1.013  1.00  0.00     0.261 C 
BRANCH   3   4
ATOM      4  O   UNL     1       0.798   2.929   0.384  1.00  0.00    -0.460 OA
BRANCH   4   5
ATOM      5  C   UNL     1      -0.133   2.884  -0.607  1.00  0.00     0.343 C 
ATOM      6  O   UNL     1      -0.872   3.820  -0.903  1.00  0.00    -0.246 OA
BRANCH   5   7
ATOM      7  C   UNL     1      -0.051   1.686  -1.422  1.00  0.00     0.117 A 
ATOM      8  C   UNL     1       0.731  -0.099   0.345  1.00  0.00     0.069 C 
ATOM      9  C   UNL     1       0.295   0.349  -1.007  1.00  0.00     0.068 A 
ATOM     10  N   UNL     1       0.224  -0.582  -1.958  1.00  0.00    -0.195 NA
ATOM     11  S   UNL     1      -0.185   0.137  -3.379  1.00  0.00    -0.017 S 
ATOM     12  C   UNL     1      -0.226   1.726  -2.807  1.00  0.00     0.131 A 
BRANCH  12  13
ATOM     13  N   UNL     1      -0.307   2.869  -3.586  1.00  0.00    -0.310 N 
ATOM     14  C   UNL     1      -0.468   3.171  -4.905  1.00  0.00     0.286 C 
ATOM     15  H   UNL     1      -0.225   3.684  -3.039  1.00  0.00     0.171 HD
ATOM     16  O   UNL     1      -0.221   4.354  -5.191  1.00  0.00    -0.267 OA
BRANCH  14  17
ATOM     17  C   UNL     1      -0.977   2.200  -6.016  1.00  0.00     0.174 C 
ATOM     18  C   UNL     1      -1.599   3.010  -7.194  1.00  0.00     0.079 C 
ATOM     19  C   UNL     1       0.136   1.264  -6.531  1.00  0.00     0.079 C 
ATOM     20  C   UNL     1      -0.592   3.609  -8.178  1.00  0.00     0.007 C 
ATOM     21  C   UNL     1       1.111   1.917  -7.510  1.00  0.00     0.007 C 
ATOM     22  C   UNL     1       0.386   2.560  -8.679  1.00  0.00     0.001 C 
BRANCH  17  23
ATOM     23  N   UNL     1      -2.109   1.428  -5.441  1.00  0.00    -0.345 N 
ATOM     24  H   UNL     1      -2.827   2.072  -5.110  1.00  0.00     0.345 HD
ATOM     25  H   UNL     1      -1.774   0.862  -4.662  1.00  0.00     0.345 HD
ATOM     26  H   UNL     1      -2.503   0.819  -6.158  1.00  0.00     0.345 HD
ENDBRANCH  17  23
ENDBRANCH  14  17
ENDBRANCH  12  13
ENDBRANCH   5   7
ENDBRANCH   4   5
ENDBRANCH   3   4
ENDBRANCH   2   3
ENDBRANCH   1   2
BRANCH   1  27
ATOM     27  C   UNL     1       2.471   4.461  -1.852  1.00  0.00     0.202 C 
BRANCH  27  28
ATOM     28  C   UNL     1       3.752   3.659  -2.022  1.00  0.00     0.261 C 
BRANCH  28  29
ATOM     29  O   UNL     1       4.026   2.899  -0.862  1.00  0.00    -0.460 OA
BRANCH  29  30
ATOM     30  C   UNL     1       4.904   3.492  -0.025  1.00  0.00     0.338 C 
ATOM     31  O   UNL     1       5.337   4.634  -0.097  1.00  0.00    -0.246 OA
BRANCH  30  32
ATOM     32  C   UNL     1       5.352   2.501   0.955  1.00  0.00     0.060 A 
ATOM     33  C   UNL     1       6.460   2.898   1.704  1.00  0.00     0.016 A 
ATOM     34  C   UNL     1       5.031   1.156   0.724  1.00  0.00     0.016 A 
ATOM     35  C   UNL     1       7.455   1.974   1.879  1.00  0.00     0.010 A 
ATOM     36  C   UNL     1       6.034   0.242   0.876  1.00  0.00     0.010 A 
ATOM     37  C   UNL     1       7.264   0.701   1.338  1.00  0.00    -0.014 A 
BRANCH  37  38
ATOM     38  C   UNL     1       8.389  -0.194   1.300  1.00  0.00     0.031 A 
ATOM     39  C   UNL     1       8.610  -0.835   2.609  1.00  0.00     0.074 A 
ATOM     40  C   UNL     1       9.043  -0.452   0.154  1.00  0.00     0.049 A 
ATOM     41  N   UNL     1       9.556  -0.578   3.446  1.00  0.00    -0.248 NA
ATOM     42  C   UNL     1       7.517  -1.653   3.162  1.00  0.00     0.031 C 
ATOM     43  C   UNL     1       8.702  -0.048  -1.213  1.00  0.00     0.029 A 
ATOM     44  N   UNL     1      10.110  -1.263  -0.036  1.00  0.00    -0.354 N 
ATOM     45  C   UNL     1       9.297  -1.388   4.542  1.00  0.00     0.074 A 
ATOM     46  C   UNL     1       7.927  -1.807   4.420  1.00  0.00     0.031 C 
ATOM     47  C   UNL     1       9.370  -0.841  -2.084  1.00  0.00     0.029 A 
ATOM     48  C   UNL     1      10.257  -1.720  -1.337  1.00  0.00     0.049 A 
ATOM     49  H   UNL     1      10.729  -1.508   0.689  1.00  0.00     0.167 HD
ATOM     50  C   UNL     1      10.307  -1.894   5.299  1.00  0.00     0.031 A 
ATOM     51  C   UNL     1      10.963  -2.818  -1.720  1.00  0.00     0.031 A 
ATOM     52  C   UNL     1      11.559  -1.244   5.003  1.00  0.00     0.049 A 
ATOM     53  C   UNL     1      11.894  -3.141  -0.597  1.00  0.00     0.074 A 
ATOM     54  C   UNL     1      12.015   0.054   5.103  1.00  0.00     0.029 A 
ATOM     55  N   UNL     1      12.395  -1.886   4.115  1.00  0.00    -0.354 N 
ATOM     56  N   UNL     1      12.872  -2.351  -0.241  1.00  0.00    -0.248 NA
ATOM     57  C   UNL     1      11.422  -4.043   0.449  1.00  0.00     0.031 C 
ATOM     58  C   UNL     1      12.805   0.254   3.935  1.00  0.00     0.029 A 
ATOM     59  C   UNL     1      12.864  -0.950   3.229  1.00  0.00     0.049 A 
ATOM     60  H   UNL     1      12.617  -2.846   4.116  1.00  0.00     0.167 HD
ATOM     61  C   UNL     1      12.838  -2.337   1.149  1.00  0.00     0.074 A 
ATOM     62  C   UNL     1      11.983  -3.466   1.519  1.00  0.00     0.031 C 
ATOM     63  C   UNL     1      13.239  -1.238   1.858  1.00  0.00     0.031 A 
BRANCH  50  64
ATOM     64  C   UNL     1      10.245  -3.242   5.965  1.00  0.00    -0.014 A 
ATOM     65  C   UNL     1      11.345  -3.652   6.741  1.00  0.00     0.010 A 
ATOM     66  C   UNL     1       9.285  -4.224   5.640  1.00  0.00     0.010 A 
ATOM     67  C   UNL     1      11.520  -4.995   7.092  1.00  0.00     0.020 A 
ATOM     68  C   UNL     1       9.427  -5.556   6.024  1.00  0.00     0.020 A 
ATOM     69  C   UNL     1      10.566  -5.940   6.712  1.00  0.00     0.054 A 
BRANCH  69  70
ATOM     70  S   UNL     1      10.867  -7.688   7.053  1.00  0.00     0.124 S 
ATOM     71  O   UNL     1      12.027  -7.961   6.210  1.00  0.00    -0.237 OA
ATOM     72  O   UNL     1      11.112  -7.682   8.492  1.00  0.00    -0.237 OA
ATOM     73  O   UNL     1       9.624  -8.336   6.639  1.00  0.00    -0.744 OA
ENDBRANCH  69  70
ENDBRANCH  50  64
BRANCH  51  74
ATOM     74  C   UNL     1      10.581  -3.793  -2.783  1.00  0.00    -0.014 A 
ATOM     75  C   UNL     1      11.454  -4.813  -3.208  1.00  0.00     0.010 A 
ATOM     76  C   UNL     1       9.239  -3.877  -3.212  1.00  0.00     0.010 A 
ATOM     77  C   UNL     1      10.987  -5.897  -3.981  1.00  0.00     0.020 A 
ATOM     78  C   UNL     1       8.768  -4.944  -3.987  1.00  0.00     0.020 A 
ATOM     79  C   UNL     1       9.639  -5.965  -4.348  1.00  0.00     0.054 A 
BRANCH  79  80
ATOM     80  S   UNL     1       8.993  -7.449  -5.179  1.00  0.00     0.124 S 
ATOM     81  O   UNL     1       9.578  -7.341  -6.512  1.00  0.00    -0.237 OA
ATOM     82  O   UNL     1       9.510  -8.531  -4.346  1.00  0.00    -0.237 OA
ATOM     83  O   UNL     1       7.542  -7.270  -5.123  1.00  0.00    -0.744 OA
ENDBRANCH  79  80
ENDBRANCH  51  74
BRANCH  63  84
ATOM     84  C   UNL     1      13.932  -0.112   1.121  1.00  0.00    -0.014 A 
ATOM     85  C   UNL     1      13.321   0.654   0.106  1.00  0.00     0.010 A 
ATOM     86  C   UNL     1      15.177   0.310   1.617  1.00  0.00     0.010 A 
ATOM     87  C   UNL     1      13.952   1.798  -0.408  1.00  0.00     0.020 A 
ATOM     88  C   UNL     1      15.800   1.458   1.125  1.00  0.00     0.020 A 
ATOM     89  C   UNL     1      15.190   2.193   0.108  1.00  0.00     0.054 A 
BRANCH  89  90
ATOM     90  S   UNL     1      15.984   3.699  -0.521  1.00  0.00     0.124 S 
ATOM     91  O   UNL     1      16.366   3.313  -1.876  1.00  0.00    -0.237 OA
ATOM     92  O   UNL     1      14.919   4.694  -0.426  1.00  0.00    -0.237 OA
ATOM     93  O   UNL     1      17.102   3.912   0.399  1.00  0.00    -0.744 OA
ENDBRANCH  89  90
ENDBRANCH  63  84
ENDBRANCH  37  38
ENDBRANCH  30  32
ENDBRANCH  29  30
ENDBRANCH  28  29
ENDBRANCH  27  28
ENDBRANCH   1  27
TORSDOF 20
