REMARK SMILES O=C(OCCOCCOC(=O)c1ccc2nc(-c3c[nH]nc3-c3ccc(F)cc3F)[nH]c2c1)c1ccc(-c2c3nc(c(-c4ccc(S(=O)(=O)[O-])cc4)c4ccc([nH]4)c(-c4ccc(S(=O)(=O)[O-])cc4)c4nc(c(-c5ccc(S(=O)(=O)[O-])cc5)c5ccc2[nH]5)C=C4)C=C3)cc1
REMARK SMILES IDX 5 1 4 2 3 3 2 4 1 5 34 6 35 7 93 8 36 9 92 10 37 11 38 12
REMARK SMILES IDX 39 13 86 14 40 15 91 16 85 17 87 18 41 19 90 20 84 21 83 22
REMARK SMILES IDX 42 24 72 25 53 26 71 27 54 28 57 29 70 30 88 31 55 32 56 33
REMARK SMILES IDX 69 35 89 36 58 37 43 38 44 39 52 40 45 41 51 42 46 43 47 44
REMARK SMILES IDX 48 45 49 46 50 47 73 48 74 49 82 50 75 51 81 52 76 53 77 54
REMARK SMILES IDX 78 55 79 56 80 57 59 58 60 59 68 60 61 61 67 62 62 63 63 64
REMARK SMILES IDX 64 65 65 66 66 67 6 68 7 69 8 70 9 71 10 72 11 73 12 74
REMARK SMILES IDX 13 75 33 76 14 77 32 78 15 79 31 80 16 81 17 82 18 84 19 85
REMARK SMILES IDX 22 86 20 87 21 88 23 90 24 91 29 92 25 93 28 94 30 95 26 96
REMARK SMILES IDX 27 97
REMARK H PARENT 87 23 57 34 31 83 20 89
REMARK Flexibility Score: inf
ROOT
ATOM      1  C   UNL     1       4.157   1.077   1.288  1.00  0.00     0.202 C 
ENDROOT
BRANCH   1   2
ATOM      2  C   UNL     1       3.823   1.363  -0.176  1.00  0.00     0.261 C 
BRANCH   2   3
ATOM      3  O   UNL     1       2.446   1.049  -0.437  1.00  0.00    -0.460 OA
BRANCH   3   4
ATOM      4  C   UNL     1       1.966   0.101  -1.276  1.00  0.00     0.338 C 
ATOM      5  O   UNL     1       0.771   0.109  -1.561  1.00  0.00    -0.246 OA
BRANCH   4   6
ATOM      6  C   UNL     1       2.827  -0.970  -1.858  1.00  0.00     0.060 A 
ATOM      7  C   UNL     1       3.947  -1.506  -1.218  1.00  0.00     0.016 A 
ATOM      8  C   UNL     1       2.412  -1.553  -3.065  1.00  0.00     0.016 A 
ATOM      9  C   UNL     1       4.673  -2.547  -1.775  1.00  0.00     0.010 A 
ATOM     10  C   UNL     1       3.100  -2.645  -3.603  1.00  0.00     0.010 A 
ATOM     11  C   UNL     1       4.233  -3.146  -2.951  1.00  0.00    -0.014 A 
BRANCH  11  12
ATOM     12  C   UNL     1       4.974  -4.315  -3.454  1.00  0.00     0.031 A 
ATOM     13  C   UNL     1       5.860  -4.159  -4.648  1.00  0.00     0.074 A 
ATOM     14  C   UNL     1       4.901  -5.471  -2.767  1.00  0.00     0.049 A 
ATOM     15  N   UNL     1       6.548  -5.068  -5.281  1.00  0.00    -0.248 NA
ATOM     16  C   UNL     1       6.003  -2.799  -5.197  1.00  0.00     0.031 C 
ATOM     17  C   UNL     1       4.135  -5.671  -1.530  1.00  0.00     0.029 A 
ATOM     18  N   UNL     1       5.487  -6.688  -2.990  1.00  0.00    -0.354 N 
ATOM     19  C   UNL     1       7.176  -4.402  -6.324  1.00  0.00     0.074 A 
ATOM     20  C   UNL     1       6.803  -3.008  -6.232  1.00  0.00     0.031 C 
ATOM     21  C   UNL     1       4.315  -6.929  -1.097  1.00  0.00     0.029 A 
ATOM     22  C   UNL     1       5.139  -7.643  -2.062  1.00  0.00     0.049 A 
ATOM     23  H   UNL     1       6.098  -6.862  -3.741  1.00  0.00     0.167 HD
ATOM     24  C   UNL     1       7.975  -4.926  -7.280  1.00  0.00     0.031 A 
ATOM     25  C   UNL     1       5.417  -8.961  -2.032  1.00  0.00     0.031 A 
ATOM     26  C   UNL     1       8.317  -6.320  -7.344  1.00  0.00     0.049 A 
ATOM     27  C   UNL     1       6.232  -9.528  -3.162  1.00  0.00     0.074 A 
ATOM     28  C   UNL     1       9.089  -6.977  -8.283  1.00  0.00     0.029 A 
ATOM     29  N   UNL     1       7.895  -7.274  -6.428  1.00  0.00    -0.354 N 
ATOM     30  N   UNL     1       6.801  -8.894  -4.162  1.00  0.00    -0.248 NA
ATOM     31  C   UNL     1       6.420 -10.983  -3.181  1.00  0.00     0.031 C 
ATOM     32  C   UNL     1       9.087  -8.339  -7.965  1.00  0.00     0.029 A 
ATOM     33  C   UNL     1       8.359  -8.522  -6.798  1.00  0.00     0.049 A 
ATOM     34  H   UNL     1       7.347  -7.089  -5.631  1.00  0.00     0.167 HD
ATOM     35  C   UNL     1       7.413  -9.875  -4.930  1.00  0.00     0.074 A 
ATOM     36  C   UNL     1       7.176 -11.138  -4.259  1.00  0.00     0.031 C 
ATOM     37  C   UNL     1       8.096  -9.752  -6.095  1.00  0.00     0.031 A 
BRANCH  24  38
ATOM     38  C   UNL     1       8.455  -4.009  -8.368  1.00  0.00    -0.014 A 
ATOM     39  C   UNL     1       9.491  -3.083  -8.151  1.00  0.00     0.010 A 
ATOM     40  C   UNL     1       7.873  -4.100  -9.646  1.00  0.00     0.010 A 
ATOM     41  C   UNL     1       9.922  -2.252  -9.190  1.00  0.00     0.020 A 
ATOM     42  C   UNL     1       8.314  -3.284 -10.691  1.00  0.00     0.020 A 
ATOM     43  C   UNL     1       9.330  -2.357 -10.453  1.00  0.00     0.054 A 
BRANCH  43  44
ATOM     44  S   UNL     1       9.932  -1.291 -11.791  1.00  0.00     0.124 S 
ATOM     45  O   UNL     1       9.402   0.013 -11.399  1.00  0.00    -0.237 OA
ATOM     46  O   UNL     1      11.382  -1.436 -11.688  1.00  0.00    -0.237 OA
ATOM     47  O   UNL     1       9.335  -1.869 -12.992  1.00  0.00    -0.744 OA
ENDBRANCH  43  44
ENDBRANCH  24  38
BRANCH  25  48
ATOM     48  C   UNL     1       4.835  -9.838  -0.976  1.00  0.00    -0.014 A 
ATOM     49  C   UNL     1       5.654 -10.529  -0.067  1.00  0.00     0.010 A 
ATOM     50  C   UNL     1       3.439 -10.016  -0.901  1.00  0.00     0.010 A 
ATOM     51  C   UNL     1       5.093 -11.405   0.870  1.00  0.00     0.020 A 
ATOM     52  C   UNL     1       2.873 -10.863   0.054  1.00  0.00     0.020 A 
ATOM     53  C   UNL     1       3.706 -11.572   0.920  1.00  0.00     0.054 A 
BRANCH  53  54
ATOM     54  S   UNL     1       2.993 -12.712   2.138  1.00  0.00     0.124 S 
ATOM     55  O   UNL     1       3.281 -14.011   1.539  1.00  0.00    -0.237 OA
ATOM     56  O   UNL     1       3.743 -12.393   3.350  1.00  0.00    -0.237 OA
ATOM     57  O   UNL     1       1.581 -12.337   2.172  1.00  0.00    -0.744 OA
ENDBRANCH  53  54
ENDBRANCH  25  48
BRANCH  37  58
ATOM     58  C   UNL     1       8.633 -11.015  -6.702  1.00  0.00    -0.014 A 
ATOM     59  C   UNL     1       7.776 -11.914  -7.359  1.00  0.00     0.010 A 
ATOM     60  C   UNL     1      10.016 -11.264  -6.679  1.00  0.00     0.010 A 
ATOM     61  C   UNL     1       8.294 -13.056  -7.972  1.00  0.00     0.020 A 
ATOM     62  C   UNL     1      10.540 -12.391  -7.314  1.00  0.00     0.020 A 
ATOM     63  C   UNL     1       9.673 -13.284  -7.948  1.00  0.00     0.054 A 
BRANCH  63  64
ATOM     64  S   UNL     1      10.329 -14.736  -8.812  1.00  0.00     0.124 S 
ATOM     65  O   UNL     1       9.969 -15.819  -7.901  1.00  0.00    -0.237 OA
ATOM     66  O   UNL     1       9.603 -14.712 -10.079  1.00  0.00    -0.237 OA
ATOM     67  O   UNL     1      11.760 -14.458  -8.916  1.00  0.00    -0.744 OA
ENDBRANCH  63  64
ENDBRANCH  37  58
ENDBRANCH  11  12
ENDBRANCH   4   6
ENDBRANCH   3   4
ENDBRANCH   2   3
ENDBRANCH   1   2
BRANCH   1  68
ATOM     68  O   UNL     1       3.995  -0.282   1.688  1.00  0.00    -0.374 OA
BRANCH  68  69
ATOM     69  C   UNL     1       2.668  -0.669   2.072  1.00  0.00     0.202 C 
BRANCH  69  70
ATOM     70  C   UNL     1       2.744  -1.603   3.287  1.00  0.00     0.261 C 
BRANCH  70  71
ATOM     71  O   UNL     1       3.267  -0.850   4.395  1.00  0.00    -0.460 OA
BRANCH  71  72
ATOM     72  C   UNL     1       4.626  -0.804   4.447  1.00  0.00     0.338 C 
ATOM     73  O   UNL     1       5.420  -1.593   3.985  1.00  0.00    -0.246 OA
BRANCH  72  74
ATOM     74  C   UNL     1       4.985   0.549   4.928  1.00  0.00     0.062 A 
ATOM     75  C   UNL     1       4.315   1.129   6.011  1.00  0.00     0.018 A 
ATOM     76  C   UNL     1       5.941   1.259   4.179  1.00  0.00     0.044 A 
ATOM     77  C   UNL     1       4.599   2.444   6.391  1.00  0.00     0.031 A 
ATOM     78  C   UNL     1       6.137   2.593   4.533  1.00  0.00     0.067 A 
ATOM     79  C   UNL     1       5.527   3.176   5.638  1.00  0.00     0.089 A 
ATOM     80  N   UNL     1       6.882   3.607   3.981  1.00  0.00    -0.338 N 
ATOM     81  N   UNL     1       5.996   4.444   5.834  1.00  0.00    -0.228 NA
ATOM     82  C   UNL     1       6.819   4.676   4.835  1.00  0.00     0.142 A 
ATOM     83  H   UNL     1       7.372   3.571   3.127  1.00  0.00     0.168 HD
BRANCH  82  84
ATOM     84  C   UNL     1       7.718   5.844   4.789  1.00  0.00     0.063 A 
ATOM     85  C   UNL     1       7.849   6.777   3.793  1.00  0.00     0.117 A 
ATOM     86  C   UNL     1       8.664   6.194   5.786  1.00  0.00     0.106 A 
ATOM     87  N   UNL     1       8.761   7.675   4.274  1.00  0.00    -0.284 N 
ATOM     88  N   UNL     1       9.318   7.315   5.445  1.00  0.00    -0.175 NA
ATOM     89  H   UNL     1       8.989   8.510   3.805  1.00  0.00     0.189 HD
BRANCH  86  90
ATOM     90  C   UNL     1       9.035   5.376   6.930  1.00  0.00     0.039 A 
ATOM     91  C   UNL     1       9.648   4.130   6.704  1.00  0.00     0.016 A 
ATOM     92  C   UNL     1       8.712   5.749   8.235  1.00  0.00     0.135 A 
ATOM     93  C   UNL     1       9.915   3.272   7.770  1.00  0.00     0.040 A 
ATOM     94  C   UNL     1       8.983   4.898   9.304  1.00  0.00     0.079 A 
ATOM     95  F   UNL     1       8.106   6.919   8.488  1.00  0.00    -0.206 F 
ATOM     96  C   UNL     1       9.578   3.665   9.059  1.00  0.00     0.126 A 
ATOM     97  F   UNL     1       9.826   2.838  10.083  1.00  0.00    -0.207 F 
ENDBRANCH  86  90
ENDBRANCH  82  84
ENDBRANCH  72  74
ENDBRANCH  71  72
ENDBRANCH  70  71
ENDBRANCH  69  70
ENDBRANCH  68  69
ENDBRANCH   1  68
TORSDOF 19
