REMARK SMILES COc1cc(Cl)c2c(c1)C=C(C(=O)OCCOCCOC(=O)c1ccc(-c3c4nc(c(-c5ccc(S(=O)(=O)[O-])cc5)c5ccc([nH]5)c(-c5ccc(S(=O)(=O)[O-])cc5)c5nc(c(-c6ccc(S(=O)(=O)[O-])cc6)c6ccc3[nH]6)C=C5)C=C4)cc1)[C@@H](C(F)(F)F)O2
REMARK SMILES IDX 18 1 17 2 16 3 15 4 14 5 12 6 13 7 11 8 3 9 4 10 9 11 5 12
REMARK SMILES IDX 8 13 6 14 7 15 10 16 88 17 83 18 2 19 1 20 84 21 85 22 86 23
REMARK SMILES IDX 87 24 19 25 20 26 21 27 22 28 23 29 24 30 82 31 25 32 81 33
REMARK SMILES IDX 26 34 27 35 28 36 75 37 29 38 80 39 74 40 76 41 30 42 79 43
REMARK SMILES IDX 73 44 72 45 31 47 61 48 42 49 60 50 43 51 46 52 59 53 77 54
REMARK SMILES IDX 44 55 45 56 58 58 78 59 47 60 32 61 33 62 41 63 34 64 40 65
REMARK SMILES IDX 35 66 36 67 37 68 38 69 39 70 62 71 63 72 71 73 64 74 70 75
REMARK SMILES IDX 65 76 66 77 67 78 68 79 69 80 48 81 49 82 57 83 50 84 56 85
REMARK SMILES IDX 51 86 52 87 53 88 54 89 55 90
REMARK H PARENT 76 46 46 57
REMARK Flexibility Score: inf
ROOT
ATOM      1  C   UNL     1      -2.198  -2.678   8.299  1.00  0.00     0.202 C 
ENDROOT
BRANCH   1   2
ATOM      2  O   UNL     1      -3.304  -3.551   8.535  1.00  0.00    -0.374 OA
BRANCH   2   3
ATOM      3  C   UNL     1      -3.021  -4.873   8.986  1.00  0.00     0.202 C 
BRANCH   3   4
ATOM      4  C   UNL     1      -2.571  -5.883   7.926  1.00  0.00     0.261 C 
BRANCH   4   5
ATOM      5  O   UNL     1      -1.421  -5.422   7.200  1.00  0.00    -0.460 OA
BRANCH   5   6
ATOM      6  C   UNL     1      -1.667  -5.097   5.910  1.00  0.00     0.338 C 
ATOM      7  O   UNL     1      -2.716  -5.245   5.302  1.00  0.00    -0.246 OA
BRANCH   6   8
ATOM      8  C   UNL     1      -0.506  -4.386   5.341  1.00  0.00     0.087 C 
ATOM      9  C   UNL     1       1.009  -1.048   2.232  1.00  0.00     0.121 A 
ATOM     10  C   UNL     1       2.321  -1.491   2.377  1.00  0.00     0.070 A 
ATOM     11  C   UNL     1      -0.004  -1.617   3.000  1.00  0.00     0.058 A 
ATOM     12  C   UNL     1       2.611  -2.509   3.293  1.00  0.00     0.087 A 
ATOM     13  C   UNL     1       0.280  -2.664   3.884  1.00  0.00     0.022 A 
ATOM     14  Cl  UNL     1       4.255  -3.022   3.441  1.00  0.00    -0.080 Cl
ATOM     15  C   UNL     1       1.594  -3.103   4.053  1.00  0.00     0.146 A 
ATOM     16  C   UNL     1      -0.805  -3.330   4.575  1.00  0.00     0.027 C 
ATOM     17  O   UNL     1       1.935  -4.081   4.947  1.00  0.00    -0.474 OA
ATOM     18  C   UNL     1       0.895  -4.863   5.601  1.00  0.00     0.316 C 
BRANCH   9  19
ATOM     19  O   UNL     1       0.626  -0.029   1.403  1.00  0.00    -0.497 OA
ATOM     20  C   UNL     1       1.205  -0.089   0.102  1.00  0.00     0.278 C 
ENDBRANCH   9  19
BRANCH  18  21
ATOM     21  C   UNL     1       1.097  -6.341   5.231  1.00  0.00     0.430 C 
ATOM     22  F   UNL     1       2.377  -6.727   5.439  1.00  0.00    -0.167 F 
ATOM     23  F   UNL     1       0.314  -7.154   5.977  1.00  0.00    -0.167 F 
ATOM     24  F   UNL     1       0.803  -6.572   3.931  1.00  0.00    -0.167 F 
ENDBRANCH  18  21
ENDBRANCH   6   8
ENDBRANCH   5   6
ENDBRANCH   4   5
ENDBRANCH   3   4
ENDBRANCH   2   3
ENDBRANCH   1   2
BRANCH   1  25
ATOM     25  C   UNL     1      -1.413  -2.182   9.520  1.00  0.00     0.261 C 
BRANCH  25  26
ATOM     26  O   UNL     1      -0.622  -3.223  10.122  1.00  0.00    -0.460 OA
BRANCH  26  27
ATOM     27  C   UNL     1      -0.964  -3.544  11.394  1.00  0.00     0.338 C 
ATOM     28  O   UNL     1      -1.839  -3.033  12.078  1.00  0.00    -0.246 OA
BRANCH  27  29
ATOM     29  C   UNL     1      -0.229  -4.748  11.810  1.00  0.00     0.060 A 
ATOM     30  C   UNL     1      -0.951  -5.929  12.022  1.00  0.00     0.016 A 
ATOM     31  C   UNL     1       1.141  -4.692  12.071  1.00  0.00     0.016 A 
ATOM     32  C   UNL     1      -0.303  -7.061  12.511  1.00  0.00     0.010 A 
ATOM     33  C   UNL     1       1.785  -5.824  12.578  1.00  0.00     0.010 A 
ATOM     34  C   UNL     1       1.063  -7.005  12.820  1.00  0.00    -0.014 A 
BRANCH  34  35
ATOM     35  C   UNL     1       1.705  -8.157  13.493  1.00  0.00     0.031 A 
ATOM     36  C   UNL     1       1.853  -8.145  14.989  1.00  0.00     0.074 A 
ATOM     37  C   UNL     1       2.122  -9.216  12.775  1.00  0.00     0.049 A 
ATOM     38  N   UNL     1       2.384  -9.049  15.768  1.00  0.00    -0.248 NA
ATOM     39  C   UNL     1       1.330  -6.966  15.702  1.00  0.00     0.031 C 
ATOM     40  C   UNL     1       1.999  -9.353  11.323  1.00  0.00     0.029 A 
ATOM     41  N   UNL     1       2.732 -10.380  13.172  1.00  0.00    -0.354 N 
ATOM     42  C   UNL     1       2.254  -8.557  17.060  1.00  0.00     0.074 A 
ATOM     43  C   UNL     1       1.619  -7.262  16.963  1.00  0.00     0.031 C 
ATOM     44  C   UNL     1       2.525 -10.532  10.951  1.00  0.00     0.029 A 
ATOM     45  C   UNL     1       3.040 -11.223  12.131  1.00  0.00     0.049 A 
ATOM     46  H   UNL     1       2.930 -10.591  14.113  1.00  0.00     0.167 HD
ATOM     47  C   UNL     1       2.622  -9.141  18.223  1.00  0.00     0.031 A 
ATOM     48  C   UNL     1       3.678 -12.411  12.127  1.00  0.00     0.031 A 
ATOM     49  C   UNL     1       3.256 -10.427  18.316  1.00  0.00     0.049 A 
ATOM     50  C   UNL     1       4.135 -13.011  13.430  1.00  0.00     0.074 A 
ATOM     51  C   UNL     1       3.656 -11.101  19.456  1.00  0.00     0.029 A 
ATOM     52  N   UNL     1       3.579 -11.232  17.236  1.00  0.00    -0.354 N 
ATOM     53  N   UNL     1       3.992 -12.536  14.643  1.00  0.00    -0.248 NA
ATOM     54  C   UNL     1       4.831 -14.305  13.369  1.00  0.00     0.031 C 
ATOM     55  C   UNL     1       4.260 -12.297  19.064  1.00  0.00     0.029 A 
ATOM     56  C   UNL     1       4.189 -12.389  17.683  1.00  0.00     0.049 A 
ATOM     57  H   UNL     1       3.401 -11.013  16.293  1.00  0.00     0.167 HD
ATOM     58  C   UNL     1       4.557 -13.483  15.490  1.00  0.00     0.074 A 
ATOM     59  C   UNL     1       5.045 -14.559  14.655  1.00  0.00     0.031 C 
ATOM     60  C   UNL     1       4.654 -13.460  16.841  1.00  0.00     0.031 A 
BRANCH  47  61
ATOM     61  C   UNL     1       2.350  -8.410  19.506  1.00  0.00    -0.014 A 
ATOM     62  C   UNL     1       1.060  -8.408  20.065  1.00  0.00     0.010 A 
ATOM     63  C   UNL     1       3.416  -7.841  20.226  1.00  0.00     0.010 A 
ATOM     64  C   UNL     1       0.843  -7.857  21.330  1.00  0.00     0.020 A 
ATOM     65  C   UNL     1       3.205  -7.303  21.498  1.00  0.00     0.020 A 
ATOM     66  C   UNL     1       1.919  -7.321  22.044  1.00  0.00     0.054 A 
BRANCH  66  67
ATOM     67  S   UNL     1       1.614  -6.682  23.714  1.00  0.00     0.124 S 
ATOM     68  O   UNL     1       0.632  -5.628  23.464  1.00  0.00    -0.237 OA
ATOM     69  O   UNL     1       1.107  -7.860  24.412  1.00  0.00    -0.237 OA
ATOM     70  O   UNL     1       2.926  -6.212  24.153  1.00  0.00    -0.744 OA
ENDBRANCH  66  67
ENDBRANCH  47  61
BRANCH  48  71
ATOM     71  C   UNL     1       3.930 -13.104  10.835  1.00  0.00    -0.014 A 
ATOM     72  C   UNL     1       3.200 -14.251  10.480  1.00  0.00     0.010 A 
ATOM     73  C   UNL     1       4.886 -12.594   9.937  1.00  0.00     0.010 A 
ATOM     74  C   UNL     1       3.425 -14.878   9.251  1.00  0.00     0.020 A 
ATOM     75  C   UNL     1       5.099 -13.206   8.699  1.00  0.00     0.020 A 
ATOM     76  C   UNL     1       4.367 -14.346   8.365  1.00  0.00     0.054 A 
BRANCH  76  77
ATOM     77  S   UNL     1       4.606 -15.159   6.760  1.00  0.00     0.124 S 
ATOM     78  O   UNL     1       5.053 -16.491   7.153  1.00  0.00    -0.237 OA
ATOM     79  O   UNL     1       3.269 -15.086   6.177  1.00  0.00    -0.237 OA
ATOM     80  O   UNL     1       5.615 -14.332   6.102  1.00  0.00    -0.744 OA
ENDBRANCH  76  77
ENDBRANCH  48  71
BRANCH  60  81
ATOM     81  C   UNL     1       5.280 -14.636  17.537  1.00  0.00    -0.014 A 
ATOM     82  C   UNL     1       6.677 -14.762  17.620  1.00  0.00     0.010 A 
ATOM     83  C   UNL     1       4.462 -15.520  18.266  1.00  0.00     0.010 A 
ATOM     84  C   UNL     1       7.245 -15.741  18.439  1.00  0.00     0.020 A 
ATOM     85  C   UNL     1       5.027 -16.488  19.098  1.00  0.00     0.020 A 
ATOM     86  C   UNL     1       6.417 -16.585  19.186  1.00  0.00     0.054 A 
BRANCH  86  87
ATOM     87  S   UNL     1       7.188 -17.773  20.321  1.00  0.00     0.124 S 
ATOM     88  O   UNL     1       7.976 -18.602  19.412  1.00  0.00    -0.237 OA
ATOM     89  O   UNL     1       7.960 -16.904  21.206  1.00  0.00    -0.237 OA
ATOM     90  O   UNL     1       6.053 -18.447  20.947  1.00  0.00    -0.744 OA
ENDBRANCH  86  87
ENDBRANCH  60  81
ENDBRANCH  34  35
ENDBRANCH  27  29
ENDBRANCH  26  27
ENDBRANCH  25  26
ENDBRANCH   1  25
TORSDOF 19
