REMARK SMILES CC(C)C[C@@H](C(=O)OCCOCCOC(=O)c1ccc(-c2c3nc(c(-c4ccc(S(=O)(=O)[O-])cc4)c4ccc([nH]4)c(-c4ccc(S(=O)(=O)[O-])cc4)c4nc(c(-c5ccc(S(=O)(=O)[O-])cc5)c5ccc2[nH]5)C=C4)C=C3)cc1)[C@@H]1CCC[C@@H](C)C1
REMARK SMILES IDX 12 1 11 2 10 3 9 4 8 5 6 6 7 7 5 8 4 9 2 10 1 11 3 12 77 13
REMARK SMILES IDX 78 14 83 15 79 16 81 17 80 18 82 19 13 20 14 21 15 22 16 23
REMARK SMILES IDX 17 24 18 25 76 26 19 27 75 28 20 29 21 30 22 31 69 32 23 33
REMARK SMILES IDX 74 34 68 35 70 36 24 37 73 38 67 39 66 40 25 42 55 43 36 44
REMARK SMILES IDX 54 45 37 46 40 47 53 48 71 49 38 50 39 51 52 53 72 54 41 55
REMARK SMILES IDX 26 56 27 57 35 58 28 59 34 60 29 61 30 62 31 63 32 64 33 65
REMARK SMILES IDX 56 66 57 67 65 68 58 69 64 70 59 71 60 72 61 73 62 74 63 75
REMARK SMILES IDX 42 76 43 77 51 78 44 79 50 80 45 81 46 82 47 83 48 84 49 85
REMARK H PARENT 70 41 40 52
REMARK Flexibility Score: inf
ROOT
ATOM      1  C   UNL     1       2.417   4.742   3.807  1.00  0.00     0.202 C 
ENDROOT
BRANCH   1   2
ATOM      2  O   UNL     1       2.894   5.451   2.680  1.00  0.00    -0.374 OA
BRANCH   2   3
ATOM      3  C   UNL     1       2.414   5.072   1.392  1.00  0.00     0.202 C 
BRANCH   3   4
ATOM      4  C   UNL     1       2.396   3.585   1.018  1.00  0.00     0.261 C 
BRANCH   4   5
ATOM      5  O   UNL     1       1.272   2.821   1.534  1.00  0.00    -0.463 OA
BRANCH   5   6
ATOM      6  C   UNL     1       1.595   1.698   2.220  1.00  0.00     0.309 C 
ATOM      7  O   UNL     1       2.687   1.525   2.758  1.00  0.00    -0.252 OA
BRANCH   6   8
ATOM      8  C   UNL     1       0.589   0.546   2.121  1.00  0.00     0.102 C 
BRANCH   8   9
ATOM      9  C   UNL     1       0.695  -0.155   0.731  1.00  0.00     0.018 C 
BRANCH   9  10
ATOM     10  C   UNL     1      -0.271   0.236  -0.413  1.00  0.00    -0.017 C 
ATOM     11  C   UNL     1      -0.217   1.709  -0.802  1.00  0.00     0.007 C 
ATOM     12  C   UNL     1       0.036  -0.621  -1.649  1.00  0.00     0.007 C 
ENDBRANCH   9  10
ENDBRANCH   8   9
BRANCH   8  13
ATOM     13  C   UNL     1      -0.857   0.563   2.709  1.00  0.00     0.003 C 
ATOM     14  C   UNL     1      -1.423   1.867   3.292  1.00  0.00     0.004 C 
ATOM     15  C   UNL     1      -1.067  -0.642   3.673  1.00  0.00     0.007 C 
ATOM     16  C   UNL     1      -1.314   2.056   4.807  1.00  0.00     0.001 C 
ATOM     17  C   UNL     1      -0.710  -0.318   5.129  1.00  0.00    -0.014 C 
ATOM     18  C   UNL     1      -1.625   0.807   5.609  1.00  0.00     0.003 C 
ATOM     19  C   UNL     1      -0.831  -1.537   6.036  1.00  0.00     0.007 C 
ENDBRANCH   8  13
ENDBRANCH   6   8
ENDBRANCH   5   6
ENDBRANCH   4   5
ENDBRANCH   3   4
ENDBRANCH   2   3
ENDBRANCH   1   2
BRANCH   1  20
ATOM     20  C   UNL     1       0.914   4.763   4.090  1.00  0.00     0.261 C 
BRANCH  20  21
ATOM     21  O   UNL     1       0.091   5.208   3.014  1.00  0.00    -0.460 OA
BRANCH  21  22
ATOM     22  C   UNL     1      -0.538   6.384   3.196  1.00  0.00     0.338 C 
ATOM     23  O   UNL     1      -0.557   7.079   4.203  1.00  0.00    -0.246 OA
BRANCH  22  24
ATOM     24  C   UNL     1      -1.165   6.758   1.923  1.00  0.00     0.060 A 
ATOM     25  C   UNL     1      -0.519   7.696   1.115  1.00  0.00     0.016 A 
ATOM     26  C   UNL     1      -2.399   6.216   1.551  1.00  0.00     0.016 A 
ATOM     27  C   UNL     1      -1.135   8.134  -0.057  1.00  0.00     0.010 A 
ATOM     28  C   UNL     1      -3.011   6.654   0.372  1.00  0.00     0.010 A 
ATOM     29  C   UNL     1      -2.399   7.642  -0.418  1.00  0.00    -0.014 A 
BRANCH  29  30
ATOM     30  C   UNL     1      -3.122   8.273  -1.550  1.00  0.00     0.031 A 
ATOM     31  C   UNL     1      -4.173   9.311  -1.260  1.00  0.00     0.074 A 
ATOM     32  C   UNL     1      -2.804   7.973  -2.823  1.00  0.00     0.049 A 
ATOM     33  N   UNL     1      -4.841  10.066  -2.095  1.00  0.00    -0.248 NA
ATOM     34  C   UNL     1      -4.514   9.528   0.155  1.00  0.00     0.031 C 
ATOM     35  C   UNL     1      -1.793   7.000  -3.234  1.00  0.00     0.029 A 
ATOM     36  N   UNL     1      -3.289   8.474  -4.005  1.00  0.00    -0.354 N 
ATOM     37  C   UNL     1      -5.676  10.850  -1.307  1.00  0.00     0.074 A 
ATOM     38  C   UNL     1      -5.460  10.452   0.067  1.00  0.00     0.031 C 
ATOM     39  C   UNL     1      -1.718   6.990  -4.576  1.00  0.00     0.029 A 
ATOM     40  C   UNL     1      -2.686   7.942  -5.119  1.00  0.00     0.049 A 
ATOM     41  H   UNL     1      -4.003   9.151  -4.050  1.00  0.00     0.167 HD
ATOM     42  C   UNL     1      -6.537  11.823  -1.690  1.00  0.00     0.031 A 
ATOM     43  C   UNL     1      -2.885   8.197  -6.428  1.00  0.00     0.031 A 
ATOM     44  C   UNL     1      -6.766  12.209  -3.057  1.00  0.00     0.049 A 
ATOM     45  C   UNL     1      -3.890   9.243  -6.833  1.00  0.00     0.074 A 
ATOM     46  C   UNL     1      -7.595  13.205  -3.543  1.00  0.00     0.029 A 
ATOM     47  N   UNL     1      -6.177  11.605  -4.157  1.00  0.00    -0.354 N 
ATOM     48  N   UNL     1      -4.627  10.018  -6.072  1.00  0.00    -0.248 NA
ATOM     49  C   UNL     1      -4.080   9.457  -8.275  1.00  0.00     0.031 C 
ATOM     50  C   UNL     1      -7.549  13.166  -4.941  1.00  0.00     0.029 A 
ATOM     51  C   UNL     1      -6.650  12.183  -5.323  1.00  0.00     0.049 A 
ATOM     52  H   UNL     1      -5.520  10.873  -4.115  1.00  0.00     0.167 HD
ATOM     53  C   UNL     1      -5.350  10.827  -6.943  1.00  0.00     0.074 A 
ATOM     54  C   UNL     1      -4.954  10.455  -8.286  1.00  0.00     0.031 C 
ATOM     55  C   UNL     1      -6.255  11.795  -6.654  1.00  0.00     0.031 A 
BRANCH  42  56
ATOM     56  C   UNL     1      -7.323  12.513  -0.606  1.00  0.00    -0.014 A 
ATOM     57  C   UNL     1      -6.705  13.410   0.284  1.00  0.00     0.010 A 
ATOM     58  C   UNL     1      -8.702  12.267  -0.484  1.00  0.00     0.010 A 
ATOM     59  C   UNL     1      -7.443  14.010   1.308  1.00  0.00     0.020 A 
ATOM     60  C   UNL     1      -9.449  12.885   0.523  1.00  0.00     0.020 A 
ATOM     61  C   UNL     1      -8.809  13.736   1.427  1.00  0.00     0.054 A 
BRANCH  61  62
ATOM     62  S   UNL     1      -9.745  14.524   2.766  1.00  0.00     0.124 S 
ATOM     63  O   UNL     1      -9.303  13.760   3.930  1.00  0.00    -0.237 OA
ATOM     64  O   UNL     1      -9.283  15.908   2.712  1.00  0.00    -0.237 OA
ATOM     65  O   UNL     1     -11.139  14.320   2.381  1.00  0.00    -0.744 OA
ENDBRANCH  61  62
ENDBRANCH  42  56
BRANCH  43  66
ATOM     66  C   UNL     1      -2.099   7.458  -7.452  1.00  0.00    -0.014 A 
ATOM     67  C   UNL     1      -1.091   8.106  -8.187  1.00  0.00     0.010 A 
ATOM     68  C   UNL     1      -2.344   6.092  -7.683  1.00  0.00     0.010 A 
ATOM     69  C   UNL     1      -0.344   7.402  -9.137  1.00  0.00     0.020 A 
ATOM     70  C   UNL     1      -1.584   5.379  -8.615  1.00  0.00     0.020 A 
ATOM     71  C   UNL     1      -0.592   6.041  -9.341  1.00  0.00     0.054 A 
BRANCH  71  72
ATOM     72  S   UNL     1       0.440   5.129 -10.523  1.00  0.00     0.124 S 
ATOM     73  O   UNL     1      -0.081   5.595 -11.804  1.00  0.00    -0.237 OA
ATOM     74  O   UNL     1       1.786   5.583 -10.183  1.00  0.00    -0.237 OA
ATOM     75  O   UNL     1       0.166   3.729 -10.205  1.00  0.00    -0.744 OA
ENDBRANCH  71  72
ENDBRANCH  43  66
BRANCH  55  76
ATOM     76  C   UNL     1      -6.870  12.538  -7.811  1.00  0.00    -0.014 A 
ATOM     77  C   UNL     1      -7.835  11.932  -8.634  1.00  0.00     0.010 A 
ATOM     78  C   UNL     1      -6.520  13.882  -8.039  1.00  0.00     0.010 A 
ATOM     79  C   UNL     1      -8.419  12.649  -9.684  1.00  0.00     0.020 A 
ATOM     80  C   UNL     1      -7.119  14.609  -9.071  1.00  0.00     0.020 A 
ATOM     81  C   UNL     1      -8.056  13.982  -9.896  1.00  0.00     0.054 A 
BRANCH  81  82
ATOM     82  S   UNL     1      -8.859  14.905 -11.236  1.00  0.00     0.124 S 
ATOM     83  O   UNL     1      -8.191  14.368 -12.418  1.00  0.00    -0.237 OA
ATOM     84  O   UNL     1     -10.264  14.535 -11.085  1.00  0.00    -0.237 OA
ATOM     85  O   UNL     1      -8.553  16.300 -10.927  1.00  0.00    -0.744 OA
ENDBRANCH  81  82
ENDBRANCH  55  76
ENDBRANCH  29  30
ENDBRANCH  22  24
ENDBRANCH  21  22
ENDBRANCH  20  21
ENDBRANCH   1  20
TORSDOF 20
