REMARK SMILES NS(=O)(=O)c1ccc(/N=N/c2ccc(O)c(C(=O)OCCOCCOC(=O)c3ccc(-c4c5nc(c(-c6ccc(S(=O)(=O)[O-])cc6)c6ccc([nH]6)c(-c6ccc(S(=O)(=O)[O-])cc6)c6nc(c(-c7ccc(S(=O)(=O)[O-])cc7)c7ccc4[nH]7)C=C6)C=C5)cc3)c2)cc1
REMARK SMILES IDX 21 1 20 2 19 3 17 4 18 5 16 6 11 7 12 8 88 9 13 10 14 11
REMARK SMILES IDX 10 12 9 13 8 14 5 15 6 16 90 17 7 18 89 19 2 20 3 21 4 22
REMARK SMILES IDX 1 23 15 26 22 28 23 29 24 30 25 31 26 32 27 33 28 34 29 35
REMARK SMILES IDX 87 36 30 37 86 38 31 39 32 40 33 41 80 42 34 43 85 44 79 45
REMARK SMILES IDX 81 46 35 47 84 48 78 49 77 50 36 52 66 53 47 54 65 55 48 56
REMARK SMILES IDX 51 57 64 58 82 59 49 60 50 61 63 63 83 64 52 65 37 66 38 67
REMARK SMILES IDX 46 68 39 69 45 70 40 71 41 72 42 73 43 74 44 75 67 76 68 77
REMARK SMILES IDX 76 78 69 79 75 80 70 81 71 82 72 83 73 84 74 85 53 86 54 87
REMARK SMILES IDX 62 88 55 89 61 90 56 91 57 92 58 93 59 94 60 95
REMARK H PARENT 1 24 1 25 15 27 81 51 51 62
REMARK Flexibility Score: inf
ROOT
ATOM      1  C   UNL     1       7.754   1.987  10.493  1.00  0.00     0.202 C 
ENDROOT
BRANCH   1   2
ATOM      2  C   UNL     1       6.481   1.170  10.736  1.00  0.00     0.261 C 
BRANCH   2   3
ATOM      3  O   UNL     1       5.360   1.746  10.044  1.00  0.00    -0.460 OA
BRANCH   3   4
ATOM      4  C   UNL     1       4.471   2.395  10.830  1.00  0.00     0.342 C 
ATOM      5  O   UNL     1       4.457   2.430  12.053  1.00  0.00    -0.246 OA
BRANCH   4   6
ATOM      6  C   UNL     1       3.602   3.283  10.025  1.00  0.00     0.104 A 
ATOM      7  C   UNL     1       2.530   3.917   7.934  1.00  0.00     0.087 A 
ATOM      8  C   UNL     1       2.078   5.094   8.548  1.00  0.00     0.034 A 
ATOM      9  C   UNL     1       3.302   3.014   8.682  1.00  0.00     0.049 A 
ATOM     10  C   UNL     1       2.379   5.371   9.882  1.00  0.00     0.049 A 
ATOM     11  C   UNL     1       3.139   4.468  10.616  1.00  0.00     0.130 A 
BRANCH   7  12
ATOM     12  N   UNL     1       2.265   3.743   6.563  1.00  0.00    -0.151 NA
ATOM     13  N   UNL     1       1.820   2.604   6.310  1.00  0.00    -0.151 NA
BRANCH  13  14
ATOM     14  C   UNL     1       1.518   2.428   4.939  1.00  0.00     0.086 A 
ATOM     15  C   UNL     1       0.836   1.925   2.253  1.00  0.00     0.082 A 
ATOM     16  C   UNL     1       1.091   0.858   3.116  1.00  0.00     0.024 A 
ATOM     17  C   UNL     1       0.929   3.241   2.711  1.00  0.00     0.024 A 
ATOM     18  C   UNL     1       1.428   1.116   4.450  1.00  0.00     0.031 A 
ATOM     19  C   UNL     1       1.259   3.485   4.048  1.00  0.00     0.031 A 
BRANCH  15  20
ATOM     20  S   UNL     1       0.413   1.644   0.558  1.00  0.00     0.238 S 
ATOM     21  O   UNL     1       1.059   2.654  -0.248  1.00  0.00    -0.207 OA
ATOM     22  O   UNL     1      -1.006   1.386   0.485  1.00  0.00    -0.207 OA
BRANCH  20  23
ATOM     23  N   UNL     1       1.183   0.206   0.176  1.00  0.00    -0.225 NA
ATOM     24  H   UNL     1       0.991  -0.035  -0.796  1.00  0.00     0.137 HD
ATOM     25  H   UNL     1       0.838  -0.536   0.785  1.00  0.00     0.137 HD
ENDBRANCH  20  23
ENDBRANCH  15  20
ENDBRANCH  13  14
ENDBRANCH   7  12
BRANCH  11  26
ATOM     26  O   UNL     1       3.426   4.832  11.905  1.00  0.00    -0.507 OA
ATOM     27  H   UNL     1       3.091   5.636  12.251  1.00  0.00     0.293 HD
ENDBRANCH  11  26
ENDBRANCH   4   6
ENDBRANCH   3   4
ENDBRANCH   2   3
ENDBRANCH   1   2
BRANCH   1  28
ATOM     28  O   UNL     1       7.736   3.320  11.007  1.00  0.00    -0.374 OA
BRANCH  28  29
ATOM     29  C   UNL     1       7.176   4.324  10.156  1.00  0.00     0.202 C 
BRANCH  29  30
ATOM     30  C   UNL     1       8.095   4.849   9.046  1.00  0.00     0.261 C 
BRANCH  30  31
ATOM     31  O   UNL     1       8.275   3.869   8.007  1.00  0.00    -0.460 OA
BRANCH  31  32
ATOM     32  C   UNL     1       9.524   3.349   7.911  1.00  0.00     0.338 C 
ATOM     33  O   UNL     1      10.514   3.688   8.534  1.00  0.00    -0.246 OA
BRANCH  32  34
ATOM     34  C   UNL     1       9.482   2.140   7.064  1.00  0.00     0.060 A 
ATOM     35  C   UNL     1       9.991   0.952   7.603  1.00  0.00     0.016 A 
ATOM     36  C   UNL     1       8.979   2.170   5.762  1.00  0.00     0.016 A 
ATOM     37  C   UNL     1      10.018  -0.210   6.833  1.00  0.00     0.010 A 
ATOM     38  C   UNL     1       9.020   1.007   4.986  1.00  0.00     0.010 A 
ATOM     39  C   UNL     1       9.555  -0.184   5.511  1.00  0.00    -0.014 A 
BRANCH  39  40
ATOM     40  C   UNL     1       9.708  -1.375   4.642  1.00  0.00     0.031 A 
ATOM     41  C   UNL     1      10.852  -1.435   3.669  1.00  0.00     0.074 A 
ATOM     42  C   UNL     1       8.825  -2.388   4.712  1.00  0.00     0.049 A 
ATOM     43  N   UNL     1      11.118  -2.339   2.763  1.00  0.00    -0.248 NA
ATOM     44  C   UNL     1      11.823  -0.330   3.726  1.00  0.00     0.031 C 
ATOM     45  C   UNL     1       7.700  -2.466   5.644  1.00  0.00     0.029 A 
ATOM     46  N   UNL     1       8.729  -3.539   3.971  1.00  0.00    -0.354 N 
ATOM     47  C   UNL     1      12.280  -1.909   2.132  1.00  0.00     0.074 A 
ATOM     48  C   UNL     1      12.657  -0.655   2.748  1.00  0.00     0.031 C 
ATOM     49  C   UNL     1       7.014  -3.597   5.404  1.00  0.00     0.029 A 
ATOM     50  C   UNL     1       7.628  -4.301   4.280  1.00  0.00     0.049 A 
ATOM     51  H   UNL     1       9.387  -3.795   3.285  1.00  0.00     0.167 HD
ATOM     52  C   UNL     1      12.967  -2.506   1.129  1.00  0.00     0.031 A 
ATOM     53  C   UNL     1       7.147  -5.418   3.699  1.00  0.00     0.031 A 
ATOM     54  C   UNL     1      12.579  -3.744   0.506  1.00  0.00     0.049 A 
ATOM     55  C   UNL     1       7.881  -6.016   2.527  1.00  0.00     0.074 A 
ATOM     56  C   UNL     1      13.223  -4.438  -0.502  1.00  0.00     0.029 A 
ATOM     57  N   UNL     1      11.438  -4.465   0.822  1.00  0.00    -0.354 N 
ATOM     58  N   UNL     1       8.992  -5.613   1.959  1.00  0.00    -0.248 NA
ATOM     59  C   UNL     1       7.294  -7.218   1.918  1.00  0.00     0.031 C 
ATOM     60  C   UNL     1      12.440  -5.548  -0.838  1.00  0.00     0.029 A 
ATOM     61  C   UNL     1      11.339  -5.577   0.003  1.00  0.00     0.049 A 
ATOM     62  H   UNL     1      10.793  -4.223   1.525  1.00  0.00     0.167 HD
ATOM     63  C   UNL     1       9.246  -6.522   0.937  1.00  0.00     0.074 A 
ATOM     64  C   UNL     1       8.183  -7.504   0.976  1.00  0.00     0.031 C 
ATOM     65  C   UNL     1      10.269  -6.541   0.046  1.00  0.00     0.031 A 
BRANCH  52  66
ATOM     66  C   UNL     1      14.194  -1.803   0.611  1.00  0.00    -0.014 A 
ATOM     67  C   UNL     1      15.382  -1.760   1.363  1.00  0.00     0.010 A 
ATOM     68  C   UNL     1      14.169  -1.216  -0.667  1.00  0.00     0.010 A 
ATOM     69  C   UNL     1      16.513  -1.114   0.857  1.00  0.00     0.020 A 
ATOM     70  C   UNL     1      15.306  -0.590  -1.185  1.00  0.00     0.020 A 
ATOM     71  C   UNL     1      16.467  -0.531  -0.413  1.00  0.00     0.054 A 
BRANCH  71  72
ATOM     72  S   UNL     1      17.959   0.279  -1.055  1.00  0.00     0.124 S 
ATOM     73  O   UNL     1      18.006   1.499  -0.253  1.00  0.00    -0.237 OA
ATOM     74  O   UNL     1      19.003  -0.701  -0.769  1.00  0.00    -0.237 OA
ATOM     75  O   UNL     1      17.664   0.476  -2.472  1.00  0.00    -0.744 OA
ENDBRANCH  71  72
ENDBRANCH  52  66
BRANCH  53  76
ATOM     76  C   UNL     1       5.877  -6.020   4.187  1.00  0.00    -0.014 A 
ATOM     77  C   UNL     1       5.875  -7.255   4.856  1.00  0.00     0.010 A 
ATOM     78  C   UNL     1       4.656  -5.352   3.979  1.00  0.00     0.010 A 
ATOM     79  C   UNL     1       4.674  -7.819   5.298  1.00  0.00     0.020 A 
ATOM     80  C   UNL     1       3.457  -5.898   4.442  1.00  0.00     0.020 A 
ATOM     81  C   UNL     1       3.473  -7.135   5.090  1.00  0.00     0.054 A 
BRANCH  81  82
ATOM     82  S   UNL     1       1.931  -7.855   5.719  1.00  0.00     0.124 S 
ATOM     83  O   UNL     1       1.688  -8.931   4.763  1.00  0.00    -0.237 OA
ATOM     84  O   UNL     1       2.306  -8.275   7.066  1.00  0.00    -0.237 OA
ATOM     85  O   UNL     1       0.988  -6.740   5.663  1.00  0.00    -0.744 OA
ENDBRANCH  81  82
ENDBRANCH  53  76
BRANCH  65  86
ATOM     86  C   UNL     1      10.299  -7.667  -0.953  1.00  0.00    -0.014 A 
ATOM     87  C   UNL     1       9.400  -7.703  -2.034  1.00  0.00     0.010 A 
ATOM     88  C   UNL     1      11.279  -8.670  -0.843  1.00  0.00     0.010 A 
ATOM     89  C   UNL     1       9.465  -8.736  -2.972  1.00  0.00     0.020 A 
ATOM     90  C   UNL     1      11.364  -9.690  -1.794  1.00  0.00     0.020 A 
ATOM     91  C   UNL     1      10.448  -9.723  -2.847  1.00  0.00     0.054 A 
BRANCH  91  92
ATOM     92  S   UNL     1      10.542 -11.026  -4.106  1.00  0.00     0.124 S 
ATOM     93  O   UNL     1       9.391 -11.858  -3.769  1.00  0.00    -0.237 OA
ATOM     94  O   UNL     1      10.431 -10.274  -5.354  1.00  0.00    -0.237 OA
ATOM     95  O   UNL     1      11.847 -11.640  -3.871  1.00  0.00    -0.744 OA
ENDBRANCH  91  92
ENDBRANCH  65  86
ENDBRANCH  39  40
ENDBRANCH  32  34
ENDBRANCH  31  32
ENDBRANCH  30  31
ENDBRANCH  29  30
ENDBRANCH  28  29
ENDBRANCH   1  28
TORSDOF 22
