REMARK SMILES CC1(C)CCC[C@H]1NS(=O)(=O)c1cccc(C(=O)OCCOCCOC(=O)c2ccc(-c3c4nc(c(-c5ccc(S(=O)(=O)[O-])cc5)c5ccc([nH]5)c(-c5ccc(S(=O)(=O)[O-])cc5)c5nc(c(-c6ccc(S(=O)(=O)[O-])cc6)c6ccc3[nH]6)C=C5)C=C4)cc2)c1
REMARK SMILES IDX 22 1 21 2 20 3 19 4 17 5 18 6 16 7 12 8 13 9 88 10 14 11
REMARK SMILES IDX 15 12 9 13 10 14 11 15 8 16 7 18 1 19 2 20 3 21 4 22 5 23
REMARK SMILES IDX 6 24 23 25 24 26 25 27 26 28 27 29 28 30 29 31 87 32 30 33
REMARK SMILES IDX 86 34 31 35 32 36 33 37 80 38 34 39 85 40 79 41 81 42 35 43
REMARK SMILES IDX 84 44 78 45 77 46 36 48 66 49 47 50 65 51 48 52 51 53 64 54
REMARK SMILES IDX 82 55 49 56 50 57 63 59 83 60 52 61 37 62 38 63 46 64 39 65
REMARK SMILES IDX 45 66 40 67 41 68 42 69 43 70 44 71 67 72 68 73 76 74 69 75
REMARK SMILES IDX 75 76 70 77 71 78 72 79 73 80 74 81 53 82 54 83 62 84 55 85
REMARK SMILES IDX 61 86 56 87 57 88 58 89 59 90 60 91
REMARK H PARENT 8 17 81 47 51 58
REMARK Flexibility Score: inf
ROOT
ATOM      1  O   UNL     1      -1.307  10.362   1.454  1.00  0.00    -0.374 OA
ENDROOT
BRANCH   1   2
ATOM      2  C   UNL     1      -2.587  10.038   2.009  1.00  0.00     0.202 C 
BRANCH   2   3
ATOM      3  C   UNL     1      -3.482   9.236   1.057  1.00  0.00     0.261 C 
BRANCH   3   4
ATOM      4  O   UNL     1      -2.972   7.895   0.931  1.00  0.00    -0.460 OA
BRANCH   4   5
ATOM      5  C   UNL     1      -2.526   7.536  -0.295  1.00  0.00     0.338 C 
ATOM      6  O   UNL     1      -2.683   8.132  -1.347  1.00  0.00    -0.246 OA
BRANCH   5   7
ATOM      7  C   UNL     1      -1.592   6.395  -0.139  1.00  0.00     0.061 A 
ATOM      8  C   UNL     1      -0.830   4.384   0.957  1.00  0.00     0.083 A 
ATOM      9  C   UNL     1       0.357   4.414   0.220  1.00  0.00     0.022 A 
ATOM     10  C   UNL     1      -1.805   5.378   0.794  1.00  0.00     0.037 A 
ATOM     11  C   UNL     1       0.551   5.419  -0.728  1.00  0.00     0.002 A 
ATOM     12  C   UNL     1      -0.425   6.400  -0.915  1.00  0.00     0.016 A 
BRANCH   8  13
ATOM     13  S   UNL     1      -1.192   3.049   2.063  1.00  0.00     0.240 S 
ATOM     14  O   UNL     1      -2.594   2.739   1.923  1.00  0.00    -0.207 OA
ATOM     15  O   UNL     1      -0.616   3.399   3.343  1.00  0.00    -0.207 OA
BRANCH  13  16
ATOM     16  N   UNL     1      -0.305   1.728   1.518  1.00  0.00    -0.208 NA
ATOM     17  H   UNL     1       0.672   2.017   1.549  1.00  0.00     0.141 HD
BRANCH  16  18
ATOM     18  C   UNL     1      -0.497   1.103   0.199  1.00  0.00     0.075 C 
ATOM     19  C   UNL     1       1.905   0.168   0.692  1.00  0.00     0.013 C 
ATOM     20  C   UNL     1       0.565  -0.016  -0.038  1.00  0.00    -0.019 C 
ATOM     21  C   UNL     1       0.873  -0.137  -1.546  1.00  0.00     0.013 C 
ATOM     22  C   UNL     1      -0.155  -1.275   0.471  1.00  0.00     0.008 C 
ATOM     23  C   UNL     1      -1.589  -1.103   0.002  1.00  0.00     0.002 C 
ATOM     24  C   UNL     1      -1.855   0.399   0.065  1.00  0.00     0.020 C 
ENDBRANCH  16  18
ENDBRANCH  13  16
ENDBRANCH   8  13
ENDBRANCH   5   7
ENDBRANCH   4   5
ENDBRANCH   3   4
ENDBRANCH   2   3
ENDBRANCH   1   2
BRANCH   1  25
ATOM     25  C   UNL     1      -0.286   9.379   1.639  1.00  0.00     0.202 C 
BRANCH  25  26
ATOM     26  C   UNL     1       0.509   9.532   2.939  1.00  0.00     0.261 C 
BRANCH  26  27
ATOM     27  O   UNL     1      -0.296   9.163   4.071  1.00  0.00    -0.460 OA
BRANCH  27  28
ATOM     28  C   UNL     1      -0.713  10.198   4.838  1.00  0.00     0.338 C 
ATOM     29  O   UNL     1      -0.387  11.368   4.730  1.00  0.00    -0.246 OA
BRANCH  28  30
ATOM     30  C   UNL     1      -1.778   9.746   5.757  1.00  0.00     0.060 A 
ATOM     31  C   UNL     1      -2.886  10.588   5.915  1.00  0.00     0.016 A 
ATOM     32  C   UNL     1      -1.687   8.554   6.484  1.00  0.00     0.016 A 
ATOM     33  C   UNL     1      -3.880  10.270   6.838  1.00  0.00     0.010 A 
ATOM     34  C   UNL     1      -2.684   8.239   7.415  1.00  0.00     0.010 A 
ATOM     35  C   UNL     1      -3.765   9.114   7.621  1.00  0.00    -0.014 A 
BRANCH  35  36
ATOM     36  C   UNL     1      -4.707   8.905   8.746  1.00  0.00     0.031 A 
ATOM     37  C   UNL     1      -4.290   9.315  10.133  1.00  0.00     0.074 A 
ATOM     38  C   UNL     1      -5.931   8.392   8.533  1.00  0.00     0.049 A 
ATOM     39  N   UNL     1      -4.965   9.252  11.251  1.00  0.00    -0.248 NA
ATOM     40  C   UNL     1      -2.935   9.872  10.275  1.00  0.00     0.031 C 
ATOM     41  C   UNL     1      -6.462   7.981   7.234  1.00  0.00     0.029 A 
ATOM     42  N   UNL     1      -6.951   8.130   9.413  1.00  0.00    -0.354 N 
ATOM     43  C   UNL     1      -4.117   9.755  12.231  1.00  0.00     0.074 A 
ATOM     44  C   UNL     1      -2.871  10.095  11.579  1.00  0.00     0.031 C 
ATOM     45  C   UNL     1      -7.710   7.510   7.404  1.00  0.00     0.029 A 
ATOM     46  C   UNL     1      -8.057   7.569   8.822  1.00  0.00     0.049 A 
ATOM     47  H   UNL     1      -6.895   8.326  10.376  1.00  0.00     0.167 HD
ATOM     48  C   UNL     1      -4.355   9.924  13.554  1.00  0.00     0.031 A 
ATOM     49  C   UNL     1      -9.213   7.138   9.365  1.00  0.00     0.031 A 
ATOM     50  C   UNL     1      -5.587   9.571  14.206  1.00  0.00     0.049 A 
ATOM     51  C   UNL     1      -9.437   7.287  10.846  1.00  0.00     0.074 A 
ATOM     52  C   UNL     1      -5.932   9.726  15.538  1.00  0.00     0.029 A 
ATOM     53  N   UNL     1      -6.672   8.978  13.578  1.00  0.00    -0.354 N 
ATOM     54  N   UNL     1      -8.642   7.806  11.752  1.00  0.00    -0.248 NA
ATOM     55  C   UNL     1     -10.719   6.802  11.376  1.00  0.00     0.031 C 
ATOM     56  C   UNL     1      -7.208   9.183  15.724  1.00  0.00     0.029 A 
ATOM     57  C   UNL     1      -7.677   8.735  14.499  1.00  0.00     0.049 A 
ATOM     58  H   UNL     1      -6.720   8.762  12.619  1.00  0.00     0.167 HD
ATOM     59  C   UNL     1      -9.336   7.727  12.955  1.00  0.00     0.074 A 
ATOM     60  C   UNL     1     -10.619   7.122  12.660  1.00  0.00     0.031 C 
ATOM     61  C   UNL     1      -8.946   8.125  14.192  1.00  0.00     0.031 A 
BRANCH  48  62
ATOM     62  C   UNL     1      -3.235  10.486  14.386  1.00  0.00    -0.014 A 
ATOM     63  C   UNL     1      -2.875  11.843  14.302  1.00  0.00     0.010 A 
ATOM     64  C   UNL     1      -2.538   9.645  15.273  1.00  0.00     0.010 A 
ATOM     65  C   UNL     1      -1.808  12.339  15.056  1.00  0.00     0.020 A 
ATOM     66  C   UNL     1      -1.485  10.142  16.045  1.00  0.00     0.020 A 
ATOM     67  C   UNL     1      -1.113  11.482  15.916  1.00  0.00     0.054 A 
BRANCH  67  68
ATOM     68  S   UNL     1       0.270  12.146  16.883  1.00  0.00     0.124 S 
ATOM     69  O   UNL     1       1.323  12.240  15.874  1.00  0.00    -0.237 OA
ATOM     70  O   UNL     1      -0.254  13.423  17.362  1.00  0.00    -0.237 OA
ATOM     71  O   UNL     1       0.486  11.138  17.917  1.00  0.00    -0.744 OA
ENDBRANCH  67  68
ENDBRANCH  48  62
BRANCH  49  72
ATOM     72  C   UNL     1     -10.245   6.515   8.495  1.00  0.00    -0.014 A 
ATOM     73  C   UNL     1     -11.428   7.203   8.177  1.00  0.00     0.010 A 
ATOM     74  C   UNL     1     -10.032   5.231   7.958  1.00  0.00     0.010 A 
ATOM     75  C   UNL     1     -12.383   6.617   7.340  1.00  0.00     0.020 A 
ATOM     76  C   UNL     1     -10.974   4.652   7.104  1.00  0.00     0.020 A 
ATOM     77  C   UNL     1     -12.148   5.347   6.805  1.00  0.00     0.054 A 
BRANCH  77  78
ATOM     78  S   UNL     1     -13.365   4.636   5.662  1.00  0.00     0.124 S 
ATOM     79  O   UNL     1     -14.423   4.209   6.571  1.00  0.00    -0.237 OA
ATOM     80  O   UNL     1     -13.690   5.770   4.800  1.00  0.00    -0.237 OA
ATOM     81  O   UNL     1     -12.627   3.558   5.006  1.00  0.00    -0.744 OA
ENDBRANCH  77  78
ENDBRANCH  49  72
BRANCH  61  82
ATOM     82  C   UNL     1      -9.925   7.939  15.320  1.00  0.00    -0.014 A 
ATOM     83  C   UNL     1     -10.171   6.668  15.867  1.00  0.00     0.010 A 
ATOM     84  C   UNL     1     -10.564   9.062  15.878  1.00  0.00     0.010 A 
ATOM     85  C   UNL     1     -11.062   6.519  16.934  1.00  0.00     0.020 A 
ATOM     86  C   UNL     1     -11.437   8.920  16.959  1.00  0.00     0.020 A 
ATOM     87  C   UNL     1     -11.691   7.646  17.472  1.00  0.00     0.054 A 
BRANCH  87  88
ATOM     88  S   UNL     1     -12.809   7.436  18.886  1.00  0.00     0.124 S 
ATOM     89  O   UNL     1     -14.012   6.912  18.246  1.00  0.00    -0.237 OA
ATOM     90  O   UNL     1     -12.085   6.490  19.733  1.00  0.00    -0.237 OA
ATOM     91  O   UNL     1     -12.930   8.785  19.433  1.00  0.00    -0.744 OA
ENDBRANCH  87  88
ENDBRANCH  61  82
ENDBRANCH  35  36
ENDBRANCH  28  30
ENDBRANCH  27  28
ENDBRANCH  26  27
ENDBRANCH  25  26
ENDBRANCH   1  25
TORSDOF 20
