REMARK SMILES CC(C)[C@H](NC(=O)[C@H]1CC(=O)N(c2ccc(F)cc2)C1)C(=O)N1CCC[C@@H]1C(=O)OCCOCCOC(=O)c1ccc(-c2c3nc(c(-c4ccc(S(=O)(=O)[O-])cc4)c4ccc([nH]4)c(-c4ccc(S(=O)(=O)[O-])cc4)c4nc(c(-c5ccc(S(=O)(=O)[O-])cc5)c5ccc2[nH]5)C=C4)C=C3)cc1
REMARK SMILES IDX 32 1 31 2 30 3 28 4 29 5 27 6 23 7 24 8 25 9 26 10 21 11
REMARK SMILES IDX 22 12 4 13 2 14 1 15 3 16 5 17 6 18 7 20 8 21 9 22 20 23
REMARK SMILES IDX 10 24 12 25 11 26 13 27 14 28 19 29 15 30 18 31 16 32 17 33
REMARK SMILES IDX 33 34 34 35 35 36 36 37 37 38 38 39 39 40 40 41 98 42 41 43
REMARK SMILES IDX 97 44 42 45 43 46 44 47 91 48 45 49 96 50 90 51 92 52 46 53
REMARK SMILES IDX 95 54 89 55 88 56 47 58 77 59 58 60 76 61 59 62 62 63 75 64
REMARK SMILES IDX 93 65 60 66 61 67 74 69 94 70 63 71 48 72 49 73 57 74 50 75
REMARK SMILES IDX 56 76 51 77 52 78 53 79 54 80 55 81 78 82 79 83 87 84 80 85
REMARK SMILES IDX 86 86 81 87 82 88 83 89 84 90 85 91 64 92 65 93 73 94 66 95
REMARK SMILES IDX 72 96 67 97 68 98 69 99 70 100 71 101
REMARK H PARENT 5 19 92 57 62 68
REMARK Flexibility Score: inf
ROOT
ATOM      1  C   UNL     1       1.335  -1.557   2.642  1.00  0.00     0.202 C 
ENDROOT
BRANCH   1   2
ATOM      2  C   UNL     1       2.244  -1.872   1.447  1.00  0.00     0.261 C 
BRANCH   2   3
ATOM      3  O   UNL     1       1.547  -1.972   0.185  1.00  0.00    -0.462 OA
BRANCH   3   4
ATOM      4  C   UNL     1       1.293  -3.243  -0.236  1.00  0.00     0.328 C 
ATOM      5  O   UNL     1       1.437  -4.245   0.458  1.00  0.00    -0.250 OA
BRANCH   4   6
ATOM      6  C   UNL     1       0.608  -3.301  -1.606  1.00  0.00     0.195 C 
ATOM      7  N   UNL     1       0.925  -2.297  -2.628  1.00  0.00    -0.327 N 
ATOM      8  C   UNL     1      -0.183  -2.286  -3.556  1.00  0.00     0.120 C 
ATOM      9  C   UNL     1      -1.368  -2.288  -2.624  1.00  0.00     0.024 C 
ATOM     10  C   UNL     1      -0.919  -3.150  -1.447  1.00  0.00     0.039 C 
BRANCH   7  11
ATOM     11  C   UNL     1       2.229  -2.155  -3.053  1.00  0.00     0.246 C 
ATOM     12  O   UNL     1       3.053  -3.040  -2.796  1.00  0.00    -0.272 OA
BRANCH  11  13
ATOM     13  C   UNL     1       2.717  -0.749  -3.543  1.00  0.00     0.174 C 
BRANCH  13  14
ATOM     14  C   UNL     1       3.137   0.158  -2.352  1.00  0.00     0.015 C 
ATOM     15  C   UNL     1       4.177  -0.516  -1.442  1.00  0.00     0.010 C 
ATOM     16  C   UNL     1       3.747   1.484  -2.827  1.00  0.00     0.010 C 
ENDBRANCH  13  14
BRANCH  13  17
ATOM     17  N   UNL     1       1.929  -0.052  -4.584  1.00  0.00    -0.344 N 
ATOM     18  C   UNL     1       0.867   0.797  -4.608  1.00  0.00     0.226 C 
ATOM     19  H   UNL     1       2.256  -0.255  -5.490  1.00  0.00     0.164 HD
ATOM     20  O   UNL     1       0.549   1.263  -5.704  1.00  0.00    -0.275 OA
BRANCH  18  21
ATOM     21  C   UNL     1       0.060   1.101  -3.370  1.00  0.00     0.107 C 
ATOM     22  C   UNL     1       0.235   2.507  -2.788  1.00  0.00     0.116 C 
ATOM     23  C   UNL     1      -1.429   1.122  -3.712  1.00  0.00     0.139 C 
ATOM     24  C   UNL     1      -1.074   2.707  -2.042  1.00  0.00     0.227 C 
ATOM     25  N   UNL     1      -1.990   1.815  -2.590  1.00  0.00    -0.312 N 
ATOM     26  O   UNL     1      -1.253   3.492  -1.123  1.00  0.00    -0.274 OA
BRANCH  25  27
ATOM     27  C   UNL     1      -3.285   1.581  -2.122  1.00  0.00     0.044 A 
ATOM     28  C   UNL     1      -4.333   2.418  -2.505  1.00  0.00     0.029 A 
ATOM     29  C   UNL     1      -3.538   0.463  -1.318  1.00  0.00     0.029 A 
ATOM     30  C   UNL     1      -5.640   2.110  -2.116  1.00  0.00     0.041 A 
ATOM     31  C   UNL     1      -4.843   0.150  -0.940  1.00  0.00     0.041 A 
ATOM     32  C   UNL     1      -5.884   0.973  -1.350  1.00  0.00     0.123 A 
ATOM     33  F   UNL     1      -7.140   0.666  -1.001  1.00  0.00    -0.207 F 
ENDBRANCH  25  27
ENDBRANCH  18  21
ENDBRANCH  13  17
ENDBRANCH  11  13
ENDBRANCH   7  11
ENDBRANCH   4   6
ENDBRANCH   3   4
ENDBRANCH   2   3
ENDBRANCH   1   2
BRANCH   1  34
ATOM     34  O   UNL     1       0.485  -2.611   3.098  1.00  0.00    -0.374 OA
BRANCH  34  35
ATOM     35  C   UNL     1      -0.738  -2.772   2.386  1.00  0.00     0.202 C 
BRANCH  35  36
ATOM     36  C   UNL     1      -1.904  -1.874   2.815  1.00  0.00     0.261 C 
BRANCH  36  37
ATOM     37  O   UNL     1      -1.577  -0.478   2.714  1.00  0.00    -0.460 OA
BRANCH  37  38
ATOM     38  C   UNL     1      -1.290   0.101   3.905  1.00  0.00     0.338 C 
ATOM     39  O   UNL     1      -1.406  -0.409   5.013  1.00  0.00    -0.246 OA
BRANCH  38  40
ATOM     40  C   UNL     1      -0.633   1.406   3.711  1.00  0.00     0.060 A 
ATOM     41  C   UNL     1       0.553   1.625   4.422  1.00  0.00     0.016 A 
ATOM     42  C   UNL     1      -1.196   2.425   2.940  1.00  0.00     0.016 A 
ATOM     43  C   UNL     1       1.137   2.888   4.434  1.00  0.00     0.010 A 
ATOM     44  C   UNL     1      -0.611   3.698   2.958  1.00  0.00     0.010 A 
ATOM     45  C   UNL     1       0.527   3.946   3.747  1.00  0.00    -0.014 A 
BRANCH  45  46
ATOM     46  C   UNL     1       0.991   5.330   4.019  1.00  0.00     0.031 A 
ATOM     47  C   UNL     1       0.236   6.164   5.023  1.00  0.00     0.074 A 
ATOM     48  C   UNL     1       2.114   5.809   3.453  1.00  0.00     0.049 A 
ATOM     49  N   UNL     1       0.490   7.373   5.454  1.00  0.00    -0.248 NA
ATOM     50  C   UNL     1      -0.957   5.550   5.630  1.00  0.00     0.031 C 
ATOM     51  C   UNL     1       2.961   5.082   2.508  1.00  0.00     0.029 A 
ATOM     52  N   UNL     1       2.739   7.021   3.603  1.00  0.00    -0.354 N 
ATOM     53  C   UNL     1      -0.507   7.664   6.378  1.00  0.00     0.074 A 
ATOM     54  C   UNL     1      -1.389   6.519   6.425  1.00  0.00     0.031 C 
ATOM     55  C   UNL     1       3.997   5.865   2.161  1.00  0.00     0.029 A 
ATOM     56  C   UNL     1       3.872   7.156   2.837  1.00  0.00     0.049 A 
ATOM     57  H   UNL     1       2.408   7.728   4.202  1.00  0.00     0.167 HD
ATOM     58  C   UNL     1      -0.672   8.780   7.127  1.00  0.00     0.031 A 
ATOM     59  C   UNL     1       4.705   8.205   2.686  1.00  0.00     0.031 A 
ATOM     60  C   UNL     1       0.197   9.926   7.073  1.00  0.00     0.049 A 
ATOM     61  C   UNL     1       4.454   9.467   3.473  1.00  0.00     0.074 A 
ATOM     62  C   UNL     1       0.114  11.103   7.797  1.00  0.00     0.029 A 
ATOM     63  N   UNL     1       1.302  10.042   6.245  1.00  0.00    -0.354 N 
ATOM     64  N   UNL     1       3.519   9.716   4.359  1.00  0.00    -0.248 NA
ATOM     65  C   UNL     1       5.380  10.586   3.245  1.00  0.00     0.031 C 
ATOM     66  C   UNL     1       1.140  11.952   7.368  1.00  0.00     0.029 A 
ATOM     67  C   UNL     1       1.896  11.280   6.421  1.00  0.00     0.049 A 
ATOM     68  H   UNL     1       1.618   9.347   5.623  1.00  0.00     0.167 HD
ATOM     69  C   UNL     1       3.761  11.009   4.812  1.00  0.00     0.074 A 
ATOM     70  C   UNL     1       4.939  11.483   4.117  1.00  0.00     0.031 C 
ATOM     71  C   UNL     1       3.070  11.739   5.723  1.00  0.00     0.031 A 
BRANCH  58  72
ATOM     72  C   UNL     1      -1.854   8.829   8.058  1.00  0.00    -0.014 A 
ATOM     73  C   UNL     1      -1.881   8.065   9.239  1.00  0.00     0.010 A 
ATOM     74  C   UNL     1      -2.929   9.692   7.776  1.00  0.00     0.010 A 
ATOM     75  C   UNL     1      -2.973   8.145  10.108  1.00  0.00     0.020 A 
ATOM     76  C   UNL     1      -4.011   9.793   8.655  1.00  0.00     0.020 A 
ATOM     77  C   UNL     1      -4.032   9.009   9.810  1.00  0.00     0.054 A 
BRANCH  77  78
ATOM     78  S   UNL     1      -5.417   9.122  10.975  1.00  0.00     0.124 S 
ATOM     79  O   UNL     1      -6.096   7.846  10.762  1.00  0.00    -0.237 OA
ATOM     80  O   UNL     1      -4.742   9.266  12.263  1.00  0.00    -0.237 OA
ATOM     81  O   UNL     1      -6.154  10.301  10.526  1.00  0.00    -0.744 OA
ENDBRANCH  77  78
ENDBRANCH  58  72
BRANCH  59  82
ATOM     82  C   UNL     1       5.843   8.125   1.730  1.00  0.00    -0.014 A 
ATOM     83  C   UNL     1       7.173   8.122   2.186  1.00  0.00     0.010 A 
ATOM     84  C   UNL     1       5.596   8.080   0.345  1.00  0.00     0.010 A 
ATOM     85  C   UNL     1       8.234   8.102   1.276  1.00  0.00     0.020 A 
ATOM     86  C   UNL     1       6.654   8.030  -0.567  1.00  0.00     0.020 A 
ATOM     87  C   UNL     1       7.967   8.057  -0.096  1.00  0.00     0.054 A 
BRANCH  87  88
ATOM     88  S   UNL     1       9.357   7.998  -1.261  1.00  0.00     0.124 S 
ATOM     89  O   UNL     1       9.842   9.374  -1.226  1.00  0.00    -0.237 OA
ATOM     90  O   UNL     1      10.235   7.000  -0.656  1.00  0.00    -0.237 OA
ATOM     91  O   UNL     1       8.731   7.585  -2.516  1.00  0.00    -0.744 OA
ENDBRANCH  87  88
ENDBRANCH  59  82
BRANCH  71  92
ATOM     92  C   UNL     1       3.588  13.115   6.050  1.00  0.00    -0.014 A 
ATOM     93  C   UNL     1       3.469  14.176   5.135  1.00  0.00     0.010 A 
ATOM     94  C   UNL     1       4.155  13.361   7.314  1.00  0.00     0.010 A 
ATOM     95  C   UNL     1       3.940  15.450   5.466  1.00  0.00     0.020 A 
ATOM     96  C   UNL     1       4.601  14.639   7.659  1.00  0.00     0.020 A 
ATOM     97  C   UNL     1       4.505  15.673   6.726  1.00  0.00     0.054 A 
BRANCH  97  98
ATOM     98  S   UNL     1       5.074  17.344   7.145  1.00  0.00     0.124 S 
ATOM     99  O   UNL     1       6.306  17.449   6.368  1.00  0.00    -0.237 OA
ATOM    100  O   UNL     1       3.970  18.184   6.689  1.00  0.00    -0.237 OA
ATOM    101  O   UNL     1       5.254  17.295   8.594  1.00  0.00    -0.744 OA
ENDBRANCH  97  98
ENDBRANCH  71  92
ENDBRANCH  45  46
ENDBRANCH  38  40
ENDBRANCH  37  38
ENDBRANCH  36  37
ENDBRANCH  35  36
ENDBRANCH  34  35
ENDBRANCH   1  34
TORSDOF 23
