REMARK SMILES O=C(OCCOCCOC(=O)[C@@H]1CC(=O)N(CCCCc2ccccn2)C1)c1ccc(-c2c3nc(c(-c4ccc(S(=O)(=O)[O-])cc4)c4ccc([nH]4)c(-c4ccc(S(=O)(=O)[O-])cc4)c4nc(c(-c5ccc(S(=O)(=O)[O-])cc5)c5ccc2[nH]5)C=C4)C=C3)cc1
REMARK SMILES IDX 7 1 6 2 5 3 4 4 3 5 2 6 1 7 28 8 29 9 87 10 30 11 86 12
REMARK SMILES IDX 31 13 32 14 33 15 80 16 34 17 85 18 79 19 81 20 35 21 84 22
REMARK SMILES IDX 78 23 77 24 36 26 66 27 47 28 65 29 48 30 51 31 64 32 82 33
REMARK SMILES IDX 49 34 50 35 63 37 83 38 52 39 37 40 38 41 46 42 39 43 45 44
REMARK SMILES IDX 40 45 41 46 42 47 43 48 44 49 67 50 68 51 76 52 69 53 75 54
REMARK SMILES IDX 70 55 71 56 72 57 73 58 74 59 53 60 54 61 62 62 55 63 61 64
REMARK SMILES IDX 56 65 57 66 58 67 59 68 60 69 8 70 9 71 10 72 11 73 12 74
REMARK SMILES IDX 13 75 27 76 14 77 16 78 15 79 17 80 18 81 19 82 20 83 21 84
REMARK SMILES IDX 22 85 26 86 23 87 25 88 24 89
REMARK H PARENT 81 25 51 36
REMARK Flexibility Score: inf
ROOT
ATOM      1  C   UNL     1       2.541   0.352   2.555  1.00  0.00     0.202 C 
ENDROOT
BRANCH   1   2
ATOM      2  O   UNL     1       3.797   0.211   1.891  1.00  0.00    -0.374 OA
BRANCH   2   3
ATOM      3  C   UNL     1       4.019   1.121   0.822  1.00  0.00     0.202 C 
BRANCH   3   4
ATOM      4  C   UNL     1       3.441   0.716  -0.538  1.00  0.00     0.261 C 
BRANCH   4   5
ATOM      5  O   UNL     1       2.050   0.356  -0.439  1.00  0.00    -0.460 OA
BRANCH   5   6
ATOM      6  C   UNL     1       1.546  -0.877  -0.713  1.00  0.00     0.338 C 
ATOM      7  O   UNL     1       0.342  -1.043  -0.873  1.00  0.00    -0.246 OA
BRANCH   6   8
ATOM      8  C   UNL     1       2.467  -2.033  -0.824  1.00  0.00     0.060 A 
ATOM      9  C   UNL     1       3.508  -2.200   0.083  1.00  0.00     0.016 A 
ATOM     10  C   UNL     1       2.272  -3.000  -1.809  1.00  0.00     0.016 A 
ATOM     11  C   UNL     1       4.459  -3.180  -0.079  1.00  0.00     0.010 A 
ATOM     12  C   UNL     1       3.132  -4.102  -1.871  1.00  0.00     0.010 A 
ATOM     13  C   UNL     1       4.235  -4.189  -1.004  1.00  0.00    -0.014 A 
BRANCH  13  14
ATOM     14  C   UNL     1       5.159  -5.340  -0.998  1.00  0.00     0.031 A 
ATOM     15  C   UNL     1       5.959  -5.633  -2.224  1.00  0.00     0.074 A 
ATOM     16  C   UNL     1       5.303  -6.057   0.137  1.00  0.00     0.049 A 
ATOM     17  N   UNL     1       6.677  -6.686  -2.498  1.00  0.00    -0.248 NA
ATOM     18  C   UNL     1       5.940  -4.617  -3.290  1.00  0.00     0.031 C 
ATOM     19  C   UNL     1       4.640  -5.770   1.419  1.00  0.00     0.029 A 
ATOM     20  N   UNL     1       6.069  -7.157   0.414  1.00  0.00    -0.354 N 
ATOM     21  C   UNL     1       7.141  -6.492  -3.792  1.00  0.00     0.074 A 
ATOM     22  C   UNL     1       6.631  -5.219  -4.247  1.00  0.00     0.031 C 
ATOM     23  C   UNL     1       5.069  -6.634   2.348  1.00  0.00     0.029 A 
ATOM     24  C   UNL     1       5.931  -7.612   1.706  1.00  0.00     0.049 A 
ATOM     25  H   UNL     1       6.662  -7.582  -0.247  1.00  0.00     0.167 HD
ATOM     26  C   UNL     1       7.911  -7.326  -4.526  1.00  0.00     0.031 A 
ATOM     27  C   UNL     1       6.395  -8.733   2.288  1.00  0.00     0.031 A 
ATOM     28  C   UNL     1       8.411  -8.575  -4.018  1.00  0.00     0.049 A 
ATOM     29  C   UNL     1       7.186  -9.674   1.425  1.00  0.00     0.074 A 
ATOM     30  C   UNL     1       9.167  -9.532  -4.667  1.00  0.00     0.029 A 
ATOM     31  N   UNL     1       8.210  -9.030  -2.719  1.00  0.00    -0.354 N 
ATOM     32  N   UNL     1       7.549  -9.528   0.171  1.00  0.00    -0.248 NA
ATOM     33  C   UNL     1       7.611 -10.935   2.038  1.00  0.00     0.031 C 
ATOM     34  C   UNL     1       9.380 -10.589  -3.775  1.00  0.00     0.029 A 
ATOM     35  C   UNL     1       8.815 -10.261  -2.550  1.00  0.00     0.049 A 
ATOM     36  H   UNL     1       7.711  -8.546  -2.023  1.00  0.00     0.167 HD
ATOM     37  C   UNL     1       8.264 -10.672  -0.150  1.00  0.00     0.074 A 
ATOM     38  C   UNL     1       8.300 -11.488   1.050  1.00  0.00     0.031 C 
ATOM     39  C   UNL     1       8.834 -11.026  -1.328  1.00  0.00     0.031 A 
BRANCH  26  40
ATOM     40  C   UNL     1       8.181  -6.946  -5.955  1.00  0.00    -0.014 A 
ATOM     41  C   UNL     1       9.034  -5.878  -6.290  1.00  0.00     0.010 A 
ATOM     42  C   UNL     1       7.564  -7.677  -6.987  1.00  0.00     0.010 A 
ATOM     43  C   UNL     1       9.235  -5.528  -7.628  1.00  0.00     0.020 A 
ATOM     44  C   UNL     1       7.784  -7.348  -8.327  1.00  0.00     0.020 A 
ATOM     45  C   UNL     1       8.607  -6.265  -8.638  1.00  0.00     0.054 A 
BRANCH  45  46
ATOM     46  S   UNL     1       8.904  -5.801 -10.366  1.00  0.00     0.124 S 
ATOM     47  O   UNL     1       8.173  -4.540 -10.470  1.00  0.00    -0.237 OA
ATOM     48  O   UNL     1      10.359  -5.687 -10.421  1.00  0.00    -0.237 OA
ATOM     49  O   UNL     1       8.340  -6.912 -11.128  1.00  0.00    -0.744 OA
ENDBRANCH  45  46
ENDBRANCH  26  40
BRANCH  27  50
ATOM     50  C   UNL     1       6.051  -9.061   3.701  1.00  0.00    -0.014 A 
ATOM     51  C   UNL     1       7.051  -9.163   4.684  1.00  0.00     0.010 A 
ATOM     52  C   UNL     1       4.711  -9.285   4.075  1.00  0.00     0.010 A 
ATOM     53  C   UNL     1       6.724  -9.515   5.998  1.00  0.00     0.020 A 
ATOM     54  C   UNL     1       4.375  -9.601   5.395  1.00  0.00     0.020 A 
ATOM     55  C   UNL     1       5.387  -9.735   6.345  1.00  0.00     0.054 A 
BRANCH  55  56
ATOM     56  S   UNL     1       4.985 -10.184   8.056  1.00  0.00     0.124 S 
ATOM     57  O   UNL     1       5.473 -11.557   8.131  1.00  0.00    -0.237 OA
ATOM     58  O   UNL     1       5.740  -9.200   8.827  1.00  0.00    -0.237 OA
ATOM     59  O   UNL     1       3.533 -10.032   8.118  1.00  0.00    -0.744 OA
ENDBRANCH  55  56
ENDBRANCH  27  50
BRANCH  39  60
ATOM     60  C   UNL     1       9.589 -12.323  -1.348  1.00  0.00    -0.014 A 
ATOM     61  C   UNL     1       8.918 -13.558  -1.327  1.00  0.00     0.010 A 
ATOM     62  C   UNL     1      10.991 -12.296  -1.453  1.00  0.00     0.010 A 
ATOM     63  C   UNL     1       9.644 -14.748  -1.385  1.00  0.00     0.020 A 
ATOM     64  C   UNL     1      11.716 -13.482  -1.545  1.00  0.00     0.020 A 
ATOM     65  C   UNL     1      11.038 -14.702  -1.498  1.00  0.00     0.054 A 
BRANCH  65  66
ATOM     66  S   UNL     1      11.951 -16.260  -1.633  1.00  0.00     0.124 S 
ATOM     67  O   UNL     1      11.870 -16.779  -0.270  1.00  0.00    -0.237 OA
ATOM     68  O   UNL     1      11.181 -16.996  -2.633  1.00  0.00    -0.237 OA
ATOM     69  O   UNL     1      13.284 -15.844  -2.063  1.00  0.00    -0.744 OA
ENDBRANCH  65  66
ENDBRANCH  39  60
ENDBRANCH  13  14
ENDBRANCH   6   8
ENDBRANCH   5   6
ENDBRANCH   4   5
ENDBRANCH   3   4
ENDBRANCH   2   3
ENDBRANCH   1   2
BRANCH   1  70
ATOM     70  C   UNL     1       2.779   0.864   3.971  1.00  0.00     0.261 C 
BRANCH  70  71
ATOM     71  O   UNL     1       3.503   2.108   3.903  1.00  0.00    -0.463 OA
BRANCH  71  72
ATOM     72  C   UNL     1       4.857   2.017   3.973  1.00  0.00     0.311 C 
ATOM     73  O   UNL     1       5.484   1.007   4.270  1.00  0.00    -0.252 OA
BRANCH  72  74
ATOM     74  C   UNL     1       5.556   3.318   3.630  1.00  0.00     0.128 C 
ATOM     75  C   UNL     1       4.652   4.516   3.353  1.00  0.00     0.117 C 
ATOM     76  C   UNL     1       6.422   3.157   2.381  1.00  0.00     0.135 C 
ATOM     77  C   UNL     1       4.733   4.716   1.867  1.00  0.00     0.223 C 
ATOM     78  N   UNL     1       5.792   3.976   1.366  1.00  0.00    -0.342 N 
ATOM     79  O   UNL     1       3.997   5.452   1.224  1.00  0.00    -0.275 OA
BRANCH  78  80
ATOM     80  C   UNL     1       6.120   3.986  -0.058  1.00  0.00     0.119 C 
BRANCH  80  81
ATOM     81  C   UNL     1       7.570   3.705  -0.463  1.00  0.00     0.022 C 
BRANCH  81  82
ATOM     82  C   UNL     1       7.995   2.236  -0.606  1.00  0.00     0.008 C 
BRANCH  82  83
ATOM     83  C   UNL     1       7.103   1.310  -1.444  1.00  0.00     0.056 C 
BRANCH  83  84
ATOM     84  C   UNL     1       7.228   1.356  -2.945  1.00  0.00     0.040 A 
ATOM     85  C   UNL     1       6.929   2.496  -3.683  1.00  0.00     0.024 A 
ATOM     86  N   UNL     1       7.529   0.177  -3.542  1.00  0.00    -0.261 NA
ATOM     87  C   UNL     1       6.970   2.431  -5.075  1.00  0.00     0.003 A 
ATOM     88  C   UNL     1       7.553   0.136  -4.894  1.00  0.00     0.111 A 
ATOM     89  C   UNL     1       7.285   1.229  -5.696  1.00  0.00     0.020 A 
ENDBRANCH  83  84
ENDBRANCH  82  83
ENDBRANCH  81  82
ENDBRANCH  80  81
ENDBRANCH  78  80
ENDBRANCH  72  74
ENDBRANCH  71  72
ENDBRANCH  70  71
ENDBRANCH   1  70
TORSDOF 22
