REMARK SMILES Cc1ccccc1NC(=O)CSc1nc(C(=O)OCCOCCOC(=O)c2ccc(-c3c4nc(c(-c5ccc(S(=O)(=O)[O-])cc5)c5ccc([nH]5)c(-c5ccc(S(=O)(=O)[O-])cc5)c5nc(c(-c6ccc(S(=O)(=O)[O-])cc6)c6ccc3[nH]6)C=C5)C=C4)cc2)c2ccccc2n1
REMARK SMILES IDX 20 1 19 2 18 3 16 4 17 5 15 6 13 7 14 8 93 9 92 10 87 11
REMARK SMILES IDX 91 12 88 13 90 14 89 15 12 16 11 17 9 18 8 19 10 21 7 22
REMARK SMILES IDX 1 23 2 24 3 25 4 26 6 27 5 28 21 29 22 30 23 31 24 32 25 33
REMARK SMILES IDX 26 34 27 35 28 36 86 37 29 38 85 39 30 40 31 41 32 42 79 43
REMARK SMILES IDX 33 44 84 45 78 46 80 47 34 48 83 49 77 50 76 51 35 53 65 54
REMARK SMILES IDX 46 55 64 56 47 57 50 58 63 59 81 60 48 61 49 62 62 64 82 65
REMARK SMILES IDX 51 66 36 67 37 68 45 69 38 70 44 71 39 72 40 73 41 74 42 75
REMARK SMILES IDX 43 76 66 77 67 78 75 79 68 80 74 81 69 82 70 83 71 84 72 85
REMARK SMILES IDX 73 86 52 87 53 88 61 89 54 90 60 91 55 92 56 93 57 94 58 95
REMARK SMILES IDX 59 96
REMARK H PARENT 8 20 80 52 50 63
REMARK Flexibility Score: inf
ROOT
ATOM      1  C   UNL     1      -3.148   7.360  -6.266  1.00  0.00     0.202 C 
ENDROOT
BRANCH   1   2
ATOM      2  C   UNL     1      -1.733   7.838  -6.327  1.00  0.00     0.261 C 
BRANCH   2   3
ATOM      3  O   UNL     1      -0.827   6.970  -5.627  1.00  0.00    -0.458 OA
BRANCH   3   4
ATOM      4  C   UNL     1      -0.965   6.598  -4.340  1.00  0.00     0.357 C 
ATOM      5  O   UNL     1      -1.353   7.248  -3.400  1.00  0.00    -0.244 OA
BRANCH   4   6
ATOM      6  C   UNL     1      -0.689   5.134  -4.279  1.00  0.00     0.160 A 
ATOM      7  C   UNL     1      -1.137   3.322  -2.995  1.00  0.00     0.189 A 
ATOM      8  N   UNL     1      -1.117   4.632  -3.105  1.00  0.00    -0.215 NA
ATOM      9  N   UNL     1      -0.718   2.468  -3.936  1.00  0.00    -0.222 NA
ATOM     10  C   UNL     1      -0.266   2.981  -5.089  1.00  0.00     0.076 A 
ATOM     11  C   UNL     1      -0.235   4.349  -5.362  1.00  0.00     0.034 A 
ATOM     12  C   UNL     1       0.145   2.097  -6.083  1.00  0.00     0.029 A 
ATOM     13  C   UNL     1       0.195   4.766  -6.667  1.00  0.00     0.013 A 
ATOM     14  C   UNL     1       0.537   2.519  -7.359  1.00  0.00     0.002 A 
ATOM     15  C   UNL     1       0.544   3.864  -7.660  1.00  0.00     0.001 A 
BRANCH   7  16
ATOM     16  S   UNL     1      -2.059   2.700  -1.631  1.00  0.00    -0.076 SA
BRANCH  16  17
ATOM     17  C   UNL     1      -1.348   3.726  -0.295  1.00  0.00     0.178 C 
BRANCH  17  18
ATOM     18  C   UNL     1       0.135   3.491  -0.085  1.00  0.00     0.234 C 
ATOM     19  N   UNL     1       0.692   2.278   0.205  1.00  0.00    -0.325 N 
ATOM     20  H   UNL     1       1.664   2.326   0.356  1.00  0.00     0.169 HD
ATOM     21  O   UNL     1       0.930   4.436  -0.175  1.00  0.00    -0.274 OA
BRANCH  19  22
ATOM     22  C   UNL     1       0.178   0.974   0.334  1.00  0.00     0.044 A 
ATOM     23  C   UNL     1       2.519  -0.044  -0.076  1.00  0.00     0.046 C 
ATOM     24  C   UNL     1       1.025  -0.128   0.096  1.00  0.00    -0.027 A 
ATOM     25  C   UNL     1       0.460  -1.417   0.000  1.00  0.00     0.005 A 
ATOM     26  C   UNL     1      -0.906  -1.623   0.169  1.00  0.00     0.000 A 
ATOM     27  C   UNL     1      -1.162   0.721   0.646  1.00  0.00     0.026 A 
ATOM     28  C   UNL     1      -1.714  -0.555   0.523  1.00  0.00     0.002 A 
ENDBRANCH  19  22
ENDBRANCH  17  18
ENDBRANCH  16  17
ENDBRANCH   7  16
ENDBRANCH   4   6
ENDBRANCH   3   4
ENDBRANCH   2   3
ENDBRANCH   1   2
BRANCH   1  29
ATOM     29  O   UNL     1      -3.502   7.438  -4.897  1.00  0.00    -0.374 OA
BRANCH  29  30
ATOM     30  C   UNL     1      -4.728   6.871  -4.518  1.00  0.00     0.202 C 
BRANCH  30  31
ATOM     31  C   UNL     1      -5.896   7.561  -5.218  1.00  0.00     0.261 C 
BRANCH  31  32
ATOM     32  O   UNL     1      -6.053   8.925  -4.754  1.00  0.00    -0.460 OA
BRANCH  32  33
ATOM     33  C   UNL     1      -5.490   9.909  -5.522  1.00  0.00     0.338 C 
ATOM     34  O   UNL     1      -5.986  10.325  -6.554  1.00  0.00    -0.246 OA
BRANCH  33  35
ATOM     35  C   UNL     1      -4.222  10.410  -4.907  1.00  0.00     0.060 A 
ATOM     36  C   UNL     1      -3.258  11.119  -5.652  1.00  0.00     0.016 A 
ATOM     37  C   UNL     1      -3.902   9.961  -3.634  1.00  0.00     0.016 A 
ATOM     38  C   UNL     1      -1.927  11.224  -5.190  1.00  0.00     0.010 A 
ATOM     39  C   UNL     1      -2.579   9.951  -3.253  1.00  0.00     0.010 A 
ATOM     40  C   UNL     1      -1.567  10.554  -4.026  1.00  0.00    -0.014 A 
BRANCH  40  41
ATOM     41  C   UNL     1      -0.218  10.343  -3.470  1.00  0.00     0.031 A 
ATOM     42  C   UNL     1      -0.012  10.798  -2.074  1.00  0.00     0.074 A 
ATOM     43  C   UNL     1       0.636   9.424  -3.992  1.00  0.00     0.049 A 
ATOM     44  N   UNL     1       1.057  10.596  -1.395  1.00  0.00    -0.248 NA
ATOM     45  C   UNL     1      -1.011  11.556  -1.315  1.00  0.00     0.031 C 
ATOM     46  C   UNL     1       1.533   8.510  -3.272  1.00  0.00     0.029 A 
ATOM     47  N   UNL     1       0.865   9.084  -5.316  1.00  0.00    -0.354 N 
ATOM     48  C   UNL     1       0.758  10.817  -0.073  1.00  0.00     0.074 A 
ATOM     49  C   UNL     1      -0.493  11.528  -0.085  1.00  0.00     0.031 C 
ATOM     50  C   UNL     1       2.341   7.873  -4.141  1.00  0.00     0.029 A 
ATOM     51  C   UNL     1       2.104   8.448  -5.452  1.00  0.00     0.049 A 
ATOM     52  H   UNL     1       0.243   9.265  -6.058  1.00  0.00     0.167 HD
ATOM     53  C   UNL     1       1.560  10.244   0.865  1.00  0.00     0.031 A 
ATOM     54  C   UNL     1       3.026   8.968  -6.308  1.00  0.00     0.031 A 
ATOM     55  C   UNL     1       2.734   9.626   0.230  1.00  0.00     0.049 A 
ATOM     56  C   UNL     1       4.136   9.552  -5.472  1.00  0.00     0.074 A 
ATOM     57  C   UNL     1       3.118   8.318  -0.011  1.00  0.00     0.029 A 
ATOM     58  N   UNL     1       3.539  10.423  -0.584  1.00  0.00    -0.354 N 
ATOM     59  N   UNL     1       3.972   9.868  -4.214  1.00  0.00    -0.248 NA
ATOM     60  C   UNL     1       5.523   9.690  -5.900  1.00  0.00     0.031 C 
ATOM     61  C   UNL     1       4.115   8.342  -1.036  1.00  0.00     0.029 A 
ATOM     62  C   UNL     1       4.358   9.661  -1.395  1.00  0.00     0.049 A 
ATOM     63  H   UNL     1       3.526  11.407  -0.580  1.00  0.00     0.167 HD
ATOM     64  C   UNL     1       5.177  10.109  -3.634  1.00  0.00     0.074 A 
ATOM     65  C   UNL     1       6.117  10.040  -4.743  1.00  0.00     0.031 C 
ATOM     66  C   UNL     1       5.319  10.309  -2.291  1.00  0.00     0.031 A 
BRANCH  53  67
ATOM     67  C   UNL     1       1.218  10.094   2.332  1.00  0.00    -0.014 A 
ATOM     68  C   UNL     1       2.092   9.371   3.169  1.00  0.00     0.010 A 
ATOM     69  C   UNL     1       0.048  10.585   2.947  1.00  0.00     0.010 A 
ATOM     70  C   UNL     1       1.820   9.159   4.531  1.00  0.00     0.020 A 
ATOM     71  C   UNL     1      -0.232  10.395   4.310  1.00  0.00     0.020 A 
ATOM     72  C   UNL     1       0.659   9.680   5.097  1.00  0.00     0.054 A 
BRANCH  72  73
ATOM     73  S   UNL     1       0.335   9.421   6.860  1.00  0.00     0.124 S 
ATOM     74  O   UNL     1       0.242   7.966   6.953  1.00  0.00    -0.237 OA
ATOM     75  O   UNL     1       1.509  10.020   7.488  1.00  0.00    -0.237 OA
ATOM     76  O   UNL     1      -0.921  10.133   7.093  1.00  0.00    -0.744 OA
ENDBRANCH  72  73
ENDBRANCH  53  67
BRANCH  54  77
ATOM     77  C   UNL     1       2.378   9.459  -7.578  1.00  0.00    -0.014 A 
ATOM     78  C   UNL     1       2.004   8.454  -8.508  1.00  0.00     0.010 A 
ATOM     79  C   UNL     1       1.624  10.652  -7.571  1.00  0.00     0.010 A 
ATOM     80  C   UNL     1       0.809   8.547  -9.244  1.00  0.00     0.020 A 
ATOM     81  C   UNL     1       0.411  10.734  -8.289  1.00  0.00     0.020 A 
ATOM     82  C   UNL     1      -0.013   9.662  -9.083  1.00  0.00     0.054 A 
BRANCH  82  83
ATOM     83  S   UNL     1      -1.749   9.574  -9.672  1.00  0.00     0.124 S 
ATOM     84  O   UNL     1      -1.629   9.976 -11.067  1.00  0.00    -0.237 OA
ATOM     85  O   UNL     1      -2.105   8.171  -9.458  1.00  0.00    -0.237 OA
ATOM     86  O   UNL     1      -2.442  10.509  -8.791  1.00  0.00    -0.744 OA
ENDBRANCH  82  83
ENDBRANCH  54  77
BRANCH  66  87
ATOM     87  C   UNL     1       6.433  11.128  -1.693  1.00  0.00    -0.014 A 
ATOM     88  C   UNL     1       7.331  11.884  -2.458  1.00  0.00     0.010 A 
ATOM     89  C   UNL     1       6.493  11.293  -0.288  1.00  0.00     0.010 A 
ATOM     90  C   UNL     1       8.294  12.694  -1.859  1.00  0.00     0.020 A 
ATOM     91  C   UNL     1       7.401  12.159   0.320  1.00  0.00     0.020 A 
ATOM     92  C   UNL     1       8.323  12.826  -0.473  1.00  0.00     0.054 A 
BRANCH  92  93
ATOM     93  S   UNL     1       9.565  13.903   0.265  1.00  0.00     0.124 S 
ATOM     94  O   UNL     1      10.775  13.096   0.126  1.00  0.00    -0.237 OA
ATOM     95  O   UNL     1       9.503  15.090  -0.585  1.00  0.00    -0.237 OA
ATOM     96  O   UNL     1       9.093  14.096   1.633  1.00  0.00    -0.744 OA
ENDBRANCH  92  93
ENDBRANCH  66  87
ENDBRANCH  40  41
ENDBRANCH  33  35
ENDBRANCH  32  33
ENDBRANCH  31  32
ENDBRANCH  30  31
ENDBRANCH  29  30
ENDBRANCH   1  29
TORSDOF 21
