REMARK SMILES Cc1cc(OC(F)(F)F)cc2c1O[C@H](C(F)(F)F)C(C(=O)OCCOCCOC(=O)c1ccc(-c3c4nc(c(-c5ccc(S(=O)(=O)[O-])cc5)c5ccc([nH]5)c(-c5ccc(S(=O)(=O)[O-])cc5)c5nc(c(-c6ccc(S(=O)(=O)[O-])cc6)c6ccc3[nH]6)C=C5)C=C4)cc1)=C2
REMARK SMILES IDX 26 1 25 2 24 3 23 4 22 5 20 6 21 7 19 8 1 9 2 10 3 11 12 12
REMARK SMILES IDX 4 13 11 14 13 15 10 16 91 17 14 18 5 19 6 20 7 21 8 22 9 23
REMARK SMILES IDX 15 24 16 25 17 26 18 27 27 28 28 29 29 30 30 31 31 32 32 33
REMARK SMILES IDX 90 34 33 35 89 36 34 37 35 38 36 39 83 40 37 41 88 42 82 43
REMARK SMILES IDX 84 44 38 45 87 46 81 47 80 48 39 50 69 51 50 52 68 53 51 54
REMARK SMILES IDX 54 55 67 56 85 57 52 58 53 59 66 61 86 62 55 63 40 64 41 65
REMARK SMILES IDX 49 66 42 67 48 68 43 69 44 70 45 71 46 72 47 73 70 74 71 75
REMARK SMILES IDX 79 76 72 77 78 78 73 79 74 80 75 81 76 82 77 83 56 84 57 85
REMARK SMILES IDX 65 86 58 87 64 88 59 89 60 90 61 91 62 92 63 93
REMARK H PARENT 84 49 54 60
REMARK Flexibility Score: inf
ROOT
ATOM      1  C   UNL     1       3.784  -7.210   2.202  1.00  0.00     0.202 C 
ENDROOT
BRANCH   1   2
ATOM      2  O   UNL     1       4.487  -8.229   1.488  1.00  0.00    -0.374 OA
BRANCH   2   3
ATOM      3  C   UNL     1       5.763  -7.893   0.947  1.00  0.00     0.202 C 
BRANCH   3   4
ATOM      4  C   UNL     1       5.757  -7.135  -0.384  1.00  0.00     0.261 C 
BRANCH   4   5
ATOM      5  O   UNL     1       5.003  -5.915  -0.294  1.00  0.00    -0.460 OA
BRANCH   5   6
ATOM      6  C   UNL     1       3.850  -5.913  -1.000  1.00  0.00     0.338 C 
ATOM      7  O   UNL     1       3.459  -6.778  -1.770  1.00  0.00    -0.246 OA
BRANCH   6   8
ATOM      8  C   UNL     1       3.028  -4.750  -0.616  1.00  0.00     0.087 C 
ATOM      9  C   UNL     1       1.027  -0.069   0.159  1.00  0.00     0.048 C 
ATOM     10  C   UNL     1       0.515  -1.480   0.045  1.00  0.00    -0.005 A 
ATOM     11  C   UNL     1      -0.880  -1.684   0.024  1.00  0.00     0.054 A 
ATOM     12  C   UNL     1       1.375  -2.581  -0.085  1.00  0.00     0.131 A 
ATOM     13  C   UNL     1      -1.413  -2.966  -0.114  1.00  0.00     0.130 A 
ATOM     14  C   UNL     1       0.841  -3.860  -0.252  1.00  0.00     0.021 A 
ATOM     15  O   UNL     1       2.720  -2.347  -0.025  1.00  0.00    -0.475 OA
ATOM     16  C   UNL     1      -0.544  -4.050  -0.243  1.00  0.00     0.058 A 
ATOM     17  C   UNL     1       1.716  -4.988  -0.504  1.00  0.00     0.027 C 
ATOM     18  C   UNL     1       3.653  -3.401  -0.401  1.00  0.00     0.316 C 
BRANCH  13  19
ATOM     19  O   UNL     1      -2.735  -3.303  -0.146  1.00  0.00    -0.406 OA
BRANCH  19  20
ATOM     20  C   UNL     1      -3.683  -2.255  -0.231  1.00  0.00     0.573 C 
ATOM     21  F   UNL     1      -3.663  -1.489   0.881  1.00  0.00    -0.132 F 
ATOM     22  F   UNL     1      -3.467  -1.483  -1.317  1.00  0.00    -0.132 F 
ATOM     23  F   UNL     1      -4.917  -2.798  -0.342  1.00  0.00    -0.132 F 
ENDBRANCH  19  20
ENDBRANCH  13  19
BRANCH  18  24
ATOM     24  C   UNL     1       4.457  -2.919  -1.618  1.00  0.00     0.430 C 
ATOM     25  F   UNL     1       4.966  -1.682  -1.407  1.00  0.00    -0.167 F 
ATOM     26  F   UNL     1       5.502  -3.734  -1.885  1.00  0.00    -0.167 F 
ATOM     27  F   UNL     1       3.692  -2.860  -2.732  1.00  0.00    -0.167 F 
ENDBRANCH  18  24
ENDBRANCH   6   8
ENDBRANCH   5   6
ENDBRANCH   4   5
ENDBRANCH   3   4
ENDBRANCH   2   3
ENDBRANCH   1   2
BRANCH   1  28
ATOM     28  C   UNL     1       4.332  -6.825   3.582  1.00  0.00     0.261 C 
BRANCH  28  29
ATOM     29  O   UNL     1       5.555  -6.071   3.484  1.00  0.00    -0.460 OA
BRANCH  29  30
ATOM     30  C   UNL     1       6.638  -6.666   4.040  1.00  0.00     0.338 C 
ATOM     31  O   UNL     1       6.669  -7.729   4.643  1.00  0.00    -0.246 OA
BRANCH  30  32
ATOM     32  C   UNL     1       7.859  -5.932   3.672  1.00  0.00     0.060 A 
ATOM     33  C   UNL     1       8.814  -6.596   2.891  1.00  0.00     0.016 A 
ATOM     34  C   UNL     1       8.116  -4.661   4.187  1.00  0.00     0.016 A 
ATOM     35  C   UNL     1      10.053  -6.004   2.656  1.00  0.00     0.010 A 
ATOM     36  C   UNL     1       9.368  -4.078   3.968  1.00  0.00     0.010 A 
ATOM     37  C   UNL     1      10.352  -4.763   3.233  1.00  0.00    -0.014 A 
BRANCH  37  38
ATOM     38  C   UNL     1      11.747  -4.269   3.212  1.00  0.00     0.031 A 
ATOM     39  C   UNL     1      12.646  -4.590   4.375  1.00  0.00     0.074 A 
ATOM     40  C   UNL     1      12.217  -3.575   2.160  1.00  0.00     0.049 A 
ATOM     41  N   UNL     1      13.884  -4.227   4.583  1.00  0.00    -0.248 NA
ATOM     42  C   UNL     1      12.079  -5.436   5.440  1.00  0.00     0.031 C 
ATOM     43  C   UNL     1      11.459  -3.251   0.952  1.00  0.00     0.029 A 
ATOM     44  N   UNL     1      13.452  -3.016   1.944  1.00  0.00    -0.354 N 
ATOM     45  C   UNL     1      14.246  -4.802   5.795  1.00  0.00     0.074 A 
ATOM     46  C   UNL     1      13.093  -5.521   6.289  1.00  0.00     0.031 C 
ATOM     47  C   UNL     1      12.243  -2.537   0.125  1.00  0.00     0.029 A 
ATOM     48  C   UNL     1      13.546  -2.331   0.756  1.00  0.00     0.049 A 
ATOM     49  H   UNL     1      14.199  -3.098   2.579  1.00  0.00     0.167 HD
ATOM     50  C   UNL     1      15.436  -4.741   6.435  1.00  0.00     0.031 A 
ATOM     51  C   UNL     1      14.559  -1.604   0.246  1.00  0.00     0.031 A 
ATOM     52  C   UNL     1      16.578  -4.017   5.950  1.00  0.00     0.049 A 
ATOM     53  C   UNL     1      15.847  -1.484   1.015  1.00  0.00     0.074 A 
ATOM     54  C   UNL     1      17.825  -3.891   6.538  1.00  0.00     0.029 A 
ATOM     55  N   UNL     1      16.617  -3.302   4.764  1.00  0.00    -0.354 N 
ATOM     56  N   UNL     1      16.168  -2.022   2.167  1.00  0.00    -0.248 NA
ATOM     57  C   UNL     1      16.910  -0.660   0.418  1.00  0.00     0.031 C 
ATOM     58  C   UNL     1      18.606  -3.065   5.725  1.00  0.00     0.029 A 
ATOM     59  C   UNL     1      17.861  -2.718   4.610  1.00  0.00     0.049 A 
ATOM     60  H   UNL     1      15.871  -3.222   4.127  1.00  0.00     0.167 HD
ATOM     61  C   UNL     1      17.474  -1.618   2.424  1.00  0.00     0.074 A 
ATOM     62  C   UNL     1      17.887  -0.796   1.306  1.00  0.00     0.031 C 
ATOM     63  C   UNL     1      18.259  -1.906   3.490  1.00  0.00     0.031 A 
BRANCH  50  64
ATOM     64  C   UNL     1      15.574  -5.469   7.741  1.00  0.00    -0.014 A 
ATOM     65  C   UNL     1      15.783  -6.859   7.765  1.00  0.00     0.010 A 
ATOM     66  C   UNL     1      15.602  -4.744   8.945  1.00  0.00     0.010 A 
ATOM     67  C   UNL     1      16.025  -7.512   8.976  1.00  0.00     0.020 A 
ATOM     68  C   UNL     1      15.859  -5.392  10.156  1.00  0.00     0.020 A 
ATOM     69  C   UNL     1      16.073  -6.772  10.162  1.00  0.00     0.054 A 
BRANCH  69  70
ATOM     70  S   UNL     1      16.454  -7.643  11.707  1.00  0.00     0.124 S 
ATOM     71  O   UNL     1      15.351  -8.597  11.801  1.00  0.00    -0.237 OA
ATOM     72  O   UNL     1      17.764  -8.222  11.426  1.00  0.00    -0.237 OA
ATOM     73  O   UNL     1      16.442  -6.585  12.716  1.00  0.00    -0.744 OA
ENDBRANCH  69  70
ENDBRANCH  50  64
BRANCH  51  74
ATOM     74  C   UNL     1      14.381  -0.908  -1.056  1.00  0.00    -0.014 A 
ATOM     75  C   UNL     1      15.019  -1.379  -2.216  1.00  0.00     0.010 A 
ATOM     76  C   UNL     1      13.549   0.224  -1.141  1.00  0.00     0.010 A 
ATOM     77  C   UNL     1      14.829  -0.728  -3.438  1.00  0.00     0.020 A 
ATOM     78  C   UNL     1      13.341   0.864  -2.365  1.00  0.00     0.020 A 
ATOM     79  C   UNL     1      13.984   0.384  -3.507  1.00  0.00     0.054 A 
BRANCH  79  80
ATOM     80  S   UNL     1      13.719   1.177  -5.117  1.00  0.00     0.124 S 
ATOM     81  O   UNL     1      15.062   1.634  -5.459  1.00  0.00    -0.237 OA
ATOM     82  O   UNL     1      13.201   0.074  -5.921  1.00  0.00    -0.237 OA
ATOM     83  O   UNL     1      12.755   2.236  -4.825  1.00  0.00    -0.744 OA
ENDBRANCH  79  80
ENDBRANCH  51  74
BRANCH  63  84
ATOM     84  C   UNL     1      19.657  -1.356   3.509  1.00  0.00    -0.014 A 
ATOM     85  C   UNL     1      19.900  -0.018   3.862  1.00  0.00     0.010 A 
ATOM     86  C   UNL     1      20.745  -2.223   3.294  1.00  0.00     0.010 A 
ATOM     87  C   UNL     1      21.211   0.445   4.000  1.00  0.00     0.020 A 
ATOM     88  C   UNL     1      22.056  -1.767   3.449  1.00  0.00     0.020 A 
ATOM     89  C   UNL     1      22.281  -0.435   3.803  1.00  0.00     0.054 A 
BRANCH  89  90
ATOM     90  S   UNL     1      23.967   0.181   4.058  1.00  0.00     0.124 S 
ATOM     91  O   UNL     1      24.072   1.222   3.039  1.00  0.00    -0.237 OA
ATOM     92  O   UNL     1      23.923   0.655   5.439  1.00  0.00    -0.237 OA
ATOM     93  O   UNL     1      24.806  -0.994   3.832  1.00  0.00    -0.744 OA
ENDBRANCH  89  90
ENDBRANCH  63  84
ENDBRANCH  37  38
ENDBRANCH  30  32
ENDBRANCH  29  30
ENDBRANCH  28  29
ENDBRANCH   1  28
TORSDOF 20
