REMARK SMILES Cc1cc(C(=O)OCCOCCOC(=O)c2ccc(-c3c4nc(c(-c5ccc(S(=O)(=O)[O-])cc5)c5ccc([nH]5)c(-c5ccc(S(=O)(=O)[O-])cc5)c5nc(c(-c6ccc(S(=O)(=O)[O-])cc6)c6ccc3[nH]6)C=C5)C=C4)cc2)c(C)n1[C@@H]1C[N@H+]2CC[C@@H]1CC2
REMARK SMILES IDX 11 1 10 2 9 3 8 4 7 5 5 6 6 7 4 8 1 9 2 10 3 11 78 12 76 13
REMARK SMILES IDX 77 14 79 15 80 16 84 17 81 18 85 19 83 20 86 21 82 22 12 24
REMARK SMILES IDX 13 25 14 26 15 27 16 28 17 29 75 30 18 31 74 32 19 33 20 34
REMARK SMILES IDX 21 35 68 36 22 37 73 38 67 39 69 40 23 41 72 42 66 43 65 44
REMARK SMILES IDX 24 46 54 47 35 48 53 49 36 50 39 51 52 52 70 53 37 54 38 55
REMARK SMILES IDX 51 57 71 58 40 59 25 60 26 61 34 62 27 63 33 64 28 65 29 66
REMARK SMILES IDX 30 67 31 68 32 69 55 70 56 71 64 72 57 73 63 74 58 75 59 76
REMARK SMILES IDX 60 77 61 78 62 79 41 80 42 81 50 82 43 83 49 84 44 85 45 86
REMARK SMILES IDX 46 87 47 88 48 89
REMARK H PARENT 81 23 69 45 39 56
REMARK Flexibility Score: inf
ROOT
ATOM      1  C   UNL     1      -1.152   5.235   3.263  1.00  0.00     0.202 C 
ENDROOT
BRANCH   1   2
ATOM      2  O   UNL     1      -2.293   6.072   3.297  1.00  0.00    -0.374 OA
BRANCH   2   3
ATOM      3  C   UNL     1      -3.461   5.282   3.435  1.00  0.00     0.202 C 
BRANCH   3   4
ATOM      4  C   UNL     1      -3.976   4.362   2.304  1.00  0.00     0.261 C 
BRANCH   4   5
ATOM      5  O   UNL     1      -3.029   3.424   1.725  1.00  0.00    -0.460 OA
BRANCH   5   6
ATOM      6  C   UNL     1      -2.130   3.945   0.818  1.00  0.00     0.340 C 
ATOM      7  O   UNL     1      -2.196   5.084   0.375  1.00  0.00    -0.246 OA
BRANCH   6   8
ATOM      8  C   UNL     1      -0.929   3.109   0.671  1.00  0.00     0.081 A 
ATOM      9  C   UNL     1       0.436  -0.158   0.081  1.00  0.00     0.064 C 
ATOM     10  C   UNL     1       0.289   1.280   0.351  1.00  0.00     0.016 A 
ATOM     11  C   UNL     1      -0.845   1.744   0.959  1.00  0.00     0.038 A 
ATOM     12  N   UNL     1       1.101   2.365   0.023  1.00  0.00    -0.339 N 
ATOM     13  C   UNL     1       0.362   3.519   0.298  1.00  0.00     0.030 A 
ATOM     14  C   UNL     1       0.872   4.921   0.143  1.00  0.00     0.065 C 
BRANCH  12  15
ATOM     15  C   UNL     1       2.423   2.363  -0.634  1.00  0.00     0.145 C 
ATOM     16  C   UNL     1       2.397   1.691  -2.021  1.00  0.00     0.288 C 
ATOM     17  C   UNL     1       3.587   1.785   0.212  1.00  0.00     0.029 C 
ATOM     18  N   UNL     1       3.421   0.616  -2.131  1.00  0.00    -0.333 N 
ATOM     19  C   UNL     1       4.903   1.875  -0.569  1.00  0.00     0.067 C 
ATOM     20  C   UNL     1       3.390   0.287   0.394  1.00  0.00     0.067 C 
ATOM     21  C   UNL     1       4.763   1.174  -1.931  1.00  0.00     0.262 C 
ATOM     22  C   UNL     1       3.228  -0.371  -1.046  1.00  0.00     0.262 C 
ATOM     23  H   UNL     1       3.326   0.191  -3.053  1.00  0.00     0.348 HD
ENDBRANCH  12  15
ENDBRANCH   6   8
ENDBRANCH   5   6
ENDBRANCH   4   5
ENDBRANCH   3   4
ENDBRANCH   2   3
ENDBRANCH   1   2
BRANCH   1  24
ATOM     24  C   UNL     1      -0.798   4.146   4.338  1.00  0.00     0.261 C 
BRANCH  24  25
ATOM     25  O   UNL     1      -1.828   3.017   4.863  1.00  0.00    -0.460 OA
BRANCH  25  26
ATOM     26  C   UNL     1      -2.855   3.087   5.881  1.00  0.00     0.338 C 
ATOM     27  O   UNL     1      -3.152   4.215   6.278  1.00  0.00    -0.246 OA
BRANCH  26  28
ATOM     28  C   UNL     1      -3.415   1.502   6.561  1.00  0.00     0.060 A 
ATOM     29  C   UNL     1      -4.442   0.806   7.208  1.00  0.00     0.016 A 
ATOM     30  C   UNL     1      -2.418   0.633   7.027  1.00  0.00     0.016 A 
ATOM     31  C   UNL     1      -4.173  -0.710   8.168  1.00  0.00     0.010 A 
ATOM     32  C   UNL     1      -2.194  -0.812   8.083  1.00  0.00     0.010 A 
ATOM     33  C   UNL     1      -2.963  -1.906   8.807  1.00  0.00    -0.014 A 
BRANCH  33  34
ATOM     34  C   UNL     1      -2.838  -3.694   9.949  1.00  0.00     0.031 A 
ATOM     35  C   UNL     1      -4.530  -2.937   9.515  1.00  0.00     0.074 A 
ATOM     36  C   UNL     1      -2.241  -5.117  10.907  1.00  0.00     0.049 A 
ATOM     37  N   UNL     1      -4.899  -1.780  10.063  1.00  0.00    -0.248 NA
ATOM     38  C   UNL     1      -5.705  -3.134   8.482  1.00  0.00     0.031 C 
ATOM     39  C   UNL     1      -0.815  -6.166  11.761  1.00  0.00     0.029 A 
ATOM     40  N   UNL     1      -2.732  -6.737  11.736  1.00  0.00    -0.354 N 
ATOM     41  C   UNL     1      -6.154  -1.973  10.479  1.00  0.00     0.074 A 
ATOM     42  C   UNL     1      -6.720  -2.710   9.303  1.00  0.00     0.031 C 
ATOM     43  C   UNL     1      -0.766  -7.638  12.370  1.00  0.00     0.029 A 
ATOM     44  C   UNL     1      -2.041  -8.307  12.314  1.00  0.00     0.049 A 
ATOM     45  H   UNL     1      -3.700  -6.726  11.917  1.00  0.00     0.167 HD
ATOM     46  C   UNL     1      -5.766  -2.255  11.754  1.00  0.00     0.031 A 
ATOM     47  C   UNL     1      -2.424  -9.662  13.240  1.00  0.00     0.031 A 
ATOM     48  C   UNL     1      -5.572  -3.673  11.774  1.00  0.00     0.049 A 
ATOM     49  C   UNL     1      -3.846  -9.435  13.445  1.00  0.00     0.074 A 
ATOM     50  C   UNL     1      -5.708  -4.697  10.823  1.00  0.00     0.029 A 
ATOM     51  N   UNL     1      -4.627  -4.114  12.616  1.00  0.00    -0.354 N 
ATOM     52  N   UNL     1      -4.221  -8.525  14.274  1.00  0.00    -0.248 NA
ATOM     53  C   UNL     1      -4.409  -9.658  12.126  1.00  0.00     0.031 C 
ATOM     54  C   UNL     1      -5.040  -5.757  11.256  1.00  0.00     0.029 A 
ATOM     55  C   UNL     1      -4.722  -5.455  12.554  1.00  0.00     0.049 A 
ATOM     56  H   UNL     1      -4.003  -3.578  13.157  1.00  0.00     0.167 HD
ATOM     57  C   UNL     1      -4.583  -7.545  13.412  1.00  0.00     0.074 A 
ATOM     58  C   UNL     1      -4.791  -8.381  12.008  1.00  0.00     0.031 C 
ATOM     59  C   UNL     1      -4.202  -6.205  13.620  1.00  0.00     0.031 A 
BRANCH  46  60
ATOM     60  C   UNL     1      -4.566  -1.111  12.234  1.00  0.00    -0.014 A 
ATOM     61  C   UNL     1      -5.141   0.135  12.457  1.00  0.00     0.010 A 
ATOM     62  C   UNL     1      -3.111  -1.067  12.061  1.00  0.00     0.010 A 
ATOM     63  C   UNL     1      -4.385   1.280  12.741  1.00  0.00     0.020 A 
ATOM     64  C   UNL     1      -2.331   0.086  12.374  1.00  0.00     0.020 A 
ATOM     65  C   UNL     1      -2.993   1.225  12.809  1.00  0.00     0.054 A 
BRANCH  65  66
ATOM     66  S   UNL     1      -2.132   2.580  13.670  1.00  0.00     0.124 S 
ATOM     67  O   UNL     1      -2.476   3.748  12.863  1.00  0.00    -0.237 OA
ATOM     68  O   UNL     1      -2.757   2.534  14.989  1.00  0.00    -0.237 OA
ATOM     69  O   UNL     1      -0.724   2.194  13.625  1.00  0.00    -0.744 OA
ENDBRANCH  65  66
ENDBRANCH  46  60
BRANCH  47  70
ATOM     70  C   UNL     1      -2.391 -11.531  13.402  1.00  0.00    -0.014 A 
ATOM     71  C   UNL     1      -3.078 -12.684  14.208  1.00  0.00     0.010 A 
ATOM     72  C   UNL     1      -1.901 -12.138  12.252  1.00  0.00     0.010 A 
ATOM     73  C   UNL     1      -3.219 -14.152  13.756  1.00  0.00     0.020 A 
ATOM     74  C   UNL     1      -2.113 -13.516  11.782  1.00  0.00     0.020 A 
ATOM     75  C   UNL     1      -2.791 -14.514  12.486  1.00  0.00     0.054 A 
BRANCH  75  76
ATOM     76  S   UNL     1      -3.206 -16.153  11.654  1.00  0.00     0.124 S 
ATOM     77  O   UNL     1      -2.526 -17.149  12.477  1.00  0.00    -0.237 OA
ATOM     78  O   UNL     1      -4.666 -16.200  11.704  1.00  0.00    -0.237 OA
ATOM     79  O   UNL     1      -2.657 -16.002  10.305  1.00  0.00    -0.744 OA
ENDBRANCH  75  76
ENDBRANCH  47  70
BRANCH  59  80
ATOM     80  C   UNL     1      -2.997  -5.439  14.618  1.00  0.00    -0.014 A 
ATOM     81  C   UNL     1      -1.519  -5.444  14.761  1.00  0.00     0.010 A 
ATOM     82  C   UNL     1      -3.539  -4.486  15.440  1.00  0.00     0.010 A 
ATOM     83  C   UNL     1      -0.787  -5.109  15.905  1.00  0.00     0.020 A 
ATOM     84  C   UNL     1      -2.791  -3.951  16.505  1.00  0.00     0.020 A 
ATOM     85  C   UNL     1      -1.457  -4.309  16.774  1.00  0.00     0.054 A 
BRANCH  85  86
ATOM     86  S   UNL     1      -0.554  -3.625  18.163  1.00  0.00     0.124 S 
ATOM     87  O   UNL     1      -0.183  -4.825  18.911  1.00  0.00    -0.237 OA
ATOM     88  O   UNL     1       0.559  -2.931  17.521  1.00  0.00    -0.237 OA
ATOM     89  O   UNL     1      -1.560  -2.778  18.794  1.00  0.00    -0.744 OA
ENDBRANCH  85  86
ENDBRANCH  59  80
ENDBRANCH  33  34
ENDBRANCH  26  28
ENDBRANCH  25  26
ENDBRANCH  24  25
ENDBRANCH   1  24
TORSDOF 18
