REMARK SMILES CS(=O)(=O)Nc1ccc(-c2cc(Cl)cc3c2O[C@@H](C(F)(F)F)C(C(=O)OCCOCCOC(=O)c2ccc(-c4c5nc(c(-c6ccc(S(=O)(=O)[O-])cc6)c6ccc([nH]6)c(-c6ccc(S(=O)(=O)[O-])cc6)c6nc(c(-c7ccc(S(=O)(=O)[O-])cc7)c7ccc4[nH]7)C=C6)C=C5)cc2)=C3)cc1
REMARK SMILES IDX 29 1 28 2 27 3 26 4 24 5 25 6 23 7 10 8 11 9 16 10 12 11
REMARK SMILES IDX 15 12 17 13 13 14 14 15 95 16 18 17 9 18 6 19 7 20 97 21
REMARK SMILES IDX 8 22 96 23 5 24 2 26 1 27 3 28 4 29 19 30 20 31 21 32 22 33
REMARK SMILES IDX 30 34 31 35 32 36 33 37 34 38 35 39 36 40 94 41 37 42 93 43
REMARK SMILES IDX 38 44 39 45 40 46 87 47 41 48 92 49 86 50 88 51 42 52 91 53
REMARK SMILES IDX 85 54 84 55 43 57 73 58 54 59 72 60 55 61 58 62 71 63 89 64
REMARK SMILES IDX 56 65 57 66 70 68 90 69 59 70 44 71 45 72 53 73 46 74 52 75
REMARK SMILES IDX 47 76 48 77 49 78 50 79 51 80 74 81 75 82 83 83 76 84 82 85
REMARK SMILES IDX 77 86 78 87 79 88 80 89 81 90 60 91 61 92 69 93 62 94 68 95
REMARK SMILES IDX 63 96 64 97 65 98 66 99 67 100
REMARK H PARENT 5 25 88 56 58 67
REMARK Flexibility Score: inf
ROOT
ATOM      1  O   UNL     1       6.425  -0.620  10.078  1.00  0.00    -0.374 OA
ENDROOT
BRANCH   1   2
ATOM      2  C   UNL     1       7.381  -1.448  10.727  1.00  0.00     0.202 C 
BRANCH   2   3
ATOM      3  C   UNL     1       8.492  -2.093   9.881  1.00  0.00     0.261 C 
BRANCH   3   4
ATOM      4  O   UNL     1       8.711  -1.426   8.627  1.00  0.00    -0.460 OA
BRANCH   4   5
ATOM      5  C   UNL     1       8.948  -2.224   7.569  1.00  0.00     0.338 C 
ATOM      6  O   UNL     1       9.109  -3.436   7.621  1.00  0.00    -0.246 OA
BRANCH   5   7
ATOM      7  C   UNL     1       8.822  -1.513   6.273  1.00  0.00     0.087 C 
ATOM      8  C   UNL     1       5.318   0.653   5.725  1.00  0.00     0.026 A 
ATOM      9  C   UNL     1       4.407   0.049   6.626  1.00  0.00     0.033 A 
ATOM     10  C   UNL     1       6.568   0.004   5.626  1.00  0.00     0.135 A 
ATOM     11  C   UNL     1       4.592  -1.255   7.085  1.00  0.00     0.042 A 
ATOM     12  C   UNL     1       6.636  -1.383   5.859  1.00  0.00     0.019 A 
ATOM     13  O   UNL     1       7.752   0.740   5.864  1.00  0.00    -0.475 OA
ATOM     14  Cl  UNL     1       3.431  -1.960   8.135  1.00  0.00    -0.084 Cl
ATOM     15  C   UNL     1       5.655  -2.010   6.618  1.00  0.00     0.032 A 
ATOM     16  C   UNL     1       7.881  -2.102   5.517  1.00  0.00     0.027 C 
ATOM     17  C   UNL     1       9.022  -0.042   5.979  1.00  0.00     0.316 C 
BRANCH   8  18
ATOM     18  C   UNL     1       4.622   1.392   4.596  1.00  0.00    -0.014 A 
ATOM     19  C   UNL     1       2.598   1.996   2.630  1.00  0.00     0.048 A 
ATOM     20  C   UNL     1       2.546   2.532   3.919  1.00  0.00     0.027 A 
ATOM     21  C   UNL     1       3.722   1.248   2.289  1.00  0.00     0.027 A 
ATOM     22  C   UNL     1       3.550   2.265   4.870  1.00  0.00     0.011 A 
ATOM     23  C   UNL     1       4.722   0.956   3.256  1.00  0.00     0.011 A 
BRANCH  19  24
ATOM     24  N   UNL     1       1.389   2.065   1.869  1.00  0.00    -0.284 N 
ATOM     25  H   UNL     1       0.582   2.340   2.361  1.00  0.00     0.180 HD
BRANCH  24  26
ATOM     26  S   UNL     1       1.185   1.735   0.251  1.00  0.00     0.229 S 
ATOM     27  C   UNL     1       1.143  -0.047   0.182  1.00  0.00     0.183 C 
ATOM     28  O   UNL     1       2.319   2.217  -0.503  1.00  0.00    -0.207 OA
ATOM     29  O   UNL     1      -0.158   2.192  -0.052  1.00  0.00    -0.207 OA
ENDBRANCH  24  26
ENDBRANCH  19  24
ENDBRANCH   8  18
BRANCH  17  30
ATOM     30  C   UNL     1      10.192   0.627   6.736  1.00  0.00     0.430 C 
ATOM     31  F   UNL     1      11.368   0.118   6.271  1.00  0.00    -0.167 F 
ATOM     32  F   UNL     1      10.240   1.960   6.507  1.00  0.00    -0.167 F 
ATOM     33  F   UNL     1      10.192   0.452   8.069  1.00  0.00    -0.167 F 
ENDBRANCH  17  30
ENDBRANCH   5   7
ENDBRANCH   4   5
ENDBRANCH   3   4
ENDBRANCH   2   3
ENDBRANCH   1   2
BRANCH   1  34
ATOM     34  C   UNL     1       6.875   0.604   9.502  1.00  0.00     0.202 C 
BRANCH  34  35
ATOM     35  C   UNL     1       7.401   1.710  10.421  1.00  0.00     0.261 C 
BRANCH  35  36
ATOM     36  O   UNL     1       8.540   1.322  11.203  1.00  0.00    -0.460 OA
BRANCH  36  37
ATOM     37  C   UNL     1       8.311   1.261  12.537  1.00  0.00     0.338 C 
ATOM     38  O   UNL     1       7.256   1.486  13.119  1.00  0.00    -0.246 OA
BRANCH  37  39
ATOM     39  C   UNL     1       9.489   0.716  13.223  1.00  0.00     0.060 A 
ATOM     40  C   UNL     1       9.334  -0.464  13.962  1.00  0.00     0.016 A 
ATOM     41  C   UNL     1      10.701   1.408  13.225  1.00  0.00     0.016 A 
ATOM     42  C   UNL     1      10.386  -0.936  14.742  1.00  0.00     0.010 A 
ATOM     43  C   UNL     1      11.753   0.934  14.012  1.00  0.00     0.010 A 
ATOM     44  C   UNL     1      11.588  -0.219  14.801  1.00  0.00    -0.014 A 
BRANCH  44  45
ATOM     45  C   UNL     1      12.624  -0.599  15.789  1.00  0.00     0.031 A 
ATOM     46  C   UNL     1      12.752   0.198  17.058  1.00  0.00     0.074 A 
ATOM     47  C   UNL     1      13.424  -1.656  15.565  1.00  0.00     0.049 A 
ATOM     48  N   UNL     1      13.592   0.050  18.049  1.00  0.00    -0.248 NA
ATOM     49  C   UNL     1      11.806   1.312  17.229  1.00  0.00     0.031 C 
ATOM     50  C   UNL     1      13.356  -2.534  14.398  1.00  0.00     0.029 A 
ATOM     51  N   UNL     1      14.449  -2.170  16.316  1.00  0.00    -0.354 N 
ATOM     52  C   UNL     1      13.287   1.058  18.956  1.00  0.00     0.074 A 
ATOM     53  C   UNL     1      12.209   1.833  18.378  1.00  0.00     0.031 C 
ATOM     54  C   UNL     1      14.292  -3.490  14.518  1.00  0.00     0.029 A 
ATOM     55  C   UNL     1      15.050  -3.266  15.747  1.00  0.00     0.049 A 
ATOM     56  H   UNL     1      14.727  -1.790  17.181  1.00  0.00     0.167 HD
ATOM     57  C   UNL     1      13.848   1.313  20.163  1.00  0.00     0.031 A 
ATOM     58  C   UNL     1      16.100  -3.998  16.166  1.00  0.00     0.031 A 
ATOM     59  C   UNL     1      14.941   0.555  20.715  1.00  0.00     0.049 A 
ATOM     60  C   UNL     1      16.773  -3.638  17.464  1.00  0.00     0.074 A 
ATOM     61  C   UNL     1      15.580   0.721  21.931  1.00  0.00     0.029 A 
ATOM     62  N   UNL     1      15.569  -0.506  20.076  1.00  0.00    -0.354 N 
ATOM     63  N   UNL     1      16.462  -2.696  18.323  1.00  0.00    -0.248 NA
ATOM     64  C   UNL     1      17.937  -4.447  17.850  1.00  0.00     0.031 C 
ATOM     65  C   UNL     1      16.637  -0.195  21.997  1.00  0.00     0.029 A 
ATOM     66  C   UNL     1      16.610  -0.982  20.856  1.00  0.00     0.049 A 
ATOM     67  H   UNL     1      15.311  -0.868  19.197  1.00  0.00     0.167 HD
ATOM     68  C   UNL     1      17.371  -2.820  19.368  1.00  0.00     0.074 A 
ATOM     69  C   UNL     1      18.237  -3.934  19.036  1.00  0.00     0.031 C 
ATOM     70  C   UNL     1      17.474  -2.084  20.505  1.00  0.00     0.031 A 
BRANCH  57  71
ATOM     71  C   UNL     1      13.319   2.499  20.931  1.00  0.00    -0.014 A 
ATOM     72  C   UNL     1      12.010   2.515  21.450  1.00  0.00     0.010 A 
ATOM     73  C   UNL     1      14.137   3.628  21.118  1.00  0.00     0.010 A 
ATOM     74  C   UNL     1      11.508   3.662  22.073  1.00  0.00     0.020 A 
ATOM     75  C   UNL     1      13.651   4.764  21.772  1.00  0.00     0.020 A 
ATOM     76  C   UNL     1      12.329   4.784  22.218  1.00  0.00     0.054 A 
BRANCH  76  77
ATOM     77  S   UNL     1      11.642   6.271  22.997  1.00  0.00     0.124 S 
ATOM     78  O   UNL     1      10.743   6.767  21.956  1.00  0.00    -0.237 OA
ATOM     79  O   UNL     1      10.987   5.737  24.188  1.00  0.00    -0.237 OA
ATOM     80  O   UNL     1      12.815   7.103  23.253  1.00  0.00    -0.744 OA
ENDBRANCH  76  77
ENDBRANCH  57  71
BRANCH  58  81
ATOM     81  C   UNL     1      16.560  -5.159  15.357  1.00  0.00    -0.014 A 
ATOM     82  C   UNL     1      16.361  -6.470  15.823  1.00  0.00     0.010 A 
ATOM     83  C   UNL     1      17.164  -4.964  14.101  1.00  0.00     0.010 A 
ATOM     84  C   UNL     1      16.755  -7.564  15.049  1.00  0.00     0.020 A 
ATOM     85  C   UNL     1      17.535  -6.056  13.312  1.00  0.00     0.020 A 
ATOM     86  C   UNL     1      17.331  -7.351  13.793  1.00  0.00     0.054 A 
BRANCH  86  87
ATOM     87  S   UNL     1      17.758  -8.791  12.775  1.00  0.00     0.124 S 
ATOM     88  O   UNL     1      18.893  -9.352  13.501  1.00  0.00    -0.237 OA
ATOM     89  O   UNL     1      16.528  -9.578  12.817  1.00  0.00    -0.237 OA
ATOM     90  O   UNL     1      18.073  -8.209  11.473  1.00  0.00    -0.744 OA
ENDBRANCH  86  87
ENDBRANCH  58  81
BRANCH  70  91
ATOM     91  C   UNL     1      18.542  -2.482  21.492  1.00  0.00    -0.014 A 
ATOM     92  C   UNL     1      19.907  -2.280  21.220  1.00  0.00     0.010 A 
ATOM     93  C   UNL     1      18.166  -3.027  22.734  1.00  0.00     0.010 A 
ATOM     94  C   UNL     1      20.877  -2.651  22.156  1.00  0.00     0.020 A 
ATOM     95  C   UNL     1      19.131  -3.368  23.686  1.00  0.00     0.020 A 
ATOM     96  C   UNL     1      20.482  -3.192  23.384  1.00  0.00     0.054 A 
BRANCH  96  97
ATOM     97  S   UNL     1      21.759  -3.629  24.596  1.00  0.00     0.124 S 
ATOM     98  O   UNL     1      22.354  -4.819  23.995  1.00  0.00    -0.237 OA
ATOM     99  O   UNL     1      22.607  -2.439  24.609  1.00  0.00    -0.237 OA
ATOM    100  O   UNL     1      21.005  -3.863  25.825  1.00  0.00    -0.744 OA
ENDBRANCH  96  97
ENDBRANCH  70  91
ENDBRANCH  44  45
ENDBRANCH  37  39
ENDBRANCH  36  37
ENDBRANCH  35  36
ENDBRANCH  34  35
ENDBRANCH   1  34
TORSDOF 21
