REMARK SMILES C[C@]1(C(=O)OCCOCCOC(=O)c2ccc(-c3c4nc(c(-c5ccc(S(=O)(=O)[O-])cc5)c5ccc([nH]5)c(-c5ccc(S(=O)(=O)[O-])cc5)c5nc(c(-c6ccc(S(=O)(=O)[O-])cc6)c6ccc3[nH]6)C=C5)C=C4)cc2)[NH2+]C2(C(=O)c3ccccc3C2=O)[C@@H]2C(=O)N(c3ccccc3)C(=O)[C@H]21
REMARK SMILES IDX 9 1 8 2 7 3 6 4 5 5 3 6 4 7 2 8 1 9 74 10 98 11 75 12 86 15
REMARK SMILES IDX 96 16 76 17 84 18 87 19 89 20 97 21 77 22 78 23 83 24 85 25
REMARK SMILES IDX 88 26 79 27 82 28 80 29 81 30 90 31 91 32 95 33 92 34 94 35
REMARK SMILES IDX 93 36 10 37 11 38 12 39 13 40 14 41 15 42 73 43 16 44 72 45
REMARK SMILES IDX 17 46 18 47 19 48 66 49 20 50 71 51 65 52 67 53 21 54 70 55
REMARK SMILES IDX 64 56 63 57 22 59 52 60 33 61 51 62 34 63 37 64 50 65 68 66
REMARK SMILES IDX 35 67 36 68 49 70 69 71 38 72 23 73 24 74 32 75 25 76 31 77
REMARK SMILES IDX 26 78 27 79 28 80 29 81 30 82 53 83 54 84 62 85 55 86 61 87
REMARK SMILES IDX 56 88 57 89 58 90 59 91 60 92 39 93 40 94 48 95 41 96 47 97
REMARK SMILES IDX 42 98 43 99 44 100 45 101 46 102
REMARK H PARENT 74 13 74 14 67 58 37 69
REMARK Flexibility Score: inf
ROOT
ATOM      1  C   UNL     1      -0.277  -0.926   3.371  1.00  0.00     0.202 C 
ENDROOT
BRANCH   1   2
ATOM      2  O   UNL     1       0.710  -0.764   4.389  1.00  0.00    -0.374 OA
BRANCH   2   3
ATOM      3  C   UNL     1       0.929   0.545   4.910  1.00  0.00     0.202 C 
BRANCH   3   4
ATOM      4  C   UNL     1       1.708   1.538   4.048  1.00  0.00     0.261 C 
BRANCH   4   5
ATOM      5  O   UNL     1       1.058   1.793   2.796  1.00  0.00    -0.459 OA
BRANCH   5   6
ATOM      6  C   UNL     1       1.582   1.154   1.714  1.00  0.00     0.368 C 
ATOM      7  O   UNL     1       2.569   0.430   1.755  1.00  0.00    -0.245 OA
BRANCH   6   8
ATOM      8  C   UNL     1       0.782   1.450   0.413  1.00  0.00     0.205 C 
ATOM      9  C   UNL     1       1.137   0.355  -0.597  1.00  0.00     0.093 C 
ATOM     10  N   UNL     1      -0.738   1.475   0.594  1.00  0.00    -0.313 N 
ATOM     11  C   UNL     1       1.065   2.841  -0.077  1.00  0.00     0.172 C 
ATOM     12  C   UNL     1      -1.202   2.920   0.423  1.00  0.00     0.237 C 
ATOM     13  H   UNL     1      -0.983   1.139   1.525  1.00  0.00     0.348 HD
ATOM     14  H   UNL     1      -1.189   0.871  -0.094  1.00  0.00     0.348 HD
ATOM     15  C   UNL     1       0.057   3.660   0.711  1.00  0.00     0.177 C 
ATOM     16  C   UNL     1       2.311   3.602   0.194  1.00  0.00     0.244 C 
ATOM     17  C   UNL     1      -1.842   3.141  -0.948  1.00  0.00     0.232 C 
ATOM     18  C   UNL     1      -2.346   3.234   1.383  1.00  0.00     0.232 C 
ATOM     19  C   UNL     1       0.510   5.030   0.366  1.00  0.00     0.245 C 
ATOM     20  N   UNL     1       1.901   4.922   0.356  1.00  0.00    -0.250 N 
ATOM     21  O   UNL     1       3.424   3.108   0.203  1.00  0.00    -0.273 OA
ATOM     22  O   UNL     1      -1.339   2.933  -2.041  1.00  0.00    -0.286 OA
ATOM     23  C   UNL     1      -3.235   3.541  -0.756  1.00  0.00     0.036 A 
ATOM     24  C   UNL     1      -3.535   3.574   0.599  1.00  0.00     0.036 A 
ATOM     25  O   UNL     1      -2.325   3.224   2.603  1.00  0.00    -0.286 OA
ATOM     26  O   UNL     1      -0.223   5.993   0.237  1.00  0.00    -0.273 OA
ATOM     27  C   UNL     1      -4.187   3.820  -1.722  1.00  0.00     0.013 A 
ATOM     28  C   UNL     1      -4.807   3.882   1.049  1.00  0.00     0.013 A 
ATOM     29  C   UNL     1      -5.476   4.140  -1.286  1.00  0.00     0.001 A 
ATOM     30  C   UNL     1      -5.785   4.168   0.088  1.00  0.00     0.001 A 
BRANCH  20  31
ATOM     31  C   UNL     1       2.810   5.957   0.657  1.00  0.00     0.052 A 
ATOM     32  C   UNL     1       4.088   5.966   0.081  1.00  0.00     0.027 A 
ATOM     33  C   UNL     1       2.504   6.897   1.648  1.00  0.00     0.027 A 
ATOM     34  C   UNL     1       5.052   6.883   0.499  1.00  0.00     0.002 A 
ATOM     35  C   UNL     1       3.486   7.786   2.096  1.00  0.00     0.002 A 
ATOM     36  C   UNL     1       4.756   7.779   1.522  1.00  0.00     0.000 A 
ENDBRANCH  20  31
ENDBRANCH   6   8
ENDBRANCH   5   6
ENDBRANCH   4   5
ENDBRANCH   3   4
ENDBRANCH   2   3
ENDBRANCH   1   2
BRANCH   1  37
ATOM     37  C   UNL     1      -1.757  -0.837   3.763  1.00  0.00     0.261 C 
BRANCH  37  38
ATOM     38  O   UNL     1      -2.127   0.448   4.284  1.00  0.00    -0.460 OA
BRANCH  38  39
ATOM     39  C   UNL     1      -2.324   0.485   5.625  1.00  0.00     0.338 C 
ATOM     40  O   UNL     1      -2.280  -0.458   6.397  1.00  0.00    -0.246 OA
BRANCH  39  41
ATOM     41  C   UNL     1      -2.406   1.888   6.082  1.00  0.00     0.060 A 
ATOM     42  C   UNL     1      -3.285   2.800   5.499  1.00  0.00     0.016 A 
ATOM     43  C   UNL     1      -1.601   2.273   7.162  1.00  0.00     0.016 A 
ATOM     44  C   UNL     1      -3.381   4.091   6.025  1.00  0.00     0.010 A 
ATOM     45  C   UNL     1      -1.707   3.558   7.694  1.00  0.00     0.010 A 
ATOM     46  C   UNL     1      -2.621   4.468   7.149  1.00  0.00    -0.014 A 
BRANCH  46  47
ATOM     47  C   UNL     1      -2.929   5.737   7.858  1.00  0.00     0.031 A 
ATOM     48  C   UNL     1      -1.990   6.906   7.852  1.00  0.00     0.074 A 
ATOM     49  C   UNL     1      -4.087   5.806   8.544  1.00  0.00     0.049 A 
ATOM     50  N   UNL     1      -2.184   8.106   8.337  1.00  0.00    -0.248 NA
ATOM     51  C   UNL     1      -0.668   6.710   7.241  1.00  0.00     0.031 C 
ATOM     52  C   UNL     1      -5.046   4.705   8.670  1.00  0.00     0.029 A 
ATOM     53  N   UNL     1      -4.667   6.834   9.243  1.00  0.00    -0.354 N 
ATOM     54  C   UNL     1      -1.021   8.818   8.073  1.00  0.00     0.074 A 
ATOM     55  C   UNL     1      -0.103   7.897   7.434  1.00  0.00     0.031 C 
ATOM     56  C   UNL     1      -6.118   5.134   9.351  1.00  0.00     0.029 A 
ATOM     57  C   UNL     1      -5.909   6.524   9.747  1.00  0.00     0.049 A 
ATOM     58  H   UNL     1      -4.236   7.710   9.372  1.00  0.00     0.167 HD
ATOM     59  C   UNL     1      -0.760  10.124   8.320  1.00  0.00     0.031 A 
ATOM     60  C   UNL     1      -6.794   7.271  10.436  1.00  0.00     0.031 A 
ATOM     61  C   UNL     1      -1.684  11.024   8.971  1.00  0.00     0.049 A 
ATOM     62  C   UNL     1      -6.473   8.712  10.711  1.00  0.00     0.074 A 
ATOM     63  C   UNL     1      -1.531  12.380   9.208  1.00  0.00     0.029 A 
ATOM     64  N   UNL     1      -2.917  10.668   9.498  1.00  0.00    -0.354 N 
ATOM     65  N   UNL     1      -5.417   9.401  10.350  1.00  0.00    -0.248 NA
ATOM     66  C   UNL     1      -7.467   9.484  11.468  1.00  0.00     0.031 C 
ATOM     67  C   UNL     1      -2.627  12.823   9.951  1.00  0.00     0.029 A 
ATOM     68  C   UNL     1      -3.512  11.767  10.101  1.00  0.00     0.049 A 
ATOM     69  H   UNL     1      -3.312   9.767   9.451  1.00  0.00     0.167 HD
ATOM     70  C   UNL     1      -5.621  10.689  10.831  1.00  0.00     0.074 A 
ATOM     71  C   UNL     1      -6.921  10.693  11.471  1.00  0.00     0.031 C 
ATOM     72  C   UNL     1      -4.798  11.765  10.758  1.00  0.00     0.031 A 
BRANCH  59  73
ATOM     73  C   UNL     1       0.560  10.697   7.863  1.00  0.00    -0.014 A 
ATOM     74  C   UNL     1       1.468  11.218   8.805  1.00  0.00     0.010 A 
ATOM     75  C   UNL     1       0.830  10.869   6.493  1.00  0.00     0.010 A 
ATOM     76  C   UNL     1       2.592  11.938   8.389  1.00  0.00     0.020 A 
ATOM     77  C   UNL     1       1.970  11.560   6.072  1.00  0.00     0.020 A 
ATOM     78  C   UNL     1       2.829  12.115   7.023  1.00  0.00     0.054 A 
BRANCH  78  79
ATOM     79  S   UNL     1       4.259  13.101   6.502  1.00  0.00     0.124 S 
ATOM     80  O   UNL     1       3.846  14.456   6.855  1.00  0.00    -0.237 OA
ATOM     81  O   UNL     1       5.342  12.539   7.305  1.00  0.00    -0.237 OA
ATOM     82  O   UNL     1       4.356  12.831   5.068  1.00  0.00    -0.744 OA
ENDBRANCH  78  79
ENDBRANCH  59  73
BRANCH  60  83
ATOM     83  C   UNL     1      -8.091   6.661  10.846  1.00  0.00    -0.014 A 
ATOM     84  C   UNL     1      -8.121   5.596  11.766  1.00  0.00     0.010 A 
ATOM     85  C   UNL     1      -9.293   7.074  10.244  1.00  0.00     0.010 A 
ATOM     86  C   UNL     1      -9.310   4.910  12.022  1.00  0.00     0.020 A 
ATOM     87  C   UNL     1     -10.494   6.415  10.528  1.00  0.00     0.020 A 
ATOM     88  C   UNL     1     -10.487   5.315  11.388  1.00  0.00     0.054 A 
BRANCH  88  89
ATOM     89  S   UNL     1     -12.003   4.362  11.679  1.00  0.00     0.124 S 
ATOM     90  O   UNL     1     -11.734   3.138  10.928  1.00  0.00    -0.237 OA
ATOM     91  O   UNL     1     -12.015   4.220  13.132  1.00  0.00    -0.237 OA
ATOM     92  O   UNL     1     -13.054   5.214  11.129  1.00  0.00    -0.744 OA
ENDBRANCH  88  89
ENDBRANCH  60  83
BRANCH  72  93
ATOM     93  C   UNL     1      -5.250  13.047  11.416  1.00  0.00    -0.014 A 
ATOM     94  C   UNL     1      -5.470  14.202  10.642  1.00  0.00     0.010 A 
ATOM     95  C   UNL     1      -5.352  13.139  12.817  1.00  0.00     0.010 A 
ATOM     96  C   UNL     1      -5.747  15.428  11.255  1.00  0.00     0.020 A 
ATOM     97  C   UNL     1      -5.668  14.354  13.431  1.00  0.00     0.020 A 
ATOM     98  C   UNL     1      -5.838  15.497  12.647  1.00  0.00     0.054 A 
BRANCH  98  99
ATOM     99  S   UNL     1      -6.177  17.101  13.424  1.00  0.00     0.124 S 
ATOM    100  O   UNL     1      -4.904  17.797  13.261  1.00  0.00    -0.237 OA
ATOM    101  O   UNL     1      -7.284  17.616  12.623  1.00  0.00    -0.237 OA
ATOM    102  O   UNL     1      -6.524  16.750  14.799  1.00  0.00    -0.744 OA
ENDBRANCH  98  99
ENDBRANCH  72  93
ENDBRANCH  46  47
ENDBRANCH  39  41
ENDBRANCH  38  39
ENDBRANCH  37  38
ENDBRANCH   1  37
TORSDOF 18
