REMARK SMILES Cc1nn(C)cc1CNC(=O)[C@H]1[C@@H]2CC[C@@H](C2)[C@@H]1C(=O)OCCOCCOC(=O)c1ccc(-c2c3nc(c(-c4ccc(S(=O)(=O)[O-])cc4)c4ccc([nH]4)c(-c4ccc(S(=O)(=O)[O-])cc4)c4nc(c(-c5ccc(S(=O)(=O)[O-])cc5)c5ccc2[nH]5)C=C4)C=C3)cc1
REMARK SMILES IDX 24 1 23 2 22 3 21 4 19 5 20 6 18 7 12 8 13 9 14 10 17 11
REMARK SMILES IDX 16 12 15 13 10 14 9 15 11 17 8 18 7 19 1 20 2 21 3 22 4 23
REMARK SMILES IDX 6 24 5 25 25 26 26 27 27 28 28 29 29 30 30 31 31 32 89 33
REMARK SMILES IDX 32 34 88 35 33 36 34 37 35 38 82 39 36 40 87 41 81 42 83 43
REMARK SMILES IDX 37 44 86 45 80 46 79 47 38 49 68 50 49 51 67 52 50 53 53 54
REMARK SMILES IDX 66 55 84 56 51 57 52 58 65 60 85 61 54 62 39 63 40 64 48 65
REMARK SMILES IDX 41 66 47 67 42 68 43 69 44 70 45 71 46 72 69 73 70 74 78 75
REMARK SMILES IDX 71 76 77 77 72 78 73 79 74 80 75 81 76 82 55 83 56 84 64 85
REMARK SMILES IDX 57 86 63 87 58 88 59 89 60 90 61 91 62 92
REMARK H PARENT 9 16 83 48 53 59
REMARK Flexibility Score: inf
ROOT
ATOM      1  O   UNL     1       1.451  -3.108   4.789  1.00  0.00    -0.374 OA
ENDROOT
BRANCH   1   2
ATOM      2  C   UNL     1       0.070  -2.788   4.634  1.00  0.00     0.202 C 
BRANCH   2   3
ATOM      3  C   UNL     1      -0.415  -2.438   3.224  1.00  0.00     0.261 C 
BRANCH   3   4
ATOM      4  O   UNL     1      -0.436  -3.571   2.337  1.00  0.00    -0.463 OA
BRANCH   4   5
ATOM      5  C   UNL     1       0.658  -3.696   1.549  1.00  0.00     0.310 C 
ATOM      6  O   UNL     1       1.664  -2.998   1.630  1.00  0.00    -0.252 OA
BRANCH   5   7
ATOM      7  C   UNL     1       0.579  -4.845   0.580  1.00  0.00     0.115 C 
ATOM      8  C   UNL     1      -0.779  -5.218  -0.042  1.00  0.00     0.096 C 
ATOM      9  C   UNL     1      -0.689  -6.780  -0.075  1.00  0.00     0.002 C 
ATOM     10  C   UNL     1      -1.058  -7.308   1.317  1.00  0.00     0.005 C 
ATOM     11  C   UNL     1       0.820  -7.072  -0.080  1.00  0.00     0.009 C 
ATOM     12  C   UNL     1       1.085  -6.191   1.140  1.00  0.00     0.004 C 
ATOM     13  C   UNL     1       0.112  -6.808   2.174  1.00  0.00     0.005 C 
BRANCH   8  14
ATOM     14  C   UNL     1      -0.880  -4.614  -1.435  1.00  0.00     0.224 C 
ATOM     15  N   UNL     1      -1.270  -3.317  -1.578  1.00  0.00    -0.352 N 
ATOM     16  H   UNL     1      -1.182  -2.961  -2.492  1.00  0.00     0.163 HD
ATOM     17  O   UNL     1      -0.558  -5.244  -2.443  1.00  0.00    -0.275 OA
BRANCH  15  18
ATOM     18  C   UNL     1      -1.792  -2.374  -0.608  1.00  0.00     0.155 C 
BRANCH  18  19
ATOM     19  C   UNL     1      -0.877  -1.204  -0.481  1.00  0.00     0.012 A 
ATOM     20  C   UNL     1      -2.576   0.740   0.016  1.00  0.00     0.069 C 
ATOM     21  C   UNL     1      -1.228   0.145  -0.176  1.00  0.00     0.064 A 
ATOM     22  N   UNL     1      -0.149   0.930  -0.055  1.00  0.00    -0.178 NA
ATOM     23  N   UNL     1       0.884   0.100  -0.260  1.00  0.00    -0.275 N 
ATOM     24  C   UNL     1       0.501  -1.165  -0.582  1.00  0.00     0.114 A 
ATOM     25  C   UNL     1       2.233   0.587  -0.106  1.00  0.00     0.173 C 
ENDBRANCH  18  19
ENDBRANCH  15  18
ENDBRANCH   8  14
ENDBRANCH   5   7
ENDBRANCH   4   5
ENDBRANCH   3   4
ENDBRANCH   2   3
ENDBRANCH   1   2
BRANCH   1  26
ATOM     26  C   UNL     1       1.851  -4.442   4.479  1.00  0.00     0.202 C 
BRANCH  26  27
ATOM     27  C   UNL     1       1.565  -5.513   5.538  1.00  0.00     0.261 C 
BRANCH  27  28
ATOM     28  O   UNL     1       0.154  -5.755   5.693  1.00  0.00    -0.460 OA
BRANCH  28  29
ATOM     29  C   UNL     1      -0.384  -5.272   6.838  1.00  0.00     0.338 C 
ATOM     30  O   UNL     1       0.215  -4.750   7.769  1.00  0.00    -0.246 OA
BRANCH  29  31
ATOM     31  C   UNL     1      -1.857  -5.265   6.739  1.00  0.00     0.060 A 
ATOM     32  C   UNL     1      -2.517  -4.061   7.022  1.00  0.00     0.016 A 
ATOM     33  C   UNL     1      -2.586  -6.412   6.422  1.00  0.00     0.016 A 
ATOM     34  C   UNL     1      -3.909  -4.008   7.028  1.00  0.00     0.010 A 
ATOM     35  C   UNL     1      -3.985  -6.360   6.443  1.00  0.00     0.010 A 
ATOM     36  C   UNL     1      -4.654  -5.166   6.772  1.00  0.00    -0.014 A 
BRANCH  36  37
ATOM     37  C   UNL     1      -6.125  -5.161   6.964  1.00  0.00     0.031 A 
ATOM     38  C   UNL     1      -6.701  -5.746   8.226  1.00  0.00     0.074 A 
ATOM     39  C   UNL     1      -6.938  -4.624   6.036  1.00  0.00     0.049 A 
ATOM     40  N   UNL     1      -7.953  -5.927   8.556  1.00  0.00    -0.248 NA
ATOM     41  C   UNL     1      -5.738  -6.181   9.252  1.00  0.00     0.031 C 
ATOM     42  C   UNL     1      -6.500  -3.964   4.806  1.00  0.00     0.029 A 
ATOM     43  N   UNL     1      -8.309  -4.558   5.982  1.00  0.00    -0.354 N 
ATOM     44  C   UNL     1      -7.932  -6.497   9.824  1.00  0.00     0.074 A 
ATOM     45  C   UNL     1      -6.542  -6.658  10.193  1.00  0.00     0.031 C 
ATOM     46  C   UNL     1      -7.584  -3.573   4.111  1.00  0.00     0.029 A 
ATOM     47  C   UNL     1      -8.788  -3.997   4.822  1.00  0.00     0.049 A 
ATOM     48  H   UNL     1      -8.892  -4.883   6.705  1.00  0.00     0.167 HD
ATOM     49  C   UNL     1      -8.976  -6.849  10.611  1.00  0.00     0.031 A 
ATOM     50  C   UNL     1     -10.052  -3.874   4.368  1.00  0.00     0.031 A 
ATOM     51  C   UNL     1     -10.357  -6.701  10.235  1.00  0.00     0.049 A 
ATOM     52  C   UNL     1     -11.191  -4.394   5.209  1.00  0.00     0.074 A 
ATOM     53  C   UNL     1     -11.486  -7.032  10.964  1.00  0.00     0.029 A 
ATOM     54  N   UNL     1     -10.799  -6.185   9.027  1.00  0.00    -0.354 N 
ATOM     55  N   UNL     1     -11.157  -4.921   6.410  1.00  0.00    -0.248 NA
ATOM     56  C   UNL     1     -12.540  -4.308   4.630  1.00  0.00     0.031 C 
ATOM     57  C   UNL     1     -12.609  -6.775  10.172  1.00  0.00     0.029 A 
ATOM     58  C   UNL     1     -12.182  -6.222   8.975  1.00  0.00     0.049 A 
ATOM     59  H   UNL     1     -10.216  -5.842   8.312  1.00  0.00     0.167 HD
ATOM     60  C   UNL     1     -12.479  -5.205   6.737  1.00  0.00     0.074 A 
ATOM     61  C   UNL     1     -13.291  -4.772   5.619  1.00  0.00     0.031 C 
ATOM     62  C   UNL     1     -12.978  -5.781   7.859  1.00  0.00     0.031 A 
BRANCH  49  63
ATOM     63  C   UNL     1      -8.673  -7.451  11.957  1.00  0.00    -0.014 A 
ATOM     64  C   UNL     1      -8.184  -6.660  13.011  1.00  0.00     0.010 A 
ATOM     65  C   UNL     1      -8.962  -8.808  12.196  1.00  0.00     0.010 A 
ATOM     66  C   UNL     1      -7.974  -7.218  14.275  1.00  0.00     0.020 A 
ATOM     67  C   UNL     1      -8.777  -9.363  13.465  1.00  0.00     0.020 A 
ATOM     68  C   UNL     1      -8.277  -8.565  14.495  1.00  0.00     0.054 A 
BRANCH  68  69
ATOM     69  S   UNL     1      -8.046  -9.245  16.162  1.00  0.00     0.124 S 
ATOM     70  O   UNL     1      -6.591  -9.260  16.282  1.00  0.00    -0.237 OA
ATOM     71  O   UNL     1      -8.736  -8.269  17.001  1.00  0.00    -0.237 OA
ATOM     72  O   UNL     1      -8.678 -10.560  16.091  1.00  0.00    -0.744 OA
ENDBRANCH  68  69
ENDBRANCH  49  63
BRANCH  50  73
ATOM     73  C   UNL     1     -10.318  -3.288   3.024  1.00  0.00    -0.014 A 
ATOM     74  C   UNL     1     -11.033  -2.084   2.893  1.00  0.00     0.010 A 
ATOM     75  C   UNL     1      -9.898  -3.962   1.862  1.00  0.00     0.010 A 
ATOM     76  C   UNL     1     -11.352  -1.584   1.626  1.00  0.00     0.020 A 
ATOM     77  C   UNL     1     -10.185  -3.448   0.595  1.00  0.00     0.020 A 
ATOM     78  C   UNL     1     -10.927  -2.271   0.485  1.00  0.00     0.054 A 
BRANCH  78  79
ATOM     79  S   UNL     1     -11.336  -1.596  -1.148  1.00  0.00     0.124 S 
ATOM     80  O   UNL     1     -12.764  -1.881  -1.244  1.00  0.00    -0.237 OA
ATOM     81  O   UNL     1     -10.977  -0.187  -1.004  1.00  0.00    -0.237 OA
ATOM     82  O   UNL     1     -10.481  -2.358  -2.055  1.00  0.00    -0.744 OA
ENDBRANCH  78  79
ENDBRANCH  50  73
BRANCH  62  83
ATOM     83  C   UNL     1     -14.471  -5.957   7.952  1.00  0.00    -0.014 A 
ATOM     84  C   UNL     1     -15.136  -6.927   7.181  1.00  0.00     0.010 A 
ATOM     85  C   UNL     1     -15.208  -5.194   8.877  1.00  0.00     0.010 A 
ATOM     86  C   UNL     1     -16.512  -7.120   7.322  1.00  0.00     0.020 A 
ATOM     87  C   UNL     1     -16.580  -5.404   9.042  1.00  0.00     0.020 A 
ATOM     88  C   UNL     1     -17.225  -6.361   8.256  1.00  0.00     0.054 A 
BRANCH  88  89
ATOM     89  S   UNL     1     -18.998  -6.682   8.466  1.00  0.00     0.124 S 
ATOM     90  O   UNL     1     -19.554  -6.145   7.227  1.00  0.00    -0.237 OA
ATOM     91  O   UNL     1     -19.045  -8.136   8.597  1.00  0.00    -0.237 OA
ATOM     92  O   UNL     1     -19.345  -5.942   9.677  1.00  0.00    -0.744 OA
ENDBRANCH  88  89
ENDBRANCH  62  83
ENDBRANCH  36  37
ENDBRANCH  29  31
ENDBRANCH  28  29
ENDBRANCH  27  28
ENDBRANCH  26  27
ENDBRANCH   1  26
TORSDOF 20
