REMARK SMILES Cc1cc2[nH]c(=O)[nH]c2cc1S(=O)(=O)NCCC(=O)OCCOCCOC(=O)c1ccc(-c2c3nc(c(-c4ccc(S(=O)(=O)[O-])cc4)c4ccc([nH]4)c(-c4ccc(S(=O)(=O)[O-])cc4)c4nc(c(-c5ccc(S(=O)(=O)[O-])cc5)c5ccc2[nH]5)C=C4)C=C3)cc1
REMARK SMILES IDX 22 1 21 2 20 3 18 4 19 5 17 6 16 7 15 8 12 10 13 11 14 12
REMARK SMILES IDX 11 13 1 14 2 15 3 16 4 17 10 18 5 19 9 20 6 21 8 23 7 24
REMARK SMILES IDX 23 26 24 27 25 28 26 29 27 30 28 31 29 32 30 33 88 34 31 35
REMARK SMILES IDX 87 36 32 37 33 38 34 39 81 40 35 41 86 42 80 43 82 44 36 45
REMARK SMILES IDX 85 46 79 47 78 48 37 50 67 51 48 52 66 53 49 54 52 55 65 56
REMARK SMILES IDX 83 57 50 58 51 59 64 61 84 62 53 63 38 64 39 65 47 66 40 67
REMARK SMILES IDX 46 68 41 69 42 70 43 71 44 72 45 73 68 74 69 75 77 76 70 77
REMARK SMILES IDX 76 78 71 79 72 80 73 81 74 82 75 83 54 84 55 85 63 86 56 87
REMARK SMILES IDX 62 88 57 89 58 90 59 91 60 92 61 93
REMARK H PARENT 15 9 5 22 8 25 82 49 52 60
REMARK Flexibility Score: inf
ROOT
ATOM      1  C   UNL     1       5.278   4.372   3.247  1.00  0.00     0.202 C 
ENDROOT
BRANCH   1   2
ATOM      2  C   UNL     1       5.067   4.842   1.803  1.00  0.00     0.261 C 
BRANCH   2   3
ATOM      3  O   UNL     1       4.304   3.934   0.998  1.00  0.00    -0.463 OA
BRANCH   3   4
ATOM      4  C   UNL     1       5.053   3.200   0.131  1.00  0.00     0.307 C 
ATOM      5  O   UNL     1       6.277   3.187   0.089  1.00  0.00    -0.252 OA
BRANCH   4   6
ATOM      6  C   UNL     1       4.209   2.381  -0.805  1.00  0.00     0.139 C 
BRANCH   6   7
ATOM      7  C   UNL     1       3.152   1.522  -0.146  1.00  0.00     0.110 C 
BRANCH   7   8
ATOM      8  N   UNL     1       1.972   2.216   0.400  1.00  0.00    -0.211 NA
ATOM      9  H   UNL     1       1.452   1.521   0.935  1.00  0.00     0.141 HD
BRANCH   8  10
ATOM     10  S   UNL     1       0.855   2.976  -0.609  1.00  0.00     0.240 S 
ATOM     11  O   UNL     1       1.601   3.971  -1.354  1.00  0.00    -0.207 OA
ATOM     12  O   UNL     1      -0.267   3.339   0.214  1.00  0.00    -0.207 OA
BRANCH  10  13
ATOM     13  C   UNL     1       0.295   1.736  -1.767  1.00  0.00     0.087 A 
ATOM     14  C   UNL     1       0.140  -0.137   0.014  1.00  0.00     0.046 C 
ATOM     15  C   UNL     1       0.048   0.378  -1.396  1.00  0.00    -0.029 A 
ATOM     16  C   UNL     1      -0.273  -0.560  -2.401  1.00  0.00     0.033 A 
ATOM     17  C   UNL     1      -0.405  -0.103  -3.692  1.00  0.00     0.067 A 
ATOM     18  C   UNL     1       0.140   2.174  -3.099  1.00  0.00     0.050 A 
ATOM     19  N   UNL     1      -0.736  -0.796  -4.850  1.00  0.00    -0.306 N 
ATOM     20  C   UNL     1      -0.221   1.233  -4.028  1.00  0.00     0.068 A 
ATOM     21  C   UNL     1      -0.780   0.111  -5.921  1.00  0.00     0.323 A 
ATOM     22  H   UNL     1      -0.911  -1.763  -4.910  1.00  0.00     0.171 HD
ATOM     23  N   UNL     1      -0.455   1.369  -5.393  1.00  0.00    -0.306 N 
ATOM     24  O   UNL     1      -1.052  -0.157  -7.077  1.00  0.00    -0.248 OA
ATOM     25  H   UNL     1      -0.402   2.209  -5.903  1.00  0.00     0.171 HD
ENDBRANCH  10  13
ENDBRANCH   8  10
ENDBRANCH   7   8
ENDBRANCH   6   7
ENDBRANCH   4   6
ENDBRANCH   3   4
ENDBRANCH   2   3
ENDBRANCH   1   2
BRANCH   1  26
ATOM     26  O   UNL     1       5.716   3.039   3.493  1.00  0.00    -0.374 OA
BRANCH  26  27
ATOM     27  C   UNL     1       4.759   1.989   3.339  1.00  0.00     0.202 C 
BRANCH  27  28
ATOM     28  C   UNL     1       3.573   1.943   4.317  1.00  0.00     0.261 C 
BRANCH  28  29
ATOM     29  O   UNL     1       2.649   3.006   4.040  1.00  0.00    -0.460 OA
BRANCH  29  30
ATOM     30  C   UNL     1       2.115   3.590   5.149  1.00  0.00     0.338 C 
ATOM     31  O   UNL     1       1.941   3.079   6.239  1.00  0.00    -0.246 OA
BRANCH  30  32
ATOM     32  C   UNL     1       2.200   5.041   4.893  1.00  0.00     0.060 A 
ATOM     33  C   UNL     1       1.712   5.581   3.700  1.00  0.00     0.016 A 
ATOM     34  C   UNL     1       3.085   5.762   5.711  1.00  0.00     0.016 A 
ATOM     35  C   UNL     1       2.187   6.820   3.286  1.00  0.00     0.010 A 
ATOM     36  C   UNL     1       3.580   6.987   5.276  1.00  0.00     0.010 A 
ATOM     37  C   UNL     1       3.156   7.499   4.047  1.00  0.00    -0.014 A 
BRANCH  37  38
ATOM     38  C   UNL     1       3.560   8.831   3.596  1.00  0.00     0.031 A 
ATOM     39  C   UNL     1       2.491   9.857   3.736  1.00  0.00     0.074 A 
ATOM     40  C   UNL     1       4.796   9.216   3.221  1.00  0.00     0.049 A 
ATOM     41  N   UNL     1       1.936  10.571   2.814  1.00  0.00    -0.248 NA
ATOM     42  C   UNL     1       1.905  10.028   5.075  1.00  0.00     0.031 C 
ATOM     43  C   UNL     1       6.054   8.477   3.334  1.00  0.00     0.029 A 
ATOM     44  N   UNL     1       5.194  10.434   2.743  1.00  0.00    -0.354 N 
ATOM     45  C   UNL     1       1.015  11.386   3.467  1.00  0.00     0.074 A 
ATOM     46  C   UNL     1       0.955  10.928   4.832  1.00  0.00     0.031 C 
ATOM     47  C   UNL     1       7.089   9.331   3.148  1.00  0.00     0.029 A 
ATOM     48  C   UNL     1       6.567  10.633   2.769  1.00  0.00     0.049 A 
ATOM     49  H   UNL     1       4.561  11.111   2.409  1.00  0.00     0.167 HD
ATOM     50  C   UNL     1       0.464  12.489   2.893  1.00  0.00     0.031 A 
ATOM     51  C   UNL     1       7.219  11.805   2.569  1.00  0.00     0.031 A 
ATOM     52  C   UNL     1       0.646  12.515   1.471  1.00  0.00     0.049 A 
ATOM     53  C   UNL     1       6.314  12.715   1.830  1.00  0.00     0.074 A 
ATOM     54  C   UNL     1       0.194  11.751   0.417  1.00  0.00     0.029 A 
ATOM     55  N   UNL     1       1.687  13.269   0.990  1.00  0.00    -0.354 N 
ATOM     56  N   UNL     1       5.920  12.517   0.604  1.00  0.00    -0.248 NA
ATOM     57  C   UNL     1       5.562  13.714   2.573  1.00  0.00     0.031 C 
ATOM     58  C   UNL     1       1.244  11.775  -0.542  1.00  0.00     0.029 A 
ATOM     59  C   UNL     1       2.276  12.570  -0.034  1.00  0.00     0.049 A 
ATOM     60  H   UNL     1       1.963  14.155   1.320  1.00  0.00     0.167 HD
ATOM     61  C   UNL     1       4.644  13.054   0.550  1.00  0.00     0.074 A 
ATOM     62  C   UNL     1       4.536  13.891   1.738  1.00  0.00     0.031 C 
ATOM     63  C   UNL     1       3.703  12.558  -0.304  1.00  0.00     0.031 A 
BRANCH  50  64
ATOM     64  C   UNL     1       0.000  13.692   3.669  1.00  0.00    -0.014 A 
ATOM     65  C   UNL     1       0.432  13.959   4.985  1.00  0.00     0.010 A 
ATOM     66  C   UNL     1      -0.698  14.720   3.005  1.00  0.00     0.010 A 
ATOM     67  C   UNL     1       0.157  15.167   5.624  1.00  0.00     0.020 A 
ATOM     68  C   UNL     1      -0.937  15.958   3.621  1.00  0.00     0.020 A 
ATOM     69  C   UNL     1      -0.513  16.168   4.932  1.00  0.00     0.054 A 
BRANCH  69  70
ATOM     70  S   UNL     1      -0.723  17.770   5.748  1.00  0.00     0.124 S 
ATOM     71  O   UNL     1      -1.712  17.455   6.775  1.00  0.00    -0.237 OA
ATOM     72  O   UNL     1       0.625  18.051   6.235  1.00  0.00    -0.237 OA
ATOM     73  O   UNL     1      -1.190  18.643   4.674  1.00  0.00    -0.744 OA
ENDBRANCH  69  70
ENDBRANCH  50  64
BRANCH  51  74
ATOM     74  C   UNL     1       8.407  12.311   3.304  1.00  0.00    -0.014 A 
ATOM     75  C   UNL     1       8.622  11.908   4.638  1.00  0.00     0.010 A 
ATOM     76  C   UNL     1       9.144  13.412   2.823  1.00  0.00     0.010 A 
ATOM     77  C   UNL     1       9.480  12.617   5.484  1.00  0.00     0.020 A 
ATOM     78  C   UNL     1      10.007  14.130   3.669  1.00  0.00     0.020 A 
ATOM     79  C   UNL     1      10.140  13.747   5.004  1.00  0.00     0.054 A 
BRANCH  79  80
ATOM     80  S   UNL     1      11.096  14.743   6.184  1.00  0.00     0.124 S 
ATOM     81  O   UNL     1      10.047  15.284   7.044  1.00  0.00    -0.237 OA
ATOM     82  O   UNL     1      11.964  13.747   6.807  1.00  0.00    -0.237 OA
ATOM     83  O   UNL     1      11.780  15.720   5.340  1.00  0.00    -0.744 OA
ENDBRANCH  79  80
ENDBRANCH  51  74
BRANCH  63  84
ATOM     84  C   UNL     1       4.146  11.675  -1.451  1.00  0.00    -0.014 A 
ATOM     85  C   UNL     1       3.699  12.015  -2.741  1.00  0.00     0.010 A 
ATOM     86  C   UNL     1       4.788  10.434  -1.268  1.00  0.00     0.010 A 
ATOM     87  C   UNL     1       3.833  11.123  -3.807  1.00  0.00     0.020 A 
ATOM     88  C   UNL     1       4.950   9.544  -2.342  1.00  0.00     0.020 A 
ATOM     89  C   UNL     1       4.439   9.883  -3.597  1.00  0.00     0.054 A 
BRANCH  89  90
ATOM     90  S   UNL     1       4.505   8.715  -4.984  1.00  0.00     0.124 S 
ATOM     91  O   UNL     1       3.109   8.299  -5.106  1.00  0.00    -0.237 OA
ATOM     92  O   UNL     1       5.003   9.543  -6.081  1.00  0.00    -0.237 OA
ATOM     93  O   UNL     1       5.425   7.675  -4.530  1.00  0.00    -0.744 OA
ENDBRANCH  89  90
ENDBRANCH  63  84
ENDBRANCH  37  38
ENDBRANCH  30  32
ENDBRANCH  29  30
ENDBRANCH  28  29
ENDBRANCH  27  28
ENDBRANCH  26  27
ENDBRANCH   1  26
TORSDOF 21
