REMARK SMILES CC(C)[NH2+][C@]1(C(=O)OCCOCCOC(=O)c2ccc(-c3c4nc(c(-c5ccc(S(=O)(=O)[O-])cc5)c5ccc([nH]5)c(-c5ccc(S(=O)(=O)[O-])cc5)c5nc(c(-c6ccc(S(=O)(=O)[O-])cc6)c6ccc3[nH]6)C=C5)C=C4)cc2)CC[C@H]([N@H+](C)C2CCCC2)C1
REMARK SMILES IDX 12 1 11 2 10 3 9 4 8 5 6 6 7 7 5 8 77 9 87 10 78 11 79 12
REMARK SMILES IDX 4 13 2 16 1 17 3 18 80 19 81 20 82 22 83 23 86 24 84 25
REMARK SMILES IDX 85 26 13 27 14 28 15 29 16 30 17 31 18 32 76 33 19 34 75 35
REMARK SMILES IDX 20 36 21 37 22 38 69 39 23 40 74 41 68 42 70 43 24 44 73 45
REMARK SMILES IDX 67 46 66 47 25 49 55 50 36 51 54 52 37 53 40 54 53 55 71 56
REMARK SMILES IDX 38 57 39 58 52 60 72 61 41 62 26 63 27 64 35 65 28 66 34 67
REMARK SMILES IDX 29 68 30 69 31 70 32 71 33 72 56 73 57 74 65 75 58 76 64 77
REMARK SMILES IDX 59 78 60 79 61 80 62 81 63 82 42 83 43 84 51 85 44 86 50 87
REMARK SMILES IDX 45 88 46 89 47 90 48 91 49 92
REMARK H PARENT 4 14 4 15 80 21 70 48 40 59
REMARK Flexibility Score: inf
ROOT
ATOM      1  C   UNL     1      -0.954  -1.116  -0.007  1.00  0.00     0.202 C 
ENDROOT
BRANCH   1   2
ATOM      2  O   UNL     1       0.419  -1.173  -0.393  1.00  0.00    -0.374 OA
BRANCH   2   3
ATOM      3  C   UNL     1       1.357  -0.563   0.495  1.00  0.00     0.202 C 
BRANCH   3   4
ATOM      4  C   UNL     1       1.679   0.907   0.232  1.00  0.00     0.261 C 
BRANCH   4   5
ATOM      5  O   UNL     1       0.641   1.772   0.729  1.00  0.00    -0.459 OA
BRANCH   5   6
ATOM      6  C   UNL     1      -0.300   2.122  -0.184  1.00  0.00     0.368 C 
ATOM      7  O   UNL     1      -0.291   1.734  -1.351  1.00  0.00    -0.245 OA
BRANCH   6   8
ATOM      8  C   UNL     1      -1.337   3.121   0.355  1.00  0.00     0.200 C 
ATOM      9  C   UNL     1      -0.668   4.504   0.255  1.00  0.00     0.087 C 
ATOM     10  C   UNL     1      -2.490   3.287  -0.651  1.00  0.00     0.146 C 
ATOM     11  C   UNL     1      -1.810   5.497   0.117  1.00  0.00     0.072 C 
ATOM     12  C   UNL     1      -2.957   4.757  -0.605  1.00  0.00     0.191 C 
BRANCH   8  13
ATOM     13  N   UNL     1      -1.804   2.949   1.755  1.00  0.00    -0.330 N 
ATOM     14  H   UNL     1      -1.086   3.361   2.352  1.00  0.00     0.347 HD
ATOM     15  H   UNL     1      -2.727   3.383   1.736  1.00  0.00     0.347 HD
BRANCH  13  16
ATOM     16  C   UNL     1      -2.086   1.625   2.303  1.00  0.00     0.176 C 
ATOM     17  C   UNL     1      -2.240   1.773   3.824  1.00  0.00     0.075 C 
ATOM     18  C   UNL     1      -3.350   0.954   1.767  1.00  0.00     0.075 C 
ENDBRANCH  13  16
ENDBRANCH   8  13
BRANCH  12  19
ATOM     19  N   UNL     1      -4.245   5.100   0.044  1.00  0.00    -0.332 N 
ATOM     20  C   UNL     1      -5.188   3.985   0.119  1.00  0.00     0.333 C 
ATOM     21  H   UNL     1      -3.998   5.340   1.005  1.00  0.00     0.348 HD
BRANCH  19  22
ATOM     22  C   UNL     1      -4.888   6.267  -0.597  1.00  0.00     0.184 C 
ATOM     23  C   UNL     1      -6.070   6.836   0.199  1.00  0.00     0.065 C 
ATOM     24  C   UNL     1      -4.015   7.522  -0.742  1.00  0.00     0.065 C 
ATOM     25  C   UNL     1      -6.341   8.184  -0.457  1.00  0.00     0.006 C 
ATOM     26  C   UNL     1      -4.997   8.660  -0.998  1.00  0.00     0.006 C 
ENDBRANCH  19  22
ENDBRANCH  12  19
ENDBRANCH   6   8
ENDBRANCH   5   6
ENDBRANCH   4   5
ENDBRANCH   3   4
ENDBRANCH   2   3
ENDBRANCH   1   2
BRANCH   1  27
ATOM     27  C   UNL     1      -1.381  -2.110   1.084  1.00  0.00     0.261 C 
BRANCH  27  28
ATOM     28  O   UNL     1      -0.854  -1.742   2.377  1.00  0.00    -0.460 OA
BRANCH  28  29
ATOM     29  C   UNL     1       0.112  -2.566   2.850  1.00  0.00     0.338 C 
ATOM     30  O   UNL     1       0.455  -3.639   2.372  1.00  0.00    -0.246 OA
BRANCH  29  31
ATOM     31  C   UNL     1       0.888  -1.901   3.918  1.00  0.00     0.060 A 
ATOM     32  C   UNL     1       2.279  -1.859   3.752  1.00  0.00     0.016 A 
ATOM     33  C   UNL     1       0.303  -1.388   5.078  1.00  0.00     0.016 A 
ATOM     34  C   UNL     1       3.093  -1.366   4.767  1.00  0.00     0.010 A 
ATOM     35  C   UNL     1       1.128  -0.899   6.104  1.00  0.00     0.010 A 
ATOM     36  C   UNL     1       2.529  -0.924   5.971  1.00  0.00    -0.014 A 
BRANCH  36  37
ATOM     37  C   UNL     1       3.436  -0.629   7.112  1.00  0.00     0.031 A 
ATOM     38  C   UNL     1       3.608  -1.653   8.205  1.00  0.00     0.074 A 
ATOM     39  C   UNL     1       4.180   0.493   7.125  1.00  0.00     0.049 A 
ATOM     40  N   UNL     1       4.414  -1.636   9.236  1.00  0.00    -0.248 NA
ATOM     41  C   UNL     1       2.767  -2.858   8.120  1.00  0.00     0.031 C 
ATOM     42  C   UNL     1       4.144   1.542   6.107  1.00  0.00     0.029 A 
ATOM     43  N   UNL     1       5.126   0.927   8.021  1.00  0.00    -0.354 N 
ATOM     44  C   UNL     1       4.178  -2.822   9.924  1.00  0.00     0.074 A 
ATOM     45  C   UNL     1       3.128  -3.518   9.211  1.00  0.00     0.031 C 
ATOM     46  C   UNL     1       5.038   2.493   6.428  1.00  0.00     0.029 A 
ATOM     47  C   UNL     1       5.688   2.136   7.689  1.00  0.00     0.049 A 
ATOM     48  H   UNL     1       5.378   0.419   8.826  1.00  0.00     0.167 HD
ATOM     49  C   UNL     1       4.784  -3.295  11.040  1.00  0.00     0.031 A 
ATOM     50  C   UNL     1       6.614   2.879   8.328  1.00  0.00     0.031 A 
ATOM     51  C   UNL     1       5.818  -2.597  11.760  1.00  0.00     0.049 A 
ATOM     52  C   UNL     1       7.223   2.363   9.606  1.00  0.00     0.074 A 
ATOM     53  C   UNL     1       6.502  -3.003  12.894  1.00  0.00     0.029 A 
ATOM     54  N   UNL     1       6.314  -1.345  11.426  1.00  0.00    -0.354 N 
ATOM     55  N   UNL     1       7.006   1.227  10.226  1.00  0.00    -0.248 NA
ATOM     56  C   UNL     1       8.213   3.228  10.263  1.00  0.00     0.031 C 
ATOM     57  C   UNL     1       7.362  -1.971  13.282  1.00  0.00     0.029 A 
ATOM     58  C   UNL     1       7.269  -0.951  12.349  1.00  0.00     0.049 A 
ATOM     59  H   UNL     1       6.029  -0.815  10.646  1.00  0.00     0.167 HD
ATOM     60  C   UNL     1       7.851   1.232  11.332  1.00  0.00     0.074 A 
ATOM     61  C   UNL     1       8.599   2.471  11.281  1.00  0.00     0.031 C 
ATOM     62  C   UNL     1       7.996   0.294  12.303  1.00  0.00     0.031 A 
BRANCH  49  63
ATOM     63  C   UNL     1       4.314  -4.622  11.579  1.00  0.00    -0.014 A 
ATOM     64  C   UNL     1       4.591  -5.827  10.907  1.00  0.00     0.010 A 
ATOM     65  C   UNL     1       3.621  -4.668  12.804  1.00  0.00     0.010 A 
ATOM     66  C   UNL     1       4.152  -7.047  11.430  1.00  0.00     0.020 A 
ATOM     67  C   UNL     1       3.207  -5.889  13.345  1.00  0.00     0.020 A 
ATOM     68  C   UNL     1       3.461  -7.070  12.646  1.00  0.00     0.054 A 
BRANCH  68  69
ATOM     69  S   UNL     1       2.923  -8.669  13.313  1.00  0.00     0.124 S 
ATOM     70  O   UNL     1       1.843  -9.029  12.398  1.00  0.00    -0.237 OA
ATOM     71  O   UNL     1       4.132  -9.482  13.207  1.00  0.00    -0.237 OA
ATOM     72  O   UNL     1       2.505  -8.354  14.676  1.00  0.00    -0.744 OA
ENDBRANCH  68  69
ENDBRANCH  49  63
BRANCH  50  73
ATOM     73  C   UNL     1       7.014   4.204   7.777  1.00  0.00    -0.014 A 
ATOM     74  C   UNL     1       8.308   4.417   7.269  1.00  0.00     0.010 A 
ATOM     75  C   UNL     1       6.092   5.267   7.764  1.00  0.00     0.010 A 
ATOM     76  C   UNL     1       8.677   5.672   6.775  1.00  0.00     0.020 A 
ATOM     77  C   UNL     1       6.447   6.513   7.242  1.00  0.00     0.020 A 
ATOM     78  C   UNL     1       7.742   6.711   6.760  1.00  0.00     0.054 A 
BRANCH  78  79
ATOM     79  S   UNL     1       8.225   8.315   6.063  1.00  0.00     0.124 S 
ATOM     80  O   UNL     1       9.122   8.836   7.089  1.00  0.00    -0.237 OA
ATOM     81  O   UNL     1       8.857   7.933   4.803  1.00  0.00    -0.237 OA
ATOM     82  O   UNL     1       6.954   9.024   5.923  1.00  0.00    -0.744 OA
ENDBRANCH  78  79
ENDBRANCH  50  73
BRANCH  62  83
ATOM     83  C   UNL     1       9.021   0.563  13.376  1.00  0.00    -0.014 A 
ATOM     84  C   UNL     1       8.837   1.585  14.327  1.00  0.00     0.010 A 
ATOM     85  C   UNL     1      10.183  -0.227  13.443  1.00  0.00     0.010 A 
ATOM     86  C   UNL     1       9.822   1.848  15.284  1.00  0.00     0.020 A 
ATOM     87  C   UNL     1      11.154   0.010  14.420  1.00  0.00     0.020 A 
ATOM     88  C   UNL     1      10.978   1.063  15.320  1.00  0.00     0.054 A 
BRANCH  88  89
ATOM     89  S   UNL     1      12.242   1.424  16.570  1.00  0.00     0.124 S 
ATOM     90  O   UNL     1      12.837   2.654  16.054  1.00  0.00    -0.237 OA
ATOM     91  O   UNL     1      11.453   1.572  17.791  1.00  0.00    -0.237 OA
ATOM     92  O   UNL     1      13.110   0.249  16.536  1.00  0.00    -0.744 OA
ENDBRANCH  88  89
ENDBRANCH  62  83
ENDBRANCH  36  37
ENDBRANCH  29  31
ENDBRANCH  28  29
ENDBRANCH  27  28
ENDBRANCH   1  27
TORSDOF 21
