REMARK SMILES CCc1ccc(-c2cc(Cl)cc3c2O[C@@H](C(F)(F)F)C(C(=O)OCCOCCOC(=O)c2ccc(-c4c5nc(c(-c6ccc(S(=O)(=O)[O-])cc6)c6ccc([nH]6)c(-c6ccc(S(=O)(=O)[O-])cc6)c6nc(c(-c7ccc(S(=O)(=O)[O-])cc7)c7ccc4[nH]7)C=C6)C=C5)cc2)=C3)cc1
REMARK SMILES IDX 27 1 26 2 25 3 24 4 23 5 21 6 22 7 20 8 7 9 8 10 13 11 9 12
REMARK SMILES IDX 12 13 14 14 10 15 11 16 92 17 15 18 6 19 3 20 4 21 94 22
REMARK SMILES IDX 5 23 93 24 2 25 1 26 16 27 17 28 18 29 19 30 28 31 29 32
REMARK SMILES IDX 30 33 31 34 32 35 33 36 91 37 34 38 90 39 35 40 36 41 37 42
REMARK SMILES IDX 84 43 38 44 89 45 83 46 85 47 39 48 88 49 82 50 81 51 40 53
REMARK SMILES IDX 70 54 51 55 69 56 52 57 55 58 68 59 86 60 53 61 54 62 67 64
REMARK SMILES IDX 87 65 56 66 41 67 42 68 50 69 43 70 49 71 44 72 45 73 46 74
REMARK SMILES IDX 47 75 48 76 71 77 72 78 80 79 73 80 79 81 74 82 75 83 76 84
REMARK SMILES IDX 77 85 78 86 57 87 58 88 66 89 59 90 65 91 60 92 61 93 62 94
REMARK SMILES IDX 63 95 64 96
REMARK H PARENT 85 52 55 63
REMARK Flexibility Score: inf
ROOT
ATOM      1  C   UNL     1       0.517 -10.621   3.154  1.00  0.00     0.202 C 
ENDROOT
BRANCH   1   2
ATOM      2  O   UNL     1       1.778 -11.238   2.904  1.00  0.00    -0.374 OA
BRANCH   2   3
ATOM      3  C   UNL     1       2.252 -12.200   3.839  1.00  0.00     0.202 C 
BRANCH   3   4
ATOM      4  C   UNL     1       2.606 -11.731   5.260  1.00  0.00     0.261 C 
BRANCH   4   5
ATOM      5  O   UNL     1       1.987 -10.484   5.614  1.00  0.00    -0.460 OA
BRANCH   5   6
ATOM      6  C   UNL     1       2.731  -9.651   6.366  1.00  0.00     0.338 C 
ATOM      7  O   UNL     1       3.809  -9.927   6.873  1.00  0.00    -0.246 OA
BRANCH   6   8
ATOM      8  C   UNL     1       2.199  -8.266   6.373  1.00  0.00     0.087 C 
ATOM      9  C   UNL     1       1.232  -6.704   2.647  1.00  0.00     0.026 A 
ATOM     10  C   UNL     1       2.053  -7.398   1.726  1.00  0.00     0.033 A 
ATOM     11  C   UNL     1       1.474  -6.996   4.007  1.00  0.00     0.135 A 
ATOM     12  C   UNL     1       3.214  -8.052   2.137  1.00  0.00     0.042 A 
ATOM     13  C   UNL     1       2.761  -7.413   4.389  1.00  0.00     0.019 A 
ATOM     14  O   UNL     1       0.410  -7.275   4.878  1.00  0.00    -0.475 OA
ATOM     15  Cl  UNL     1       4.195  -8.856   0.979  1.00  0.00    -0.084 Cl
ATOM     16  C   UNL     1       3.626  -7.969   3.456  1.00  0.00     0.032 A 
ATOM     17  C   UNL     1       3.101  -7.434   5.827  1.00  0.00     0.027 C 
ATOM     18  C   UNL     1       0.761  -7.811   6.230  1.00  0.00     0.316 C 
BRANCH   9  19
ATOM     19  C   UNL     1       0.709  -5.390   2.113  1.00  0.00    -0.015 A 
ATOM     20  C   UNL     1       0.581  -2.900   0.647  1.00  0.00    -0.048 A 
ATOM     21  C   UNL     1       0.078  -4.095   0.114  1.00  0.00     0.004 A 
ATOM     22  C   UNL     1       1.072  -2.945   1.955  1.00  0.00     0.004 A 
ATOM     23  C   UNL     1       0.125  -5.305   0.834  1.00  0.00     0.009 A 
ATOM     24  C   UNL     1       1.130  -4.165   2.674  1.00  0.00     0.009 A 
BRANCH  20  25
ATOM     25  C   UNL     1       0.585  -1.671  -0.242  1.00  0.00     0.032 C 
ATOM     26  C   UNL     1       1.154  -0.368   0.310  1.00  0.00     0.009 C 
ENDBRANCH  20  25
ENDBRANCH   9  19
BRANCH  18  27
ATOM     27  C   UNL     1      -0.286  -8.718   6.917  1.00  0.00     0.430 C 
ATOM     28  F   UNL     1      -0.120  -8.643   8.268  1.00  0.00    -0.167 F 
ATOM     29  F   UNL     1      -1.549  -8.302   6.668  1.00  0.00    -0.167 F 
ATOM     30  F   UNL     1      -0.224 -10.020   6.590  1.00  0.00    -0.167 F 
ENDBRANCH  18  27
ENDBRANCH   6   8
ENDBRANCH   5   6
ENDBRANCH   4   5
ENDBRANCH   3   4
ENDBRANCH   2   3
ENDBRANCH   1   2
BRANCH   1  31
ATOM     31  C   UNL     1      -0.750 -11.481   3.116  1.00  0.00     0.261 C 
BRANCH  31  32
ATOM     32  O   UNL     1      -0.748 -12.558   4.066  1.00  0.00    -0.460 OA
BRANCH  32  33
ATOM     33  C   UNL     1      -0.746 -13.793   3.510  1.00  0.00     0.338 C 
ATOM     34  O   UNL     1      -0.747 -14.069   2.316  1.00  0.00    -0.246 OA
BRANCH  33  35
ATOM     35  C   UNL     1      -0.574 -14.819   4.548  1.00  0.00     0.060 A 
ATOM     36  C   UNL     1       0.548 -15.652   4.463  1.00  0.00     0.016 A 
ATOM     37  C   UNL     1      -1.554 -15.037   5.518  1.00  0.00     0.016 A 
ATOM     38  C   UNL     1       0.672 -16.739   5.324  1.00  0.00     0.010 A 
ATOM     39  C   UNL     1      -1.431 -16.134   6.376  1.00  0.00     0.010 A 
ATOM     40  C   UNL     1      -0.336 -17.010   6.258  1.00  0.00    -0.014 A 
BRANCH  40  41
ATOM     41  C   UNL     1      -0.302 -18.288   7.009  1.00  0.00     0.031 A 
ATOM     42  C   UNL     1      -1.187 -19.423   6.564  1.00  0.00     0.074 A 
ATOM     43  C   UNL     1       0.540 -18.447   8.045  1.00  0.00     0.049 A 
ATOM     44  N   UNL     1      -1.310 -20.622   7.072  1.00  0.00    -0.248 NA
ATOM     45  C   UNL     1      -2.046 -19.174   5.394  1.00  0.00     0.031 C 
ATOM     46  C   UNL     1       1.470 -17.432   8.541  1.00  0.00     0.029 A 
ATOM     47  N   UNL     1       0.752 -19.526   8.866  1.00  0.00    -0.354 N 
ATOM     48  C   UNL     1      -2.265 -21.266   6.293  1.00  0.00     0.074 A 
ATOM     49  C   UNL     1      -2.710 -20.317   5.296  1.00  0.00     0.031 C 
ATOM     50  C   UNL     1       2.151 -17.936   9.584  1.00  0.00     0.029 A 
ATOM     51  C   UNL     1       1.683 -19.294   9.850  1.00  0.00     0.049 A 
ATOM     52  H   UNL     1       0.281 -20.384   8.761  1.00  0.00     0.167 HD
ATOM     53  C   UNL     1      -2.725 -22.535   6.396  1.00  0.00     0.031 A 
ATOM     54  C   UNL     1       2.096 -20.082  10.863  1.00  0.00     0.031 A 
ATOM     55  C   UNL     1      -2.280 -23.473   7.394  1.00  0.00     0.049 A 
ATOM     56  C   UNL     1       1.524 -21.470  10.992  1.00  0.00     0.074 A 
ATOM     57  C   UNL     1      -2.664 -24.791   7.566  1.00  0.00     0.029 A 
ATOM     58  N   UNL     1      -1.360 -23.190   8.392  1.00  0.00    -0.354 N 
ATOM     59  N   UNL     1       0.650 -22.077  10.224  1.00  0.00    -0.248 NA
ATOM     60  C   UNL     1       2.002 -22.283  12.119  1.00  0.00     0.031 C 
ATOM     61  C   UNL     1      -2.026 -25.285   8.708  1.00  0.00     0.029 A 
ATOM     62  C   UNL     1      -1.189 -24.299   9.205  1.00  0.00     0.049 A 
ATOM     63  H   UNL     1      -0.897 -22.329   8.507  1.00  0.00     0.167 HD
ATOM     64  C   UNL     1       0.496 -23.352  10.759  1.00  0.00     0.074 A 
ATOM     65  C   UNL     1       1.380 -23.434  11.903  1.00  0.00     0.031 C 
ATOM     66  C   UNL     1      -0.304 -24.364  10.341  1.00  0.00     0.031 A 
BRANCH  53  67
ATOM     67  C   UNL     1      -3.790 -22.980   5.427  1.00  0.00    -0.014 A 
ATOM     68  C   UNL     1      -3.499 -23.200   4.069  1.00  0.00     0.010 A 
ATOM     69  C   UNL     1      -5.090 -23.240   5.899  1.00  0.00     0.010 A 
ATOM     70  C   UNL     1      -4.496 -23.645   3.195  1.00  0.00     0.020 A 
ATOM     71  C   UNL     1      -6.082 -23.712   5.035  1.00  0.00     0.020 A 
ATOM     72  C   UNL     1      -5.781 -23.901   3.685  1.00  0.00     0.054 A 
BRANCH  72  73
ATOM     73  S   UNL     1      -7.042 -24.520   2.537  1.00  0.00     0.124 S 
ATOM     74  O   UNL     1      -7.305 -23.342   1.714  1.00  0.00    -0.237 OA
ATOM     75  O   UNL     1      -6.351 -25.615   1.863  1.00  0.00    -0.237 OA
ATOM     76  O   UNL     1      -8.141 -24.924   3.412  1.00  0.00    -0.744 OA
ENDBRANCH  72  73
ENDBRANCH  53  67
BRANCH  54  77
ATOM     77  C   UNL     1       3.085 -19.569  11.852  1.00  0.00    -0.014 A 
ATOM     78  C   UNL     1       4.378 -20.115  11.934  1.00  0.00     0.010 A 
ATOM     79  C   UNL     1       2.728 -18.529  12.731  1.00  0.00     0.010 A 
ATOM     80  C   UNL     1       5.284 -19.650  12.893  1.00  0.00     0.020 A 
ATOM     81  C   UNL     1       3.641 -18.039  13.668  1.00  0.00     0.020 A 
ATOM     82  C   UNL     1       4.910 -18.614  13.753  1.00  0.00     0.054 A 
BRANCH  82  83
ATOM     83  S   UNL     1       6.114 -18.004  14.966  1.00  0.00     0.124 S 
ATOM     84  O   UNL     1       6.157 -19.100  15.929  1.00  0.00    -0.237 OA
ATOM     85  O   UNL     1       7.315 -17.826  14.154  1.00  0.00    -0.237 OA
ATOM     86  O   UNL     1       5.510 -16.765  15.453  1.00  0.00    -0.744 OA
ENDBRANCH  82  83
ENDBRANCH  54  77
BRANCH  66  87
ATOM     87  C   UNL     1      -0.237 -25.664  11.101  1.00  0.00    -0.014 A 
ATOM     88  C   UNL     1      -0.760 -25.780  12.400  1.00  0.00     0.010 A 
ATOM     89  C   UNL     1       0.309 -26.802  10.478  1.00  0.00     0.010 A 
ATOM     90  C   UNL     1      -0.706 -27.002  13.077  1.00  0.00     0.020 A 
ATOM     91  C   UNL     1       0.336 -28.033  11.139  1.00  0.00     0.020 A 
ATOM     92  C   UNL     1      -0.159 -28.121  12.441  1.00  0.00     0.054 A 
BRANCH  92  93
ATOM     93  S   UNL     1      -0.138 -29.704  13.326  1.00  0.00     0.124 S 
ATOM     94  O   UNL     1       0.900 -29.479  14.328  1.00  0.00    -0.237 OA
ATOM     95  O   UNL     1      -1.500 -29.800  13.843  1.00  0.00    -0.237 OA
ATOM     96  O   UNL     1       0.199 -30.677  12.289  1.00  0.00    -0.744 OA
ENDBRANCH  92  93
ENDBRANCH  66  87
ENDBRANCH  40  41
ENDBRANCH  33  35
ENDBRANCH  32  33
ENDBRANCH  31  32
ENDBRANCH   1  31
TORSDOF 20
