REMARK SMILES Cc1ccc(S(=O)(=O)N2c3ccc(C(=O)OCCOCCOC(=O)c4ccc(-c5c6nc(c(-c7ccc(S(=O)(=O)[O-])cc7)c7ccc([nH]7)c(-c7ccc(S(=O)(=O)[O-])cc7)c7nc(c(-c8ccc(S(=O)(=O)[O-])cc8)c8ccc5[nH]8)C=C7)C=C6)cc4)cc3C[C@H]2C)cc1
REMARK SMILES IDX 20 1 19 2 18 3 17 4 16 5 14 6 15 7 13 8 9 9 10 10 88 11
REMARK SMILES IDX 11 12 86 13 87 14 89 15 12 16 85 17 6 18 7 19 8 20 5 21 1 22
REMARK SMILES IDX 2 23 3 24 91 25 4 26 90 27 21 28 22 29 23 30 24 31 25 32
REMARK SMILES IDX 26 33 84 34 27 35 83 36 28 37 29 38 30 39 77 40 31 41 82 42
REMARK SMILES IDX 76 43 78 44 32 45 81 46 75 47 74 48 33 50 63 51 44 52 62 53
REMARK SMILES IDX 45 54 48 55 61 56 79 57 46 58 47 59 60 61 80 62 49 63 34 64
REMARK SMILES IDX 35 65 43 66 36 67 42 68 37 69 38 70 39 71 40 72 41 73 64 74
REMARK SMILES IDX 65 75 73 76 66 77 72 78 67 79 68 80 69 81 70 82 71 83 50 84
REMARK SMILES IDX 51 85 59 86 52 87 58 88 53 89 54 90 55 91 56 92 57 93
REMARK H PARENT 78 49 48 60
REMARK Flexibility Score: inf
ROOT
ATOM      1  C   UNL     1      -9.791   6.294   1.067  1.00  0.00     0.202 C 
ENDROOT
BRANCH   1   2
ATOM      2  O   UNL     1     -10.063   4.952   0.733  1.00  0.00    -0.374 OA
BRANCH   2   3
ATOM      3  C   UNL     1     -10.311   4.111   1.855  1.00  0.00     0.202 C 
BRANCH   3   4
ATOM      4  C   UNL     1     -10.687   2.792   1.287  1.00  0.00     0.261 C 
BRANCH   4   5
ATOM      5  O   UNL     1      -9.547   2.110   0.772  1.00  0.00    -0.460 OA
BRANCH   5   6
ATOM      6  C   UNL     1      -9.082   2.411  -0.461  1.00  0.00     0.338 C 
ATOM      7  O   UNL     1      -9.596   3.045  -1.366  1.00  0.00    -0.246 OA
BRANCH   6   8
ATOM      8  C   UNL     1      -7.685   1.990  -0.406  1.00  0.00     0.060 A 
ATOM      9  N   UNL     1      -3.644   1.697   0.406  1.00  0.00    -0.263 N 
ATOM     10  C   UNL     1      -5.069   1.715   0.238  1.00  0.00     0.055 A 
ATOM     11  C   UNL     1      -3.200   2.988  -0.266  1.00  0.00     0.101 C 
ATOM     12  C   UNL     1      -5.961   0.876   0.871  1.00  0.00     0.028 A 
ATOM     13  C   UNL     1      -5.454   2.644  -0.733  1.00  0.00    -0.021 A 
ATOM     14  C   UNL     1      -4.285   3.371  -1.287  1.00  0.00     0.063 C 
ATOM     15  C   UNL     1      -3.095   4.052   0.844  1.00  0.00     0.032 C 
ATOM     16  C   UNL     1      -7.287   0.994   0.515  1.00  0.00     0.018 A 
ATOM     17  C   UNL     1      -6.770   2.788  -1.087  1.00  0.00     0.021 A 
BRANCH   9  18
ATOM     18  S   UNL     1      -3.061   0.205  -0.228  1.00  0.00     0.264 S 
ATOM     19  O   UNL     1      -3.220   0.233  -1.668  1.00  0.00    -0.201 OA
ATOM     20  O   UNL     1      -3.617  -0.875   0.568  1.00  0.00    -0.201 OA
BRANCH  18  21
ATOM     21  C   UNL     1      -1.323   0.116   0.062  1.00  0.00     0.088 A 
ATOM     22  C   UNL     1       2.932  -0.259   0.015  1.00  0.00     0.044 C 
ATOM     23  C   UNL     1       1.443  -0.139   0.089  1.00  0.00    -0.051 A 
ATOM     24  C   UNL     1       0.643  -1.268  -0.116  1.00  0.00     0.005 A 
ATOM     25  C   UNL     1       0.844   1.092   0.377  1.00  0.00     0.005 A 
ATOM     26  C   UNL     1      -0.739  -1.139  -0.143  1.00  0.00     0.022 A 
ATOM     27  C   UNL     1      -0.541   1.212   0.398  1.00  0.00     0.022 A 
ENDBRANCH  18  21
ENDBRANCH   9  18
ENDBRANCH   6   8
ENDBRANCH   5   6
ENDBRANCH   4   5
ENDBRANCH   3   4
ENDBRANCH   2   3
ENDBRANCH   1   2
BRANCH   1  28
ATOM     28  C   UNL     1     -10.896   6.951   1.907  1.00  0.00     0.261 C 
BRANCH  28  29
ATOM     29  O   UNL     1     -12.130   6.987   1.160  1.00  0.00    -0.460 OA
BRANCH  29  30
ATOM     30  C   UNL     1     -13.129   6.169   1.606  1.00  0.00     0.338 C 
ATOM     31  O   UNL     1     -13.655   6.252   2.700  1.00  0.00    -0.246 OA
BRANCH  30  32
ATOM     32  C   UNL     1     -13.410   5.119   0.585  1.00  0.00     0.060 A 
ATOM     33  C   UNL     1     -14.098   3.932   0.920  1.00  0.00     0.016 A 
ATOM     34  C   UNL     1     -12.761   5.225  -0.642  1.00  0.00     0.016 A 
ATOM     35  C   UNL     1     -14.035   2.812   0.072  1.00  0.00     0.010 A 
ATOM     36  C   UNL     1     -12.610   4.098  -1.410  1.00  0.00     0.010 A 
ATOM     37  C   UNL     1     -13.230   2.883  -1.061  1.00  0.00    -0.014 A 
BRANCH  37  38
ATOM     38  C   UNL     1     -12.850   1.788  -1.956  1.00  0.00     0.031 A 
ATOM     39  C   UNL     1     -13.238   1.951  -3.369  1.00  0.00     0.074 A 
ATOM     40  C   UNL     1     -11.875   0.923  -1.584  1.00  0.00     0.049 A 
ATOM     41  N   UNL     1     -13.007   1.092  -4.289  1.00  0.00    -0.248 NA
ATOM     42  C   UNL     1     -13.933   3.136  -3.873  1.00  0.00     0.031 C 
ATOM     43  C   UNL     1     -10.916   0.168  -2.390  1.00  0.00     0.029 A 
ATOM     44  N   UNL     1     -11.571   0.512  -0.294  1.00  0.00    -0.354 N 
ATOM     45  C   UNL     1     -13.154   1.733  -5.496  1.00  0.00     0.074 A 
ATOM     46  C   UNL     1     -13.823   2.971  -5.190  1.00  0.00     0.031 C 
ATOM     47  C   UNL     1     -10.341  -0.790  -1.633  1.00  0.00     0.029 A 
ATOM     48  C   UNL     1     -10.959  -0.742  -0.315  1.00  0.00     0.049 A 
ATOM     49  H   UNL     1     -11.761   1.031   0.520  1.00  0.00     0.167 HD
ATOM     50  C   UNL     1     -12.540   1.189  -6.583  1.00  0.00     0.031 A 
ATOM     51  C   UNL     1     -11.588  -1.731   0.370  1.00  0.00     0.031 A 
ATOM     52  C   UNL     1     -11.957  -0.120  -6.226  1.00  0.00     0.049 A 
ATOM     53  C   UNL     1     -12.259  -2.568  -0.695  1.00  0.00     0.074 A 
ATOM     54  C   UNL     1     -10.666  -0.559  -5.984  1.00  0.00     0.029 A 
ATOM     55  N   UNL     1     -12.796  -1.083  -5.644  1.00  0.00    -0.354 N 
ATOM     56  N   UNL     1     -12.588  -2.099  -1.877  1.00  0.00    -0.248 NA
ATOM     57  C   UNL     1     -12.357  -4.021  -0.624  1.00  0.00     0.031 C 
ATOM     58  C   UNL     1     -10.748  -1.702  -5.120  1.00  0.00     0.029 A 
ATOM     59  C   UNL     1     -12.084  -1.966  -4.841  1.00  0.00     0.049 A 
ATOM     60  H   UNL     1     -13.768  -1.128  -5.787  1.00  0.00     0.167 HD
ATOM     61  C   UNL     1     -12.717  -3.135  -2.751  1.00  0.00     0.074 A 
ATOM     62  C   UNL     1     -12.645  -4.322  -1.903  1.00  0.00     0.031 C 
ATOM     63  C   UNL     1     -12.782  -3.032  -4.113  1.00  0.00     0.031 A 
BRANCH  50  64
ATOM     64  C   UNL     1     -12.274   1.968  -7.859  1.00  0.00    -0.014 A 
ATOM     65  C   UNL     1     -11.264   1.550  -8.748  1.00  0.00     0.010 A 
ATOM     66  C   UNL     1     -12.960   3.144  -8.234  1.00  0.00     0.010 A 
ATOM     67  C   UNL     1     -10.955   2.268  -9.921  1.00  0.00     0.020 A 
ATOM     68  C   UNL     1     -12.643   3.891  -9.379  1.00  0.00     0.020 A 
ATOM     69  C   UNL     1     -11.648   3.438 -10.230  1.00  0.00     0.054 A 
BRANCH  69  70
ATOM     70  S   UNL     1     -11.285   4.325 -11.768  1.00  0.00     0.124 S 
ATOM     71  O   UNL     1      -9.856   4.600 -11.649  1.00  0.00    -0.237 OA
ATOM     72  O   UNL     1     -11.657   3.345 -12.786  1.00  0.00    -0.237 OA
ATOM     73  O   UNL     1     -12.146   5.505 -11.704  1.00  0.00    -0.744 OA
ENDBRANCH  69  70
ENDBRANCH  50  64
BRANCH  51  74
ATOM     74  C   UNL     1     -12.020  -1.237   1.738  1.00  0.00    -0.014 A 
ATOM     75  C   UNL     1     -10.965  -1.004   2.668  1.00  0.00     0.010 A 
ATOM     76  C   UNL     1     -13.229  -0.553   1.976  1.00  0.00     0.010 A 
ATOM     77  C   UNL     1     -11.064  -0.049   3.698  1.00  0.00     0.020 A 
ATOM     78  C   UNL     1     -13.335   0.412   3.013  1.00  0.00     0.020 A 
ATOM     79  C   UNL     1     -12.241   0.683   3.844  1.00  0.00     0.054 A 
BRANCH  79  80
ATOM     80  S   UNL     1     -12.215   2.152   4.943  1.00  0.00     0.124 S 
ATOM     81  O   UNL     1     -12.042   1.558   6.264  1.00  0.00    -0.237 OA
ATOM     82  O   UNL     1     -11.061   2.901   4.447  1.00  0.00    -0.237 OA
ATOM     83  O   UNL     1     -13.508   2.783   4.695  1.00  0.00    -0.744 OA
ENDBRANCH  79  80
ENDBRANCH  51  74
BRANCH  63  84
ATOM     84  C   UNL     1     -13.558  -4.048  -4.899  1.00  0.00    -0.014 A 
ATOM     85  C   UNL     1     -14.541  -4.855  -4.301  1.00  0.00     0.010 A 
ATOM     86  C   UNL     1     -13.455  -4.072  -6.305  1.00  0.00     0.010 A 
ATOM     87  C   UNL     1     -15.315  -5.727  -5.059  1.00  0.00     0.020 A 
ATOM     88  C   UNL     1     -14.280  -4.884  -7.080  1.00  0.00     0.020 A 
ATOM     89  C   UNL     1     -15.175  -5.737  -6.444  1.00  0.00     0.054 A 
BRANCH  89  90
ATOM     90  S   UNL     1     -16.204  -6.861  -7.405  1.00  0.00     0.124 S 
ATOM     91  O   UNL     1     -15.480  -8.121  -7.254  1.00  0.00    -0.237 OA
ATOM     92  O   UNL     1     -17.491  -6.790  -6.717  1.00  0.00    -0.237 OA
ATOM     93  O   UNL     1     -16.187  -6.283  -8.746  1.00  0.00    -0.744 OA
ENDBRANCH  89  90
ENDBRANCH  63  84
ENDBRANCH  37  38
ENDBRANCH  30  32
ENDBRANCH  29  30
ENDBRANCH  28  29
ENDBRANCH   1  28
TORSDOF 19
