REMARK SMILES COc1ccc(Cl)c(NS(=O)(=O)c2ccc(C)c(C(=O)OCCOCCOC(=O)c3ccc(-c4c5nc(c(-c6ccc(S(=O)(=O)[O-])cc6)c6ccc([nH]6)c(-c6ccc(S(=O)(=O)[O-])cc6)c6nc(c(-c7ccc(S(=O)(=O)[O-])cc7)c7ccc4[nH]7)C=C6)C=C5)cc3)c2)c1
REMARK SMILES IDX 23 1 22 2 21 3 19 4 20 5 18 6 13 7 14 8 90 9 15 10 16 11
REMARK SMILES IDX 17 12 10 13 11 14 12 15 9 16 8 18 3 19 4 20 91 21 5 22 6 23
REMARK SMILES IDX 7 24 2 25 1 26 24 27 25 28 26 29 27 30 28 31 29 32 30 33
REMARK SMILES IDX 31 34 89 35 32 36 88 37 33 38 34 39 35 40 82 41 36 42 87 43
REMARK SMILES IDX 81 44 83 45 37 46 86 47 80 48 79 49 38 51 68 52 49 53 67 54
REMARK SMILES IDX 50 55 53 56 66 57 84 58 51 59 52 60 65 62 85 63 54 64 39 65
REMARK SMILES IDX 40 66 48 67 41 68 47 69 42 70 43 71 44 72 45 73 46 74 69 75
REMARK SMILES IDX 70 76 78 77 71 78 77 79 72 80 73 81 74 82 75 83 76 84 55 85
REMARK SMILES IDX 56 86 64 87 57 88 63 89 58 90 59 91 60 92 61 93 62 94
REMARK H PARENT 9 17 83 50 53 61
REMARK Flexibility Score: inf
ROOT
ATOM      1  C   UNL     1      -3.307   1.114   4.686  1.00  0.00     0.202 C 
ENDROOT
BRANCH   1   2
ATOM      2  C   UNL     1      -2.168   1.716   3.913  1.00  0.00     0.261 C 
BRANCH   2   3
ATOM      3  O   UNL     1      -1.783   0.978   2.752  1.00  0.00    -0.460 OA
BRANCH   3   4
ATOM      4  C   UNL     1      -1.411  -0.298   2.969  1.00  0.00     0.338 C 
ATOM      5  O   UNL     1      -0.526  -0.683   3.704  1.00  0.00    -0.246 OA
BRANCH   4   6
ATOM      6  C   UNL     1      -2.330  -1.189   2.202  1.00  0.00     0.064 A 
ATOM      7  C   UNL     1      -2.858  -3.497   1.727  1.00  0.00     0.088 A 
ATOM      8  C   UNL     1      -3.732  -3.106   0.712  1.00  0.00     0.022 A 
ATOM      9  C   UNL     1      -2.232  -2.548   2.534  1.00  0.00     0.038 A 
ATOM     10  C   UNL     1      -3.917  -1.748   0.451  1.00  0.00     0.006 A 
ATOM     11  C   UNL     1      -3.203  -0.771   1.166  1.00  0.00    -0.036 A 
ATOM     12  C   UNL     1      -3.399   0.670   0.758  1.00  0.00     0.045 C 
BRANCH   7  13
ATOM     13  S   UNL     1      -2.420  -5.200   1.920  1.00  0.00     0.261 S 
ATOM     14  O   UNL     1      -3.486  -5.987   1.329  1.00  0.00    -0.201 OA
ATOM     15  O   UNL     1      -2.047  -5.420   3.300  1.00  0.00    -0.201 OA
BRANCH  13  16
ATOM     16  N   UNL     1      -1.040  -5.485   0.953  1.00  0.00    -0.278 N 
ATOM     17  H   UNL     1      -1.027  -6.274   0.364  1.00  0.00     0.180 HD
BRANCH  16  18
ATOM     18  C   UNL     1       0.117  -4.603   0.972  1.00  0.00     0.071 A 
ATOM     19  C   UNL     1       1.122  -2.424   0.623  1.00  0.00     0.121 A 
ATOM     20  C   UNL     1       2.390  -2.934   0.848  1.00  0.00     0.048 A 
ATOM     21  C   UNL     1       0.013  -3.265   0.601  1.00  0.00     0.074 A 
ATOM     22  C   UNL     1       2.542  -4.300   1.081  1.00  0.00     0.026 A 
ATOM     23  C   UNL     1       1.411  -5.123   1.165  1.00  0.00     0.065 A 
ATOM     24  Cl  UNL     1       1.643  -6.809   1.470  1.00  0.00    -0.082 Cl
BRANCH  19  25
ATOM     25  O   UNL     1       0.922  -1.076   0.593  1.00  0.00    -0.497 OA
ATOM     26  C   UNL     1       0.877  -0.549  -0.724  1.00  0.00     0.278 C 
ENDBRANCH  19  25
ENDBRANCH  16  18
ENDBRANCH  13  16
ENDBRANCH   7  13
ENDBRANCH   4   6
ENDBRANCH   3   4
ENDBRANCH   2   3
ENDBRANCH   1   2
BRANCH   1  27
ATOM     27  O   UNL     1      -2.796  -0.032   5.366  1.00  0.00    -0.374 OA
BRANCH  27  28
ATOM     28  C   UNL     1      -3.719  -0.705   6.199  1.00  0.00     0.202 C 
BRANCH  28  29
ATOM     29  C   UNL     1      -4.401   0.196   7.240  1.00  0.00     0.261 C 
BRANCH  29  30
ATOM     30  O   UNL     1      -3.473   0.574   8.281  1.00  0.00    -0.460 OA
BRANCH  30  31
ATOM     31  C   UNL     1      -3.101   1.889   8.316  1.00  0.00     0.338 C 
ATOM     32  O   UNL     1      -3.774   2.767   8.826  1.00  0.00    -0.246 OA
BRANCH  31  33
ATOM     33  C   UNL     1      -1.740   2.065   7.729  1.00  0.00     0.060 A 
ATOM     34  C   UNL     1      -1.266   3.322   7.312  1.00  0.00     0.016 A 
ATOM     35  C   UNL     1      -0.994   0.927   7.445  1.00  0.00     0.016 A 
ATOM     36  C   UNL     1      -0.124   3.421   6.492  1.00  0.00     0.010 A 
ATOM     37  C   UNL     1       0.062   1.017   6.565  1.00  0.00     0.010 A 
ATOM     38  C   UNL     1       0.505   2.255   6.063  1.00  0.00    -0.014 A 
BRANCH  38  39
ATOM     39  C   UNL     1       1.560   2.122   5.049  1.00  0.00     0.031 A 
ATOM     40  C   UNL     1       2.832   1.483   5.475  1.00  0.00     0.074 A 
ATOM     41  C   UNL     1       1.294   2.222   3.719  1.00  0.00     0.049 A 
ATOM     42  N   UNL     1       3.872   1.382   4.726  1.00  0.00    -0.248 NA
ATOM     43  C   UNL     1       3.051   0.907   6.803  1.00  0.00     0.031 C 
ATOM     44  C   UNL     1       1.986   1.551   2.617  1.00  0.00     0.029 A 
ATOM     45  N   UNL     1       0.339   2.994   3.047  1.00  0.00    -0.354 N 
ATOM     46  C   UNL     1       4.699   0.439   5.287  1.00  0.00     0.074 A 
ATOM     47  C   UNL     1       4.200   0.250   6.625  1.00  0.00     0.031 C 
ATOM     48  C   UNL     1       1.653   2.137   1.454  1.00  0.00     0.029 A 
ATOM     49  C   UNL     1       0.842   3.297   1.770  1.00  0.00     0.049 A 
ATOM     50  H   UNL     1      -0.533   3.276   3.406  1.00  0.00     0.167 HD
ATOM     51  C   UNL     1       5.629  -0.161   4.494  1.00  0.00     0.031 A 
ATOM     52  C   UNL     1       1.034   4.587   1.375  1.00  0.00     0.031 A 
ATOM     53  C   UNL     1       5.610   0.400   3.135  1.00  0.00     0.049 A 
ATOM     54  C   UNL     1       2.503   4.839   1.155  1.00  0.00     0.074 A 
ATOM     55  C   UNL     1       5.209  -0.072   1.897  1.00  0.00     0.029 A 
ATOM     56  N   UNL     1       5.768   1.769   2.979  1.00  0.00    -0.354 N 
ATOM     57  N   UNL     1       3.401   3.931   1.423  1.00  0.00    -0.248 NA
ATOM     58  C   UNL     1       3.114   6.066   0.659  1.00  0.00     0.031 C 
ATOM     59  C   UNL     1       5.122   1.038   1.003  1.00  0.00     0.029 A 
ATOM     60  C   UNL     1       5.518   2.175   1.684  1.00  0.00     0.049 A 
ATOM     61  H   UNL     1       6.028   2.380   3.706  1.00  0.00     0.167 HD
ATOM     62  C   UNL     1       4.647   4.381   1.156  1.00  0.00     0.074 A 
ATOM     63  C   UNL     1       4.426   5.754   0.723  1.00  0.00     0.031 C 
ATOM     64  C   UNL     1       5.732   3.574   1.326  1.00  0.00     0.031 A 
BRANCH  51  65
ATOM     65  C   UNL     1       6.443  -1.380   4.873  1.00  0.00    -0.014 A 
ATOM     66  C   UNL     1       7.107  -2.102   3.860  1.00  0.00     0.010 A 
ATOM     67  C   UNL     1       6.608  -1.870   6.184  1.00  0.00     0.010 A 
ATOM     68  C   UNL     1       7.860  -3.254   4.128  1.00  0.00     0.020 A 
ATOM     69  C   UNL     1       7.346  -3.032   6.469  1.00  0.00     0.020 A 
ATOM     70  C   UNL     1       7.973  -3.715   5.435  1.00  0.00     0.054 A 
BRANCH  70  71
ATOM     71  S   UNL     1       8.975  -5.188   5.762  1.00  0.00     0.124 S 
ATOM     72  O   UNL     1       8.315  -6.203   4.945  1.00  0.00    -0.237 OA
ATOM     73  O   UNL     1      10.298  -4.773   5.303  1.00  0.00    -0.237 OA
ATOM     74  O   UNL     1       8.851  -5.380   7.205  1.00  0.00    -0.744 OA
ENDBRANCH  70  71
ENDBRANCH  51  65
BRANCH  52  75
ATOM     75  C   UNL     1      -0.039   5.491   1.907  1.00  0.00    -0.014 A 
ATOM     76  C   UNL     1      -1.319   5.349   1.313  1.00  0.00     0.010 A 
ATOM     77  C   UNL     1       0.026   5.946   3.238  1.00  0.00     0.010 A 
ATOM     78  C   UNL     1      -2.487   5.438   2.084  1.00  0.00     0.020 A 
ATOM     79  C   UNL     1      -1.148   6.033   4.013  1.00  0.00     0.020 A 
ATOM     80  C   UNL     1      -2.387   5.715   3.447  1.00  0.00     0.054 A 
BRANCH  80  81
ATOM     81  S   UNL     1      -3.844   5.396   4.503  1.00  0.00     0.124 S 
ATOM     82  O   UNL     1      -4.718   6.517   4.179  1.00  0.00    -0.237 OA
ATOM     83  O   UNL     1      -4.309   4.090   4.032  1.00  0.00    -0.237 OA
ATOM     84  O   UNL     1      -3.291   5.392   5.853  1.00  0.00    -0.744 OA
ENDBRANCH  80  81
ENDBRANCH  52  75
BRANCH  64  85
ATOM     85  C   UNL     1       7.137   4.062   1.196  1.00  0.00    -0.014 A 
ATOM     86  C   UNL     1       7.534   4.971   0.211  1.00  0.00     0.010 A 
ATOM     87  C   UNL     1       8.126   3.562   2.072  1.00  0.00     0.010 A 
ATOM     88  C   UNL     1       8.838   5.467   0.194  1.00  0.00     0.020 A 
ATOM     89  C   UNL     1       9.435   4.021   2.042  1.00  0.00     0.020 A 
ATOM     90  C   UNL     1       9.771   5.008   1.129  1.00  0.00     0.054 A 
BRANCH  90  91
ATOM     91  S   UNL     1      11.430   5.712   1.133  1.00  0.00     0.124 S 
ATOM     92  O   UNL     1      11.778   5.708  -0.285  1.00  0.00    -0.237 OA
ATOM     93  O   UNL     1      11.191   7.028   1.719  1.00  0.00    -0.237 OA
ATOM     94  O   UNL     1      12.199   4.788   1.963  1.00  0.00    -0.744 OA
ENDBRANCH  90  91
ENDBRANCH  64  85
ENDBRANCH  38  39
ENDBRANCH  31  33
ENDBRANCH  30  31
ENDBRANCH  29  30
ENDBRANCH  28  29
ENDBRANCH  27  28
ENDBRANCH   1  27
TORSDOF 21
