REMARK SMILES Cc1ccccc1[C@H]1[NH2+][C@@H](C(=O)OCCOCCOC(=O)c2ccc(-c3c4nc(c(-c5ccc(S(=O)(=O)[O-])cc5)c5ccc([nH]5)c(-c5ccc(S(=O)(=O)[O-])cc5)c5nc(c(-c6ccc(S(=O)(=O)[O-])cc6)c6ccc3[nH]6)C=C5)C=C4)cc2)CC2=c3ccccc3=N[C@@H]21
REMARK SMILES IDX 17 1 16 2 15 3 14 4 13 5 11 6 12 7 10 8 8 9 9 10 91 11 83 14
REMARK SMILES IDX 90 15 82 16 84 17 89 18 85 19 88 20 86 21 87 22 7 23 1 24
REMARK SMILES IDX 2 25 3 26 4 27 6 28 5 29 18 30 19 31 20 32 21 33 22 34 23 35
REMARK SMILES IDX 81 36 24 37 80 38 25 39 26 40 27 41 74 42 28 43 79 44 73 45
REMARK SMILES IDX 75 46 29 47 78 48 72 49 71 50 30 52 60 53 41 54 59 55 42 56
REMARK SMILES IDX 45 57 58 58 76 59 43 60 44 61 57 63 77 64 46 65 31 66 32 67
REMARK SMILES IDX 40 68 33 69 39 70 34 71 35 72 36 73 37 74 38 75 61 76 62 77
REMARK SMILES IDX 70 78 63 79 69 80 64 81 65 82 66 83 67 84 68 85 47 86 48 87
REMARK SMILES IDX 56 88 49 89 55 90 50 91 51 92 52 93 53 94 54 95
REMARK H PARENT 9 12 9 13 75 51 45 62
REMARK Flexibility Score: inf
ROOT
ATOM      1  C   UNL     1      -1.264   2.893   2.064  1.00  0.00     0.202 C 
ENDROOT
BRANCH   1   2
ATOM      2  O   UNL     1      -2.573   3.487   2.108  1.00  0.00    -0.374 OA
BRANCH   2   3
ATOM      3  C   UNL     1      -2.820   4.807   1.506  1.00  0.00     0.202 C 
BRANCH   3   4
ATOM      4  C   UNL     1      -1.772   5.789   0.951  1.00  0.00     0.261 C 
BRANCH   4   5
ATOM      5  O   UNL     1      -1.052   6.522   1.947  1.00  0.00    -0.459 OA
BRANCH   5   6
ATOM      6  C   UNL     1      -0.115   5.943   2.723  1.00  0.00     0.365 C 
ATOM      7  O   UNL     1      -0.164   6.097   3.944  1.00  0.00    -0.245 OA
BRANCH   6   8
ATOM      8  C   UNL     1       1.095   5.277   2.043  1.00  0.00     0.298 C 
ATOM      9  C   UNL     1       1.179   3.336   0.324  1.00  0.00     0.243 C 
ATOM     10  N   UNL     1       0.749   4.677   0.748  1.00  0.00    -0.326 N 
ATOM     11  C   UNL     1       2.239   2.569   1.286  1.00  0.00     0.196 C 
ATOM     12  H   UNL     1      -0.270   4.666   0.711  1.00  0.00     0.347 HD
ATOM     13  H   UNL     1       1.287   5.264   0.111  1.00  0.00     0.347 HD
ATOM     14  C   UNL     1       2.734   3.541   2.334  1.00  0.00    -0.024 C 
ATOM     15  N   UNL     1       3.519   2.180   0.597  1.00  0.00    -0.270 NA
ATOM     16  C   UNL     1       1.731   4.332   3.064  1.00  0.00     0.111 C 
ATOM     17  C   UNL     1       4.022   3.831   2.204  1.00  0.00     0.002 A 
ATOM     18  C   UNL     1       4.443   2.899   1.160  1.00  0.00     0.066 A 
ATOM     19  C   UNL     1       4.837   4.922   2.637  1.00  0.00     0.010 A 
ATOM     20  C   UNL     1       5.891   2.948   0.834  1.00  0.00     0.028 A 
ATOM     21  C   UNL     1       6.072   5.035   2.123  1.00  0.00     0.001 A 
ATOM     22  C   UNL     1       6.619   3.997   1.264  1.00  0.00     0.002 A 
BRANCH   9  23
ATOM     23  C   UNL     1       0.056   2.574  -0.616  1.00  0.00     0.015 A 
ATOM     24  C   UNL     1      -3.063   1.960   0.122  1.00  0.00     0.045 C 
ATOM     25  C   UNL     1      -1.788   2.114  -0.729  1.00  0.00    -0.042 A 
ATOM     26  C   UNL     1      -2.355   1.135  -2.201  1.00  0.00     0.004 A 
ATOM     27  C   UNL     1      -1.229   0.647  -3.466  1.00  0.00     0.000 A 
ATOM     28  C   UNL     1       1.152   1.858  -1.885  1.00  0.00     0.010 A 
ATOM     29  C   UNL     1       0.506   0.929  -3.276  1.00  0.00     0.001 A 
ENDBRANCH   9  23
ENDBRANCH   6   8
ENDBRANCH   5   6
ENDBRANCH   4   5
ENDBRANCH   3   4
ENDBRANCH   2   3
ENDBRANCH   1   2
BRANCH   1  30
ATOM     30  C   UNL     1      -0.880   1.338   1.707  1.00  0.00     0.261 C 
BRANCH  30  31
ATOM     31  O   UNL     1      -0.554   0.642   0.246  1.00  0.00    -0.460 OA
BRANCH  31  32
ATOM     32  C   UNL     1      -0.514   0.805  -1.400  1.00  0.00     0.338 C 
ATOM     33  O   UNL     1      -0.339  -0.422  -1.672  1.00  0.00    -0.246 OA
BRANCH  32  34
ATOM     34  C   UNL     1      -0.807   2.597  -2.528  1.00  0.00     0.060 A 
ATOM     35  C   UNL     1       0.055   3.350  -3.513  1.00  0.00     0.016 A 
ATOM     36  C   UNL     1      -1.963   3.576  -2.449  1.00  0.00     0.016 A 
ATOM     37  C   UNL     1       0.093   4.754  -3.708  1.00  0.00     0.010 A 
ATOM     38  C   UNL     1      -1.865   4.953  -2.457  1.00  0.00     0.010 A 
ATOM     39  C   UNL     1      -0.736   5.539  -2.948  1.00  0.00    -0.014 A 
BRANCH  39  40
ATOM     40  C   UNL     1      -0.430   6.869  -2.449  1.00  0.00     0.031 A 
ATOM     41  C   UNL     1      -1.396   7.968  -2.649  1.00  0.00     0.074 A 
ATOM     42  C   UNL     1       0.639   6.980  -1.620  1.00  0.00     0.049 A 
ATOM     43  N   UNL     1      -1.080   9.205  -2.518  1.00  0.00    -0.248 NA
ATOM     44  C   UNL     1      -2.791   7.795  -3.071  1.00  0.00     0.031 C 
ATOM     45  C   UNL     1       1.019   8.076  -0.727  1.00  0.00     0.029 A 
ATOM     46  N   UNL     1       1.713   6.092  -1.482  1.00  0.00    -0.354 N 
ATOM     47  C   UNL     1      -2.248   9.930  -2.506  1.00  0.00     0.074 A 
ATOM     48  C   UNL     1      -3.254   9.046  -3.020  1.00  0.00     0.031 C 
ATOM     49  C   UNL     1       2.328   7.954  -0.426  1.00  0.00     0.029 A 
ATOM     50  C   UNL     1       2.853   6.845  -1.218  1.00  0.00     0.049 A 
ATOM     51  H   UNL     1       1.670   5.111  -1.558  1.00  0.00     0.167 HD
ATOM     52  C   UNL     1      -2.251  11.146  -1.900  1.00  0.00     0.031 A 
ATOM     53  C   UNL     1       3.860   6.922  -2.135  1.00  0.00     0.031 A 
ATOM     54  C   UNL     1      -0.885  11.535  -1.543  1.00  0.00     0.049 A 
ATOM     55  C   UNL     1       3.939   8.339  -2.663  1.00  0.00     0.074 A 
ATOM     56  C   UNL     1      -0.202  11.621  -0.345  1.00  0.00     0.029 A 
ATOM     57  N   UNL     1       0.083  11.538  -2.546  1.00  0.00    -0.354 N 
ATOM     58  N   UNL     1       2.917   9.158  -2.650  1.00  0.00    -0.248 NA
ATOM     59  C   UNL     1       5.164   8.988  -3.117  1.00  0.00     0.031 C 
ATOM     60  C   UNL     1       1.197  11.559  -0.642  1.00  0.00     0.029 A 
ATOM     61  C   UNL     1       1.358  11.481  -2.018  1.00  0.00     0.049 A 
ATOM     62  H   UNL     1      -0.117  11.575  -3.510  1.00  0.00     0.167 HD
ATOM     63  C   UNL     1       3.331  10.420  -2.963  1.00  0.00     0.074 A 
ATOM     64  C   UNL     1       4.741  10.256  -3.283  1.00  0.00     0.031 C 
ATOM     65  C   UNL     1       2.511  11.512  -2.918  1.00  0.00     0.031 A 
BRANCH  52  66
ATOM     66  C   UNL     1      -3.498  11.879  -1.456  1.00  0.00    -0.014 A 
ATOM     67  C   UNL     1      -3.380  13.155  -0.875  1.00  0.00     0.010 A 
ATOM     68  C   UNL     1      -4.805  11.343  -1.507  1.00  0.00     0.010 A 
ATOM     69  C   UNL     1      -4.499  13.863  -0.400  1.00  0.00     0.020 A 
ATOM     70  C   UNL     1      -5.934  12.050  -1.069  1.00  0.00     0.020 A 
ATOM     71  C   UNL     1      -5.774  13.311  -0.514  1.00  0.00     0.054 A 
BRANCH  71  72
ATOM     72  S   UNL     1      -7.212  14.248   0.063  1.00  0.00     0.124 S 
ATOM     73  O   UNL     1      -6.963  14.351   1.498  1.00  0.00    -0.237 OA
ATOM     74  O   UNL     1      -7.099  15.493  -0.690  1.00  0.00    -0.237 OA
ATOM     75  O   UNL     1      -8.348  13.404  -0.307  1.00  0.00    -0.744 OA
ENDBRANCH  71  72
ENDBRANCH  52  66
BRANCH  53  76
ATOM     76  C   UNL     1       4.205   5.635  -2.823  1.00  0.00    -0.014 A 
ATOM     77  C   UNL     1       4.777   4.631  -2.015  1.00  0.00     0.010 A 
ATOM     78  C   UNL     1       3.734   5.239  -4.087  1.00  0.00     0.010 A 
ATOM     79  C   UNL     1       4.831   3.286  -2.414  1.00  0.00     0.020 A 
ATOM     80  C   UNL     1       3.782   3.880  -4.494  1.00  0.00     0.020 A 
ATOM     81  C   UNL     1       4.329   2.909  -3.650  1.00  0.00     0.054 A 
BRANCH  81  82
ATOM     82  S   UNL     1       4.328   1.131  -4.074  1.00  0.00     0.124 S 
ATOM     83  O   UNL     1       5.737   0.885  -4.362  1.00  0.00    -0.237 OA
ATOM     84  O   UNL     1       3.830   0.500  -2.858  1.00  0.00    -0.237 OA
ATOM     85  O   UNL     1       3.423   1.067  -5.219  1.00  0.00    -0.744 OA
ENDBRANCH  81  82
ENDBRANCH  53  76
BRANCH  65  86
ATOM     86  C   UNL     1       2.716  12.744  -3.769  1.00  0.00    -0.014 A 
ATOM     87  C   UNL     1       3.637  12.811  -4.824  1.00  0.00     0.010 A 
ATOM     88  C   UNL     1       1.806  13.825  -3.647  1.00  0.00     0.010 A 
ATOM     89  C   UNL     1       3.683  13.913  -5.681  1.00  0.00     0.020 A 
ATOM     90  C   UNL     1       1.792  14.892  -4.543  1.00  0.00     0.020 A 
ATOM     91  C   UNL     1       2.754  14.942  -5.540  1.00  0.00     0.054 A 
BRANCH  91  92
ATOM     92  S   UNL     1       2.800  16.318  -6.705  1.00  0.00     0.124 S 
ATOM     93  O   UNL     1       3.943  17.082  -6.212  1.00  0.00    -0.237 OA
ATOM     94  O   UNL     1       3.000  15.644  -7.986  1.00  0.00    -0.237 OA
ATOM     95  O   UNL     1       1.498  16.957  -6.539  1.00  0.00    -0.744 OA
ENDBRANCH  91  92
ENDBRANCH  65  86
ENDBRANCH  39  40
ENDBRANCH  32  34
ENDBRANCH  31  32
ENDBRANCH  30  31
ENDBRANCH   1  30
TORSDOF 18
