REMARK SMILES C#Cc1cccc(NS(=O)(=O)c2cc(C)c(C(=O)OCCOCCOC(=O)c3ccc(-c4c5nc(c(-c6ccc(S(=O)(=O)[O-])cc6)c6ccc([nH]6)c(-c6ccc(S(=O)(=O)[O-])cc6)c6nc(c(-c7ccc(S(=O)(=O)[O-])cc7)c7ccc4[nH]7)C=C6)C=C5)cc3)s2)c1
REMARK SMILES IDX 21 1 20 2 19 3 17 4 18 5 16 6 12 7 13 8 88 9 14 10 15 11
REMARK SMILES IDX 9 12 10 13 11 14 8 15 7 17 3 18 4 19 89 20 5 21 6 22 2 23
REMARK SMILES IDX 1 24 22 25 23 26 24 27 25 28 26 29 27 30 28 31 29 32 87 33
REMARK SMILES IDX 30 34 86 35 31 36 32 37 33 38 80 39 34 40 85 41 79 42 81 43
REMARK SMILES IDX 35 44 84 45 78 46 77 47 36 49 66 50 47 51 65 52 48 53 51 54
REMARK SMILES IDX 64 55 82 56 49 57 50 58 63 60 83 61 52 62 37 63 38 64 46 65
REMARK SMILES IDX 39 66 45 67 40 68 41 69 42 70 43 71 44 72 67 73 68 74 76 75
REMARK SMILES IDX 69 76 75 77 70 78 71 79 72 80 73 81 74 82 53 83 54 84 62 85
REMARK SMILES IDX 55 86 61 87 56 88 57 89 58 90 59 91 60 92
REMARK H PARENT 8 16 81 48 51 59
REMARK Flexibility Score: inf
ROOT
ATOM      1  C   UNL     1       8.477   4.583   1.015  1.00  0.00     0.202 C 
ENDROOT
BRANCH   1   2
ATOM      2  C   UNL     1       8.128   4.357  -0.458  1.00  0.00     0.261 C 
BRANCH   2   3
ATOM      3  O   UNL     1       7.007   3.475  -0.599  1.00  0.00    -0.459 OA
BRANCH   3   4
ATOM      4  C   UNL     1       7.288   2.169  -0.863  1.00  0.00     0.348 C 
ATOM      5  O   UNL     1       8.413   1.739  -1.081  1.00  0.00    -0.245 OA
BRANCH   4   6
ATOM      6  C   UNL     1       6.069   1.373  -0.782  1.00  0.00     0.116 A 
ATOM      7  C   UNL     1       4.548  -0.588  -0.593  1.00  0.00     0.141 A 
ATOM      8  C   UNL     1       3.922   0.566  -1.014  1.00  0.00     0.038 A 
ATOM      9  S   UNL     1       6.243  -0.339  -0.595  1.00  0.00    -0.115 S 
ATOM     10  C   UNL     1       4.724   1.721  -0.724  1.00  0.00    -0.024 A 
ATOM     11  C   UNL     1       4.095   3.051  -0.447  1.00  0.00     0.046 C 
BRANCH   7  12
ATOM     12  S   UNL     1       3.984  -2.195  -0.072  1.00  0.00     0.271 S 
ATOM     13  O   UNL     1       4.634  -2.428   1.202  1.00  0.00    -0.200 OA
ATOM     14  O   UNL     1       4.226  -3.063  -1.206  1.00  0.00    -0.200 OA
BRANCH  12  15
ATOM     15  N   UNL     1       2.320  -2.302   0.214  1.00  0.00    -0.279 N 
ATOM     16  H   UNL     1       1.925  -3.202   0.272  1.00  0.00     0.180 HD
BRANCH  15  17
ATOM     17  C   UNL     1       1.445  -1.188   0.378  1.00  0.00     0.050 A 
ATOM     18  C   UNL     1      -0.749  -0.228  -0.007  1.00  0.00     0.026 A 
ATOM     19  C   UNL     1      -0.275   1.016   0.403  1.00  0.00     0.017 A 
ATOM     20  C   UNL     1       0.117  -1.325  -0.049  1.00  0.00     0.044 A 
ATOM     21  C   UNL     1       0.998   1.118   0.949  1.00  0.00     0.003 A 
ATOM     22  C   UNL     1       1.821  -0.009   1.020  1.00  0.00     0.027 A 
BRANCH  18  23
ATOM     23  C   UNL     1      -2.148  -0.360  -0.280  1.00  0.00    -0.070 C 
ATOM     24  C   UNL     1      -3.343  -0.385  -0.365  1.00  0.00     0.010 C 
ENDBRANCH  18  23
ENDBRANCH  15  17
ENDBRANCH  12  15
ENDBRANCH   7  12
ENDBRANCH   4   6
ENDBRANCH   3   4
ENDBRANCH   2   3
ENDBRANCH   1   2
BRANCH   1  25
ATOM     25  O   UNL     1       8.943   3.449   1.743  1.00  0.00    -0.374 OA
BRANCH  25  26
ATOM     26  C   UNL     1       7.960   2.567   2.287  1.00  0.00     0.202 C 
BRANCH  26  27
ATOM     27  C   UNL     1       7.278   2.990   3.593  1.00  0.00     0.261 C 
BRANCH  27  28
ATOM     28  O   UNL     1       6.477   4.174   3.440  1.00  0.00    -0.460 OA
BRANCH  28  29
ATOM     29  C   UNL     1       7.070   5.309   3.888  1.00  0.00     0.338 C 
ATOM     30  O   UNL     1       8.160   5.408   4.425  1.00  0.00    -0.246 OA
BRANCH  29  31
ATOM     31  C   UNL     1       6.282   6.481   3.466  1.00  0.00     0.060 A 
ATOM     32  C   UNL     1       6.948   7.496   2.768  1.00  0.00     0.016 A 
ATOM     33  C   UNL     1       4.938   6.618   3.813  1.00  0.00     0.016 A 
ATOM     34  C   UNL     1       6.285   8.682   2.464  1.00  0.00     0.010 A 
ATOM     35  C   UNL     1       4.275   7.810   3.507  1.00  0.00     0.010 A 
ATOM     36  C   UNL     1       4.955   8.863   2.867  1.00  0.00    -0.014 A 
BRANCH  36  37
ATOM     37  C   UNL     1       4.312  10.192   2.728  1.00  0.00     0.031 A 
ATOM     38  C   UNL     1       4.096  11.037   3.955  1.00  0.00     0.074 A 
ATOM     39  C   UNL     1       3.933  10.645   1.520  1.00  0.00     0.049 A 
ATOM     40  N   UNL     1       3.507  12.200   4.065  1.00  0.00    -0.248 NA
ATOM     41  C   UNL     1       4.604  10.496   5.226  1.00  0.00     0.031 C 
ATOM     42  C   UNL     1       4.126   9.938   0.254  1.00  0.00     0.029 A 
ATOM     43  N   UNL     1       3.300  11.809   1.163  1.00  0.00    -0.354 N 
ATOM     44  C   UNL     1       3.557  12.523   5.417  1.00  0.00     0.074 A 
ATOM     45  C   UNL     1       4.200  11.416   6.091  1.00  0.00     0.031 C 
ATOM     46  C   UNL     1       3.618  10.682  -0.742  1.00  0.00     0.029 A 
ATOM     47  C   UNL     1       3.024  11.894  -0.181  1.00  0.00     0.049 A 
ATOM     48  H   UNL     1       3.065  12.515   1.807  1.00  0.00     0.167 HD
ATOM     49  C   UNL     1       3.111  13.641   6.040  1.00  0.00     0.031 A 
ATOM     50  C   UNL     1       2.346  12.827  -0.878  1.00  0.00     0.031 A 
ATOM     51  C   UNL     1       2.455  14.730   5.362  1.00  0.00     0.049 A 
ATOM     52  C   UNL     1       1.789  14.025  -0.155  1.00  0.00     0.074 A 
ATOM     53  C   UNL     1       1.986  15.917   5.897  1.00  0.00     0.029 A 
ATOM     54  N   UNL     1       2.163  14.762   4.006  1.00  0.00    -0.354 N 
ATOM     55  N   UNL     1       1.869  14.330   1.119  1.00  0.00    -0.248 NA
ATOM     56  C   UNL     1       1.060  15.009  -0.966  1.00  0.00     0.031 C 
ATOM     57  C   UNL     1       1.340  16.629   4.882  1.00  0.00     0.029 A 
ATOM     58  C   UNL     1       1.486  15.930   3.694  1.00  0.00     0.049 A 
ATOM     59  H   UNL     1       2.402  14.058   3.360  1.00  0.00     0.167 HD
ATOM     60  C   UNL     1       1.230  15.559   1.255  1.00  0.00     0.074 A 
ATOM     61  C   UNL     1       0.782  15.945  -0.067  1.00  0.00     0.031 C 
ATOM     62  C   UNL     1       1.039  16.303   2.374  1.00  0.00     0.031 A 
BRANCH  49  63
ATOM     63  C   UNL     1       3.275  13.721   7.537  1.00  0.00    -0.014 A 
ATOM     64  C   UNL     1       4.545  13.818   8.136  1.00  0.00     0.010 A 
ATOM     65  C   UNL     1       2.133  13.732   8.361  1.00  0.00     0.010 A 
ATOM     66  C   UNL     1       4.670  13.873   9.528  1.00  0.00     0.020 A 
ATOM     67  C   UNL     1       2.252  13.825   9.750  1.00  0.00     0.020 A 
ATOM     68  C   UNL     1       3.522  13.874  10.326  1.00  0.00     0.054 A 
BRANCH  68  69
ATOM     69  S   UNL     1       3.717  13.957  12.127  1.00  0.00     0.124 S 
ATOM     70  O   UNL     1       4.291  12.648  12.429  1.00  0.00    -0.237 OA
ATOM     71  O   UNL     1       4.618  15.093  12.298  1.00  0.00    -0.237 OA
ATOM     72  O   UNL     1       2.356  14.166  12.615  1.00  0.00    -0.744 OA
ENDBRANCH  68  69
ENDBRANCH  49  63
BRANCH  50  73
ATOM     73  C   UNL     1       2.146  12.653  -2.343  1.00  0.00    -0.014 A 
ATOM     74  C   UNL     1       2.770  13.513  -3.263  1.00  0.00     0.010 A 
ATOM     75  C   UNL     1       1.339  11.605  -2.826  1.00  0.00     0.010 A 
ATOM     76  C   UNL     1       2.585  13.334  -4.637  1.00  0.00     0.020 A 
ATOM     77  C   UNL     1       1.180  11.402  -4.199  1.00  0.00     0.020 A 
ATOM     78  C   UNL     1       1.799  12.273  -5.096  1.00  0.00     0.054 A 
BRANCH  78  79
ATOM     79  S   UNL     1       1.635  12.018  -6.885  1.00  0.00     0.124 S 
ATOM     80  O   UNL     1       0.830  13.168  -7.284  1.00  0.00    -0.237 OA
ATOM     81  O   UNL     1       3.026  12.031  -7.329  1.00  0.00    -0.237 OA
ATOM     82  O   UNL     1       0.969  10.722  -6.985  1.00  0.00    -0.744 OA
ENDBRANCH  78  79
ENDBRANCH  50  73
BRANCH  62  83
ATOM     83  C   UNL     1       0.353  17.638   2.218  1.00  0.00    -0.014 A 
ATOM     84  C   UNL     1      -1.010  17.735   1.886  1.00  0.00     0.010 A 
ATOM     85  C   UNL     1       1.079  18.818   2.466  1.00  0.00     0.010 A 
ATOM     86  C   UNL     1      -1.624  18.986   1.773  1.00  0.00     0.020 A 
ATOM     87  C   UNL     1       0.461  20.069   2.391  1.00  0.00     0.020 A 
ATOM     88  C   UNL     1      -0.885  20.145   2.031  1.00  0.00     0.054 A 
BRANCH  88  89
ATOM     89  S   UNL     1      -1.719  21.752   1.924  1.00  0.00     0.124 S 
ATOM     90  O   UNL     1      -1.955  21.878   0.488  1.00  0.00    -0.237 OA
ATOM     91  O   UNL     1      -2.911  21.547   2.742  1.00  0.00    -0.237 OA
ATOM     92  O   UNL     1      -0.743  22.688   2.478  1.00  0.00    -0.744 OA
ENDBRANCH  88  89
ENDBRANCH  62  83
ENDBRANCH  36  37
ENDBRANCH  29  31
ENDBRANCH  28  29
ENDBRANCH  27  28
ENDBRANCH  26  27
ENDBRANCH  25  26
ENDBRANCH   1  25
TORSDOF 21
