REMARK SMILES CSCC[C@H](NC(=O)Cc1c(C)c2ccc(O)cc2oc1=O)C(=O)OCCOCCOC(=O)c1ccc(-c2c3nc(c(-c4ccc(S(=O)(=O)[O-])cc4)c4ccc([nH]4)c(-c4ccc(S(=O)(=O)[O-])cc4)c4nc(c(-c5ccc(S(=O)(=O)[O-])cc5)c5ccc2[nH]5)C=C4)C=C3)cc1
REMARK SMILES IDX 27 1 26 2 25 3 23 4 24 5 5 6 4 7 3 8 2 9 1 10 6 11 7 12 8 14
REMARK SMILES IDX 9 15 10 16 11 17 21 18 12 19 13 20 20 21 22 22 14 23 19 24
REMARK SMILES IDX 15 25 18 26 16 27 17 28 28 30 29 31 30 32 31 33 32 34 33 35
REMARK SMILES IDX 34 36 35 37 93 38 36 39 92 40 37 41 38 42 39 43 86 44 40 45
REMARK SMILES IDX 91 46 85 47 87 48 41 49 90 50 84 51 83 52 42 54 72 55 53 56
REMARK SMILES IDX 71 57 54 58 57 59 70 60 88 61 55 62 56 63 69 65 89 66 58 67
REMARK SMILES IDX 43 68 44 69 52 70 45 71 51 72 46 73 47 74 48 75 49 76 50 77
REMARK SMILES IDX 73 78 74 79 82 80 75 81 81 82 76 83 77 84 78 85 79 86 80 87
REMARK SMILES IDX 59 88 60 89 68 90 61 91 67 92 62 93 63 94 64 95 65 96 66 97
REMARK H PARENT 6 13 17 29 87 53 57 64
REMARK Flexibility Score: inf
ROOT
ATOM      1  C   UNL     1      -0.963   5.966   3.011  1.00  0.00     0.202 C 
ENDROOT
BRANCH   1   2
ATOM      2  C   UNL     1       0.508   5.575   2.912  1.00  0.00     0.261 C 
BRANCH   2   3
ATOM      3  O   UNL     1       0.752   4.954   1.634  1.00  0.00    -0.462 OA
BRANCH   3   4
ATOM      4  C   UNL     1       1.402   3.771   1.683  1.00  0.00     0.328 C 
ATOM      5  O   UNL     1       1.915   3.303   2.696  1.00  0.00    -0.250 OA
BRANCH   4   6
ATOM      6  C   UNL     1       1.498   3.041   0.324  1.00  0.00     0.193 C 
BRANCH   6   7
ATOM      7  C   UNL     1       2.954   3.079  -0.162  1.00  0.00     0.048 C 
BRANCH   7   8
ATOM      8  C   UNL     1       3.359   4.188  -1.130  1.00  0.00     0.072 C 
BRANCH   8   9
ATOM      9  S   UNL     1       3.183   5.876  -0.480  1.00  0.00    -0.165 SA
ATOM     10  C   UNL     1       1.594   6.358  -1.205  1.00  0.00     0.085 C 
ENDBRANCH   8   9
ENDBRANCH   7   8
ENDBRANCH   6   7
BRANCH   6  11
ATOM     11  N   UNL     1       0.533   3.183  -0.773  1.00  0.00    -0.342 N 
ATOM     12  C   UNL     1      -0.399   2.279  -1.221  1.00  0.00     0.225 C 
ATOM     13  H   UNL     1       0.557   4.042  -1.252  1.00  0.00     0.164 HD
ATOM     14  O   UNL     1      -0.717   2.348  -2.409  1.00  0.00    -0.275 OA
BRANCH  12  15
ATOM     15  C   UNL     1      -1.080   1.283  -0.269  1.00  0.00     0.143 C 
BRANCH  15  16
ATOM     16  C   UNL     1      -0.376  -0.044  -0.128  1.00  0.00     0.051 A 
ATOM     17  C   UNL     1       0.448  -0.376   0.889  1.00  0.00    -0.029 A 
ATOM     18  C   UNL     1      -0.796  -1.101  -1.104  1.00  0.00     0.340 A 
ATOM     19  C   UNL     1       0.614   0.376   2.186  1.00  0.00     0.046 C 
ATOM     20  C   UNL     1       1.265  -1.583   0.753  1.00  0.00     0.021 A 
ATOM     21  O   UNL     1      -0.286  -2.385  -0.916  1.00  0.00    -0.422 OA
ATOM     22  O   UNL     1      -1.657  -0.891  -1.952  1.00  0.00    -0.246 OA
ATOM     23  C   UNL     1       2.491  -1.750   1.410  1.00  0.00     0.016 A 
ATOM     24  C   UNL     1       0.822  -2.595  -0.085  1.00  0.00     0.142 A 
ATOM     25  C   UNL     1       3.199  -2.946   1.302  1.00  0.00     0.047 A 
ATOM     26  C   UNL     1       1.483  -3.818  -0.163  1.00  0.00     0.094 A 
ATOM     27  C   UNL     1       2.666  -3.985   0.548  1.00  0.00     0.119 A 
BRANCH  27  28
ATOM     28  O   UNL     1       3.302  -5.188   0.474  1.00  0.00    -0.508 OA
ATOM     29  H   UNL     1       4.101  -5.326   0.944  1.00  0.00     0.293 HD
ENDBRANCH  27  28
ENDBRANCH  15  16
ENDBRANCH  12  15
ENDBRANCH   6  11
ENDBRANCH   4   6
ENDBRANCH   3   4
ENDBRANCH   2   3
ENDBRANCH   1   2
BRANCH   1  30
ATOM     30  O   UNL     1      -1.906   4.894   3.002  1.00  0.00    -0.374 OA
BRANCH  30  31
ATOM     31  C   UNL     1      -2.076   4.166   1.788  1.00  0.00     0.202 C 
BRANCH  31  32
ATOM     32  C   UNL     1      -2.840   4.832   0.637  1.00  0.00     0.261 C 
BRANCH  32  33
ATOM     33  O   UNL     1      -2.164   5.984   0.106  1.00  0.00    -0.460 OA
BRANCH  33  34
ATOM     34  C   UNL     1      -2.711   7.170   0.480  1.00  0.00     0.338 C 
ATOM     35  O   UNL     1      -3.700   7.340   1.165  1.00  0.00    -0.246 OA
BRANCH  34  36
ATOM     36  C   UNL     1      -1.784   8.264   0.129  1.00  0.00     0.060 A 
ATOM     37  C   UNL     1      -1.382   9.130   1.156  1.00  0.00     0.016 A 
ATOM     38  C   UNL     1      -1.365   8.473  -1.185  1.00  0.00     0.016 A 
ATOM     39  C   UNL     1      -0.597  10.241   0.867  1.00  0.00     0.010 A 
ATOM     40  C   UNL     1      -0.586   9.596  -1.476  1.00  0.00     0.010 A 
ATOM     41  C   UNL     1      -0.239  10.507  -0.459  1.00  0.00    -0.014 A 
BRANCH  41  42
ATOM     42  C   UNL     1       0.290  11.845  -0.815  1.00  0.00     0.031 A 
ATOM     43  C   UNL     1      -0.657  12.833  -1.443  1.00  0.00     0.074 A 
ATOM     44  C   UNL     1       1.564  12.190  -0.557  1.00  0.00     0.049 A 
ATOM     45  N   UNL     1      -0.417  14.031  -1.907  1.00  0.00    -0.248 NA
ATOM     46  C   UNL     1      -2.062  12.408  -1.570  1.00  0.00     0.031 C 
ATOM     47  C   UNL     1       2.555  11.344   0.106  1.00  0.00     0.029 A 
ATOM     48  N   UNL     1       2.241  13.351  -0.833  1.00  0.00    -0.354 N 
ATOM     49  C   UNL     1      -1.633  14.491  -2.402  1.00  0.00     0.074 A 
ATOM     50  C   UNL     1      -2.600  13.434  -2.211  1.00  0.00     0.031 C 
ATOM     51  C   UNL     1       3.719  12.014   0.179  1.00  0.00     0.029 A 
ATOM     52  C   UNL     1       3.567  13.315  -0.471  1.00  0.00     0.049 A 
ATOM     53  H   UNL     1       1.818  14.135  -1.252  1.00  0.00     0.167 HD
ATOM     54  C   UNL     1      -1.919  15.689  -2.961  1.00  0.00     0.031 A 
ATOM     55  C   UNL     1       4.549  14.219  -0.667  1.00  0.00     0.031 A 
ATOM     56  C   UNL     1      -0.951  16.735  -3.150  1.00  0.00     0.049 A 
ATOM     57  C   UNL     1       4.225  15.516  -1.365  1.00  0.00     0.074 A 
ATOM     58  C   UNL     1      -1.140  17.990  -3.699  1.00  0.00     0.029 A 
ATOM     59  N   UNL     1       0.387  16.646  -2.799  1.00  0.00    -0.354 N 
ATOM     60  N   UNL     1       3.071  15.941  -1.825  1.00  0.00    -0.248 NA
ATOM     61  C   UNL     1       5.334  16.461  -1.564  1.00  0.00     0.031 C 
ATOM     62  C   UNL     1       0.099  18.637  -3.738  1.00  0.00     0.029 A 
ATOM     63  C   UNL     1       1.042  17.816  -3.140  1.00  0.00     0.049 A 
ATOM     64  H   UNL     1       0.808  15.866  -2.370  1.00  0.00     0.167 HD
ATOM     65  C   UNL     1       3.308  17.218  -2.326  1.00  0.00     0.074 A 
ATOM     66  C   UNL     1       4.713  17.496  -2.113  1.00  0.00     0.031 C 
ATOM     67  C   UNL     1       2.438  18.085  -2.902  1.00  0.00     0.031 A 
BRANCH  54  68
ATOM     68  C   UNL     1      -3.327  15.915  -3.445  1.00  0.00    -0.014 A 
ATOM     69  C   UNL     1      -4.401  16.047  -2.546  1.00  0.00     0.010 A 
ATOM     70  C   UNL     1      -3.573  16.032  -4.826  1.00  0.00     0.010 A 
ATOM     71  C   UNL     1      -5.699  16.252  -3.021  1.00  0.00     0.020 A 
ATOM     72  C   UNL     1      -4.865  16.270  -5.303  1.00  0.00     0.020 A 
ATOM     73  C   UNL     1      -5.923  16.363  -4.397  1.00  0.00     0.054 A 
BRANCH  73  74
ATOM     74  S   UNL     1      -7.614  16.657  -4.982  1.00  0.00     0.124 S 
ATOM     75  O   UNL     1      -8.254  15.372  -4.709  1.00  0.00    -0.237 OA
ATOM     76  O   UNL     1      -8.053  17.768  -4.142  1.00  0.00    -0.237 OA
ATOM     77  O   UNL     1      -7.441  16.978  -6.396  1.00  0.00    -0.744 OA
ENDBRANCH  73  74
ENDBRANCH  54  68
BRANCH  55  78
ATOM     78  C   UNL     1       5.937  13.922  -0.214  1.00  0.00    -0.014 A 
ATOM     79  C   UNL     1       6.528  14.658   0.828  1.00  0.00     0.010 A 
ATOM     80  C   UNL     1       6.681  12.900  -0.833  1.00  0.00     0.010 A 
ATOM     81  C   UNL     1       7.841  14.391   1.229  1.00  0.00     0.020 A 
ATOM     82  C   UNL     1       7.982  12.608  -0.413  1.00  0.00     0.020 A 
ATOM     83  C   UNL     1       8.559  13.365   0.608  1.00  0.00     0.054 A 
BRANCH  83  84
ATOM     84  S   UNL     1      10.244  13.008   1.178  1.00  0.00     0.124 S 
ATOM     85  O   UNL     1      10.982  14.169   0.692  1.00  0.00    -0.237 OA
ATOM     86  O   UNL     1      10.074  12.925   2.627  1.00  0.00    -0.237 OA
ATOM     87  O   UNL     1      10.566  11.742   0.523  1.00  0.00    -0.744 OA
ENDBRANCH  83  84
ENDBRANCH  55  78
BRANCH  67  88
ATOM     88  C   UNL     1       2.948  19.451  -3.283  1.00  0.00    -0.014 A 
ATOM     89  C   UNL     1       3.806  19.641  -4.380  1.00  0.00     0.010 A 
ATOM     90  C   UNL     1       2.476  20.576  -2.580  1.00  0.00     0.010 A 
ATOM     91  C   UNL     1       4.196  20.930  -4.754  1.00  0.00     0.020 A 
ATOM     92  C   UNL     1       2.837  21.866  -2.970  1.00  0.00     0.020 A 
ATOM     93  C   UNL     1       3.704  22.035  -4.051  1.00  0.00     0.054 A 
BRANCH  93  94
ATOM     94  S   UNL     1       4.168  23.700  -4.602  1.00  0.00     0.124 S 
ATOM     95  O   UNL     1       5.575  23.767  -4.216  1.00  0.00    -0.237 OA
ATOM     96  O   UNL     1       3.913  23.642  -6.039  1.00  0.00    -0.237 OA
ATOM     97  O   UNL     1       3.273  24.577  -3.851  1.00  0.00    -0.744 OA
ENDBRANCH  93  94
ENDBRANCH  67  88
ENDBRANCH  41  42
ENDBRANCH  34  36
ENDBRANCH  33  34
ENDBRANCH  32  33
ENDBRANCH  31  32
ENDBRANCH  30  31
ENDBRANCH   1  30
TORSDOF 24
