REMARK SMILES COc1cccc(NC(=O)c2nccnc2C(=O)OCCOCCOC(=O)c2ccc(-c3c4nc(c(-c5ccc(S(=O)(=O)[O-])cc5)c5ccc([nH]5)c(-c5ccc(S(=O)(=O)[O-])cc5)c5nc(c(-c6ccc(S(=O)(=O)[O-])cc6)c6ccc3[nH]6)C=C5)C=C4)cc2)c1
REMARK SMILES IDX 22 1 21 2 20 3 19 4 17 5 18 6 16 7 11 8 12 9 13 10 15 11
REMARK SMILES IDX 14 12 9 13 8 14 10 16 7 17 3 18 4 19 88 20 5 21 6 22 2 23
REMARK SMILES IDX 1 24 23 25 24 26 25 27 26 28 27 29 28 30 29 31 87 32 30 33
REMARK SMILES IDX 86 34 31 35 32 36 33 37 80 38 34 39 85 40 79 41 81 42 35 43
REMARK SMILES IDX 84 44 78 45 77 46 36 48 66 49 47 50 65 51 48 52 51 53 64 54
REMARK SMILES IDX 82 55 49 56 50 57 63 59 83 60 52 61 37 62 38 63 46 64 39 65
REMARK SMILES IDX 45 66 40 67 41 68 42 69 43 70 44 71 67 72 68 73 76 74 69 75
REMARK SMILES IDX 75 76 70 77 71 78 72 79 73 80 74 81 53 82 54 83 62 84 55 85
REMARK SMILES IDX 61 86 56 87 57 88 58 89 59 90 60 91
REMARK H PARENT 8 15 81 47 51 58
REMARK Flexibility Score: inf
ROOT
ATOM      1  O   UNL     1       5.821  -8.317  -4.782  1.00  0.00    -0.374 OA
ENDROOT
BRANCH   1   2
ATOM      2  C   UNL     1       6.812  -7.305  -4.598  1.00  0.00     0.202 C 
BRANCH   2   3
ATOM      3  C   UNL     1       6.814  -6.177  -5.630  1.00  0.00     0.261 C 
BRANCH   3   4
ATOM      4  O   UNL     1       5.563  -5.468  -5.614  1.00  0.00    -0.458 OA
BRANCH   4   5
ATOM      5  C   UNL     1       5.046  -5.201  -6.837  1.00  0.00     0.359 C 
ATOM      6  O   UNL     1       5.576  -5.446  -7.913  1.00  0.00    -0.244 OA
BRANCH   5   7
ATOM      7  C   UNL     1       3.640  -4.740  -6.742  1.00  0.00     0.179 A 
ATOM      8  C   UNL     1       3.195  -3.700  -5.938  1.00  0.00     0.161 A 
ATOM      9  N   UNL     1       1.919  -3.212  -6.056  1.00  0.00    -0.247 NA
ATOM     10  C   UNL     1       1.097  -3.858  -6.912  1.00  0.00     0.132 A 
ATOM     11  N   UNL     1       2.782  -5.405  -7.588  1.00  0.00    -0.245 NA
ATOM     12  C   UNL     1       1.514  -4.950  -7.642  1.00  0.00     0.132 A 
BRANCH   8  13
ATOM     13  C   UNL     1       4.064  -3.014  -4.954  1.00  0.00     0.276 C 
ATOM     14  N   UNL     1       3.605  -2.576  -3.721  1.00  0.00    -0.320 N 
ATOM     15  H   UNL     1       4.262  -2.024  -3.239  1.00  0.00     0.170 HD
ATOM     16  O   UNL     1       5.223  -2.751  -5.278  1.00  0.00    -0.267 OA
BRANCH  14  17
ATOM     17  C   UNL     1       2.397  -2.750  -3.009  1.00  0.00     0.045 A 
ATOM     18  C   UNL     1       0.943  -1.896  -1.243  1.00  0.00     0.120 A 
ATOM     19  C   UNL     1      -0.018  -2.849  -1.577  1.00  0.00     0.046 A 
ATOM     20  C   UNL     1       2.150  -1.858  -1.950  1.00  0.00     0.072 A 
ATOM     21  C   UNL     1       0.236  -3.774  -2.584  1.00  0.00     0.006 A 
ATOM     22  C   UNL     1       1.451  -3.741  -3.273  1.00  0.00     0.026 A 
BRANCH  18  23
ATOM     23  O   UNL     1       0.585  -1.077  -0.208  1.00  0.00    -0.497 OA
ATOM     24  C   UNL     1       1.338   0.119  -0.045  1.00  0.00     0.278 C 
ENDBRANCH  18  23
ENDBRANCH  14  17
ENDBRANCH   8  13
ENDBRANCH   5   7
ENDBRANCH   4   5
ENDBRANCH   3   4
ENDBRANCH   2   3
ENDBRANCH   1   2
BRANCH   1  25
ATOM     25  C   UNL     1       4.468  -7.985  -4.471  1.00  0.00     0.202 C 
BRANCH  25  26
ATOM     26  C   UNL     1       4.102  -7.907  -2.984  1.00  0.00     0.261 C 
BRANCH  26  27
ATOM     27  O   UNL     1       4.785  -6.848  -2.290  1.00  0.00    -0.460 OA
BRANCH  27  28
ATOM     28  C   UNL     1       5.715  -7.273  -1.401  1.00  0.00     0.338 C 
ATOM     29  O   UNL     1       5.978  -8.434  -1.112  1.00  0.00    -0.246 OA
BRANCH  28  30
ATOM     30  C   UNL     1       6.529  -6.146  -0.907  1.00  0.00     0.060 A 
ATOM     31  C   UNL     1       7.922  -6.289  -0.963  1.00  0.00     0.016 A 
ATOM     32  C   UNL     1       5.953  -5.032  -0.292  1.00  0.00     0.016 A 
ATOM     33  C   UNL     1       8.744  -5.357  -0.336  1.00  0.00     0.010 A 
ATOM     34  C   UNL     1       6.783  -4.100   0.344  1.00  0.00     0.010 A 
ATOM     35  C   UNL     1       8.177  -4.288   0.368  1.00  0.00    -0.014 A 
BRANCH  35  36
ATOM     36  C   UNL     1       9.039  -3.492   1.277  1.00  0.00     0.031 A 
ATOM     37  C   UNL     1       9.049  -3.823   2.746  1.00  0.00     0.074 A 
ATOM     38  C   UNL     1       9.842  -2.525   0.801  1.00  0.00     0.049 A 
ATOM     39  N   UNL     1       9.757  -3.294   3.711  1.00  0.00    -0.248 NA
ATOM     40  C   UNL     1       8.135  -4.890   3.184  1.00  0.00     0.031 C 
ATOM     41  C   UNL     1       9.945  -2.126  -0.601  1.00  0.00     0.029 A 
ATOM     42  N   UNL     1      10.727  -1.704   1.454  1.00  0.00    -0.354 N 
ATOM     43  C   UNL     1       9.368  -3.955   4.870  1.00  0.00     0.074 A 
ATOM     44  C   UNL     1       8.339  -4.900   4.492  1.00  0.00     0.031 C 
ATOM     45  C   UNL     1      10.838  -1.127  -0.704  1.00  0.00     0.029 A 
ATOM     46  C   UNL     1      11.357  -0.807   0.626  1.00  0.00     0.049 A 
ATOM     47  H   UNL     1      10.893  -1.752   2.423  1.00  0.00     0.167 HD
ATOM     48  C   UNL     1       9.826  -3.797   6.136  1.00  0.00     0.031 A 
ATOM     49  C   UNL     1      12.245   0.166   0.907  1.00  0.00     0.031 A 
ATOM     50  C   UNL     1      10.838  -2.848   6.516  1.00  0.00     0.049 A 
ATOM     51  C   UNL     1      12.727   0.346   2.321  1.00  0.00     0.074 A 
ATOM     52  C   UNL     1      11.388  -2.627   7.766  1.00  0.00     0.029 A 
ATOM     53  N   UNL     1      11.445  -1.951   5.648  1.00  0.00    -0.354 N 
ATOM     54  N   UNL     1      12.380  -0.316   3.400  1.00  0.00    -0.248 NA
ATOM     55  C   UNL     1      13.736   1.389   2.551  1.00  0.00     0.031 C 
ATOM     56  C   UNL     1      12.292  -1.562   7.664  1.00  0.00     0.029 A 
ATOM     57  C   UNL     1      12.346  -1.158   6.339  1.00  0.00     0.049 A 
ATOM     58  H   UNL     1      11.261  -1.887   4.683  1.00  0.00     0.167 HD
ATOM     59  C   UNL     1      13.146   0.214   4.434  1.00  0.00     0.074 A 
ATOM     60  C   UNL     1      13.981   1.244   3.847  1.00  0.00     0.031 C 
ATOM     61  C   UNL     1      13.162  -0.127   5.747  1.00  0.00     0.031 A 
BRANCH  48  62
ATOM     62  C   UNL     1       9.187  -4.646   7.204  1.00  0.00    -0.014 A 
ATOM     63  C   UNL     1       9.409  -6.034   7.269  1.00  0.00     0.010 A 
ATOM     64  C   UNL     1       8.330  -4.046   8.144  1.00  0.00     0.010 A 
ATOM     65  C   UNL     1       8.733  -6.816   8.210  1.00  0.00     0.020 A 
ATOM     66  C   UNL     1       7.675  -4.820   9.105  1.00  0.00     0.020 A 
ATOM     67  C   UNL     1       7.859  -6.204   9.114  1.00  0.00     0.054 A 
BRANCH  67  68
ATOM     68  S   UNL     1       6.966  -7.240  10.305  1.00  0.00     0.124 S 
ATOM     69  O   UNL     1       5.931  -7.838   9.465  1.00  0.00    -0.237 OA
ATOM     70  O   UNL     1       8.000  -8.158  10.775  1.00  0.00    -0.237 OA
ATOM     71  O   UNL     1       6.485  -6.286  11.301  1.00  0.00    -0.744 OA
ENDBRANCH  67  68
ENDBRANCH  48  62
BRANCH  49  72
ATOM     72  C   UNL     1      12.733   1.041  -0.192  1.00  0.00    -0.014 A 
ATOM     73  C   UNL     1      14.031   0.892  -0.710  1.00  0.00     0.010 A 
ATOM     74  C   UNL     1      11.870   1.992  -0.767  1.00  0.00     0.010 A 
ATOM     75  C   UNL     1      14.454   1.674  -1.789  1.00  0.00     0.020 A 
ATOM     76  C   UNL     1      12.282   2.760  -1.859  1.00  0.00     0.020 A 
ATOM     77  C   UNL     1      13.573   2.597  -2.363  1.00  0.00     0.054 A 
BRANCH  77  78
ATOM     78  S   UNL     1      14.109   3.529  -3.825  1.00  0.00     0.124 S 
ATOM     79  O   UNL     1      15.024   4.506  -3.245  1.00  0.00    -0.237 OA
ATOM     80  O   UNL     1      14.728   2.494  -4.650  1.00  0.00    -0.237 OA
ATOM     81  O   UNL     1      12.862   4.075  -4.357  1.00  0.00    -0.744 OA
ENDBRANCH  77  78
ENDBRANCH  49  72
BRANCH  61  82
ATOM     82  C   UNL     1      14.134   0.599   6.641  1.00  0.00    -0.014 A 
ATOM     83  C   UNL     1      13.925   1.938   7.014  1.00  0.00     0.010 A 
ATOM     84  C   UNL     1      15.252  -0.087   7.149  1.00  0.00     0.010 A 
ATOM     85  C   UNL     1      14.838   2.590   7.850  1.00  0.00     0.020 A 
ATOM     86  C   UNL     1      16.152   0.552   8.005  1.00  0.00     0.020 A 
ATOM     87  C   UNL     1      15.949   1.893   8.336  1.00  0.00     0.054 A 
BRANCH  87  88
ATOM     88  S   UNL     1      17.106   2.749   9.440  1.00  0.00     0.124 S 
ATOM     89  O   UNL     1      17.852   3.588   8.506  1.00  0.00    -0.237 OA
ATOM     90  O   UNL     1      16.215   3.463  10.352  1.00  0.00    -0.237 OA
ATOM     91  O   UNL     1      17.870   1.663  10.050  1.00  0.00    -0.744 OA
ENDBRANCH  87  88
ENDBRANCH  61  82
ENDBRANCH  35  36
ENDBRANCH  28  30
ENDBRANCH  27  28
ENDBRANCH  26  27
ENDBRANCH  25  26
ENDBRANCH   1  25
TORSDOF 20
