REMARK SMILES CCc1ccc(C[N@H+]2CC[C@@H](C(=O)OCCOCCOC(=O)c3ccc(-c4c5nc(c(-c6ccc(S(=O)(=O)[O-])cc6)c6ccc([nH]6)c(-c6ccc(S(=O)(=O)[O-])cc6)c6nc(c(-c7ccc(S(=O)(=O)[O-])cc7)c7ccc4[nH]7)C=C6)C=C5)cc3)[C@@H]2C)s1
REMARK SMILES IDX 17 1 16 2 15 3 14 4 12 5 13 6 11 7 8 8 9 9 83 10 10 12 84 13
REMARK SMILES IDX 7 14 6 15 3 16 4 17 85 18 5 19 2 20 1 21 18 22 19 23 20 24
REMARK SMILES IDX 21 25 22 26 23 27 24 28 82 29 25 30 81 31 26 32 27 33 28 34
REMARK SMILES IDX 75 35 29 36 80 37 74 38 76 39 30 40 79 41 73 42 72 43 31 45
REMARK SMILES IDX 61 46 42 47 60 48 43 49 46 50 59 51 77 52 44 53 45 54 58 56
REMARK SMILES IDX 78 57 47 58 32 59 33 60 41 61 34 62 40 63 35 64 36 65 37 66
REMARK SMILES IDX 38 67 39 68 62 69 63 70 71 71 64 72 70 73 65 74 66 75 67 76
REMARK SMILES IDX 68 77 69 78 48 79 49 80 57 81 50 82 56 83 51 84 52 85 53 86
REMARK SMILES IDX 54 87 55 88
REMARK H PARENT 8 11 76 44 46 55
REMARK Flexibility Score: inf
ROOT
ATOM      1  O   UNL     1      -2.956  -4.661  -2.230  1.00  0.00    -0.374 OA
ENDROOT
BRANCH   1   2
ATOM      2  C   UNL     1      -2.321  -3.432  -1.876  1.00  0.00     0.202 C 
BRANCH   2   3
ATOM      3  C   UNL     1      -2.598  -2.938  -0.454  1.00  0.00     0.261 C 
BRANCH   3   4
ATOM      4  O   UNL     1      -1.982  -3.794   0.529  1.00  0.00    -0.463 OA
BRANCH   4   5
ATOM      5  C   UNL     1      -2.805  -4.392   1.424  1.00  0.00     0.315 C 
ATOM      6  O   UNL     1      -4.012  -4.185   1.505  1.00  0.00    -0.252 OA
BRANCH   5   7
ATOM      7  C   UNL     1      -2.092  -5.336   2.372  1.00  0.00     0.162 C 
ATOM      8  N   UNL     1       0.105  -6.183   2.921  1.00  0.00    -0.328 N 
ATOM      9  C   UNL     1      -0.477  -5.531   4.096  1.00  0.00     0.263 C 
ATOM     10  C   UNL     1      -0.895  -6.138   1.832  1.00  0.00     0.195 C 
ATOM     11  H   UNL     1       0.301  -7.159   3.144  1.00  0.00     0.348 HD
ATOM     12  C   UNL     1      -1.538  -4.587   3.569  1.00  0.00     0.083 C 
ATOM     13  C   UNL     1      -1.288  -7.584   1.508  1.00  0.00     0.076 C 
BRANCH   8  14
ATOM     14  C   UNL     1       1.451  -5.702   2.552  1.00  0.00     0.310 C 
BRANCH  14  15
ATOM     15  C   UNL     1       1.574  -4.225   2.285  1.00  0.00     0.059 A 
ATOM     16  C   UNL     1       1.290  -1.977   1.298  1.00  0.00     0.005 A 
ATOM     17  C   UNL     1       1.790  -1.921   2.583  1.00  0.00     0.016 A 
ATOM     18  S   UNL     1       1.276  -3.589   0.726  1.00  0.00    -0.139 S 
ATOM     19  C   UNL     1       1.963  -3.220   3.150  1.00  0.00     0.021 A 
BRANCH  16  20
ATOM     20  C   UNL     1       0.788  -0.894   0.391  1.00  0.00     0.043 C 
ATOM     21  C   UNL     1       1.146   0.514   0.828  1.00  0.00     0.010 C 
ENDBRANCH  16  20
ENDBRANCH  14  15
ENDBRANCH   8  14
ENDBRANCH   5   7
ENDBRANCH   4   5
ENDBRANCH   3   4
ENDBRANCH   2   3
ENDBRANCH   1   2
BRANCH   1  22
ATOM     22  C   UNL     1      -2.363  -5.854  -1.724  1.00  0.00     0.202 C 
BRANCH  22  23
ATOM     23  C   UNL     1      -1.138  -6.381  -2.479  1.00  0.00     0.261 C 
BRANCH  23  24
ATOM     24  O   UNL     1       0.023  -5.542  -2.332  1.00  0.00    -0.460 OA
BRANCH  24  25
ATOM     25  C   UNL     1       0.344  -4.813  -3.427  1.00  0.00     0.338 C 
ATOM     26  O   UNL     1      -0.261  -4.796  -4.495  1.00  0.00    -0.246 OA
BRANCH  25  27
ATOM     27  C   UNL     1       1.469  -3.898  -3.150  1.00  0.00     0.060 A 
ATOM     28  C   UNL     1       1.343  -2.564  -3.556  1.00  0.00     0.016 A 
ATOM     29  C   UNL     1       2.668  -4.350  -2.592  1.00  0.00     0.016 A 
ATOM     30  C   UNL     1       2.428  -1.691  -3.451  1.00  0.00     0.010 A 
ATOM     31  C   UNL     1       3.755  -3.470  -2.485  1.00  0.00     0.010 A 
ATOM     32  C   UNL     1       3.654  -2.146  -2.947  1.00  0.00    -0.014 A 
BRANCH  32  33
ATOM     33  C   UNL     1       4.860  -1.277  -3.036  1.00  0.00     0.031 A 
ATOM     34  C   UNL     1       5.851  -1.511  -4.141  1.00  0.00     0.074 A 
ATOM     35  C   UNL     1       5.062  -0.263  -2.173  1.00  0.00     0.049 A 
ATOM     36  N   UNL     1       6.969  -0.881  -4.390  1.00  0.00    -0.248 NA
ATOM     37  C   UNL     1       5.544  -2.596  -5.088  1.00  0.00     0.031 C 
ATOM     38  C   UNL     1       4.167   0.082  -1.077  1.00  0.00     0.029 A 
ATOM     39  N   UNL     1       6.073   0.662  -2.076  1.00  0.00    -0.354 N 
ATOM     40  C   UNL     1       7.499  -1.487  -5.521  1.00  0.00     0.074 A 
ATOM     41  C   UNL     1       6.600  -2.560  -5.889  1.00  0.00     0.031 C 
ATOM     42  C   UNL     1       4.655   1.148  -0.422  1.00  0.00     0.029 A 
ATOM     43  C   UNL     1       5.926   1.535  -1.021  1.00  0.00     0.049 A 
ATOM     44  H   UNL     1       6.832   0.697  -2.701  1.00  0.00     0.167 HD
ATOM     45  C   UNL     1       8.626  -1.169  -6.201  1.00  0.00     0.031 A 
ATOM     46  C   UNL     1       6.729   2.519  -0.570  1.00  0.00     0.031 A 
ATOM     47  C   UNL     1       9.530  -0.115  -5.826  1.00  0.00     0.049 A 
ATOM     48  C   UNL     1       8.021   2.792  -1.295  1.00  0.00     0.074 A 
ATOM     49  C   UNL     1      10.705   0.269  -6.449  1.00  0.00     0.029 A 
ATOM     50  N   UNL     1       9.366   0.723  -4.734  1.00  0.00    -0.354 N 
ATOM     51  N   UNL     1       8.495   2.218  -2.375  1.00  0.00    -0.248 NA
ATOM     52  C   UNL     1       8.884   3.848  -0.746  1.00  0.00     0.031 C 
ATOM     53  C   UNL     1      11.276   1.306  -5.706  1.00  0.00     0.029 A 
ATOM     54  C   UNL     1      10.425   1.611  -4.657  1.00  0.00     0.049 A 
ATOM     55  H   UNL     1       8.608   0.691  -4.106  1.00  0.00     0.167 HD
ATOM     56  C   UNL     1       9.693   2.867  -2.652  1.00  0.00     0.074 A 
ATOM     57  C   UNL     1       9.861   3.888  -1.640  1.00  0.00     0.031 C 
ATOM     58  C   UNL     1      10.575   2.635  -3.654  1.00  0.00     0.031 A 
BRANCH  45  59
ATOM     59  C   UNL     1       8.951  -1.982  -7.423  1.00  0.00    -0.014 A 
ATOM     60  C   UNL     1       8.207  -1.831  -8.607  1.00  0.00     0.010 A 
ATOM     61  C   UNL     1      10.052  -2.857  -7.410  1.00  0.00     0.010 A 
ATOM     62  C   UNL     1       8.548  -2.555  -9.752  1.00  0.00     0.020 A 
ATOM     63  C   UNL     1      10.413  -3.562  -8.561  1.00  0.00     0.020 A 
ATOM     64  C   UNL     1       9.652  -3.412  -9.723  1.00  0.00     0.054 A 
BRANCH  64  65
ATOM     65  S   UNL     1      10.104  -4.293 -11.242  1.00  0.00     0.124 S 
ATOM     66  O   UNL     1       9.016  -5.260 -11.365  1.00  0.00    -0.237 OA
ATOM     67  O   UNL     1      10.111  -3.225 -12.239  1.00  0.00    -0.237 OA
ATOM     68  O   UNL     1      11.413  -4.865 -10.936  1.00  0.00    -0.744 OA
ENDBRANCH  64  65
ENDBRANCH  45  59
BRANCH  46  69
ATOM     69  C   UNL     1       6.373   3.300   0.651  1.00  0.00    -0.014 A 
ATOM     70  C   UNL     1       6.119   4.682   0.577  1.00  0.00     0.010 A 
ATOM     71  C   UNL     1       6.348   2.674   1.911  1.00  0.00     0.010 A 
ATOM     72  C   UNL     1       5.899   5.429   1.740  1.00  0.00     0.020 A 
ATOM     73  C   UNL     1       6.093   3.409   3.072  1.00  0.00     0.020 A 
ATOM     74  C   UNL     1       5.895   4.788   2.981  1.00  0.00     0.054 A 
BRANCH  74  75
ATOM     75  S   UNL     1       5.617   5.774   4.479  1.00  0.00     0.124 S 
ATOM     76  O   UNL     1       6.888   6.478   4.617  1.00  0.00    -0.237 OA
ATOM     77  O   UNL     1       4.472   6.600   4.106  1.00  0.00    -0.237 OA
ATOM     78  O   UNL     1       5.343   4.768   5.503  1.00  0.00    -0.744 OA
ENDBRANCH  74  75
ENDBRANCH  46  69
BRANCH  58  79
ATOM     79  C   UNL     1      11.778   3.536  -3.744  1.00  0.00    -0.014 A 
ATOM     80  C   UNL     1      12.824   3.459  -2.808  1.00  0.00     0.010 A 
ATOM     81  C   UNL     1      11.883   4.441  -4.817  1.00  0.00     0.010 A 
ATOM     82  C   UNL     1      13.940   4.292  -2.926  1.00  0.00     0.020 A 
ATOM     83  C   UNL     1      13.011   5.253  -4.956  1.00  0.00     0.020 A 
ATOM     84  C   UNL     1      14.026   5.184  -4.001  1.00  0.00     0.054 A 
BRANCH  84  85
ATOM     85  S   UNL     1      15.506   6.220  -4.157  1.00  0.00     0.124 S 
ATOM     86  O   UNL     1      15.314   7.189  -3.082  1.00  0.00    -0.237 OA
ATOM     87  O   UNL     1      16.590   5.263  -3.954  1.00  0.00    -0.237 OA
ATOM     88  O   UNL     1      15.408   6.764  -5.510  1.00  0.00    -0.744 OA
ENDBRANCH  84  85
ENDBRANCH  58  79
ENDBRANCH  32  33
ENDBRANCH  25  27
ENDBRANCH  24  25
ENDBRANCH  23  24
ENDBRANCH  22  23
ENDBRANCH   1  22
TORSDOF 20
