REMARK SMILES CCCCCCNC(=O)Oc1cccc(-c2ccc([C@@H](C)C(=O)OCCOCCOC(=O)c3ccc(-c4c5nc(c(-c6ccc(S(=O)(=O)[O-])cc6)c6ccc([nH]6)c(-c6ccc(S(=O)(=O)[O-])cc6)c6nc(c(-c7ccc(S(=O)(=O)[O-])cc7)c7ccc4[nH]7)C=C6)C=C5)cc3)cc2C(F)(F)F)c1
REMARK SMILES IDX 24 1 22 2 23 3 20 4 21 5 19 6 16 7 17 8 94 9 18 10 93 11
REMARK SMILES IDX 15 12 11 13 12 14 99 15 13 16 14 17 10 18 8 19 7 20 9 22
REMARK SMILES IDX 6 23 5 24 4 25 3 26 2 27 1 28 95 29 96 30 97 31 98 32 25 33
REMARK SMILES IDX 26 34 27 35 28 36 29 37 30 38 31 39 32 40 33 41 34 42 92 43
REMARK SMILES IDX 35 44 91 45 36 46 37 47 38 48 85 49 39 50 90 51 84 52 86 53
REMARK SMILES IDX 40 54 89 55 83 56 82 57 41 59 71 60 52 61 70 62 53 63 56 64
REMARK SMILES IDX 69 65 87 66 54 67 55 68 68 70 88 71 57 72 42 73 43 74 51 75
REMARK SMILES IDX 44 76 50 77 45 78 46 79 47 80 48 81 49 82 72 83 73 84 81 85
REMARK SMILES IDX 74 86 80 87 75 88 76 89 77 90 78 91 79 92 58 93 59 94 67 95
REMARK SMILES IDX 60 96 66 97 61 98 62 99 63 100 64 101 65 102
REMARK H PARENT 7 21 86 58 56 69
REMARK Flexibility Score: inf
ROOT
ATOM      1  O   UNL     1      -3.669  -4.702  14.208  1.00  0.00    -0.463 OA
ENDROOT
BRANCH   1   2
ATOM      2  C   UNL     1      -4.177  -3.469  14.461  1.00  0.00     0.313 C 
ATOM      3  O   UNL     1      -3.887  -2.783  15.437  1.00  0.00    -0.252 OA
BRANCH   2   4
ATOM      4  C   UNL     1      -5.188  -2.996  13.430  1.00  0.00     0.126 C 
ATOM      5  C   UNL     1      -6.599  -3.287  13.933  1.00  0.00     0.025 C 
BRANCH   4   6
ATOM      6  C   UNL     1      -5.001  -3.430  11.979  1.00  0.00    -0.033 A 
ATOM      7  C   UNL     1      -4.899  -4.095   9.194  1.00  0.00    -0.006 A 
ATOM      8  C   UNL     1      -5.067  -5.077  10.193  1.00  0.00     0.009 A 
ATOM      9  C   UNL     1      -4.746  -2.756   9.611  1.00  0.00     0.064 A 
ATOM     10  C   UNL     1      -5.128  -4.754  11.556  1.00  0.00     0.005 A 
ATOM     11  C   UNL     1      -4.777  -2.453  10.995  1.00  0.00     0.018 A 
BRANCH   7  12
ATOM     12  C   UNL     1      -4.979  -4.500   7.775  1.00  0.00    -0.014 A 
ATOM     13  C   UNL     1      -4.112  -4.544   5.507  1.00  0.00     0.133 A 
ATOM     14  C   UNL     1      -5.286  -5.128   5.037  1.00  0.00     0.047 A 
ATOM     15  C   UNL     1      -3.942  -4.244   6.863  1.00  0.00     0.056 A 
ATOM     16  C   UNL     1      -6.304  -5.427   5.934  1.00  0.00     0.004 A 
ATOM     17  C   UNL     1      -6.153  -5.109   7.287  1.00  0.00     0.009 A 
BRANCH  13  18
ATOM     18  O   UNL     1      -3.193  -4.126   4.524  1.00  0.00    -0.410 OA
BRANCH  18  19
ATOM     19  C   UNL     1      -1.834  -4.314   4.709  1.00  0.00     0.412 C 
ATOM     20  N   UNL     1      -1.072  -3.741   3.729  1.00  0.00    -0.321 N 
ATOM     21  H   UNL     1      -0.100  -3.877   3.795  1.00  0.00     0.167 HD
ATOM     22  O   UNL     1      -1.313  -4.926   5.638  1.00  0.00    -0.224 OA
BRANCH  20  23
ATOM     23  C   UNL     1      -1.541  -2.954   2.605  1.00  0.00     0.119 C 
BRANCH  23  24
ATOM     24  C   UNL     1      -0.965  -1.536   2.617  1.00  0.00     0.021 C 
BRANCH  24  25
ATOM     25  C   UNL     1       0.562  -1.457   2.494  1.00  0.00     0.002 C 
BRANCH  25  26
ATOM     26  C   UNL     1       1.156  -2.072   1.222  1.00  0.00    -0.000 C 
BRANCH  26  27
ATOM     27  C   UNL     1       0.682  -1.448  -0.093  1.00  0.00    -0.003 C 
ATOM     28  C   UNL     1       1.077   0.014  -0.242  1.00  0.00     0.004 C 
ENDBRANCH  26  27
ENDBRANCH  25  26
ENDBRANCH  24  25
ENDBRANCH  23  24
ENDBRANCH  20  23
ENDBRANCH  18  19
ENDBRANCH  13  18
ENDBRANCH   7  12
BRANCH   9  29
ATOM     29  C   UNL     1      -4.551  -1.591   8.661  1.00  0.00     0.417 C 
ATOM     30  F   UNL     1      -5.109  -0.437   9.140  1.00  0.00    -0.166 F 
ATOM     31  F   UNL     1      -3.232  -1.298   8.478  1.00  0.00    -0.166 F 
ATOM     32  F   UNL     1      -5.084  -1.737   7.420  1.00  0.00    -0.166 F 
ENDBRANCH   9  29
ENDBRANCH   4   6
ENDBRANCH   2   4
ENDBRANCH   1   2
BRANCH   1  33
ATOM     33  C   UNL     1      -2.621  -5.144  15.089  1.00  0.00     0.261 C 
BRANCH  33  34
ATOM     34  C   UNL     1      -1.288  -5.279  14.350  1.00  0.00     0.202 C 
BRANCH  34  35
ATOM     35  O   UNL     1      -0.711  -4.072  13.852  1.00  0.00    -0.374 OA
BRANCH  35  36
ATOM     36  C   UNL     1      -1.272  -3.515  12.663  1.00  0.00     0.202 C 
BRANCH  36  37
ATOM     37  C   UNL     1      -0.932  -4.206  11.336  1.00  0.00     0.261 C 
BRANCH  37  38
ATOM     38  O   UNL     1      -1.476  -5.534  11.245  1.00  0.00    -0.460 OA
BRANCH  38  39
ATOM     39  C   UNL     1      -0.550  -6.525  11.278  1.00  0.00     0.338 C 
ATOM     40  O   UNL     1       0.662  -6.398  11.328  1.00  0.00    -0.246 OA
BRANCH  39  41
ATOM     41  C   UNL     1      -1.213  -7.832  11.454  1.00  0.00     0.060 A 
ATOM     42  C   UNL     1      -0.759  -8.643  12.503  1.00  0.00     0.016 A 
ATOM     43  C   UNL     1      -2.193  -8.294  10.574  1.00  0.00     0.016 A 
ATOM     44  C   UNL     1      -1.242  -9.941  12.643  1.00  0.00     0.010 A 
ATOM     45  C   UNL     1      -2.672  -9.603  10.713  1.00  0.00     0.010 A 
ATOM     46  C   UNL     1      -2.171 -10.445  11.724  1.00  0.00    -0.014 A 
BRANCH  46  47
ATOM     47  C   UNL     1      -2.494 -11.893  11.740  1.00  0.00     0.031 A 
ATOM     48  C   UNL     1      -1.818 -12.804  10.748  1.00  0.00     0.074 A 
ATOM     49  C   UNL     1      -3.336 -12.403  12.657  1.00  0.00     0.049 A 
ATOM     50  N   UNL     1      -1.951 -14.095  10.587  1.00  0.00    -0.248 NA
ATOM     51  C   UNL     1      -0.866 -12.175   9.818  1.00  0.00     0.031 C 
ATOM     52  C   UNL     1      -4.013 -11.637  13.703  1.00  0.00     0.029 A 
ATOM     53  N   UNL     1      -3.762 -13.693  12.857  1.00  0.00    -0.354 N 
ATOM     54  C   UNL     1      -1.106 -14.433   9.535  1.00  0.00     0.074 A 
ATOM     55  C   UNL     1      -0.488 -13.207   9.078  1.00  0.00     0.031 C 
ATOM     56  C   UNL     1      -4.773 -12.472  14.432  1.00  0.00     0.029 A 
ATOM     57  C   UNL     1      -4.662 -13.824  13.887  1.00  0.00     0.049 A 
ATOM     58  H   UNL     1      -3.452 -14.453  12.313  1.00  0.00     0.167 HD
ATOM     59  C   UNL     1      -0.862 -15.654   9.001  1.00  0.00     0.031 A 
ATOM     60  C   UNL     1      -5.336 -14.905  14.328  1.00  0.00     0.031 A 
ATOM     61  C   UNL     1      -1.485 -16.871   9.448  1.00  0.00     0.049 A 
ATOM     62  C   UNL     1      -5.107 -16.239  13.666  1.00  0.00     0.074 A 
ATOM     63  C   UNL     1      -1.292 -18.159   8.979  1.00  0.00     0.029 A 
ATOM     64  N   UNL     1      -2.428 -16.953  10.461  1.00  0.00    -0.354 N 
ATOM     65  N   UNL     1      -4.289 -16.545  12.687  1.00  0.00    -0.248 NA
ATOM     66  C   UNL     1      -5.890 -17.375  14.173  1.00  0.00     0.031 C 
ATOM     67  C   UNL     1      -2.161 -19.011   9.669  1.00  0.00     0.029 A 
ATOM     68  C   UNL     1      -2.850 -18.263  10.610  1.00  0.00     0.049 A 
ATOM     69  H   UNL     1      -2.751 -16.191  10.995  1.00  0.00     0.167 HD
ATOM     70  C   UNL     1      -4.442 -17.912  12.478  1.00  0.00     0.074 A 
ATOM     71  C   UNL     1      -5.418 -18.376  13.442  1.00  0.00     0.031 C 
ATOM     72  C   UNL     1      -3.827 -18.712  11.571  1.00  0.00     0.031 A 
BRANCH  59  73
ATOM     73  C   UNL     1       0.099 -15.727   7.843  1.00  0.00    -0.014 A 
ATOM     74  C   UNL     1       1.481 -15.542   8.027  1.00  0.00     0.010 A 
ATOM     75  C   UNL     1      -0.386 -16.025   6.556  1.00  0.00     0.010 A 
ATOM     76  C   UNL     1       2.355 -15.617   6.939  1.00  0.00     0.020 A 
ATOM     77  C   UNL     1       0.488 -16.127   5.470  1.00  0.00     0.020 A 
ATOM     78  C   UNL     1       1.853 -15.907   5.667  1.00  0.00     0.054 A 
BRANCH  78  79
ATOM     79  S   UNL     1       3.013 -16.022   4.277  1.00  0.00     0.124 S 
ATOM     80  O   UNL     1       3.370 -14.622   4.064  1.00  0.00    -0.237 OA
ATOM     81  O   UNL     1       4.076 -16.866   4.816  1.00  0.00    -0.237 OA
ATOM     82  O   UNL     1       2.219 -16.630   3.211  1.00  0.00    -0.744 OA
ENDBRANCH  78  79
ENDBRANCH  59  73
BRANCH  60  83
ATOM     83  C   UNL     1      -6.313 -14.768  15.442  1.00  0.00    -0.014 A 
ATOM     84  C   UNL     1      -6.059 -15.341  16.700  1.00  0.00     0.010 A 
ATOM     85  C   UNL     1      -7.514 -14.061  15.244  1.00  0.00     0.010 A 
ATOM     86  C   UNL     1      -6.992 -15.222  17.734  1.00  0.00     0.020 A 
ATOM     87  C   UNL     1      -8.437 -13.916  16.283  1.00  0.00     0.020 A 
ATOM     88  C   UNL     1      -8.175 -14.508  17.519  1.00  0.00     0.054 A 
BRANCH  88  89
ATOM     89  S   UNL     1      -9.349 -14.322  18.890  1.00  0.00     0.124 S 
ATOM     90  O   UNL     1      -9.939 -15.654  18.969  1.00  0.00    -0.237 OA
ATOM     91  O   UNL     1      -8.478 -13.947  20.002  1.00  0.00    -0.237 OA
ATOM     92  O   UNL     1     -10.246 -13.264  18.430  1.00  0.00    -0.744 OA
ENDBRANCH  88  89
ENDBRANCH  60  83
BRANCH  72  93
ATOM     93  C   UNL     1      -4.169 -20.179  11.591  1.00  0.00    -0.014 A 
ATOM     94  C   UNL     1      -5.414 -20.644  11.131  1.00  0.00     0.010 A 
ATOM     95  C   UNL     1      -3.208 -21.111  12.024  1.00  0.00     0.010 A 
ATOM     96  C   UNL     1      -5.703 -22.011  11.135  1.00  0.00     0.020 A 
ATOM     97  C   UNL     1      -3.483 -22.481  12.003  1.00  0.00     0.020 A 
ATOM     98  C   UNL     1      -4.735 -22.922  11.571  1.00  0.00     0.054 A 
BRANCH  98  99
ATOM     99  S   UNL     1      -5.119 -24.694  11.526  1.00  0.00     0.124 S 
ATOM    100  O   UNL     1      -6.041 -24.834  12.649  1.00  0.00    -0.237 OA
ATOM    101  O   UNL     1      -5.712 -24.860  10.201  1.00  0.00    -0.237 OA
ATOM    102  O   UNL     1      -3.818 -25.335  11.704  1.00  0.00    -0.744 OA
ENDBRANCH  98  99
ENDBRANCH  72  93
ENDBRANCH  46  47
ENDBRANCH  39  41
ENDBRANCH  38  39
ENDBRANCH  37  38
ENDBRANCH  36  37
ENDBRANCH  35  36
ENDBRANCH  34  35
ENDBRANCH  33  34
ENDBRANCH   1  33
TORSDOF 27
