REMARK SMILES O=C(OCCOCCOC(=O)[C@H]1C[NH2+]CCN1c1ncc(C(F)(F)F)cc1Cl)c1ccc(-c2c3nc(c(-c4ccc(S(=O)(=O)[O-])cc4)c4ccc([nH]4)c(-c4ccc(S(=O)(=O)[O-])cc4)c4nc(c(-c5ccc(S(=O)(=O)[O-])cc5)c5ccc2[nH]5)C=C4)C=C3)cc1
REMARK SMILES IDX 5 1 4 2 3 3 2 4 1 5 29 6 30 7 88 8 31 9 87 10 32 11 33 12
REMARK SMILES IDX 34 13 81 14 35 15 86 16 80 17 82 18 36 19 85 20 79 21 78 22
REMARK SMILES IDX 37 24 67 25 48 26 66 27 49 28 52 29 65 30 83 31 50 32 51 33
REMARK SMILES IDX 64 35 84 36 53 37 38 38 39 39 47 40 40 41 46 42 41 43 42 44
REMARK SMILES IDX 43 45 44 46 45 47 68 48 69 49 77 50 70 51 76 52 71 53 72 54
REMARK SMILES IDX 73 55 74 56 75 57 54 58 55 59 63 60 56 61 62 62 57 63 58 64
REMARK SMILES IDX 59 65 60 66 61 67 6 68 7 69 8 70 9 71 10 72 11 73 12 74
REMARK SMILES IDX 13 75 17 76 14 77 16 78 15 79 18 82 19 83 27 84 20 85 26 86
REMARK SMILES IDX 28 87 21 88 22 89 23 90 24 91 25 92
REMARK H PARENT 82 23 52 34 14 80 14 81
REMARK Flexibility Score: inf
ROOT
ATOM      1  C   UNL     1       2.596   1.103   5.212  1.00  0.00     0.202 C 
ENDROOT
BRANCH   1   2
ATOM      2  C   UNL     1       1.418   2.002   5.601  1.00  0.00     0.261 C 
BRANCH   2   3
ATOM      3  O   UNL     1       1.779   2.871   6.689  1.00  0.00    -0.460 OA
BRANCH   3   4
ATOM      4  C   UNL     1       1.402   2.754   7.985  1.00  0.00     0.338 C 
ATOM      5  O   UNL     1       1.662   3.664   8.768  1.00  0.00    -0.246 OA
BRANCH   4   6
ATOM      6  C   UNL     1       0.716   1.538   8.508  1.00  0.00     0.060 A 
ATOM      7  C   UNL     1       0.833   0.282   7.920  1.00  0.00     0.016 A 
ATOM      8  C   UNL     1       0.001   1.631   9.709  1.00  0.00     0.016 A 
ATOM      9  C   UNL     1       0.303  -0.852   8.471  1.00  0.00     0.010 A 
ATOM     10  C   UNL     1      -0.536   0.481  10.299  1.00  0.00     0.010 A 
ATOM     11  C   UNL     1      -0.352  -0.759   9.681  1.00  0.00    -0.014 A 
BRANCH  11  12
ATOM     12  C   UNL     1      -0.867  -2.028  10.184  1.00  0.00     0.031 A 
ATOM     13  C   UNL     1      -2.292  -2.353   9.904  1.00  0.00     0.074 A 
ATOM     14  C   UNL     1       0.017  -2.931  10.646  1.00  0.00     0.049 A 
ATOM     15  N   UNL     1      -2.978  -3.389  10.284  1.00  0.00    -0.248 NA
ATOM     16  C   UNL     1      -3.040  -1.400   9.060  1.00  0.00     0.031 C 
ATOM     17  C   UNL     1       1.474  -2.734  10.710  1.00  0.00     0.029 A 
ATOM     18  N   UNL     1      -0.162  -4.205  11.101  1.00  0.00    -0.354 N 
ATOM     19  C   UNL     1      -4.255  -3.184   9.785  1.00  0.00     0.074 A 
ATOM     20  C   UNL     1      -4.244  -1.953   9.033  1.00  0.00     0.031 C 
ATOM     21  C   UNL     1       2.049  -3.851  11.182  1.00  0.00     0.029 A 
ATOM     22  C   UNL     1       1.000  -4.794  11.539  1.00  0.00     0.049 A 
ATOM     23  H   UNL     1      -1.036  -4.656  11.114  1.00  0.00     0.167 HD
ATOM     24  C   UNL     1      -5.340  -3.957   9.995  1.00  0.00     0.031 A 
ATOM     25  C   UNL     1       1.167  -5.938  12.226  1.00  0.00     0.031 A 
ATOM     26  C   UNL     1      -5.282  -5.168  10.763  1.00  0.00     0.049 A 
ATOM     27  C   UNL     1      -0.082  -6.707  12.565  1.00  0.00     0.074 A 
ATOM     28  C   UNL     1      -6.311  -6.013  11.122  1.00  0.00     0.029 A 
ATOM     29  N   UNL     1      -4.112  -5.696  11.297  1.00  0.00    -0.354 N 
ATOM     30  N   UNL     1      -1.317  -6.476  12.174  1.00  0.00    -0.248 NA
ATOM     31  C   UNL     1       0.067  -7.859  13.457  1.00  0.00     0.031 C 
ATOM     32  C   UNL     1      -5.771  -7.019  11.930  1.00  0.00     0.029 A 
ATOM     33  C   UNL     1      -4.397  -6.835  12.021  1.00  0.00     0.049 A 
ATOM     34  H   UNL     1      -3.213  -5.313  11.177  1.00  0.00     0.167 HD
ATOM     35  C   UNL     1      -2.093  -7.455  12.776  1.00  0.00     0.074 A 
ATOM     36  C   UNL     1      -1.181  -8.301  13.524  1.00  0.00     0.031 C 
ATOM     37  C   UNL     1      -3.436  -7.637  12.736  1.00  0.00     0.031 A 
BRANCH  24  38
ATOM     38  C   UNL     1      -6.662  -3.443   9.510  1.00  0.00    -0.014 A 
ATOM     39  C   UNL     1      -7.026  -3.478   8.154  1.00  0.00     0.010 A 
ATOM     40  C   UNL     1      -7.564  -2.917  10.452  1.00  0.00     0.010 A 
ATOM     41  C   UNL     1      -8.273  -2.991   7.749  1.00  0.00     0.020 A 
ATOM     42  C   UNL     1      -8.817  -2.448  10.056  1.00  0.00     0.020 A 
ATOM     43  C   UNL     1      -9.162  -2.484   8.704  1.00  0.00     0.054 A 
BRANCH  43  44
ATOM     44  S   UNL     1     -10.797  -1.917   8.161  1.00  0.00     0.124 S 
ATOM     45  O   UNL     1     -10.468  -0.685   7.448  1.00  0.00    -0.237 OA
ATOM     46  O   UNL     1     -11.255  -3.023   7.324  1.00  0.00    -0.237 OA
ATOM     47  O   UNL     1     -11.535  -1.735   9.408  1.00  0.00    -0.744 OA
ENDBRANCH  43  44
ENDBRANCH  24  38
BRANCH  25  48
ATOM     48  C   UNL     1       2.502  -6.325  12.762  1.00  0.00    -0.014 A 
ATOM     49  C   UNL     1       3.109  -7.543  12.411  1.00  0.00     0.010 A 
ATOM     50  C   UNL     1       3.160  -5.484  13.682  1.00  0.00     0.010 A 
ATOM     51  C   UNL     1       4.320  -7.928  12.999  1.00  0.00     0.020 A 
ATOM     52  C   UNL     1       4.386  -5.847  14.245  1.00  0.00     0.020 A 
ATOM     53  C   UNL     1       4.946  -7.081  13.918  1.00  0.00     0.054 A 
BRANCH  53  54
ATOM     54  S   UNL     1       6.504  -7.608  14.686  1.00  0.00     0.124 S 
ATOM     55  O   UNL     1       6.048  -8.633  15.619  1.00  0.00    -0.237 OA
ATOM     56  O   UNL     1       7.274  -8.089  13.542  1.00  0.00    -0.237 OA
ATOM     57  O   UNL     1       7.013  -6.384  15.300  1.00  0.00    -0.744 OA
ENDBRANCH  53  54
ENDBRANCH  25  48
BRANCH  37  58
ATOM     58  C   UNL     1      -3.978  -8.801  13.509  1.00  0.00    -0.014 A 
ATOM     59  C   UNL     1      -4.065  -8.753  14.911  1.00  0.00     0.010 A 
ATOM     60  C   UNL     1      -4.487  -9.912  12.815  1.00  0.00     0.010 A 
ATOM     61  C   UNL     1      -4.643  -9.811  15.609  1.00  0.00     0.020 A 
ATOM     62  C   UNL     1      -5.094 -10.956  13.508  1.00  0.00     0.020 A 
ATOM     63  C   UNL     1      -5.161 -10.902  14.903  1.00  0.00     0.054 A 
BRANCH  63  64
ATOM     64  S   UNL     1      -5.979 -12.225  15.829  1.00  0.00     0.124 S 
ATOM     65  O   UNL     1      -4.846 -12.905  16.451  1.00  0.00    -0.237 OA
ATOM     66  O   UNL     1      -6.848 -11.486  16.742  1.00  0.00    -0.237 OA
ATOM     67  O   UNL     1      -6.676 -12.990  14.797  1.00  0.00    -0.744 OA
ENDBRANCH  63  64
ENDBRANCH  37  58
ENDBRANCH  11  12
ENDBRANCH   4   6
ENDBRANCH   3   4
ENDBRANCH   2   3
ENDBRANCH   1   2
BRANCH   1  68
ATOM     68  O   UNL     1       3.183   0.291   6.227  1.00  0.00    -0.374 OA
BRANCH  68  69
ATOM     69  C   UNL     1       4.128   0.919   7.095  1.00  0.00     0.202 C 
BRANCH  69  70
ATOM     70  C   UNL     1       5.489   0.264   6.890  1.00  0.00     0.261 C 
BRANCH  70  71
ATOM     71  O   UNL     1       5.983   0.705   5.614  1.00  0.00    -0.462 OA
BRANCH  71  72
ATOM     72  C   UNL     1       5.632  -0.027   4.513  1.00  0.00     0.334 C 
ATOM     73  O   UNL     1       5.100  -1.121   4.536  1.00  0.00    -0.250 OA
BRANCH  72  74
ATOM     74  C   UNL     1       5.933   0.747   3.208  1.00  0.00     0.249 C 
ATOM     75  C   UNL     1       5.103   2.031   3.019  1.00  0.00     0.298 C 
ATOM     76  N   UNL     1       7.348   1.143   3.074  1.00  0.00    -0.331 N 
ATOM     77  N   UNL     1       5.399   3.096   4.007  1.00  0.00    -0.343 N 
ATOM     78  C   UNL     1       7.830   2.177   3.987  1.00  0.00     0.180 C 
ATOM     79  C   UNL     1       6.851   3.396   3.981  1.00  0.00     0.282 C 
ATOM     80  H   UNL     1       5.132   2.781   4.940  1.00  0.00     0.346 HD
ATOM     81  H   UNL     1       4.871   3.938   3.773  1.00  0.00     0.346 HD
BRANCH  76  82
ATOM     82  C   UNL     1       8.154   0.110   2.646  1.00  0.00     0.148 A 
ATOM     83  N   UNL     1       8.854  -0.577   3.574  1.00  0.00    -0.237 NA
ATOM     84  C   UNL     1       8.123  -0.297   1.298  1.00  0.00     0.084 A 
ATOM     85  C   UNL     1       9.490  -1.707   3.177  1.00  0.00     0.126 A 
ATOM     86  C   UNL     1       8.796  -1.447   0.914  1.00  0.00     0.039 A 
ATOM     87  Cl  UNL     1       7.270   0.590   0.079  1.00  0.00    -0.080 Cl
ATOM     88  C   UNL     1       9.496  -2.180   1.871  1.00  0.00     0.075 A 
BRANCH  88  89
ATOM     89  C   UNL     1      10.238  -3.428   1.519  1.00  0.00     0.417 C 
ATOM     90  F   UNL     1      11.546  -3.375   1.888  1.00  0.00    -0.166 F 
ATOM     91  F   UNL     1       9.720  -4.537   2.108  1.00  0.00    -0.166 F 
ATOM     92  F   UNL     1      10.244  -3.684   0.180  1.00  0.00    -0.166 F 
ENDBRANCH  88  89
ENDBRANCH  76  82
ENDBRANCH  72  74
ENDBRANCH  71  72
ENDBRANCH  70  71
ENDBRANCH  69  70
ENDBRANCH  68  69
ENDBRANCH   1  68
TORSDOF 19
