REMARK SMILES CC[C@@H](C)N(C)C(=O)N1[C@@H](C(=O)OCCOCCOC(=O)c2ccc(-c3c4nc(c(-c5ccc(S(=O)(=O)[O-])cc5)c5ccc([nH]5)c(-c5ccc(S(=O)(=O)[O-])cc5)c5nc(c(-c6ccc(S(=O)(=O)[O-])cc6)c6ccc3[nH]6)C=C5)C=C4)cc2)CC[C@H]2CCCC[C@H]21
REMARK SMILES IDX 15 1 14 2 13 3 11 4 12 5 10 6 9 7 89 8 82 9 84 10 88 11
REMARK SMILES IDX 83 12 85 13 87 14 86 15 7 16 8 17 5 18 6 19 3 20 4 21 2 22
REMARK SMILES IDX 1 23 16 24 17 25 18 26 19 27 20 28 21 29 22 30 23 31 81 32
REMARK SMILES IDX 24 33 80 34 25 35 26 36 27 37 74 38 28 39 79 40 73 41 75 42
REMARK SMILES IDX 29 43 78 44 72 45 71 46 30 48 60 49 41 50 59 51 42 52 45 53
REMARK SMILES IDX 58 54 76 55 43 56 44 57 57 59 77 60 46 61 31 62 32 63 40 64
REMARK SMILES IDX 33 65 39 66 34 67 35 68 36 69 37 70 38 71 61 72 62 73 70 74
REMARK SMILES IDX 63 75 69 76 64 77 65 78 66 79 67 80 68 81 47 82 48 83 56 84
REMARK SMILES IDX 49 85 55 86 50 87 51 88 52 89 53 90 54 91
REMARK H PARENT 75 47 45 58
REMARK Flexibility Score: inf
ROOT
ATOM      1  C   UNL     1       2.010   4.255   6.486  1.00  0.00     0.202 C 
ENDROOT
BRANCH   1   2
ATOM      2  C   UNL     1       1.716   3.139   5.484  1.00  0.00     0.261 C 
BRANCH   2   3
ATOM      3  O   UNL     1       0.459   2.495   5.732  1.00  0.00    -0.462 OA
BRANCH   3   4
ATOM      4  C   UNL     1       0.532   1.271   6.325  1.00  0.00     0.329 C 
ATOM      5  O   UNL     1       1.560   0.752   6.750  1.00  0.00    -0.250 OA
BRANCH   4   6
ATOM      6  C   UNL     1      -0.837   0.582   6.376  1.00  0.00     0.197 C 
ATOM      7  N   UNL     1      -1.340  -0.034   5.134  1.00  0.00    -0.308 N 
ATOM      8  C   UNL     1      -2.615  -0.760   5.290  1.00  0.00     0.091 C 
ATOM      9  C   UNL     1      -1.897   1.461   7.049  1.00  0.00     0.038 C 
ATOM     10  C   UNL     1      -3.709  -0.022   6.083  1.00  0.00     0.012 C 
ATOM     11  C   UNL     1      -3.204  -1.410   4.036  1.00  0.00     0.025 C 
ATOM     12  C   UNL     1      -3.146   0.634   7.351  1.00  0.00     0.008 C 
ATOM     13  C   UNL     1      -4.543   0.982   5.283  1.00  0.00     0.006 C 
ATOM     14  C   UNL     1      -4.173  -0.568   3.206  1.00  0.00     0.002 C 
ATOM     15  C   UNL     1      -4.679   0.747   3.788  1.00  0.00     0.000 C 
BRANCH   7  16
ATOM     16  C   UNL     1      -0.999   0.545   3.923  1.00  0.00     0.320 C 
ATOM     17  O   UNL     1      -1.813   1.190   3.275  1.00  0.00    -0.248 OA
BRANCH  16  18
ATOM     18  N   UNL     1       0.297   0.287   3.470  1.00  0.00    -0.325 N 
ATOM     19  C   UNL     1       1.217  -0.658   4.102  1.00  0.00     0.149 C 
BRANCH  18  20
ATOM     20  C   UNL     1       0.720   0.748   2.125  1.00  0.00     0.083 C 
ATOM     21  C   UNL     1       0.363   2.202   1.793  1.00  0.00     0.031 C 
BRANCH  20  22
ATOM     22  C   UNL     1       0.226  -0.239   1.049  1.00  0.00     0.021 C 
ATOM     23  C   UNL     1       0.855  -0.008  -0.316  1.00  0.00     0.006 C 
ENDBRANCH  20  22
ENDBRANCH  18  20
ENDBRANCH  16  18
ENDBRANCH   7  16
ENDBRANCH   4   6
ENDBRANCH   3   4
ENDBRANCH   2   3
ENDBRANCH   1   2
BRANCH   1  24
ATOM     24  O   UNL     1       2.204   3.858   7.841  1.00  0.00    -0.374 OA
BRANCH  24  25
ATOM     25  C   UNL     1       1.032   3.608   8.616  1.00  0.00     0.202 C 
BRANCH  25  26
ATOM     26  C   UNL     1       0.279   4.835   9.140  1.00  0.00     0.261 C 
BRANCH  26  27
ATOM     27  O   UNL     1      -0.389   5.551   8.084  1.00  0.00    -0.460 OA
BRANCH  27  28
ATOM     28  C   UNL     1       0.154   6.751   7.776  1.00  0.00     0.338 C 
ATOM     29  O   UNL     1       1.096   7.300   8.339  1.00  0.00    -0.246 OA
BRANCH  28  30
ATOM     30  C   UNL     1      -0.418   7.260   6.518  1.00  0.00     0.060 A 
ATOM     31  C   UNL     1       0.472   7.619   5.496  1.00  0.00     0.016 A 
ATOM     32  C   UNL     1      -1.793   7.450   6.361  1.00  0.00     0.016 A 
ATOM     33  C   UNL     1      -0.006   8.207   4.327  1.00  0.00     0.010 A 
ATOM     34  C   UNL     1      -2.268   8.055   5.194  1.00  0.00     0.010 A 
ATOM     35  C   UNL     1      -1.375   8.463   4.186  1.00  0.00    -0.014 A 
BRANCH  35  36
ATOM     36  C   UNL     1      -1.864   9.269   3.043  1.00  0.00     0.031 A 
ATOM     37  C   UNL     1      -2.137  10.733   3.247  1.00  0.00     0.074 A 
ATOM     38  C   UNL     1      -2.058   8.701   1.840  1.00  0.00     0.049 A 
ATOM     39  N   UNL     1      -2.649  11.603   2.416  1.00  0.00    -0.248 NA
ATOM     40  C   UNL     1      -1.783  11.291   4.563  1.00  0.00     0.031 C 
ATOM     41  C   UNL     1      -1.774   7.305   1.508  1.00  0.00     0.029 A 
ATOM     42  N   UNL     1      -2.556   9.230   0.676  1.00  0.00    -0.354 N 
ATOM     43  C   UNL     1      -2.690  12.808   3.108  1.00  0.00     0.074 A 
ATOM     44  C   UNL     1      -2.169  12.553   4.434  1.00  0.00     0.031 C 
ATOM     45  C   UNL     1      -2.121   7.083   0.229  1.00  0.00     0.029 A 
ATOM     46  C   UNL     1      -2.692   8.306  -0.332  1.00  0.00     0.049 A 
ATOM     47  H   UNL     1      -2.793  10.181   0.573  1.00  0.00     0.167 HD
ATOM     48  C   UNL     1      -3.124  14.016   2.677  1.00  0.00     0.031 A 
ATOM     49  C   UNL     1      -3.251   8.424  -1.553  1.00  0.00     0.031 A 
ATOM     50  C   UNL     1      -3.663  14.254   1.364  1.00  0.00     0.049 A 
ATOM     51  C   UNL     1      -3.828   9.750  -1.973  1.00  0.00     0.074 A 
ATOM     52  C   UNL     1      -4.119  15.444   0.824  1.00  0.00     0.029 A 
ATOM     53  N   UNL     1      -3.831  13.281   0.390  1.00  0.00    -0.354 N 
ATOM     54  N   UNL     1      -3.841  10.887  -1.318  1.00  0.00    -0.248 NA
ATOM     55  C   UNL     1      -4.472   9.809  -3.293  1.00  0.00     0.031 C 
ATOM     56  C   UNL     1      -4.621  15.177  -0.454  1.00  0.00     0.029 A 
ATOM     57  C   UNL     1      -4.422  13.834  -0.733  1.00  0.00     0.049 A 
ATOM     58  H   UNL     1      -3.569  12.337   0.483  1.00  0.00     0.167 HD
ATOM     59  C   UNL     1      -4.482  11.799  -2.151  1.00  0.00     0.074 A 
ATOM     60  C   UNL     1      -4.824  11.086  -3.365  1.00  0.00     0.031 C 
ATOM     61  C   UNL     1      -4.764  13.107  -1.931  1.00  0.00     0.031 A 
BRANCH  48  62
ATOM     62  C   UNL     1      -3.073  15.163   3.650  1.00  0.00    -0.014 A 
ATOM     63  C   UNL     1      -1.851  15.749   4.024  1.00  0.00     0.010 A 
ATOM     64  C   UNL     1      -4.271  15.687   4.171  1.00  0.00     0.010 A 
ATOM     65  C   UNL     1      -1.825  16.814   4.929  1.00  0.00     0.020 A 
ATOM     66  C   UNL     1      -4.251  16.768   5.057  1.00  0.00     0.020 A 
ATOM     67  C   UNL     1      -3.025  17.315   5.443  1.00  0.00     0.054 A 
BRANCH  67  68
ATOM     68  S   UNL     1      -2.963  18.709   6.602  1.00  0.00     0.124 S 
ATOM     69  O   UNL     1      -2.439  18.073   7.809  1.00  0.00    -0.237 OA
ATOM     70  O   UNL     1      -2.053  19.638   5.937  1.00  0.00    -0.237 OA
ATOM     71  O   UNL     1      -4.352  19.154   6.686  1.00  0.00    -0.744 OA
ENDBRANCH  67  68
ENDBRANCH  48  62
BRANCH  49  72
ATOM     72  C   UNL     1      -3.334   7.236  -2.446  1.00  0.00    -0.014 A 
ATOM     73  C   UNL     1      -2.570   7.166  -3.623  1.00  0.00     0.010 A 
ATOM     74  C   UNL     1      -4.177   6.157  -2.114  1.00  0.00     0.010 A 
ATOM     75  C   UNL     1      -2.653   6.045  -4.456  1.00  0.00     0.020 A 
ATOM     76  C   UNL     1      -4.241   5.024  -2.929  1.00  0.00     0.020 A 
ATOM     77  C   UNL     1      -3.485   4.979  -4.101  1.00  0.00     0.054 A 
BRANCH  77  78
ATOM     78  S   UNL     1      -3.530   3.512  -5.168  1.00  0.00     0.124 S 
ATOM     79  O   UNL     1      -4.278   4.000  -6.323  1.00  0.00    -0.237 OA
ATOM     80  O   UNL     1      -2.112   3.247  -5.399  1.00  0.00    -0.237 OA
ATOM     81  O   UNL     1      -4.218   2.514  -4.352  1.00  0.00    -0.744 OA
ENDBRANCH  77  78
ENDBRANCH  49  72
BRANCH  61  82
ATOM     82  C   UNL     1      -5.470  13.862  -3.025  1.00  0.00    -0.014 A 
ATOM     83  C   UNL     1      -6.837  13.657  -3.279  1.00  0.00     0.010 A 
ATOM     84  C   UNL     1      -4.777  14.847  -3.753  1.00  0.00     0.010 A 
ATOM     85  C   UNL     1      -7.496  14.414  -4.251  1.00  0.00     0.020 A 
ATOM     86  C   UNL     1      -5.438  15.623  -4.708  1.00  0.00     0.020 A 
ATOM     87  C   UNL     1      -6.793  15.396  -4.957  1.00  0.00     0.054 A 
BRANCH  87  88
ATOM     88  S   UNL     1      -7.689  16.412  -6.164  1.00  0.00     0.124 S 
ATOM     89  O   UNL     1      -7.902  15.469  -7.258  1.00  0.00    -0.237 OA
ATOM     90  O   UNL     1      -8.890  16.800  -5.427  1.00  0.00    -0.237 OA
ATOM     91  O   UNL     1      -6.763  17.504  -6.454  1.00  0.00    -0.744 OA
ENDBRANCH  87  88
ENDBRANCH  61  82
ENDBRANCH  35  36
ENDBRANCH  28  30
ENDBRANCH  27  28
ENDBRANCH  26  27
ENDBRANCH  25  26
ENDBRANCH  24  25
ENDBRANCH   1  24
TORSDOF 21
