REMARK SMILES Cc1ccc(C)c(-c2cc(C(=O)OCCOCCOC(=O)c3ccc(-c4c5nc(c(-c6ccc(S(=O)(=O)[O-])cc6)c6ccc([nH]6)c(-c6ccc(S(=O)(=O)[O-])cc6)c6nc(c(-c7ccc(S(=O)(=O)[O-])cc7)c7ccc4[nH]7)C=C6)C=C5)cc3)c3cc(C)ccc3n2)c1
REMARK SMILES IDX 17 1 16 2 15 3 14 4 13 5 11 6 12 7 10 8 8 9 9 10 89 11 88 12
REMARK SMILES IDX 82 13 87 14 83 15 86 16 84 17 85 18 7 19 1 20 2 21 3 22
REMARK SMILES IDX 90 23 4 24 5 25 6 26 18 27 19 28 20 29 21 30 22 31 23 32
REMARK SMILES IDX 81 33 24 34 80 35 25 36 26 37 27 38 74 39 28 40 79 41 73 42
REMARK SMILES IDX 75 43 29 44 78 45 72 46 71 47 30 49 60 50 41 51 59 52 42 53
REMARK SMILES IDX 45 54 58 55 76 56 43 57 44 58 57 60 77 61 46 62 31 63 32 64
REMARK SMILES IDX 40 65 33 66 39 67 34 68 35 69 36 70 37 71 38 72 61 73 62 74
REMARK SMILES IDX 70 75 63 76 69 77 64 78 65 79 66 80 67 81 68 82 47 83 48 84
REMARK SMILES IDX 56 85 49 86 55 87 50 88 51 89 52 90 53 91 54 92
REMARK H PARENT 75 48 45 59
REMARK Flexibility Score: inf
ROOT
ATOM      1  C   UNL     1       0.432   7.722  -0.929  1.00  0.00     0.202 C 
ENDROOT
BRANCH   1   2
ATOM      2  O   UNL     1      -0.771   7.836  -1.667  1.00  0.00    -0.374 OA
BRANCH   2   3
ATOM      3  C   UNL     1      -1.968   8.157  -1.000  1.00  0.00     0.202 C 
BRANCH   3   4
ATOM      4  C   UNL     1      -3.086   7.359  -1.679  1.00  0.00     0.261 C 
BRANCH   4   5
ATOM      5  O   UNL     1      -3.169   6.005  -1.190  1.00  0.00    -0.460 OA
BRANCH   5   6
ATOM      6  C   UNL     1      -2.058   5.296  -0.945  1.00  0.00     0.338 C 
ATOM      7  O   UNL     1      -1.000   5.304  -1.575  1.00  0.00    -0.246 OA
BRANCH   6   8
ATOM      8  C   UNL     1      -2.220   4.389   0.193  1.00  0.00     0.071 A 
ATOM      9  C   UNL     1      -1.512   2.330   1.167  1.00  0.00     0.072 A 
ATOM     10  C   UNL     1      -1.424   3.247   0.147  1.00  0.00     0.045 A 
ATOM     11  N   UNL     1      -2.342   2.531   2.225  1.00  0.00    -0.248 NA
ATOM     12  C   UNL     1      -3.126   3.640   2.264  1.00  0.00     0.072 A 
ATOM     13  C   UNL     1      -3.089   4.628   1.273  1.00  0.00     0.015 A 
ATOM     14  C   UNL     1      -4.024   3.834   3.315  1.00  0.00     0.029 A 
ATOM     15  C   UNL     1      -3.909   5.777   1.411  1.00  0.00     0.014 A 
ATOM     16  C   UNL     1      -4.882   4.950   3.400  1.00  0.00     0.005 A 
ATOM     17  C   UNL     1      -4.829   5.939   2.435  1.00  0.00    -0.050 A 
ATOM     18  C   UNL     1      -5.734   7.132   2.380  1.00  0.00     0.044 C 
BRANCH   9  19
ATOM     19  C   UNL     1      -0.725   1.082   1.088  1.00  0.00     0.003 A 
ATOM     20  C   UNL     1       2.902   0.132   0.213  1.00  0.00     0.044 C 
ATOM     21  C   UNL     1       1.461   0.025   0.616  1.00  0.00    -0.050 A 
ATOM     22  C   UNL     1       0.870  -1.230   0.733  1.00  0.00     0.004 A 
ATOM     23  C   UNL     1       0.670   1.163   0.830  1.00  0.00     0.014 A 
ATOM     24  C   UNL     1      -0.497  -1.339   0.987  1.00  0.00     0.004 A 
ATOM     25  C   UNL     1      -1.312  -0.199   1.117  1.00  0.00    -0.042 A 
ATOM     26  C   UNL     1      -2.798  -0.431   1.194  1.00  0.00     0.045 C 
ENDBRANCH   9  19
ENDBRANCH   6   8
ENDBRANCH   5   6
ENDBRANCH   4   5
ENDBRANCH   3   4
ENDBRANCH   2   3
ENDBRANCH   1   2
BRANCH   1  27
ATOM     27  C   UNL     1       1.379   8.810  -1.431  1.00  0.00     0.261 C 
BRANCH  27  28
ATOM     28  O   UNL     1       1.664   8.644  -2.841  1.00  0.00    -0.460 OA
BRANCH  28  29
ATOM     29  C   UNL     1       0.623   8.956  -3.671  1.00  0.00     0.338 C 
ATOM     30  O   UNL     1       0.119  10.064  -3.761  1.00  0.00    -0.246 OA
BRANCH  29  31
ATOM     31  C   UNL     1       0.064   7.703  -4.275  1.00  0.00     0.060 A 
ATOM     32  C   UNL     1      -1.264   7.694  -4.728  1.00  0.00     0.016 A 
ATOM     33  C   UNL     1       0.747   6.493  -4.117  1.00  0.00     0.016 A 
ATOM     34  C   UNL     1      -1.941   6.474  -4.890  1.00  0.00     0.010 A 
ATOM     35  C   UNL     1       0.055   5.291  -4.226  1.00  0.00     0.010 A 
ATOM     36  C   UNL     1      -1.308   5.269  -4.560  1.00  0.00    -0.014 A 
BRANCH  36  37
ATOM     37  C   UNL     1      -1.868   3.962  -4.936  1.00  0.00     0.031 A 
ATOM     38  C   UNL     1      -1.729   3.766  -6.377  1.00  0.00     0.074 A 
ATOM     39  C   UNL     1      -2.400   2.942  -4.223  1.00  0.00     0.049 A 
ATOM     40  N   UNL     1      -2.711   3.901  -7.204  1.00  0.00    -0.248 NA
ATOM     41  C   UNL     1      -0.404   3.620  -6.985  1.00  0.00     0.031 C 
ATOM     42  C   UNL     1      -2.876   2.958  -2.854  1.00  0.00     0.029 A 
ATOM     43  N   UNL     1      -2.597   1.622  -4.577  1.00  0.00    -0.354 N 
ATOM     44  C   UNL     1      -2.170   3.551  -8.415  1.00  0.00     0.074 A 
ATOM     45  C   UNL     1      -0.734   3.655  -8.277  1.00  0.00     0.031 C 
ATOM     46  C   UNL     1      -3.064   1.702  -2.395  1.00  0.00     0.029 A 
ATOM     47  C   UNL     1      -2.826   0.777  -3.494  1.00  0.00     0.049 A 
ATOM     48  H   UNL     1      -2.577   1.307  -5.510  1.00  0.00     0.167 HD
ATOM     49  C   UNL     1      -2.897   2.804  -9.281  1.00  0.00     0.031 A 
ATOM     50  C   UNL     1      -3.267  -0.504  -3.453  1.00  0.00     0.031 A 
ATOM     51  C   UNL     1      -4.298   2.731  -8.952  1.00  0.00     0.049 A 
ATOM     52  C   UNL     1      -4.182  -0.715  -4.584  1.00  0.00     0.074 A 
ATOM     53  C   UNL     1      -5.388   3.571  -9.017  1.00  0.00     0.029 A 
ATOM     54  N   UNL     1      -4.638   1.702  -8.112  1.00  0.00    -0.354 N 
ATOM     55  N   UNL     1      -5.383  -0.213  -4.623  1.00  0.00    -0.248 NA
ATOM     56  C   UNL     1      -3.685  -1.268  -5.838  1.00  0.00     0.031 C 
ATOM     57  C   UNL     1      -6.376   3.043  -8.133  1.00  0.00     0.029 A 
ATOM     58  C   UNL     1      -5.875   1.890  -7.540  1.00  0.00     0.049 A 
ATOM     59  H   UNL     1      -4.065   0.920  -7.939  1.00  0.00     0.167 HD
ATOM     60  C   UNL     1      -5.595   0.019  -5.965  1.00  0.00     0.074 A 
ATOM     61  C   UNL     1      -4.616  -0.795  -6.668  1.00  0.00     0.031 C 
ATOM     62  C   UNL     1      -6.281   1.120  -6.380  1.00  0.00     0.031 A 
BRANCH  49  63
ATOM     63  C   UNL     1      -2.217   1.762 -10.109  1.00  0.00    -0.014 A 
ATOM     64  C   UNL     1      -2.802   1.336 -11.305  1.00  0.00     0.010 A 
ATOM     65  C   UNL     1      -1.092   1.051  -9.628  1.00  0.00     0.010 A 
ATOM     66  C   UNL     1      -2.245   0.273 -12.022  1.00  0.00     0.020 A 
ATOM     67  C   UNL     1      -0.501   0.028 -10.357  1.00  0.00     0.020 A 
ATOM     68  C   UNL     1      -1.091  -0.362 -11.550  1.00  0.00     0.054 A 
BRANCH  68  69
ATOM     69  S   UNL     1      -0.369  -1.718 -12.498  1.00  0.00     0.124 S 
ATOM     70  O   UNL     1      -1.320  -2.796 -12.250  1.00  0.00    -0.237 OA
ATOM     71  O   UNL     1      -0.358  -1.178 -13.855  1.00  0.00    -0.237 OA
ATOM     72  O   UNL     1       0.951  -1.890 -11.895  1.00  0.00    -0.744 OA
ENDBRANCH  68  69
ENDBRANCH  49  63
BRANCH  50  73
ATOM     73  C   UNL     1      -2.565  -1.634  -2.799  1.00  0.00    -0.014 A 
ATOM     74  C   UNL     1      -3.238  -2.849  -2.567  1.00  0.00     0.010 A 
ATOM     75  C   UNL     1      -1.179  -1.589  -2.565  1.00  0.00     0.010 A 
ATOM     76  C   UNL     1      -2.544  -3.991  -2.140  1.00  0.00     0.020 A 
ATOM     77  C   UNL     1      -0.478  -2.732  -2.159  1.00  0.00     0.020 A 
ATOM     78  C   UNL     1      -1.162  -3.929  -1.955  1.00  0.00     0.054 A 
BRANCH  78  79
ATOM     79  S   UNL     1      -0.266  -5.413  -1.414  1.00  0.00     0.124 S 
ATOM     80  O   UNL     1      -1.111  -5.922  -0.336  1.00  0.00    -0.237 OA
ATOM     81  O   UNL     1      -0.240  -6.219  -2.630  1.00  0.00    -0.237 OA
ATOM     82  O   UNL     1       1.029  -4.892  -0.980  1.00  0.00    -0.744 OA
ENDBRANCH  78  79
ENDBRANCH  50  73
BRANCH  62  83
ATOM     83  C   UNL     1      -7.401   1.611  -5.505  1.00  0.00    -0.014 A 
ATOM     84  C   UNL     1      -7.239   2.093  -4.194  1.00  0.00     0.010 A 
ATOM     85  C   UNL     1      -8.697   1.579  -6.052  1.00  0.00     0.010 A 
ATOM     86  C   UNL     1      -8.348   2.518  -3.445  1.00  0.00     0.020 A 
ATOM     87  C   UNL     1      -9.803   2.015  -5.319  1.00  0.00     0.020 A 
ATOM     88  C   UNL     1      -9.625   2.477  -4.015  1.00  0.00     0.054 A 
BRANCH  88  89
ATOM     89  S   UNL     1     -11.049   3.072  -3.060  1.00  0.00     0.124 S 
ATOM     90  O   UNL     1     -11.195   2.046  -2.031  1.00  0.00    -0.237 OA
ATOM     91  O   UNL     1     -10.599   4.379  -2.586  1.00  0.00    -0.237 OA
ATOM     92  O   UNL     1     -12.132   3.119  -4.043  1.00  0.00    -0.744 OA
ENDBRANCH  88  89
ENDBRANCH  62  83
ENDBRANCH  36  37
ENDBRANCH  29  31
ENDBRANCH  28  29
ENDBRANCH  27  28
ENDBRANCH   1  27
TORSDOF 18
