REMARK SMILES O=C(OCCOCCOC(=O)[C@H]1C[C@H]2CCCC[C@@H]2[N@@H+]1CC[C@@H]1CCCO1)c1ccc(-c2c3nc(c(-c4ccc(S(=O)(=O)[O-])cc4)c4ccc([nH]4)c(-c4ccc(S(=O)(=O)[O-])cc4)c4nc(c(-c5ccc(S(=O)(=O)[O-])cc5)c5ccc2[nH]5)C=C4)C=C3)cc1
REMARK SMILES IDX 6 1 5 2 4 3 3 4 2 5 1 6 28 7 29 8 87 9 30 10 86 11 31 12
REMARK SMILES IDX 32 13 33 14 80 15 34 16 85 17 79 18 81 19 35 20 84 21 78 22
REMARK SMILES IDX 77 23 36 25 66 26 47 27 65 28 48 29 51 30 64 31 82 32 49 33
REMARK SMILES IDX 50 34 63 36 83 37 52 38 37 39 38 40 46 41 39 42 45 43 40 44
REMARK SMILES IDX 41 45 42 46 43 47 44 48 67 49 68 50 76 51 69 52 75 53 70 54
REMARK SMILES IDX 71 55 72 56 73 57 74 58 53 59 54 60 62 61 55 62 61 63 56 64
REMARK SMILES IDX 57 65 58 66 59 67 60 68 7 69 8 70 9 71 10 72 11 73 12 74
REMARK SMILES IDX 13 75 20 76 14 77 19 78 15 80 18 81 16 82 17 83 21 84 22 85
REMARK SMILES IDX 23 86 24 87 27 88 25 89 26 90
REMARK H PARENT 81 24 51 35 20 79
REMARK Flexibility Score: inf
ROOT
ATOM      1  O   UNL     1       6.040  -2.443   1.214  1.00  0.00    -0.374 OA
ENDROOT
BRANCH   1   2
ATOM      2  C   UNL     1       4.708  -2.946   1.118  1.00  0.00     0.202 C 
BRANCH   2   3
ATOM      3  C   UNL     1       3.848  -2.819   2.377  1.00  0.00     0.261 C 
BRANCH   3   4
ATOM      4  O   UNL     1       3.728  -1.440   2.759  1.00  0.00    -0.460 OA
BRANCH   4   5
ATOM      5  C   UNL     1       4.542  -0.770   3.612  1.00  0.00     0.338 C 
ATOM      6  O   UNL     1       4.440   0.447   3.711  1.00  0.00    -0.246 OA
BRANCH   5   7
ATOM      7  C   UNL     1       5.507  -1.480   4.493  1.00  0.00     0.060 A 
ATOM      8  C   UNL     1       6.265  -2.580   4.094  1.00  0.00     0.016 A 
ATOM      9  C   UNL     1       5.703  -0.973   5.784  1.00  0.00     0.016 A 
ATOM     10  C   UNL     1       7.129  -3.221   4.944  1.00  0.00     0.010 A 
ATOM     11  C   UNL     1       6.618  -1.582   6.644  1.00  0.00     0.010 A 
ATOM     12  C   UNL     1       7.319  -2.715   6.216  1.00  0.00    -0.014 A 
BRANCH  12  13
ATOM     13  C   UNL     1       8.177  -3.510   7.092  1.00  0.00     0.031 A 
ATOM     14  C   UNL     1       7.512  -4.344   8.133  1.00  0.00     0.074 A 
ATOM     15  C   UNL     1       9.487  -3.604   6.802  1.00  0.00     0.049 A 
ATOM     16  N   UNL     1       8.050  -5.051   9.082  1.00  0.00    -0.248 NA
ATOM     17  C   UNL     1       6.038  -4.398   8.093  1.00  0.00     0.031 C 
ATOM     18  C   UNL     1      10.149  -2.965   5.655  1.00  0.00     0.029 A 
ATOM     19  N   UNL     1      10.485  -4.302   7.413  1.00  0.00    -0.354 N 
ATOM     20  C   UNL     1       6.983  -5.582   9.794  1.00  0.00     0.074 A 
ATOM     21  C   UNL     1       5.767  -5.134   9.158  1.00  0.00     0.031 C 
ATOM     22  C   UNL     1      11.442  -3.321   5.641  1.00  0.00     0.029 A 
ATOM     23  C   UNL     1      11.714  -4.118   6.827  1.00  0.00     0.049 A 
ATOM     24  H   UNL     1      10.340  -4.881   8.197  1.00  0.00     0.167 HD
ATOM     25  C   UNL     1       7.041  -6.351  10.903  1.00  0.00     0.031 A 
ATOM     26  C   UNL     1      12.929  -4.503   7.255  1.00  0.00     0.031 A 
ATOM     27  C   UNL     1       8.292  -6.750  11.488  1.00  0.00     0.049 A 
ATOM     28  C   UNL     1      12.979  -5.257   8.554  1.00  0.00     0.074 A 
ATOM     29  C   UNL     1       8.522  -7.451  12.653  1.00  0.00     0.029 A 
ATOM     30  N   UNL     1       9.536  -6.471  10.928  1.00  0.00    -0.354 N 
ATOM     31  N   UNL     1      11.978  -5.656   9.309  1.00  0.00    -0.248 NA
ATOM     32  C   UNL     1      14.305  -5.595   9.074  1.00  0.00     0.031 C 
ATOM     33  C   UNL     1       9.907  -7.548  12.825  1.00  0.00     0.029 A 
ATOM     34  C   UNL     1      10.540  -6.971  11.731  1.00  0.00     0.049 A 
ATOM     35  H   UNL     1       9.678  -5.988  10.082  1.00  0.00     0.167 HD
ATOM     36  C   UNL     1      12.552  -6.311  10.387  1.00  0.00     0.074 A 
ATOM     37  C   UNL     1      13.989  -6.266  10.174  1.00  0.00     0.031 C 
ATOM     38  C   UNL     1      11.957  -6.896  11.457  1.00  0.00     0.031 A 
BRANCH  25  39
ATOM     39  C   UNL     1       5.739  -6.675  11.579  1.00  0.00    -0.014 A 
ATOM     40  C   UNL     1       4.795  -7.546  11.004  1.00  0.00     0.010 A 
ATOM     41  C   UNL     1       5.425  -6.035  12.792  1.00  0.00     0.010 A 
ATOM     42  C   UNL     1       3.544  -7.729  11.604  1.00  0.00     0.020 A 
ATOM     43  C   UNL     1       4.188  -6.237  13.410  1.00  0.00     0.020 A 
ATOM     44  C   UNL     1       3.246  -7.066  12.799  1.00  0.00     0.054 A 
BRANCH  44  45
ATOM     45  S   UNL     1       1.612  -7.308  13.549  1.00  0.00     0.124 S 
ATOM     46  O   UNL     1       0.749  -6.558  12.639  1.00  0.00    -0.237 OA
ATOM     47  O   UNL     1       1.454  -8.759  13.509  1.00  0.00    -0.237 OA
ATOM     48  O   UNL     1       1.754  -6.736  14.885  1.00  0.00    -0.744 OA
ENDBRANCH  44  45
ENDBRANCH  25  39
BRANCH  26  49
ATOM     49  C   UNL     1      14.151  -4.103   6.506  1.00  0.00    -0.014 A 
ATOM     50  C   UNL     1      14.973  -5.061   5.889  1.00  0.00     0.010 A 
ATOM     51  C   UNL     1      14.484  -2.740   6.373  1.00  0.00     0.010 A 
ATOM     52  C   UNL     1      16.105  -4.666   5.167  1.00  0.00     0.020 A 
ATOM     53  C   UNL     1      15.596  -2.338   5.627  1.00  0.00     0.020 A 
ATOM     54  C   UNL     1      16.408  -3.307   5.038  1.00  0.00     0.054 A 
BRANCH  54  55
ATOM     55  S   UNL     1      17.857  -2.817   4.062  1.00  0.00     0.124 S 
ATOM     56  O   UNL     1      18.959  -3.244   4.919  1.00  0.00    -0.237 OA
ATOM     57  O   UNL     1      17.680  -3.582   2.830  1.00  0.00    -0.237 OA
ATOM     58  O   UNL     1      17.702  -1.372   3.917  1.00  0.00    -0.744 OA
ENDBRANCH  54  55
ENDBRANCH  26  49
BRANCH  38  59
ATOM     59  C   UNL     1      12.864  -7.576  12.439  1.00  0.00    -0.014 A 
ATOM     60  C   UNL     1      13.657  -6.837  13.332  1.00  0.00     0.010 A 
ATOM     61  C   UNL     1      12.852  -8.980  12.515  1.00  0.00     0.010 A 
ATOM     62  C   UNL     1      14.444  -7.497  14.274  1.00  0.00     0.020 A 
ATOM     63  C   UNL     1      13.612  -9.641  13.477  1.00  0.00     0.020 A 
ATOM     64  C   UNL     1      14.412  -8.894  14.344  1.00  0.00     0.054 A 
BRANCH  64  65
ATOM     65  S   UNL     1      15.389  -9.724  15.623  1.00  0.00     0.124 S 
ATOM     66  O   UNL     1      16.748  -9.572  15.112  1.00  0.00    -0.237 OA
ATOM     67  O   UNL     1      15.076  -8.945  16.819  1.00  0.00    -0.237 OA
ATOM     68  O   UNL     1      14.871 -11.090  15.624  1.00  0.00    -0.744 OA
ENDBRANCH  64  65
ENDBRANCH  38  59
ENDBRANCH  12  13
ENDBRANCH   5   7
ENDBRANCH   4   5
ENDBRANCH   3   4
ENDBRANCH   2   3
ENDBRANCH   1   2
BRANCH   1  69
ATOM     69  C   UNL     1       6.232  -1.081   0.838  1.00  0.00     0.202 C 
BRANCH  69  70
ATOM     70  C   UNL     1       6.945  -1.014  -0.509  1.00  0.00     0.261 C 
BRANCH  70  71
ATOM     71  O   UNL     1       6.091  -1.613  -1.501  1.00  0.00    -0.459 OA
BRANCH  71  72
ATOM     72  C   UNL     1       6.306  -2.949  -1.693  1.00  0.00     0.365 C 
ATOM     73  O   UNL     1       7.308  -3.555  -1.327  1.00  0.00    -0.245 OA
BRANCH  72  74
ATOM     74  C   UNL     1       5.097  -3.595  -2.407  1.00  0.00     0.295 C 
ATOM     75  C   UNL     1       5.658  -4.537  -3.487  1.00  0.00     0.087 C 
ATOM     76  N   UNL     1       4.347  -4.461  -1.451  1.00  0.00    -0.320 N 
ATOM     77  C   UNL     1       5.214  -5.920  -3.036  1.00  0.00     0.054 C 
ATOM     78  C   UNL     1       4.982  -5.770  -1.542  1.00  0.00     0.188 C 
ATOM     79  H   UNL     1       4.431  -4.098  -0.502  1.00  0.00     0.349 HD
ATOM     80  C   UNL     1       6.130  -7.097  -3.308  1.00  0.00     0.010 C 
ATOM     81  C   UNL     1       4.352  -6.990  -0.885  1.00  0.00     0.065 C 
ATOM     82  C   UNL     1       5.485  -8.368  -2.741  1.00  0.00     0.001 C 
ATOM     83  C   UNL     1       5.127  -8.261  -1.252  1.00  0.00     0.006 C 
BRANCH  76  84
ATOM     84  C   UNL     1       2.886  -4.374  -1.412  1.00  0.00     0.265 C 
BRANCH  84  85
ATOM     85  C   UNL     1       2.017  -4.431  -2.680  1.00  0.00     0.093 C 
BRANCH  85  86
ATOM     86  C   UNL     1       1.335  -5.749  -3.077  1.00  0.00     0.123 C 
ATOM     87  C   UNL     1       0.279  -6.298  -2.123  1.00  0.00     0.034 C 
ATOM     88  O   UNL     1       2.246  -6.812  -3.325  1.00  0.00    -0.378 OA
ATOM     89  C   UNL     1       0.540  -7.791  -2.067  1.00  0.00     0.031 C 
ATOM     90  C   UNL     1       1.541  -8.041  -3.168  1.00  0.00     0.160 C 
ENDBRANCH  85  86
ENDBRANCH  84  85
ENDBRANCH  76  84
ENDBRANCH  72  74
ENDBRANCH  71  72
ENDBRANCH  70  71
ENDBRANCH  69  70
ENDBRANCH   1  69
TORSDOF 20
