REMARK SMILES O=C(OCCOCCOC(=O)c1ccc(-c2c3nc(c(-c4ccc(S(=O)(=O)[O-])cc4)c4ccc([nH]4)c(-c4ccc(S(=O)(=O)[O-])cc4)c4nc(c(-c5ccc(S(=O)(=O)[O-])cc5)c5ccc2[nH]5)C=C4)C=C3)cc1)C1=Cc2cc(Cl)c(Cl)c(Cl)c2O[C@@H]1C(F)(F)F
REMARK SMILES IDX 7 1 6 2 5 3 4 4 3 5 2 6 1 7 72 8 73 9 84 10 74 11 83 12
REMARK SMILES IDX 75 13 82 14 76 15 80 16 77 17 78 18 81 19 79 20 85 21 86 22
REMARK SMILES IDX 87 23 88 24 8 25 9 26 10 27 11 28 12 29 13 30 71 31 14 32
REMARK SMILES IDX 70 33 15 34 16 35 17 36 64 37 18 38 69 39 63 40 65 41 19 42
REMARK SMILES IDX 68 43 62 44 61 45 20 47 50 48 31 49 49 50 32 51 35 52 48 53
REMARK SMILES IDX 66 54 33 55 34 56 47 58 67 59 36 60 21 61 22 62 30 63 23 64
REMARK SMILES IDX 29 65 24 66 25 67 26 68 27 69 28 70 51 71 52 72 60 73 53 74
REMARK SMILES IDX 59 75 54 76 55 77 56 78 57 79 58 80 37 81 38 82 46 83 39 84
REMARK SMILES IDX 45 85 40 86 41 87 42 88 43 89 44 90
REMARK H PARENT 65 46 35 57
REMARK Flexibility Score: inf
ROOT
ATOM      1  C   UNL     1       2.706  -2.909   0.378  1.00  0.00     0.202 C 
ENDROOT
BRANCH   1   2
ATOM      2  O   UNL     1       3.894  -2.345  -0.197  1.00  0.00    -0.374 OA
BRANCH   2   3
ATOM      3  C   UNL     1       4.315  -0.887  -0.696  1.00  0.00     0.202 C 
BRANCH   3   4
ATOM      4  C   UNL     1       3.489   1.096  -0.310  1.00  0.00     0.261 C 
BRANCH   4   5
ATOM      5  O   UNL     1       2.532   1.882  -1.222  1.00  0.00    -0.460 OA
BRANCH   5   6
ATOM      6  C   UNL     1       2.668   1.569  -2.513  1.00  0.00     0.338 C 
ATOM      7  O   UNL     1       2.024   1.925  -3.466  1.00  0.00    -0.246 OA
BRANCH   6   8
ATOM      8  C   UNL     1       3.536   0.435  -2.293  1.00  0.00     0.087 C 
ATOM      9  C   UNL     1       4.931   0.858  -2.029  1.00  0.00     0.027 C 
ATOM     10  C   UNL     1       2.391  -0.461  -1.014  1.00  0.00     0.316 C 
ATOM     11  C   UNL     1       5.703   0.788  -0.391  1.00  0.00     0.020 A 
ATOM     12  O   UNL     1       3.170  -0.471   0.756  1.00  0.00    -0.474 OA
ATOM     13  C   UNL     1       6.939   1.344  -0.229  1.00  0.00     0.034 A 
ATOM     14  C   UNL     1       4.831   0.256   1.012  1.00  0.00     0.148 A 
ATOM     15  C   UNL     1       7.355   1.512   1.103  1.00  0.00     0.062 A 
ATOM     16  C   UNL     1       5.229   0.646   2.266  1.00  0.00     0.103 A 
ATOM     17  Cl  UNL     1       8.975   2.150   1.256  1.00  0.00    -0.083 Cl
ATOM     18  C   UNL     1       6.526   1.254   2.286  1.00  0.00     0.082 A 
ATOM     19  Cl  UNL     1       4.108   0.743   3.556  1.00  0.00    -0.079 Cl
ATOM     20  Cl  UNL     1       7.168   1.840   3.796  1.00  0.00    -0.081 Cl
BRANCH  10  21
ATOM     21  C   UNL     1       1.908  -1.636  -1.971  1.00  0.00     0.430 C 
ATOM     22  F   UNL     1       1.002  -2.483  -1.453  1.00  0.00    -0.167 F 
ATOM     23  F   UNL     1       1.264  -1.050  -3.027  1.00  0.00    -0.167 F 
ATOM     24  F   UNL     1       2.904  -2.352  -2.541  1.00  0.00    -0.167 F 
ENDBRANCH  10  21
ENDBRANCH   6   8
ENDBRANCH   5   6
ENDBRANCH   4   5
ENDBRANCH   3   4
ENDBRANCH   2   3
ENDBRANCH   1   2
BRANCH   1  25
ATOM     25  C   UNL     1       2.861  -3.693   1.672  1.00  0.00     0.261 C 
BRANCH  25  26
ATOM     26  O   UNL     1       3.419  -2.912   2.711  1.00  0.00    -0.460 OA
BRANCH  26  27
ATOM     27  C   UNL     1       4.758  -3.043   2.825  1.00  0.00     0.338 C 
ATOM     28  O   UNL     1       5.522  -3.598   2.055  1.00  0.00    -0.246 OA
BRANCH  27  29
ATOM     29  C   UNL     1       5.174  -2.373   4.064  1.00  0.00     0.060 A 
ATOM     30  C   UNL     1       6.484  -1.895   4.131  1.00  0.00     0.016 A 
ATOM     31  C   UNL     1       4.279  -2.190   5.130  1.00  0.00     0.016 A 
ATOM     32  C   UNL     1       6.898  -1.214   5.266  1.00  0.00     0.010 A 
ATOM     33  C   UNL     1       4.689  -1.494   6.258  1.00  0.00     0.010 A 
ATOM     34  C   UNL     1       6.005  -1.021   6.330  1.00  0.00    -0.014 A 
BRANCH  34  35
ATOM     35  C   UNL     1       6.533  -0.545   7.617  1.00  0.00     0.031 A 
ATOM     36  C   UNL     1       7.011  -1.590   8.573  1.00  0.00     0.074 A 
ATOM     37  C   UNL     1       6.623   0.765   7.896  1.00  0.00     0.049 A 
ATOM     38  N   UNL     1       7.604  -1.442   9.724  1.00  0.00    -0.248 NA
ATOM     39  C   UNL     1       6.782  -2.992   8.180  1.00  0.00     0.031 C 
ATOM     40  C   UNL     1       6.175   1.846   7.025  1.00  0.00     0.029 A 
ATOM     41  N   UNL     1       7.146   1.409   8.985  1.00  0.00    -0.354 N 
ATOM     42  C   UNL     1       7.824  -2.729  10.189  1.00  0.00     0.074 A 
ATOM     43  C   UNL     1       7.264  -3.645   9.223  1.00  0.00     0.031 C 
ATOM     44  C   UNL     1       6.506   3.025   7.578  1.00  0.00     0.029 A 
ATOM     45  C   UNL     1       7.119   2.779   8.879  1.00  0.00     0.049 A 
ATOM     46  H   UNL     1       7.507   0.935   9.769  1.00  0.00     0.167 HD
ATOM     47  C   UNL     1       8.447  -3.110  11.325  1.00  0.00     0.031 A 
ATOM     48  C   UNL     1       7.532   3.720   9.749  1.00  0.00     0.031 A 
ATOM     49  C   UNL     1       8.945  -2.180  12.299  1.00  0.00     0.049 A 
ATOM     50  C   UNL     1       8.139   3.265  11.052  1.00  0.00     0.074 A 
ATOM     51  C   UNL     1       9.584  -2.448  13.493  1.00  0.00     0.029 A 
ATOM     52  N   UNL     1       8.836  -0.799  12.198  1.00  0.00    -0.354 N 
ATOM     53  N   UNL     1       8.389   2.044  11.466  1.00  0.00    -0.248 NA
ATOM     54  C   UNL     1       8.523   4.315  12.003  1.00  0.00     0.031 C 
ATOM     55  C   UNL     1       9.790  -1.232  14.152  1.00  0.00     0.029 A 
ATOM     56  C   UNL     1       9.364  -0.201  13.327  1.00  0.00     0.049 A 
ATOM     57  H   UNL     1       8.441  -0.318  11.435  1.00  0.00     0.167 HD
ATOM     58  C   UNL     1       8.994   2.181  12.710  1.00  0.00     0.074 A 
ATOM     59  C   UNL     1       9.086   3.604  12.970  1.00  0.00     0.031 C 
ATOM     60  C   UNL     1       9.440   1.221  13.560  1.00  0.00     0.031 A 
BRANCH  47  61
ATOM     61  C   UNL     1       8.550  -4.587  11.583  1.00  0.00    -0.014 A 
ATOM     62  C   UNL     1       9.345  -5.420  10.774  1.00  0.00     0.010 A 
ATOM     63  C   UNL     1       7.822  -5.153  12.643  1.00  0.00     0.010 A 
ATOM     64  C   UNL     1       9.373  -6.798  10.992  1.00  0.00     0.020 A 
ATOM     65  C   UNL     1       7.876  -6.526  12.889  1.00  0.00     0.020 A 
ATOM     66  C   UNL     1       8.638  -7.342  12.050  1.00  0.00     0.054 A 
BRANCH  66  67
ATOM     67  S   UNL     1       8.707  -9.133  12.322  1.00  0.00     0.124 S 
ATOM     68  O   UNL     1       7.979  -9.643  11.163  1.00  0.00    -0.237 OA
ATOM     69  O   UNL     1      10.144  -9.397  12.327  1.00  0.00    -0.237 OA
ATOM     70  O   UNL     1       8.038  -9.315  13.607  1.00  0.00    -0.744 OA
ENDBRANCH  66  67
ENDBRANCH  47  61
BRANCH  48  71
ATOM     71  C   UNL     1       7.380   5.168   9.434  1.00  0.00    -0.014 A 
ATOM     72  C   UNL     1       8.508   5.995   9.280  1.00  0.00     0.010 A 
ATOM     73  C   UNL     1       6.099   5.739   9.304  1.00  0.00     0.010 A 
ATOM     74  C   UNL     1       8.359   7.363   9.030  1.00  0.00     0.020 A 
ATOM     75  C   UNL     1       5.946   7.099   9.020  1.00  0.00     0.020 A 
ATOM     76  C   UNL     1       7.078   7.906   8.898  1.00  0.00     0.054 A 
BRANCH  76  77
ATOM     77  S   UNL     1       6.912   9.677   8.538  1.00  0.00     0.124 S 
ATOM     78  O   UNL     1       7.373  10.286   9.781  1.00  0.00    -0.237 OA
ATOM     79  O   UNL     1       7.791   9.845   7.384  1.00  0.00    -0.237 OA
ATOM     80  O   UNL     1       5.487   9.837   8.255  1.00  0.00    -0.744 OA
ENDBRANCH  76  77
ENDBRANCH  48  71
BRANCH  60  81
ATOM     81  C   UNL     1      10.116   1.678  14.827  1.00  0.00    -0.014 A 
ATOM     82  C   UNL     1       9.404   2.320  15.856  1.00  0.00     0.010 A 
ATOM     83  C   UNL     1      11.486   1.409  15.005  1.00  0.00     0.010 A 
ATOM     84  C   UNL     1      10.062   2.722  17.021  1.00  0.00     0.020 A 
ATOM     85  C   UNL     1      12.136   1.771  16.185  1.00  0.00     0.020 A 
ATOM     86  C   UNL     1      11.423   2.443  17.179  1.00  0.00     0.054 A 
BRANCH  86  87
ATOM     87  S   UNL     1      12.243   2.944  18.715  1.00  0.00     0.124 S 
ATOM     88  O   UNL     1      12.274   4.398  18.583  1.00  0.00    -0.237 OA
ATOM     89  O   UNL     1      11.341   2.425  19.741  1.00  0.00    -0.237 OA
ATOM     90  O   UNL     1      13.545   2.285  18.646  1.00  0.00    -0.744 OA
ENDBRANCH  86  87
ENDBRANCH  60  81
ENDBRANCH  34  35
ENDBRANCH  27  29
ENDBRANCH  26  27
ENDBRANCH  25  26
ENDBRANCH   1  25
TORSDOF 18
