REMARK SMILES O=C(OCCOCCOC(=O)[C@H]1CC2(CC[NH+](C(=O)C3CC3)CC2)CN1C(=O)CCn1cccn1)c1ccc(-c2c3nc(c(-c4ccc(S(=O)(=O)[O-])cc4)c4ccc([nH]4)c(-c4ccc(S(=O)(=O)[O-])cc4)c4nc(c(-c5ccc(S(=O)(=O)[O-])cc5)c5ccc2[nH]5)C=C4)C=C3)cc1
REMARK SMILES IDX 7 1 6 2 5 3 4 4 3 5 2 6 1 7 36 8 37 9 95 10 38 11 94 12
REMARK SMILES IDX 39 13 40 14 41 15 88 16 42 17 93 18 87 19 89 20 43 21 92 22
REMARK SMILES IDX 86 23 85 24 44 26 74 27 55 28 73 29 56 30 59 31 72 32 90 33
REMARK SMILES IDX 57 34 58 35 71 37 91 38 60 39 45 40 46 41 54 42 47 43 53 44
REMARK SMILES IDX 48 45 49 46 50 47 51 48 52 49 75 50 76 51 84 52 77 53 83 54
REMARK SMILES IDX 78 55 79 56 80 57 81 58 82 59 61 60 62 61 70 62 63 63 69 64
REMARK SMILES IDX 64 65 65 66 66 67 67 68 68 69 8 70 9 71 10 72 11 73 12 74
REMARK SMILES IDX 13 75 26 76 14 77 25 78 15 79 24 80 16 81 23 82 17 83 27 85
REMARK SMILES IDX 28 86 29 87 30 88 31 89 32 90 35 91 33 92 34 93 18 94 19 95
REMARK SMILES IDX 20 96 21 97 22 98
REMARK H PARENT 89 25 59 36 17 84
REMARK Flexibility Score: inf
ROOT
ATOM      1  C   UNL     1       7.384  -0.897   1.495  1.00  0.00     0.202 C 
ENDROOT
BRANCH   1   2
ATOM      2  O   UNL     1       7.387  -2.081   2.265  1.00  0.00    -0.374 OA
BRANCH   2   3
ATOM      3  C   UNL     1       6.366  -2.249   3.240  1.00  0.00     0.202 C 
BRANCH   3   4
ATOM      4  C   UNL     1       4.941  -1.669   3.025  1.00  0.00     0.261 C 
BRANCH   4   5
ATOM      5  O   UNL     1       4.868  -0.244   2.897  1.00  0.00    -0.460 OA
BRANCH   5   6
ATOM      6  C   UNL     1       5.429   0.619   3.772  1.00  0.00     0.338 C 
ATOM      7  O   UNL     1       5.968   1.643   3.391  1.00  0.00    -0.246 OA
BRANCH   6   8
ATOM      8  C   UNL     1       5.162   0.401   5.205  1.00  0.00     0.060 A 
ATOM      9  C   UNL     1       5.129  -0.846   5.840  1.00  0.00     0.016 A 
ATOM     10  C   UNL     1       4.944   1.572   5.934  1.00  0.00     0.016 A 
ATOM     11  C   UNL     1       4.813  -0.951   7.163  1.00  0.00     0.010 A 
ATOM     12  C   UNL     1       4.670   1.483   7.278  1.00  0.00     0.010 A 
ATOM     13  C   UNL     1       4.585   0.217   7.861  1.00  0.00    -0.014 A 
BRANCH  13  14
ATOM     14  C   UNL     1       4.414   0.054   9.280  1.00  0.00     0.031 A 
ATOM     15  C   UNL     1       5.630  -0.453   9.980  1.00  0.00     0.074 A 
ATOM     16  C   UNL     1       3.272   0.489   9.829  1.00  0.00     0.049 A 
ATOM     17  N   UNL     1       5.742  -1.457  10.786  1.00  0.00    -0.248 NA
ATOM     18  C   UNL     1       6.927   0.140   9.589  1.00  0.00     0.031 C 
ATOM     19  C   UNL     1       2.194   1.226   9.162  1.00  0.00     0.029 A 
ATOM     20  N   UNL     1       2.957   0.580  11.138  1.00  0.00    -0.354 N 
ATOM     21  C   UNL     1       7.083  -1.486  11.167  1.00  0.00     0.074 A 
ATOM     22  C   UNL     1       7.787  -0.622  10.259  1.00  0.00     0.031 C 
ATOM     23  C   UNL     1       1.558   1.972  10.088  1.00  0.00     0.029 A 
ATOM     24  C   UNL     1       2.107   1.645  11.394  1.00  0.00     0.049 A 
ATOM     25  H   UNL     1       3.290  -0.037  11.829  1.00  0.00     0.167 HD
ATOM     26  C   UNL     1       7.490  -2.004  12.358  1.00  0.00     0.031 A 
ATOM     27  C   UNL     1       2.017   2.312  12.568  1.00  0.00     0.031 A 
ATOM     28  C   UNL     1       6.492  -2.860  12.939  1.00  0.00     0.049 A 
ATOM     29  C   UNL     1       2.634   1.451  13.614  1.00  0.00     0.074 A 
ATOM     30  C   UNL     1       5.886  -4.037  12.551  1.00  0.00     0.029 A 
ATOM     31  N   UNL     1       5.695  -2.318  13.921  1.00  0.00    -0.354 N 
ATOM     32  N   UNL     1       2.163   0.280  13.950  1.00  0.00    -0.248 NA
ATOM     33  C   UNL     1       4.032   1.669  13.965  1.00  0.00     0.031 C 
ATOM     34  C   UNL     1       4.533  -3.908  12.977  1.00  0.00     0.029 A 
ATOM     35  C   UNL     1       4.403  -2.689  13.649  1.00  0.00     0.049 A 
ATOM     36  H   UNL     1       5.996  -1.767  14.679  1.00  0.00     0.167 HD
ATOM     37  C   UNL     1       3.280  -0.519  14.159  1.00  0.00     0.074 A 
ATOM     38  C   UNL     1       4.395   0.419  14.274  1.00  0.00     0.031 C 
ATOM     39  C   UNL     1       3.243  -1.866  13.925  1.00  0.00     0.031 A 
BRANCH  26  40
ATOM     40  C   UNL     1       8.601  -1.390  13.178  1.00  0.00    -0.014 A 
ATOM     41  C   UNL     1       8.971  -1.998  14.393  1.00  0.00     0.010 A 
ATOM     42  C   UNL     1       9.083  -0.083  12.946  1.00  0.00     0.010 A 
ATOM     43  C   UNL     1       9.703  -1.297  15.361  1.00  0.00     0.020 A 
ATOM     44  C   UNL     1       9.851   0.607  13.882  1.00  0.00     0.020 A 
ATOM     45  C   UNL     1      10.117   0.011  15.105  1.00  0.00     0.054 A 
BRANCH  45  46
ATOM     46  S   UNL     1      10.922   0.967  16.412  1.00  0.00     0.124 S 
ATOM     47  O   UNL     1       9.832   1.141  17.366  1.00  0.00    -0.237 OA
ATOM     48  O   UNL     1      11.998   0.074  16.830  1.00  0.00    -0.237 OA
ATOM     49  O   UNL     1      11.356   2.183  15.727  1.00  0.00    -0.744 OA
ENDBRANCH  45  46
ENDBRANCH  26  40
BRANCH  27  50
ATOM     50  C   UNL     1       1.796   3.770  12.712  1.00  0.00    -0.014 A 
ATOM     51  C   UNL     1       1.395   4.316  13.939  1.00  0.00     0.010 A 
ATOM     52  C   UNL     1       2.186   4.665  11.688  1.00  0.00     0.010 A 
ATOM     53  C   UNL     1       1.417   5.704  14.148  1.00  0.00     0.020 A 
ATOM     54  C   UNL     1       2.194   6.049  11.883  1.00  0.00     0.020 A 
ATOM     55  C   UNL     1       1.829   6.561  13.122  1.00  0.00     0.054 A 
BRANCH  55  56
ATOM     56  S   UNL     1       1.995   8.337  13.455  1.00  0.00     0.124 S 
ATOM     57  O   UNL     1       0.604   8.758  13.594  1.00  0.00    -0.237 OA
ATOM     58  O   UNL     1       2.787   8.355  14.682  1.00  0.00    -0.237 OA
ATOM     59  O   UNL     1       2.682   8.848  12.270  1.00  0.00    -0.744 OA
ENDBRANCH  55  56
ENDBRANCH  27  50
BRANCH  39  60
ATOM     60  C   UNL     1       1.899  -2.513  13.663  1.00  0.00    -0.014 A 
ATOM     61  C   UNL     1       1.087  -2.184  12.559  1.00  0.00     0.010 A 
ATOM     62  C   UNL     1       1.532  -3.613  14.456  1.00  0.00     0.010 A 
ATOM     63  C   UNL     1      -0.074  -2.915  12.274  1.00  0.00     0.020 A 
ATOM     64  C   UNL     1       0.385  -4.358  14.168  1.00  0.00     0.020 A 
ATOM     65  C   UNL     1      -0.418  -4.000  13.083  1.00  0.00     0.054 A 
BRANCH  65  66
ATOM     66  S   UNL     1      -1.894  -4.974  12.678  1.00  0.00     0.124 S 
ATOM     67  O   UNL     1      -2.979  -4.049  12.991  1.00  0.00    -0.237 OA
ATOM     68  O   UNL     1      -1.708  -5.270  11.259  1.00  0.00    -0.237 OA
ATOM     69  O   UNL     1      -1.797  -6.136  13.561  1.00  0.00    -0.744 OA
ENDBRANCH  65  66
ENDBRANCH  39  60
ENDBRANCH  13  14
ENDBRANCH   6   8
ENDBRANCH   5   6
ENDBRANCH   4   5
ENDBRANCH   3   4
ENDBRANCH   2   3
ENDBRANCH   1   2
BRANCH   1  70
ATOM     70  C   UNL     1       6.746  -1.151   0.139  1.00  0.00     0.261 C 
BRANCH  70  71
ATOM     71  O   UNL     1       5.610  -2.045   0.196  1.00  0.00    -0.462 OA
BRANCH  71  72
ATOM     72  C   UNL     1       5.190  -2.390  -1.035  1.00  0.00     0.328 C 
ATOM     73  O   UNL     1       5.651  -1.875  -2.057  1.00  0.00    -0.250 OA
BRANCH  72  74
ATOM     74  C   UNL     1       4.178  -3.553  -1.148  1.00  0.00     0.195 C 
ATOM     75  C   UNL     1       4.836  -4.611  -2.029  1.00  0.00     0.046 C 
ATOM     76  N   UNL     1       3.199  -4.404  -0.439  1.00  0.00    -0.328 N 
ATOM     77  C   UNL     1       3.679  -5.556  -2.439  1.00  0.00     0.001 C 
ATOM     78  C   UNL     1       2.513  -5.148  -1.500  1.00  0.00     0.128 C 
ATOM     79  C   UNL     1       4.070  -7.030  -2.210  1.00  0.00     0.071 C 
ATOM     80  C   UNL     1       3.341  -5.347  -3.923  1.00  0.00     0.071 C 
ATOM     81  C   UNL     1       5.185  -7.475  -3.153  1.00  0.00     0.270 C 
ATOM     82  C   UNL     1       4.484  -5.821  -4.829  1.00  0.00     0.270 C 
ATOM     83  N   UNL     1       4.824  -7.216  -4.548  1.00  0.00    -0.272 N 
ATOM     84  H   UNL     1       4.735  -8.055  -5.054  1.00  0.00     0.356 HD
BRANCH  76  85
ATOM     85  C   UNL     1       3.233  -5.069   0.773  1.00  0.00     0.225 C 
ATOM     86  O   UNL     1       2.397  -5.928   1.070  1.00  0.00    -0.275 OA
BRANCH  85  87
ATOM     87  C   UNL     1       4.295  -4.754   1.774  1.00  0.00     0.124 C 
BRANCH  87  88
ATOM     88  C   UNL     1       5.229  -5.939   1.994  1.00  0.00     0.154 C 
BRANCH  88  89
ATOM     89  N   UNL     1       6.359  -5.965   1.076  1.00  0.00    -0.272 N 
ATOM     90  C   UNL     1       7.206  -4.935   0.795  1.00  0.00     0.108 A 
ATOM     91  N   UNL     1       6.703  -7.096   0.431  1.00  0.00    -0.182 NA
ATOM     92  C   UNL     1       8.154  -5.407  -0.070  1.00  0.00     0.042 A 
ATOM     93  C   UNL     1       7.811  -6.756  -0.239  1.00  0.00     0.135 A 
ENDBRANCH  88  89
ENDBRANCH  87  88
ENDBRANCH  85  87
ENDBRANCH  76  85
BRANCH  83  94
ATOM     94  C   UNL     1       4.852  -8.090  -5.633  1.00  0.00     0.315 C 
ATOM     95  O   UNL     1       4.750  -7.664  -6.784  1.00  0.00    -0.231 OA
BRANCH  94  96
ATOM     96  C   UNL     1       4.921  -9.576  -5.519  1.00  0.00     0.119 C 
ATOM     97  C   UNL     1       5.740 -10.411  -4.581  1.00  0.00     0.019 C 
ATOM     98  C   UNL     1       4.240 -10.354  -4.425  1.00  0.00     0.019 C 
ENDBRANCH  94  96
ENDBRANCH  83  94
ENDBRANCH  72  74
ENDBRANCH  71  72
ENDBRANCH  70  71
ENDBRANCH   1  70
TORSDOF 23
