REMARK SMILES Cc1cccc2c1[C@H]1c3c(C)cccc3[C@H](CC(=O)OCCOCCOC(=O)c3ccc(-c4c5nc(c(-c6ccc(S(=O)(=O)[O-])cc6)c6ccc([nH]6)c(-c6ccc(S(=O)(=O)[O-])cc6)c6nc(c(-c7ccc(S(=O)(=O)[O-])cc7)c7ccc4[nH]7)C=C6)C=C5)cc3)C[C@H]1CC2
REMARK SMILES IDX 24 1 23 2 22 3 21 4 20 5 18 6 19 7 17 8 16 9 1 10 2 11 3 12
REMARK SMILES IDX 7 13 4 14 6 15 8 16 5 17 92 18 9 19 90 20 91 21 10 22 15 23
REMARK SMILES IDX 89 24 12 25 11 26 14 27 13 28 25 29 26 30 27 31 28 32 29 33
REMARK SMILES IDX 30 34 88 35 31 36 87 37 32 38 33 39 34 40 81 41 35 42 86 43
REMARK SMILES IDX 80 44 82 45 36 46 85 47 79 48 78 49 37 51 67 52 48 53 66 54
REMARK SMILES IDX 49 55 52 56 65 57 83 58 50 59 51 60 64 62 84 63 53 64 38 65
REMARK SMILES IDX 39 66 47 67 40 68 46 69 41 70 42 71 43 72 44 73 45 74 68 75
REMARK SMILES IDX 69 76 77 77 70 78 76 79 71 80 72 81 73 82 74 83 75 84 54 85
REMARK SMILES IDX 55 86 63 87 56 88 62 89 57 90 58 91 59 92 60 93 61 94
REMARK H PARENT 82 50 52 61
REMARK Flexibility Score: inf
ROOT
ATOM      1  C   UNL     1      -2.300  -7.658  -0.924  1.00  0.00     0.202 C 
ENDROOT
BRANCH   1   2
ATOM      2  O   UNL     1      -1.859  -8.347   0.248  1.00  0.00    -0.374 OA
BRANCH   2   3
ATOM      3  C   UNL     1      -1.558  -7.543   1.382  1.00  0.00     0.202 C 
BRANCH   3   4
ATOM      4  C   UNL     1      -0.221  -6.794   1.378  1.00  0.00     0.261 C 
BRANCH   4   5
ATOM      5  O   UNL     1       0.050  -5.938   0.259  1.00  0.00    -0.463 OA
BRANCH   5   6
ATOM      6  C   UNL     1       0.913  -6.455  -0.660  1.00  0.00     0.306 C 
ATOM      7  O   UNL     1       1.111  -7.649  -0.851  1.00  0.00    -0.252 OA
BRANCH   6   8
ATOM      8  C   UNL     1       1.745  -5.372  -1.301  1.00  0.00     0.131 C 
BRANCH   8   9
ATOM      9  C   UNL     1       1.233  -4.705  -2.587  1.00  0.00     0.031 C 
ATOM     10  C   UNL     1       1.577   0.370  -0.100  1.00  0.00     0.044 C 
ATOM     11  C   UNL     1       1.092   0.695  -1.489  1.00  0.00    -0.047 A 
ATOM     12  C   UNL     1       0.755   2.030  -1.772  1.00  0.00     0.004 A 
ATOM     13  C   UNL     1       0.974  -0.281  -2.511  1.00  0.00    -0.034 A 
ATOM     14  C   UNL     1       0.315   2.406  -3.038  1.00  0.00     0.001 A 
ATOM     15  C   UNL     1       0.637   0.133  -3.824  1.00  0.00    -0.044 A 
ATOM     16  C   UNL     1       1.113  -1.777  -2.233  1.00  0.00     0.053 C 
ATOM     17  C   UNL     1       0.277   1.468  -4.063  1.00  0.00     0.004 A 
ATOM     18  C   UNL     1       0.645  -0.813  -5.000  1.00  0.00     0.036 C 
ATOM     19  C   UNL     1      -0.199  -2.593  -2.159  1.00  0.00    -0.034 A 
ATOM     20  C   UNL     1       1.956  -2.344  -3.408  1.00  0.00     0.002 C 
ATOM     21  C   UNL     1       1.208  -2.213  -4.748  1.00  0.00     0.009 C 
ATOM     22  C   UNL     1      -1.490  -2.028  -1.994  1.00  0.00    -0.047 A 
ATOM     23  C   UNL     1      -0.101  -3.982  -2.462  1.00  0.00    -0.040 A 
ATOM     24  C   UNL     1       2.363  -3.790  -3.123  1.00  0.00     0.013 C 
ATOM     25  C   UNL     1      -2.613  -2.762  -2.408  1.00  0.00     0.004 A 
ATOM     26  C   UNL     1      -1.774  -0.659  -1.439  1.00  0.00     0.044 C 
ATOM     27  C   UNL     1      -1.259  -4.693  -2.817  1.00  0.00     0.004 A 
ATOM     28  C   UNL     1      -2.499  -4.073  -2.839  1.00  0.00     0.001 A 
ENDBRANCH   8   9
ENDBRANCH   6   8
ENDBRANCH   5   6
ENDBRANCH   4   5
ENDBRANCH   3   4
ENDBRANCH   2   3
ENDBRANCH   1   2
BRANCH   1  29
ATOM     29  C   UNL     1      -3.541  -6.783  -0.732  1.00  0.00     0.261 C 
BRANCH  29  30
ATOM     30  O   UNL     1      -3.179  -5.575  -0.037  1.00  0.00    -0.460 OA
BRANCH  30  31
ATOM     31  C   UNL     1      -4.217  -4.929   0.538  1.00  0.00     0.338 C 
ATOM     32  O   UNL     1      -5.398  -5.211   0.447  1.00  0.00    -0.246 OA
BRANCH  31  33
ATOM     33  C   UNL     1      -3.710  -3.788   1.319  1.00  0.00     0.060 A 
ATOM     34  C   UNL     1      -3.217  -3.962   2.614  1.00  0.00     0.016 A 
ATOM     35  C   UNL     1      -3.863  -2.510   0.793  1.00  0.00     0.016 A 
ATOM     36  C   UNL     1      -2.935  -2.837   3.403  1.00  0.00     0.010 A 
ATOM     37  C   UNL     1      -3.508  -1.396   1.553  1.00  0.00     0.010 A 
ATOM     38  C   UNL     1      -3.108  -1.542   2.889  1.00  0.00    -0.014 A 
BRANCH  38  39
ATOM     39  C   UNL     1      -3.055  -0.336   3.764  1.00  0.00     0.031 A 
ATOM     40  C   UNL     1      -4.317   0.468   3.988  1.00  0.00     0.074 A 
ATOM     41  C   UNL     1      -1.907   0.062   4.347  1.00  0.00     0.049 A 
ATOM     42  N   UNL     1      -4.487   1.571   4.675  1.00  0.00    -0.248 NA
ATOM     43  C   UNL     1      -5.544  -0.013   3.328  1.00  0.00     0.031 C 
ATOM     44  C   UNL     1      -0.607  -0.590   4.198  1.00  0.00     0.029 A 
ATOM     45  N   UNL     1      -1.657   1.117   5.192  1.00  0.00    -0.354 N 
ATOM     46  C   UNL     1      -5.821   1.925   4.499  1.00  0.00     0.074 A 
ATOM     47  C   UNL     1      -6.403   0.956   3.600  1.00  0.00     0.031 C 
ATOM     48  C   UNL     1       0.296   0.057   4.956  1.00  0.00     0.029 A 
ATOM     49  C   UNL     1      -0.355   1.182   5.627  1.00  0.00     0.049 A 
ATOM     50  H   UNL     1      -2.347   1.766   5.460  1.00  0.00     0.167 HD
ATOM     51  C   UNL     1      -6.517   2.942   5.059  1.00  0.00     0.031 A 
ATOM     52  C   UNL     1       0.246   2.037   6.479  1.00  0.00     0.031 A 
ATOM     53  C   UNL     1      -5.970   3.872   6.004  1.00  0.00     0.049 A 
ATOM     54  C   UNL     1      -0.551   3.136   7.128  1.00  0.00     0.074 A 
ATOM     55  C   UNL     1      -6.618   4.893   6.677  1.00  0.00     0.029 A 
ATOM     56  N   UNL     1      -4.652   3.882   6.428  1.00  0.00    -0.354 N 
ATOM     57  N   UNL     1      -1.818   3.433   6.970  1.00  0.00    -0.248 NA
ATOM     58  C   UNL     1       0.158   4.008   8.078  1.00  0.00     0.031 C 
ATOM     59  C   UNL     1      -5.684   5.537   7.493  1.00  0.00     0.029 A 
ATOM     60  C   UNL     1      -4.465   4.892   7.354  1.00  0.00     0.049 A 
ATOM     61  H   UNL     1      -3.952   3.263   6.117  1.00  0.00     0.167 HD
ATOM     62  C   UNL     1      -2.063   4.510   7.817  1.00  0.00     0.074 A 
ATOM     63  C   UNL     1      -0.816   4.813   8.486  1.00  0.00     0.031 C 
ATOM     64  C   UNL     1      -3.223   5.180   8.021  1.00  0.00     0.031 A 
BRANCH  51  65
ATOM     65  C   UNL     1      -7.968   3.083   4.685  1.00  0.00    -0.014 A 
ATOM     66  C   UNL     1      -8.927   2.175   5.168  1.00  0.00     0.010 A 
ATOM     67  C   UNL     1      -8.385   4.162   3.885  1.00  0.00     0.010 A 
ATOM     68  C   UNL     1     -10.274   2.324   4.830  1.00  0.00     0.020 A 
ATOM     69  C   UNL     1      -9.736   4.329   3.566  1.00  0.00     0.020 A 
ATOM     70  C   UNL     1     -10.670   3.402   4.034  1.00  0.00     0.054 A 
BRANCH  70  71
ATOM     71  S   UNL     1     -12.430   3.575   3.632  1.00  0.00     0.124 S 
ATOM     72  O   UNL     1     -12.686   2.362   2.859  1.00  0.00    -0.237 OA
ATOM     73  O   UNL     1     -13.050   3.621   4.953  1.00  0.00    -0.237 OA
ATOM     74  O   UNL     1     -12.493   4.820   2.870  1.00  0.00    -0.744 OA
ENDBRANCH  70  71
ENDBRANCH  51  65
BRANCH  52  75
ATOM     75  C   UNL     1       1.682   1.841   6.811  1.00  0.00    -0.014 A 
ATOM     76  C   UNL     1       2.047   1.233   8.025  1.00  0.00     0.010 A 
ATOM     77  C   UNL     1       2.686   2.203   5.895  1.00  0.00     0.010 A 
ATOM     78  C   UNL     1       3.390   0.974   8.311  1.00  0.00     0.020 A 
ATOM     79  C   UNL     1       4.029   1.932   6.171  1.00  0.00     0.020 A 
ATOM     80  C   UNL     1       4.372   1.312   7.375  1.00  0.00     0.054 A 
BRANCH  80  81
ATOM     81  S   UNL     1       6.097   0.882   7.737  1.00  0.00     0.124 S 
ATOM     82  O   UNL     1       6.361   1.654   8.947  1.00  0.00    -0.237 OA
ATOM     83  O   UNL     1       6.020  -0.566   7.914  1.00  0.00    -0.237 OA
ATOM     84  O   UNL     1       6.819   1.321   6.545  1.00  0.00    -0.744 OA
ENDBRANCH  80  81
ENDBRANCH  52  75
BRANCH  64  85
ATOM     85  C   UNL     1      -3.234   6.300   9.024  1.00  0.00    -0.014 A 
ATOM     86  C   UNL     1      -2.745   7.572   8.687  1.00  0.00     0.010 A 
ATOM     87  C   UNL     1      -3.871   6.111  10.265  1.00  0.00     0.010 A 
ATOM     88  C   UNL     1      -2.901   8.642   9.572  1.00  0.00     0.020 A 
ATOM     89  C   UNL     1      -4.042   7.182  11.146  1.00  0.00     0.020 A 
ATOM     90  C   UNL     1      -3.559   8.443  10.791  1.00  0.00     0.054 A 
BRANCH  90  91
ATOM     91  S   UNL     1      -3.816   9.871  11.880  1.00  0.00     0.124 S 
ATOM     92  O   UNL     1      -2.446  10.266  12.198  1.00  0.00    -0.237 OA
ATOM     93  O   UNL     1      -4.553  10.793  11.021  1.00  0.00    -0.237 OA
ATOM     94  O   UNL     1      -4.579   9.323  13.000  1.00  0.00    -0.744 OA
ENDBRANCH  90  91
ENDBRANCH  64  85
ENDBRANCH  38  39
ENDBRANCH  31  33
ENDBRANCH  30  31
ENDBRANCH  29  30
ENDBRANCH   1  29
TORSDOF 18
