REMARK SMILES C[C@@]1(Oc2c[nH]c3ccc(Br)c(Cl)c23)O[C@@H](C(=O)OCCOCCOC(=O)c2ccc(-c3c4nc(c(-c5ccc(S(=O)(=O)[O-])cc5)c5ccc([nH]5)c(-c5ccc(S(=O)(=O)[O-])cc5)c5nc(c(-c6ccc(S(=O)(=O)[O-])cc6)c6ccc3[nH]6)C=C5)C=C4)cc2)[C@@](C)(O)[C@@](C)(O)[C@@]1(C)O
REMARK SMILES IDX 23 1 22 2 21 3 20 4 19 5 17 6 18 7 16 8 1 9 2 10 15 11 94 12
REMARK SMILES IDX 91 13 95 14 88 15 92 16 89 17 3 18 4 19 5 20 14 21 6 22 7 23
REMARK SMILES IDX 12 24 8 26 10 27 13 28 9 29 11 30 96 31 93 33 90 35 24 37
REMARK SMILES IDX 25 38 26 39 27 40 28 41 29 42 87 43 30 44 86 45 31 46 32 47
REMARK SMILES IDX 33 48 80 49 34 50 85 51 79 52 81 53 35 54 84 55 78 56 77 57
REMARK SMILES IDX 36 59 66 60 47 61 65 62 48 63 51 64 64 65 82 66 49 67 50 68
REMARK SMILES IDX 63 70 83 71 52 72 37 73 38 74 46 75 39 76 45 77 40 78 41 79
REMARK SMILES IDX 42 80 43 81 44 82 67 83 68 84 76 85 69 86 75 87 70 88 71 89
REMARK SMILES IDX 72 90 73 91 74 92 53 93 54 94 62 95 55 96 61 97 56 98 57 99
REMARK SMILES IDX 58 100 59 101 60 102
REMARK H PARENT 6 25 96 32 93 34 90 36 81 58 51 69
REMARK Flexibility Score: inf
ROOT
ATOM      1  C   UNL     1       5.483  -2.470   1.893  1.00  0.00     0.202 C 
ENDROOT
BRANCH   1   2
ATOM      2  O   UNL     1       5.989  -1.141   1.814  1.00  0.00    -0.374 OA
BRANCH   2   3
ATOM      3  C   UNL     1       5.053  -0.062   1.821  1.00  0.00     0.202 C 
BRANCH   3   4
ATOM      4  C   UNL     1       4.233   0.116   0.550  1.00  0.00     0.261 C 
BRANCH   4   5
ATOM      5  O   UNL     1       3.224  -0.907   0.442  1.00  0.00    -0.461 OA
BRANCH   5   6
ATOM      6  C   UNL     1       3.215  -1.681  -0.666  1.00  0.00     0.338 C 
ATOM      7  O   UNL     1       4.072  -1.636  -1.543  1.00  0.00    -0.249 OA
BRANCH   6   8
ATOM      8  C   UNL     1       1.973  -2.599  -0.768  1.00  0.00     0.266 C 
ATOM      9  C   UNL     1       0.682   0.202  -0.491  1.00  0.00     0.094 C 
ATOM     10  C   UNL     1      -0.015  -1.153  -0.739  1.00  0.00     0.240 C 
ATOM     11  O   UNL     1       0.861  -2.047  -1.454  1.00  0.00    -0.320 OA
ATOM     12  C   UNL     1      -0.538  -1.846   0.610  1.00  0.00     0.158 C 
ATOM     13  C   UNL     1       0.599  -2.601   1.394  1.00  0.00     0.128 C 
ATOM     14  C   UNL     1      -1.714  -2.780   0.327  1.00  0.00     0.053 C 
ATOM     15  C   UNL     1       1.554  -3.425   0.475  1.00  0.00     0.130 C 
ATOM     16  C   UNL     1       0.075  -3.449   2.577  1.00  0.00     0.049 C 
ATOM     17  C   UNL     1       0.941  -4.780   0.044  1.00  0.00     0.049 C 
BRANCH  10  18
ATOM     18  O   UNL     1      -1.159  -0.712  -1.571  1.00  0.00    -0.457 OA
BRANCH  18  19
ATOM     19  C   UNL     1      -1.453  -1.478  -2.647  1.00  0.00     0.150 A 
ATOM     20  C   UNL     1      -0.656  -1.649  -3.756  1.00  0.00     0.130 A 
ATOM     21  C   UNL     1      -2.623  -2.272  -2.814  1.00  0.00     0.061 A 
ATOM     22  N   UNL     1      -1.201  -2.676  -4.484  1.00  0.00    -0.358 N 
ATOM     23  C   UNL     1      -2.309  -3.177  -3.833  1.00  0.00     0.051 A 
ATOM     24  C   UNL     1      -3.837  -2.452  -2.122  1.00  0.00     0.068 A 
ATOM     25  H   UNL     1      -0.852  -3.007  -5.343  1.00  0.00     0.166 HD
ATOM     26  C   UNL     1      -3.050  -4.343  -4.053  1.00  0.00     0.028 A 
ATOM     27  C   UNL     1      -4.502  -3.675  -2.216  1.00  0.00     0.037 A 
ATOM     28  Cl  UNL     1      -4.410  -1.096  -1.240  1.00  0.00    -0.082 Cl
ATOM     29  C   UNL     1      -4.096  -4.617  -3.161  1.00  0.00     0.019 A 
ATOM     30  Br  UNL     1      -5.887  -4.153  -1.010  1.00  0.00    -0.049 Br
ENDBRANCH  18  19
ENDBRANCH  10  18
BRANCH  12  31
ATOM     31  O   UNL     1      -1.079  -0.840   1.505  1.00  0.00    -0.380 OA
ATOM     32  H   UNL     1      -0.384  -0.203   1.733  1.00  0.00     0.211 HD
ENDBRANCH  12  31
BRANCH  13  33
ATOM     33  O   UNL     1       1.367  -1.568   2.059  1.00  0.00    -0.384 OA
ATOM     34  H   UNL     1       1.747  -0.970   1.396  1.00  0.00     0.211 HD
ENDBRANCH  13  33
BRANCH  15  35
ATOM     35  O   UNL     1       2.712  -3.791   1.252  1.00  0.00    -0.384 OA
ATOM     36  H   UNL     1       3.158  -2.988   1.564  1.00  0.00     0.211 HD
ENDBRANCH  15  35
ENDBRANCH   6   8
ENDBRANCH   5   6
ENDBRANCH   4   5
ENDBRANCH   3   4
ENDBRANCH   2   3
ENDBRANCH   1   2
BRANCH   1  37
ATOM     37  C   UNL     1       5.016  -2.940   3.265  1.00  0.00     0.261 C 
BRANCH  37  38
ATOM     38  O   UNL     1       3.893  -2.194   3.719  1.00  0.00    -0.460 OA
BRANCH  38  39
ATOM     39  C   UNL     1       4.202  -1.219   4.613  1.00  0.00     0.338 C 
ATOM     40  O   UNL     1       5.303  -0.770   4.855  1.00  0.00    -0.246 OA
BRANCH  39  41
ATOM     41  C   UNL     1       2.996  -0.898   5.389  1.00  0.00     0.060 A 
ATOM     42  C   UNL     1       3.198  -0.069   6.489  1.00  0.00     0.016 A 
ATOM     43  C   UNL     1       1.921  -1.790   5.317  1.00  0.00     0.016 A 
ATOM     44  C   UNL     1       2.537  -0.396   7.648  1.00  0.00     0.010 A 
ATOM     45  C   UNL     1       1.288  -2.139   6.472  1.00  0.00     0.010 A 
ATOM     46  C   UNL     1       1.695  -1.513   7.639  1.00  0.00    -0.014 A 
BRANCH  46  47
ATOM     47  C   UNL     1       1.115  -1.952   8.879  1.00  0.00     0.031 A 
ATOM     48  C   UNL     1      -0.049  -1.121   9.228  1.00  0.00     0.074 A 
ATOM     49  C   UNL     1       1.542  -3.035   9.551  1.00  0.00     0.049 A 
ATOM     50  N   UNL     1      -0.056  -0.124  10.047  1.00  0.00    -0.248 NA
ATOM     51  C   UNL     1      -1.247  -1.219   8.375  1.00  0.00     0.031 C 
ATOM     52  C   UNL     1       2.492  -4.076   9.151  1.00  0.00     0.029 A 
ATOM     53  N   UNL     1       1.119  -3.469  10.760  1.00  0.00    -0.354 N 
ATOM     54  C   UNL     1      -1.347   0.371   9.989  1.00  0.00     0.074 A 
ATOM     55  C   UNL     1      -1.934  -0.152   8.781  1.00  0.00     0.031 C 
ATOM     56  C   UNL     1       2.382  -5.128  10.001  1.00  0.00     0.029 A 
ATOM     57  C   UNL     1       1.468  -4.775  11.076  1.00  0.00     0.049 A 
ATOM     58  H   UNL     1       0.600  -2.900  11.373  1.00  0.00     0.167 HD
ATOM     59  C   UNL     1      -1.948   0.896  11.089  1.00  0.00     0.031 A 
ATOM     60  C   UNL     1       0.967  -5.493  12.118  1.00  0.00     0.031 A 
ATOM     61  C   UNL     1      -1.000   1.173  12.136  1.00  0.00     0.049 A 
ATOM     62  C   UNL     1       0.423  -4.497  13.085  1.00  0.00     0.074 A 
ATOM     63  C   UNL     1       0.104   1.996  12.245  1.00  0.00     0.029 A 
ATOM     64  N   UNL     1      -0.864   0.214  13.114  1.00  0.00    -0.354 N 
ATOM     65  N   UNL     1       1.171  -3.636  13.721  1.00  0.00    -0.248 NA
ATOM     66  C   UNL     1      -0.982  -4.132  12.965  1.00  0.00     0.031 C 
ATOM     67  C   UNL     1       1.064   1.234  12.973  1.00  0.00     0.029 A 
ATOM     68  C   UNL     1       0.477   0.019  13.335  1.00  0.00     0.049 A 
ATOM     69  H   UNL     1      -1.599  -0.251  13.575  1.00  0.00     0.167 HD
ATOM     70  C   UNL     1       0.444  -2.452  13.710  1.00  0.00     0.074 A 
ATOM     71  C   UNL     1      -0.904  -2.838  13.294  1.00  0.00     0.031 C 
ATOM     72  C   UNL     1       1.066  -1.237  13.756  1.00  0.00     0.031 A 
BRANCH  59  73
ATOM     73  C   UNL     1      -3.417   0.727  11.341  1.00  0.00    -0.014 A 
ATOM     74  C   UNL     1      -4.031   1.468  12.362  1.00  0.00     0.010 A 
ATOM     75  C   UNL     1      -4.165  -0.324  10.763  1.00  0.00     0.010 A 
ATOM     76  C   UNL     1      -5.326   1.155  12.794  1.00  0.00     0.020 A 
ATOM     77  C   UNL     1      -5.469  -0.613  11.150  1.00  0.00     0.020 A 
ATOM     78  C   UNL     1      -6.035   0.117  12.183  1.00  0.00     0.054 A 
BRANCH  78  79
ATOM     79  S   UNL     1      -7.670  -0.333  12.808  1.00  0.00     0.124 S 
ATOM     80  O   UNL     1      -7.389  -0.627  14.210  1.00  0.00    -0.237 OA
ATOM     81  O   UNL     1      -8.436   0.883  12.554  1.00  0.00    -0.237 OA
ATOM     82  O   UNL     1      -8.045  -1.485  11.991  1.00  0.00    -0.744 OA
ENDBRANCH  78  79
ENDBRANCH  59  73
BRANCH  60  83
ATOM     83  C   UNL     1       0.542  -6.923  12.136  1.00  0.00    -0.014 A 
ATOM     84  C   UNL     1       0.065  -7.512  13.326  1.00  0.00     0.010 A 
ATOM     85  C   UNL     1       0.309  -7.620  10.933  1.00  0.00     0.010 A 
ATOM     86  C   UNL     1      -0.695  -8.696  13.303  1.00  0.00     0.020 A 
ATOM     87  C   UNL     1      -0.441  -8.805  10.902  1.00  0.00     0.020 A 
ATOM     88  C   UNL     1      -0.972  -9.318  12.084  1.00  0.00     0.054 A 
BRANCH  88  89
ATOM     89  S   UNL     1      -2.112 -10.735  12.040  1.00  0.00     0.124 S 
ATOM     90  O   UNL     1      -1.454 -11.698  12.918  1.00  0.00    -0.237 OA
ATOM     91  O   UNL     1      -3.349 -10.154  12.553  1.00  0.00    -0.237 OA
ATOM     92  O   UNL     1      -2.144 -11.108  10.627  1.00  0.00    -0.744 OA
ENDBRANCH  88  89
ENDBRANCH  60  83
BRANCH  72  93
ATOM     93  C   UNL     1       2.542  -1.196  14.085  1.00  0.00    -0.014 A 
ATOM     94  C   UNL     1       3.559  -1.649  13.219  1.00  0.00     0.010 A 
ATOM     95  C   UNL     1       2.912  -0.489  15.242  1.00  0.00     0.010 A 
ATOM     96  C   UNL     1       4.912  -1.392  13.509  1.00  0.00     0.020 A 
ATOM     97  C   UNL     1       4.251  -0.219  15.527  1.00  0.00     0.020 A 
ATOM     98  C   UNL     1       5.246  -0.667  14.658  1.00  0.00     0.054 A 
BRANCH  98  99
ATOM     99  S   UNL     1       6.987  -0.279  15.006  1.00  0.00     0.124 S 
ATOM    100  O   UNL     1       7.608  -1.600  15.062  1.00  0.00    -0.237 OA
ATOM    101  O   UNL     1       7.365   0.545  13.860  1.00  0.00    -0.237 OA
ATOM    102  O   UNL     1       6.939   0.432  16.283  1.00  0.00    -0.744 OA
ENDBRANCH  98  99
ENDBRANCH  72  93
ENDBRANCH  46  47
ENDBRANCH  39  41
ENDBRANCH  38  39
ENDBRANCH  37  38
ENDBRANCH   1  37
TORSDOF 22
