REMARK SMILES CC(C)Cn1ncnc1C[N@H+]1CC[C@H](C(=O)OCCOCCOC(=O)c2ccc(-c3c4nc(c(-c5ccc(S(=O)(=O)[O-])cc5)c5ccc([nH]5)c(-c5ccc(S(=O)(=O)[O-])cc5)c5nc(c(-c6ccc(S(=O)(=O)[O-])cc6)c6ccc3[nH]6)C=C5)C=C4)cc2)[C@@H]1C
REMARK SMILES IDX 19 1 18 2 17 3 15 4 16 5 14 6 11 7 12 8 86 9 13 11 87 12
REMARK SMILES IDX 10 13 9 14 5 15 6 16 7 17 8 18 4 19 2 20 1 21 3 22 20 23
REMARK SMILES IDX 21 24 22 25 23 26 24 27 25 28 26 29 27 30 85 31 28 32 84 33
REMARK SMILES IDX 29 34 30 35 31 36 78 37 32 38 83 39 77 40 79 41 33 42 82 43
REMARK SMILES IDX 76 44 75 45 34 47 64 48 45 49 63 50 46 51 49 52 62 53 80 54
REMARK SMILES IDX 47 55 48 56 61 58 81 59 50 60 35 61 36 62 44 63 37 64 43 65
REMARK SMILES IDX 38 66 39 67 40 68 41 69 42 70 65 71 66 72 74 73 67 74 73 75
REMARK SMILES IDX 68 76 69 77 70 78 71 79 72 80 51 81 52 82 60 83 53 84 59 85
REMARK SMILES IDX 54 86 55 87 56 88 57 89 58 90
REMARK H PARENT 11 10 79 46 49 57
REMARK Flexibility Score: inf
ROOT
ATOM      1  C   UNL     1       4.020   4.048  -5.348  1.00  0.00     0.202 C 
ENDROOT
BRANCH   1   2
ATOM      2  C   UNL     1       2.714   4.670  -4.865  1.00  0.00     0.261 C 
BRANCH   2   3
ATOM      3  O   UNL     1       1.990   3.781  -4.003  1.00  0.00    -0.463 OA
BRANCH   3   4
ATOM      4  C   UNL     1       0.766   3.382  -4.442  1.00  0.00     0.315 C 
ATOM      5  O   UNL     1       0.245   3.740  -5.492  1.00  0.00    -0.252 OA
BRANCH   4   6
ATOM      6  C   UNL     1       0.087   2.452  -3.461  1.00  0.00     0.162 C 
ATOM      7  N   UNL     1      -0.256   2.570  -1.074  1.00  0.00    -0.326 N 
ATOM      8  C   UNL     1       1.107   2.120  -1.342  1.00  0.00     0.263 C 
ATOM      9  C   UNL     1      -0.703   3.177  -2.348  1.00  0.00     0.195 C 
ATOM     10  H   UNL     1      -0.277   3.250  -0.314  1.00  0.00     0.348 HD
ATOM     11  C   UNL     1       1.050   1.515  -2.728  1.00  0.00     0.083 C 
ATOM     12  C   UNL     1      -0.442   4.686  -2.234  1.00  0.00     0.076 C 
BRANCH   7  13
ATOM     13  C   UNL     1      -1.165   1.552  -0.493  1.00  0.00     0.340 C 
BRANCH  13  14
ATOM     14  C   UNL     1      -1.580   0.383  -1.344  1.00  0.00     0.182 A 
ATOM     15  N   UNL     1      -1.478  -0.952  -1.001  1.00  0.00    -0.245 N 
ATOM     16  N   UNL     1      -1.931  -1.735  -2.006  1.00  0.00    -0.159 NA
ATOM     17  C   UNL     1      -2.331  -0.836  -2.900  1.00  0.00     0.246 A 
ATOM     18  N   UNL     1      -2.157   0.460  -2.533  1.00  0.00    -0.214 NA
BRANCH  15  19
ATOM     19  C   UNL     1      -1.119  -1.583   0.258  1.00  0.00     0.149 C 
BRANCH  19  20
ATOM     20  C   UNL     1       0.342  -2.060   0.363  1.00  0.00     0.004 C 
ATOM     21  C   UNL     1       1.321  -0.900   0.317  1.00  0.00     0.009 C 
ATOM     22  C   UNL     1       0.572  -2.840   1.657  1.00  0.00     0.009 C 
ENDBRANCH  19  20
ENDBRANCH  15  19
ENDBRANCH  13  14
ENDBRANCH   7  13
ENDBRANCH   4   6
ENDBRANCH   3   4
ENDBRANCH   2   3
ENDBRANCH   1   2
BRANCH   1  23
ATOM     23  O   UNL     1       3.943   2.928  -6.228  1.00  0.00    -0.374 OA
BRANCH  23  24
ATOM     24  C   UNL     1       3.467   1.671  -5.750  1.00  0.00     0.202 C 
BRANCH  24  25
ATOM     25  C   UNL     1       4.394   0.854  -4.852  1.00  0.00     0.261 C 
BRANCH  25  26
ATOM     26  O   UNL     1       4.622   1.528  -3.623  1.00  0.00    -0.460 OA
BRANCH  26  27
ATOM     27  C   UNL     1       5.776   2.224  -3.569  1.00  0.00     0.338 C 
ATOM     28  O   UNL     1       6.607   2.348  -4.463  1.00  0.00    -0.246 OA
BRANCH  27  29
ATOM     29  C   UNL     1       5.934   2.783  -2.217  1.00  0.00     0.060 A 
ATOM     30  C   UNL     1       7.248   3.128  -1.917  1.00  0.00     0.016 A 
ATOM     31  C   UNL     1       5.019   2.387  -1.232  1.00  0.00     0.016 A 
ATOM     32  C   UNL     1       7.768   2.593  -0.770  1.00  0.00     0.010 A 
ATOM     33  C   UNL     1       5.533   1.873  -0.074  1.00  0.00     0.010 A 
ATOM     34  C   UNL     1       6.917   1.843   0.048  1.00  0.00    -0.014 A 
BRANCH  34  35
ATOM     35  C   UNL     1       7.512   1.034   1.080  1.00  0.00     0.031 A 
ATOM     36  C   UNL     1       7.904   1.860   2.233  1.00  0.00     0.074 A 
ATOM     37  C   UNL     1       7.583  -0.307   0.998  1.00  0.00     0.049 A 
ATOM     38  N   UNL     1       9.089   2.273   2.535  1.00  0.00    -0.248 NA
ATOM     39  C   UNL     1       6.815   2.532   2.962  1.00  0.00     0.031 C 
ATOM     40  C   UNL     1       6.978  -1.216   0.018  1.00  0.00     0.029 A 
ATOM     41  N   UNL     1       8.158  -1.163   1.874  1.00  0.00    -0.354 N 
ATOM     42  C   UNL     1       8.903   3.075   3.650  1.00  0.00     0.074 A 
ATOM     43  C   UNL     1       7.505   3.419   3.676  1.00  0.00     0.031 C 
ATOM     44  C   UNL     1       7.006  -2.481   0.508  1.00  0.00     0.029 A 
ATOM     45  C   UNL     1       7.749  -2.485   1.759  1.00  0.00     0.049 A 
ATOM     46  H   UNL     1       8.818  -0.871   2.544  1.00  0.00     0.167 HD
ATOM     47  C   UNL     1       9.818   3.116   4.655  1.00  0.00     0.031 A 
ATOM     48  C   UNL     1       7.948  -3.459   2.686  1.00  0.00     0.031 A 
ATOM     49  C   UNL     1      11.079   2.550   4.256  1.00  0.00     0.049 A 
ATOM     50  C   UNL     1       9.042  -2.982   3.578  1.00  0.00     0.074 A 
ATOM     51  C   UNL     1      12.030   2.868   3.308  1.00  0.00     0.029 A 
ATOM     52  N   UNL     1      11.298   1.233   4.593  1.00  0.00    -0.354 N 
ATOM     53  N   UNL     1      10.264  -2.791   3.161  1.00  0.00    -0.248 NA
ATOM     54  C   UNL     1       8.672  -2.233   4.771  1.00  0.00     0.031 C 
ATOM     55  C   UNL     1      12.476   1.614   2.795  1.00  0.00     0.029 A 
ATOM     56  C   UNL     1      11.826   0.596   3.498  1.00  0.00     0.049 A 
ATOM     57  H   UNL     1      11.109   0.821   5.466  1.00  0.00     0.167 HD
ATOM     58  C   UNL     1      10.677  -1.611   3.768  1.00  0.00     0.074 A 
ATOM     59  C   UNL     1       9.681  -1.356   4.810  1.00  0.00     0.031 C 
ATOM     60  C   UNL     1      11.610  -0.802   3.182  1.00  0.00     0.031 A 
BRANCH  47  61
ATOM     61  C   UNL     1       9.407   3.251   6.098  1.00  0.00    -0.014 A 
ATOM     62  C   UNL     1      10.399   3.431   7.076  1.00  0.00     0.010 A 
ATOM     63  C   UNL     1       8.103   2.949   6.552  1.00  0.00     0.010 A 
ATOM     64  C   UNL     1      10.104   3.271   8.436  1.00  0.00     0.020 A 
ATOM     65  C   UNL     1       7.787   2.837   7.902  1.00  0.00     0.020 A 
ATOM     66  C   UNL     1       8.800   2.967   8.837  1.00  0.00     0.054 A 
BRANCH  66  67
ATOM     67  S   UNL     1       8.449   2.662  10.582  1.00  0.00     0.124 S 
ATOM     68  O   UNL     1       9.221   1.451  10.836  1.00  0.00    -0.237 OA
ATOM     69  O   UNL     1       8.948   3.881  11.212  1.00  0.00    -0.237 OA
ATOM     70  O   UNL     1       6.997   2.499  10.615  1.00  0.00    -0.744 OA
ENDBRANCH  66  67
ENDBRANCH  47  61
BRANCH  48  71
ATOM     71  C   UNL     1       6.987  -4.521   3.096  1.00  0.00    -0.014 A 
ATOM     72  C   UNL     1       7.387  -5.623   3.877  1.00  0.00     0.010 A 
ATOM     73  C   UNL     1       5.601  -4.295   2.954  1.00  0.00     0.010 A 
ATOM     74  C   UNL     1       6.437  -6.439   4.526  1.00  0.00     0.020 A 
ATOM     75  C   UNL     1       4.652  -5.101   3.596  1.00  0.00     0.020 A 
ATOM     76  C   UNL     1       5.074  -6.160   4.395  1.00  0.00     0.054 A 
BRANCH  76  77
ATOM     77  S   UNL     1       3.857  -7.107   5.362  1.00  0.00     0.124 S 
ATOM     78  O   UNL     1       3.908  -8.421   4.727  1.00  0.00    -0.237 OA
ATOM     79  O   UNL     1       4.400  -7.037   6.716  1.00  0.00    -0.237 OA
ATOM     80  O   UNL     1       2.610  -6.370   5.160  1.00  0.00    -0.744 OA
ENDBRANCH  76  77
ENDBRANCH  48  71
BRANCH  60  81
ATOM     81  C   UNL     1      12.335  -1.330   1.960  1.00  0.00    -0.014 A 
ATOM     82  C   UNL     1      11.711  -1.553   0.714  1.00  0.00     0.010 A 
ATOM     83  C   UNL     1      13.732  -1.443   2.036  1.00  0.00     0.010 A 
ATOM     84  C   UNL     1      12.469  -1.892  -0.420  1.00  0.00     0.020 A 
ATOM     85  C   UNL     1      14.493  -1.767   0.909  1.00  0.00     0.020 A 
ATOM     86  C   UNL     1      13.859  -1.996  -0.313  1.00  0.00     0.054 A 
BRANCH  86  87
ATOM     87  S   UNL     1      14.847  -2.378  -1.789  1.00  0.00     0.124 S 
ATOM     88  O   UNL     1      14.488  -3.767  -2.061  1.00  0.00    -0.237 OA
ATOM     89  O   UNL     1      14.367  -1.401  -2.764  1.00  0.00    -0.237 OA
ATOM     90  O   UNL     1      16.226  -2.171  -1.347  1.00  0.00    -0.744 OA
ENDBRANCH  86  87
ENDBRANCH  60  81
ENDBRANCH  34  35
ENDBRANCH  27  29
ENDBRANCH  26  27
ENDBRANCH  25  26
ENDBRANCH  24  25
ENDBRANCH  23  24
ENDBRANCH   1  23
TORSDOF 21
