REMARK SMILES C[C@@H](C(=O)OCCOCCOC(=O)c1ccc(-c2c3nc(c(-c4ccc(S(=O)(=O)[O-])cc4)c4ccc([nH]4)c(-c4ccc(S(=O)(=O)[O-])cc4)c4nc(c(-c5ccc(S(=O)(=O)[O-])cc5)c5ccc2[nH]5)C=C4)C=C3)cc1)N1C(=O)c2nccnc2C1=O
REMARK SMILES IDX 9 1 8 2 7 3 6 4 5 5 3 6 4 7 2 8 1 9 74 10 75 11 83 12 76 13
REMARK SMILES IDX 77 14 82 15 84 16 78 17 81 18 79 19 80 20 10 21 11 22 12 23
REMARK SMILES IDX 13 24 14 25 15 26 73 27 16 28 72 29 17 30 18 31 19 32 66 33
REMARK SMILES IDX 20 34 71 35 65 36 67 37 21 38 70 39 64 40 63 41 22 43 52 44
REMARK SMILES IDX 33 45 51 46 34 47 37 48 50 49 68 50 35 51 36 52 49 54 69 55
REMARK SMILES IDX 38 56 23 57 24 58 32 59 25 60 31 61 26 62 27 63 28 64 29 65
REMARK SMILES IDX 30 66 53 67 54 68 62 69 55 70 61 71 56 72 57 73 58 74 59 75
REMARK SMILES IDX 60 76 39 77 40 78 48 79 41 80 47 81 42 82 43 83 44 84 45 85
REMARK SMILES IDX 46 86
REMARK H PARENT 67 42 37 53
REMARK Flexibility Score: inf
ROOT
ATOM      1  C   UNL     1       0.454   3.469  -0.901  1.00  0.00     0.202 C 
ENDROOT
BRANCH   1   2
ATOM      2  O   UNL     1       0.881   4.624  -0.182  1.00  0.00    -0.374 OA
BRANCH   2   3
ATOM      3  C   UNL     1       2.145   4.577   0.475  1.00  0.00     0.202 C 
BRANCH   3   4
ATOM      4  C   UNL     1       2.256   3.782   1.781  1.00  0.00     0.261 C 
BRANCH   4   5
ATOM      5  O   UNL     1       1.925   2.393   1.620  1.00  0.00    -0.462 OA
BRANCH   5   6
ATOM      6  C   UNL     1       0.682   2.047   2.053  1.00  0.00     0.329 C 
ATOM      7  O   UNL     1      -0.099   2.818   2.604  1.00  0.00    -0.250 OA
BRANCH   6   8
ATOM      8  C   UNL     1       0.358   0.568   1.790  1.00  0.00     0.201 C 
ATOM      9  C   UNL     1       1.045  -0.050   0.574  1.00  0.00     0.044 C 
BRANCH   8  10
ATOM     10  N   UNL     1      -1.108   0.494   1.737  1.00  0.00    -0.257 N 
ATOM     11  C   UNL     1      -1.900   0.780   0.652  1.00  0.00     0.282 C 
ATOM     12  C   UNL     1      -1.859   0.389   2.884  1.00  0.00     0.282 C 
ATOM     13  O   UNL     1      -1.567   1.010  -0.495  1.00  0.00    -0.267 OA
ATOM     14  C   UNL     1      -3.280   0.795   1.140  1.00  0.00     0.160 A 
ATOM     15  C   UNL     1      -3.252   0.585   2.492  1.00  0.00     0.160 A 
ATOM     16  O   UNL     1      -1.464   0.180   4.018  1.00  0.00    -0.267 OA
ATOM     17  N   UNL     1      -4.409   0.975   0.423  1.00  0.00    -0.247 NA
ATOM     18  N   UNL     1      -4.346   0.545   3.278  1.00  0.00    -0.247 NA
ATOM     19  C   UNL     1      -5.528   0.940   1.195  1.00  0.00     0.132 A 
ATOM     20  C   UNL     1      -5.497   0.740   2.582  1.00  0.00     0.132 A 
ENDBRANCH   8  10
ENDBRANCH   6   8
ENDBRANCH   5   6
ENDBRANCH   4   5
ENDBRANCH   3   4
ENDBRANCH   2   3
ENDBRANCH   1   2
BRANCH   1  21
ATOM     21  C   UNL     1       1.137   3.134  -2.234  1.00  0.00     0.261 C 
BRANCH  21  22
ATOM     22  O   UNL     1       2.549   2.891  -2.103  1.00  0.00    -0.460 OA
BRANCH  22  23
ATOM     23  C   UNL     1       3.329   3.890  -2.585  1.00  0.00     0.338 C 
ATOM     24  O   UNL     1       2.958   4.910  -3.142  1.00  0.00    -0.246 OA
BRANCH  23  25
ATOM     25  C   UNL     1       4.732   3.688  -2.176  1.00  0.00     0.060 A 
ATOM     26  C   UNL     1       5.365   4.745  -1.510  1.00  0.00     0.016 A 
ATOM     27  C   UNL     1       5.443   2.535  -2.515  1.00  0.00     0.016 A 
ATOM     28  C   UNL     1       6.728   4.683  -1.235  1.00  0.00     0.010 A 
ATOM     29  C   UNL     1       6.815   2.477  -2.241  1.00  0.00     0.010 A 
ATOM     30  C   UNL     1       7.471   3.566  -1.638  1.00  0.00    -0.014 A 
BRANCH  30  31
ATOM     31  C   UNL     1       8.953   3.606  -1.555  1.00  0.00     0.031 A 
ATOM     32  C   UNL     1       9.752   3.836  -2.811  1.00  0.00     0.074 A 
ATOM     33  C   UNL     1       9.578   3.476  -0.371  1.00  0.00     0.049 A 
ATOM     34  N   UNL     1      11.050   3.880  -2.970  1.00  0.00    -0.248 NA
ATOM     35  C   UNL     1       8.988   4.044  -4.053  1.00  0.00     0.031 C 
ATOM     36  C   UNL     1       8.913   3.301   0.921  1.00  0.00     0.029 A 
ATOM     37  N   UNL     1      10.915   3.471  -0.064  1.00  0.00    -0.354 N 
ATOM     38  C   UNL     1      11.258   4.103  -4.327  1.00  0.00     0.074 A 
ATOM     39  C   UNL     1       9.955   4.158  -4.951  1.00  0.00     0.031 C 
ATOM     40  C   UNL     1       9.848   3.204   1.882  1.00  0.00     0.029 A 
ATOM     41  C   UNL     1      11.174   3.267   1.271  1.00  0.00     0.049 A 
ATOM     42  H   UNL     1      11.623   3.600  -0.736  1.00  0.00     0.167 HD
ATOM     43  C   UNL     1      12.429   4.252  -4.991  1.00  0.00     0.031 A 
ATOM     44  C   UNL     1      12.345   3.125   1.922  1.00  0.00     0.031 A 
ATOM     45  C   UNL     1      13.724   4.191  -4.364  1.00  0.00     0.049 A 
ATOM     46  C   UNL     1      13.635   3.217   1.148  1.00  0.00     0.074 A 
ATOM     47  C   UNL     1      14.969   4.353  -4.948  1.00  0.00     0.029 A 
ATOM     48  N   UNL     1      13.944   3.940  -3.018  1.00  0.00    -0.354 N 
ATOM     49  N   UNL     1      13.815   3.453  -0.130  1.00  0.00    -0.248 NA
ATOM     50  C   UNL     1      14.879   3.030   1.907  1.00  0.00     0.031 C 
ATOM     51  C   UNL     1      15.942   4.130  -3.969  1.00  0.00     0.029 A 
ATOM     52  C   UNL     1      15.304   3.908  -2.759  1.00  0.00     0.049 A 
ATOM     53  H   UNL     1      13.238   3.805  -2.346  1.00  0.00     0.167 HD
ATOM     54  C   UNL     1      15.194   3.478  -0.321  1.00  0.00     0.074 A 
ATOM     55  C   UNL     1      15.798   3.247   0.975  1.00  0.00     0.031 C 
ATOM     56  C   UNL     1      15.895   3.678  -1.464  1.00  0.00     0.031 A 
BRANCH  43  57
ATOM     57  C   UNL     1      12.370   4.456  -6.484  1.00  0.00    -0.014 A 
ATOM     58  C   UNL     1      11.885   5.652  -7.044  1.00  0.00     0.010 A 
ATOM     59  C   UNL     1      12.862   3.453  -7.339  1.00  0.00     0.010 A 
ATOM     60  C   UNL     1      11.862   5.825  -8.431  1.00  0.00     0.020 A 
ATOM     61  C   UNL     1      12.870   3.634  -8.725  1.00  0.00     0.020 A 
ATOM     62  C   UNL     1      12.356   4.815  -9.263  1.00  0.00     0.054 A 
BRANCH  62  63
ATOM     63  S   UNL     1      12.345   5.082 -11.057  1.00  0.00     0.124 S 
ATOM     64  O   UNL     1      10.918   5.018 -11.363  1.00  0.00    -0.237 OA
ATOM     65  O   UNL     1      12.956   6.402 -11.187  1.00  0.00    -0.237 OA
ATOM     66  O   UNL     1      13.142   3.975 -11.579  1.00  0.00    -0.744 OA
ENDBRANCH  62  63
ENDBRANCH  43  57
BRANCH  44  67
ATOM     67  C   UNL     1      12.355   2.858   3.388  1.00  0.00    -0.014 A 
ATOM     68  C   UNL     1      12.864   3.809   4.290  1.00  0.00     0.010 A 
ATOM     69  C   UNL     1      11.861   1.639   3.889  1.00  0.00     0.010 A 
ATOM     70  C   UNL     1      12.898   3.538   5.661  1.00  0.00     0.020 A 
ATOM     71  C   UNL     1      11.863   1.378   5.262  1.00  0.00     0.020 A 
ATOM     72  C   UNL     1      12.394   2.325   6.138  1.00  0.00     0.054 A 
BRANCH  72  73
ATOM     73  S   UNL     1      12.410   2.014   7.926  1.00  0.00     0.124 S 
ATOM     74  O   UNL     1      13.832   1.819   8.188  1.00  0.00    -0.237 OA
ATOM     75  O   UNL     1      11.829   3.243   8.462  1.00  0.00    -0.237 OA
ATOM     76  O   UNL     1      11.576   0.823   8.073  1.00  0.00    -0.744 OA
ENDBRANCH  72  73
ENDBRANCH  44  67
BRANCH  56  77
ATOM     77  C   UNL     1      17.400   3.701  -1.366  1.00  0.00    -0.014 A 
ATOM     78  C   UNL     1      18.139   2.535  -1.102  1.00  0.00     0.010 A 
ATOM     79  C   UNL     1      18.088   4.908  -1.598  1.00  0.00     0.010 A 
ATOM     80  C   UNL     1      19.535   2.581  -1.039  1.00  0.00     0.020 A 
ATOM     81  C   UNL     1      19.484   4.951  -1.569  1.00  0.00     0.020 A 
ATOM     82  C   UNL     1      20.198   3.789  -1.274  1.00  0.00     0.054 A 
BRANCH  82  83
ATOM     83  S   UNL     1      22.011   3.812  -1.229  1.00  0.00     0.124 S 
ATOM     84  O   UNL     1      22.282   3.652   0.198  1.00  0.00    -0.237 OA
ATOM     85  O   UNL     1      22.366   2.670  -2.068  1.00  0.00    -0.237 OA
ATOM     86  O   UNL     1      22.357   5.118  -1.785  1.00  0.00    -0.744 OA
ENDBRANCH  82  83
ENDBRANCH  56  77
ENDBRANCH  30  31
ENDBRANCH  23  25
ENDBRANCH  22  23
ENDBRANCH  21  22
ENDBRANCH   1  21
TORSDOF 18
