REMARK SMILES CC(C)C[C@H](C)NS(=O)(=O)c1cc(C(=O)OCCOCCOC(=O)c2ccc(-c3c4nc(c(-c5ccc(S(=O)(=O)[O-])cc5)c5ccc([nH]5)c(-c5ccc(S(=O)(=O)[O-])cc5)c5nc(c(-c6ccc(S(=O)(=O)[O-])cc6)c6ccc3[nH]6)C=C5)C=C4)cc2)ccc1Cl
REMARK SMILES IDX 18 1 17 2 16 3 14 4 15 5 13 6 11 7 12 8 87 9 86 10 88 11
REMARK SMILES IDX 85 12 8 13 9 14 10 15 7 16 5 18 6 19 4 20 2 21 1 22 3 23
REMARK SMILES IDX 19 24 20 25 21 26 22 27 23 28 24 29 25 30 26 31 84 32 27 33
REMARK SMILES IDX 83 34 28 35 29 36 30 37 77 38 31 39 82 40 76 41 78 42 32 43
REMARK SMILES IDX 81 44 75 45 74 46 33 48 63 49 44 50 62 51 45 52 48 53 61 54
REMARK SMILES IDX 79 55 46 56 47 57 60 59 80 60 49 61 34 62 35 63 43 64 36 65
REMARK SMILES IDX 42 66 37 67 38 68 39 69 40 70 41 71 64 72 65 73 73 74 66 75
REMARK SMILES IDX 72 76 67 77 68 78 69 79 70 80 71 81 50 82 51 83 59 84 52 85
REMARK SMILES IDX 58 86 53 87 54 88 55 89 56 90 57 91
REMARK H PARENT 7 17 78 47 48 58
REMARK Flexibility Score: inf
ROOT
ATOM      1  C   UNL     1      -3.400  -3.397   5.758  1.00  0.00     0.202 C 
ENDROOT
BRANCH   1   2
ATOM      2  C   UNL     1      -1.944  -3.006   5.487  1.00  0.00     0.261 C 
BRANCH   2   3
ATOM      3  O   UNL     1      -1.804  -1.583   5.348  1.00  0.00    -0.460 OA
BRANCH   3   4
ATOM      4  C   UNL     1      -1.448  -1.164   4.113  1.00  0.00     0.338 C 
ATOM      5  O   UNL     1      -1.080  -1.838   3.167  1.00  0.00    -0.246 OA
BRANCH   4   6
ATOM      6  C   UNL     1      -1.802   0.261   3.969  1.00  0.00     0.061 A 
ATOM      7  C   UNL     1      -2.950   1.934   2.620  1.00  0.00     0.101 A 
ATOM      8  C   UNL     1      -2.540   0.608   2.834  1.00  0.00     0.039 A 
ATOM      9  C   UNL     1      -2.607   2.916   3.551  1.00  0.00     0.061 A 
ATOM     10  C   UNL     1      -1.885   2.550   4.703  1.00  0.00     0.023 A 
ATOM     11  Cl  UNL     1      -2.975   4.592   3.403  1.00  0.00    -0.083 Cl
ATOM     12  C   UNL     1      -1.494   1.225   4.924  1.00  0.00     0.017 A 
BRANCH   7  13
ATOM     13  S   UNL     1      -4.044   2.185   1.256  1.00  0.00     0.242 S 
ATOM     14  O   UNL     1      -4.702   3.467   1.344  1.00  0.00    -0.207 OA
ATOM     15  O   UNL     1      -4.855   0.987   1.161  1.00  0.00    -0.207 OA
BRANCH  13  16
ATOM     16  N   UNL     1      -3.141   2.172  -0.171  1.00  0.00    -0.208 NA
ATOM     17  H   UNL     1      -3.575   1.468  -0.767  1.00  0.00     0.141 HD
BRANCH  16  18
ATOM     18  C   UNL     1      -1.692   1.905  -0.226  1.00  0.00     0.067 C 
ATOM     19  C   UNL     1      -1.442   0.811  -1.270  1.00  0.00     0.025 C 
BRANCH  18  20
ATOM     20  C   UNL     1      -0.872   3.176  -0.526  1.00  0.00     0.022 C 
BRANCH  20  21
ATOM     21  C   UNL     1      -1.506   4.310  -1.364  1.00  0.00    -0.016 C 
ATOM     22  C   UNL     1      -2.602   5.069  -0.608  1.00  0.00     0.007 C 
ATOM     23  C   UNL     1      -0.412   5.312  -1.757  1.00  0.00     0.007 C 
ENDBRANCH  20  21
ENDBRANCH  18  20
ENDBRANCH  16  18
ENDBRANCH  13  16
ENDBRANCH   7  13
ENDBRANCH   4   6
ENDBRANCH   3   4
ENDBRANCH   2   3
ENDBRANCH   1   2
BRANCH   1  24
ATOM     24  O   UNL     1      -4.351  -3.080   4.741  1.00  0.00    -0.374 OA
BRANCH  24  25
ATOM     25  C   UNL     1      -4.835  -1.737   4.686  1.00  0.00     0.202 C 
BRANCH  25  26
ATOM     26  C   UNL     1      -5.858  -1.305   5.744  1.00  0.00     0.261 C 
BRANCH  26  27
ATOM     27  O   UNL     1      -5.293  -1.261   7.066  1.00  0.00    -0.460 OA
BRANCH  27  28
ATOM     28  C   UNL     1      -5.740  -2.230   7.903  1.00  0.00     0.338 C 
ATOM     29  O   UNL     1      -6.592  -3.070   7.669  1.00  0.00    -0.246 OA
BRANCH  28  30
ATOM     30  C   UNL     1      -4.901  -2.270   9.116  1.00  0.00     0.060 A 
ATOM     31  C   UNL     1      -4.298  -3.491   9.443  1.00  0.00     0.016 A 
ATOM     32  C   UNL     1      -4.765  -1.163   9.954  1.00  0.00     0.016 A 
ATOM     33  C   UNL     1      -3.595  -3.624  10.638  1.00  0.00     0.010 A 
ATOM     34  C   UNL     1      -4.066  -1.301  11.158  1.00  0.00     0.010 A 
ATOM     35  C   UNL     1      -3.507  -2.541  11.521  1.00  0.00    -0.014 A 
BRANCH  35  36
ATOM     36  C   UNL     1      -2.952  -2.748  12.881  1.00  0.00     0.031 A 
ATOM     37  C   UNL     1      -3.897  -2.890  14.044  1.00  0.00     0.074 A 
ATOM     38  C   UNL     1      -1.624  -2.841  13.074  1.00  0.00     0.049 A 
ATOM     39  N   UNL     1      -3.629  -3.053  15.313  1.00  0.00    -0.248 NA
ATOM     40  C   UNL     1      -5.336  -2.840  13.734  1.00  0.00     0.031 C 
ATOM     41  C   UNL     1      -0.610  -2.765  12.022  1.00  0.00     0.029 A 
ATOM     42  N   UNL     1      -0.901  -3.016  14.227  1.00  0.00    -0.354 N 
ATOM     43  C   UNL     1      -4.861  -3.114  15.956  1.00  0.00     0.074 A 
ATOM     44  C   UNL     1      -5.876  -2.941  14.940  1.00  0.00     0.031 C 
ATOM     45  C   UNL     1       0.606  -2.889  12.581  1.00  0.00     0.029 A 
ATOM     46  C   UNL     1       0.459  -3.016  14.029  1.00  0.00     0.049 A 
ATOM     47  H   UNL     1      -1.317  -3.131  15.111  1.00  0.00     0.167 HD
ATOM     48  C   UNL     1      -5.122  -3.303  17.271  1.00  0.00     0.031 A 
ATOM     49  C   UNL     1       1.471  -3.089  14.917  1.00  0.00     0.031 A 
ATOM     50  C   UNL     1      -4.108  -3.463  18.280  1.00  0.00     0.049 A 
ATOM     51  C   UNL     1       1.156  -3.226  16.384  1.00  0.00     0.074 A 
ATOM     52  C   UNL     1      -4.272  -3.675  19.638  1.00  0.00     0.029 A 
ATOM     53  N   UNL     1      -2.742  -3.419  18.045  1.00  0.00    -0.354 N 
ATOM     54  N   UNL     1      -0.015  -3.305  16.973  1.00  0.00    -0.248 NA
ATOM     55  C   UNL     1       2.299  -3.293  17.305  1.00  0.00     0.031 C 
ATOM     56  C   UNL     1      -3.006  -3.699  20.233  1.00  0.00     0.029 A 
ATOM     57  C   UNL     1      -2.052  -3.571  19.236  1.00  0.00     0.049 A 
ATOM     58  H   UNL     1      -2.325  -3.298  17.162  1.00  0.00     0.167 HD
ATOM     59  C   UNL     1       0.253  -3.462  18.329  1.00  0.00     0.074 A 
ATOM     60  C   UNL     1       1.695  -3.479  18.471  1.00  0.00     0.031 C 
ATOM     61  C   UNL     1      -0.616  -3.584  19.364  1.00  0.00     0.031 A 
BRANCH  48  62
ATOM     62  C   UNL     1      -6.567  -3.309  17.701  1.00  0.00    -0.014 A 
ATOM     63  C   UNL     1      -7.426  -4.371  17.365  1.00  0.00     0.010 A 
ATOM     64  C   UNL     1      -7.062  -2.252  18.487  1.00  0.00     0.010 A 
ATOM     65  C   UNL     1      -8.763  -4.356  17.775  1.00  0.00     0.020 A 
ATOM     66  C   UNL     1      -8.389  -2.248  18.924  1.00  0.00     0.020 A 
ATOM     67  C   UNL     1      -9.236  -3.293  18.550  1.00  0.00     0.054 A 
BRANCH  67  68
ATOM     68  S   UNL     1     -10.969  -3.312  19.087  1.00  0.00     0.124 S 
ATOM     69  O   UNL     1     -11.674  -3.038  17.837  1.00  0.00    -0.237 OA
ATOM     70  O   UNL     1     -11.126  -4.665  19.614  1.00  0.00    -0.237 OA
ATOM     71  O   UNL     1     -11.035  -2.247  20.085  1.00  0.00    -0.744 OA
ENDBRANCH  67  68
ENDBRANCH  48  62
BRANCH  49  72
ATOM     72  C   UNL     1       2.880  -3.016  14.444  1.00  0.00    -0.014 A 
ATOM     73  C   UNL     1       3.725  -4.137  14.521  1.00  0.00     0.010 A 
ATOM     74  C   UNL     1       3.385  -1.816  13.908  1.00  0.00     0.010 A 
ATOM     75  C   UNL     1       5.052  -4.055  14.086  1.00  0.00     0.020 A 
ATOM     76  C   UNL     1       4.700  -1.739  13.444  1.00  0.00     0.020 A 
ATOM     77  C   UNL     1       5.529  -2.857  13.546  1.00  0.00     0.054 A 
BRANCH  77  78
ATOM     78  S   UNL     1       7.237  -2.791  12.935  1.00  0.00     0.124 S 
ATOM     79  O   UNL     1       8.004  -2.794  14.176  1.00  0.00    -0.237 OA
ATOM     80  O   UNL     1       7.329  -4.006  12.129  1.00  0.00    -0.237 OA
ATOM     81  O   UNL     1       7.278  -1.544  12.174  1.00  0.00    -0.744 OA
ENDBRANCH  77  78
ENDBRANCH  49  72
BRANCH  61  82
ATOM     82  C   UNL     1      -0.036  -3.787  20.740  1.00  0.00    -0.014 A 
ATOM     83  C   UNL     1       0.626  -2.748  21.418  1.00  0.00     0.010 A 
ATOM     84  C   UNL     1      -0.202  -5.027  21.384  1.00  0.00     0.010 A 
ATOM     85  C   UNL     1       1.143  -2.957  22.700  1.00  0.00     0.020 A 
ATOM     86  C   UNL     1       0.286  -5.231  22.677  1.00  0.00     0.020 A 
ATOM     87  C   UNL     1       0.970  -4.198  23.321  1.00  0.00     0.054 A 
BRANCH  87  88
ATOM     88  S   UNL     1       1.619  -4.433  24.999  1.00  0.00     0.124 S 
ATOM     89  O   UNL     1       3.058  -4.507  24.761  1.00  0.00    -0.237 OA
ATOM     90  O   UNL     1       1.157  -3.233  25.692  1.00  0.00    -0.237 OA
ATOM     91  O   UNL     1       0.996  -5.679  25.441  1.00  0.00    -0.744 OA
ENDBRANCH  87  88
ENDBRANCH  61  82
ENDBRANCH  35  36
ENDBRANCH  28  30
ENDBRANCH  27  28
ENDBRANCH  26  27
ENDBRANCH  25  26
ENDBRANCH  24  25
ENDBRANCH   1  24
TORSDOF 22
