REMARK SMILES COc1ccc(-c2ccc(CCC(=O)OCCOCCOC(=O)c3ccc(-c4c5nc(c(-c6ccc(S(=O)(=O)[O-])cc6)c6ccc([nH]6)c(-c6ccc(S(=O)(=O)[O-])cc6)c6nc(c(-c7ccc(S(=O)(=O)[O-])cc7)c7ccc4[nH]7)C=C6)C=C5)cc3)n2-c2ccc(C(C)=O)cc2)cc1
REMARK SMILES IDX 17 1 16 2 15 3 13 4 14 5 12 6 11 7 10 8 7 9 8 10 84 11 9 12
REMARK SMILES IDX 6 13 3 14 4 15 95 16 5 17 94 18 2 19 1 20 85 21 86 22 93 23
REMARK SMILES IDX 87 24 92 25 88 26 89 27 90 28 91 29 18 30 19 31 20 32 21 33
REMARK SMILES IDX 22 34 23 35 24 36 25 37 83 38 26 39 82 40 27 41 28 42 29 43
REMARK SMILES IDX 76 44 30 45 81 46 75 47 77 48 31 49 80 50 74 51 73 52 32 54
REMARK SMILES IDX 62 55 43 56 61 57 44 58 47 59 60 60 78 61 45 62 46 63 59 65
REMARK SMILES IDX 79 66 48 67 33 68 34 69 42 70 35 71 41 72 36 73 37 74 38 75
REMARK SMILES IDX 39 76 40 77 63 78 64 79 72 80 65 81 71 82 66 83 67 84 68 85
REMARK SMILES IDX 69 86 70 87 49 88 50 89 58 90 51 91 57 92 52 93 53 94 54 95
REMARK SMILES IDX 55 96 56 97
REMARK H PARENT 77 53 47 64
REMARK Flexibility Score: inf
ROOT
ATOM      1  C   UNL     1       5.203  -7.525  -8.450  1.00  0.00     0.202 C 
ENDROOT
BRANCH   1   2
ATOM      2  C   UNL     1       5.779  -6.114  -8.329  1.00  0.00     0.261 C 
BRANCH   2   3
ATOM      3  O   UNL     1       4.732  -5.143  -8.131  1.00  0.00    -0.463 OA
BRANCH   3   4
ATOM      4  C   UNL     1       4.327  -4.428  -9.206  1.00  0.00     0.306 C 
ATOM      5  O   UNL     1       4.876  -4.447 -10.301  1.00  0.00    -0.252 OA
BRANCH   4   6
ATOM      6  C   UNL     1       3.107  -3.578  -8.912  1.00  0.00     0.129 C 
BRANCH   6   7
ATOM      7  C   UNL     1       1.868  -4.278  -8.336  1.00  0.00     0.066 C 
BRANCH   7   8
ATOM      8  C   UNL     1       1.924  -4.517  -6.851  1.00  0.00     0.024 A 
ATOM      9  C   UNL     1       1.789  -4.073  -4.638  1.00  0.00     0.053 A 
ATOM     10  C   UNL     1       2.555  -5.212  -4.795  1.00  0.00     0.029 A 
ATOM     11  N   UNL     1       1.302  -3.718  -5.894  1.00  0.00    -0.314 N 
ATOM     12  C   UNL     1       2.602  -5.506  -6.165  1.00  0.00     0.024 A 
BRANCH   9  13
ATOM     13  C   UNL     1       1.470  -3.403  -3.383  1.00  0.00    -0.001 A 
ATOM     14  C   UNL     1       0.900  -2.012  -1.032  1.00  0.00     0.118 A 
ATOM     15  C   UNL     1      -0.108  -2.724  -1.680  1.00  0.00     0.047 A 
ATOM     16  C   UNL     1       2.208  -2.052  -1.513  1.00  0.00     0.047 A 
ATOM     17  C   UNL     1       0.173  -3.415  -2.860  1.00  0.00     0.014 A 
ATOM     18  C   UNL     1       2.491  -2.746  -2.688  1.00  0.00     0.014 A 
BRANCH  14  19
ATOM     19  O   UNL     1       0.546  -1.336   0.103  1.00  0.00    -0.497 OA
ATOM     20  C   UNL     1       1.039   0.001   0.128  1.00  0.00     0.278 C 
ENDBRANCH  14  19
ENDBRANCH   9  13
BRANCH  11  21
ATOM     21  C   UNL     1       0.352  -2.701  -6.165  1.00  0.00     0.046 A 
ATOM     22  C   UNL     1      -0.817  -3.026  -6.862  1.00  0.00     0.027 A 
ATOM     23  C   UNL     1       0.575  -1.399  -5.724  1.00  0.00     0.027 A 
ATOM     24  C   UNL     1      -1.761  -2.033  -7.140  1.00  0.00     0.014 A 
ATOM     25  C   UNL     1      -0.362  -0.408  -6.022  1.00  0.00     0.014 A 
ATOM     26  C   UNL     1      -1.534  -0.711  -6.736  1.00  0.00     0.017 A 
BRANCH  26  27
ATOM     27  C   UNL     1      -2.466   0.419  -7.040  1.00  0.00     0.159 C 
ATOM     28  C   UNL     1      -3.812   0.175  -7.675  1.00  0.00     0.093 C 
ATOM     29  O   UNL     1      -2.122   1.571  -6.767  1.00  0.00    -0.295 OA
ENDBRANCH  26  27
ENDBRANCH  11  21
ENDBRANCH   7   8
ENDBRANCH   6   7
ENDBRANCH   4   6
ENDBRANCH   3   4
ENDBRANCH   2   3
ENDBRANCH   1   2
BRANCH   1  30
ATOM     30  O   UNL     1       4.637  -7.851  -9.724  1.00  0.00    -0.374 OA
BRANCH  30  31
ATOM     31  C   UNL     1       3.310  -7.405  -9.993  1.00  0.00     0.202 C 
BRANCH  31  32
ATOM     32  C   UNL     1       2.176  -8.302  -9.521  1.00  0.00     0.261 C 
BRANCH  32  33
ATOM     33  O   UNL     1       2.092  -8.276  -8.105  1.00  0.00    -0.460 OA
BRANCH  33  34
ATOM     34  C   UNL     1       2.799  -9.258  -7.506  1.00  0.00     0.338 C 
ATOM     35  O   UNL     1       3.594 -10.019  -8.017  1.00  0.00    -0.246 OA
BRANCH  34  36
ATOM     36  C   UNL     1       2.351  -9.377  -6.118  1.00  0.00     0.060 A 
ATOM     37  C   UNL     1       2.974 -10.402  -5.405  1.00  0.00     0.016 A 
ATOM     38  C   UNL     1       1.087  -8.869  -5.789  1.00  0.00     0.016 A 
ATOM     39  C   UNL     1       2.196 -11.139  -4.553  1.00  0.00     0.010 A 
ATOM     40  C   UNL     1       0.295  -9.630  -4.974  1.00  0.00     0.010 A 
ATOM     41  C   UNL     1       0.847 -10.790  -4.421  1.00  0.00    -0.014 A 
BRANCH  41  42
ATOM     42  C   UNL     1       0.042 -11.557  -3.487  1.00  0.00     0.031 A 
ATOM     43  C   UNL     1       0.188 -10.903  -2.091  1.00  0.00     0.074 A 
ATOM     44  C   UNL     1      -0.583 -12.648  -4.043  1.00  0.00     0.049 A 
ATOM     45  N   UNL     1      -0.140 -11.370  -0.936  1.00  0.00    -0.248 NA
ATOM     46  C   UNL     1       0.818  -9.547  -1.929  1.00  0.00     0.031 C 
ATOM     47  C   UNL     1      -0.562 -13.035  -5.486  1.00  0.00     0.029 A 
ATOM     48  N   UNL     1      -1.356 -13.664  -3.534  1.00  0.00    -0.354 N 
ATOM     49  C   UNL     1       0.046 -10.355   0.029  1.00  0.00     0.074 A 
ATOM     50  C   UNL     1       0.690  -9.267  -0.630  1.00  0.00     0.031 C 
ATOM     51  C   UNL     1      -1.171 -14.230  -5.690  1.00  0.00     0.029 A 
ATOM     52  C   UNL     1      -1.682 -14.727  -4.429  1.00  0.00     0.049 A 
ATOM     53  H   UNL     1      -1.668 -13.659  -2.600  1.00  0.00     0.167 HD
ATOM     54  C   UNL     1      -0.427 -10.481   1.301  1.00  0.00     0.031 A 
ATOM     55  C   UNL     1      -2.279 -15.929  -4.130  1.00  0.00     0.031 A 
ATOM     56  C   UNL     1      -0.925 -11.804   1.478  1.00  0.00     0.049 A 
ATOM     57  C   UNL     1      -2.689 -15.770  -2.727  1.00  0.00     0.074 A 
ATOM     58  C   UNL     1      -0.249 -12.992   1.585  1.00  0.00     0.029 A 
ATOM     59  N   UNL     1      -2.221 -12.037   1.082  1.00  0.00    -0.354 N 
ATOM     60  N   UNL     1      -3.654 -15.005  -2.319  1.00  0.00    -0.248 NA
ATOM     61  C   UNL     1      -1.887 -16.422  -1.685  1.00  0.00     0.031 C 
ATOM     62  C   UNL     1      -0.981 -13.831   0.725  1.00  0.00     0.029 A 
ATOM     63  C   UNL     1      -2.210 -13.236   0.412  1.00  0.00     0.049 A 
ATOM     64  H   UNL     1      -3.001 -11.459   1.246  1.00  0.00     0.167 HD
ATOM     65  C   UNL     1      -3.310 -14.779  -1.013  1.00  0.00     0.074 A 
ATOM     66  C   UNL     1      -2.467 -15.891  -0.613  1.00  0.00     0.031 C 
ATOM     67  C   UNL     1      -3.263 -13.508  -0.532  1.00  0.00     0.031 A 
BRANCH  54  68
ATOM     68  C   UNL     1      -0.645  -9.518   2.427  1.00  0.00    -0.014 A 
ATOM     69  C   UNL     1      -0.847 -10.099   3.705  1.00  0.00     0.010 A 
ATOM     70  C   UNL     1      -1.029  -8.183   2.247  1.00  0.00     0.010 A 
ATOM     71  C   UNL     1      -1.565  -9.448   4.703  1.00  0.00     0.020 A 
ATOM     72  C   UNL     1      -1.717  -7.502   3.271  1.00  0.00     0.020 A 
ATOM     73  C   UNL     1      -2.031  -8.162   4.465  1.00  0.00     0.054 A 
BRANCH  73  74
ATOM     74  S   UNL     1      -3.118  -7.424   5.714  1.00  0.00     0.124 S 
ATOM     75  O   UNL     1      -4.324  -8.238   5.594  1.00  0.00    -0.237 OA
ATOM     76  O   UNL     1      -2.356  -7.616   6.946  1.00  0.00    -0.237 OA
ATOM     77  O   UNL     1      -3.249  -6.036   5.280  1.00  0.00    -0.744 OA
ENDBRANCH  73  74
ENDBRANCH  54  68
BRANCH  55  78
ATOM     78  C   UNL     1      -2.522 -17.316  -4.706  1.00  0.00    -0.014 A 
ATOM     79  C   UNL     1      -2.184 -17.780  -5.982  1.00  0.00     0.010 A 
ATOM     80  C   UNL     1      -2.998 -18.320  -3.805  1.00  0.00     0.010 A 
ATOM     81  C   UNL     1      -2.156 -19.176  -6.268  1.00  0.00     0.020 A 
ATOM     82  C   UNL     1      -2.915 -19.694  -4.049  1.00  0.00     0.020 A 
ATOM     83  C   UNL     1      -2.454 -20.122  -5.277  1.00  0.00     0.054 A 
BRANCH  83  84
ATOM     84  S   UNL     1      -2.096 -21.892  -5.516  1.00  0.00     0.124 S 
ATOM     85  O   UNL     1      -3.228 -22.340  -6.319  1.00  0.00    -0.237 OA
ATOM     86  O   UNL     1      -0.805 -21.866  -6.201  1.00  0.00    -0.237 OA
ATOM     87  O   UNL     1      -2.049 -22.422  -4.154  1.00  0.00    -0.744 OA
ENDBRANCH  83  84
ENDBRANCH  55  78
BRANCH  67  88
ATOM     88  C   UNL     1      -4.088 -12.464  -1.283  1.00  0.00    -0.014 A 
ATOM     89  C   UNL     1      -5.472 -12.668  -1.431  1.00  0.00     0.010 A 
ATOM     90  C   UNL     1      -3.547 -11.314  -1.901  1.00  0.00     0.010 A 
ATOM     91  C   UNL     1      -6.283 -11.770  -2.142  1.00  0.00     0.020 A 
ATOM     92  C   UNL     1      -4.352 -10.405  -2.623  1.00  0.00     0.020 A 
ATOM     93  C   UNL     1      -5.723 -10.636  -2.728  1.00  0.00     0.054 A 
BRANCH  93  94
ATOM     94  S   UNL     1      -6.821  -9.475  -3.599  1.00  0.00     0.124 S 
ATOM     95  O   UNL     1      -7.420 -10.310  -4.638  1.00  0.00    -0.237 OA
ATOM     96  O   UNL     1      -7.732  -9.049  -2.540  1.00  0.00    -0.237 OA
ATOM     97  O   UNL     1      -5.918  -8.436  -4.094  1.00  0.00    -0.744 OA
ENDBRANCH  93  94
ENDBRANCH  67  88
ENDBRANCH  41  42
ENDBRANCH  34  36
ENDBRANCH  33  34
ENDBRANCH  32  33
ENDBRANCH  31  32
ENDBRANCH  30  31
ENDBRANCH   1  30
TORSDOF 23
