REMARK SMILES COC(CNS(=O)(=O)c1ccc(Cl)c(C(=O)OCCOCCOC(=O)c2ccc(-c3c4nc(c(-c5ccc(S(=O)(=O)[O-])cc5)c5ccc([nH]5)c(-c5ccc(S(=O)(=O)[O-])cc5)c5nc(c(-c6ccc(S(=O)(=O)[O-])cc6)c6ccc3[nH]6)C=C5)C=C4)cc2)c1Cl)OC
REMARK SMILES IDX 19 1 18 2 17 3 15 4 16 5 14 6 9 7 10 8 86 9 11 10 87 11
REMARK SMILES IDX 12 12 13 13 6 14 7 15 8 16 5 17 4 19 3 20 2 21 1 22 88 23
REMARK SMILES IDX 89 24 20 25 21 26 22 27 23 28 24 29 25 30 26 31 27 32 85 33
REMARK SMILES IDX 28 34 84 35 29 36 30 37 31 38 78 39 32 40 83 41 77 42 79 43
REMARK SMILES IDX 33 44 82 45 76 46 75 47 34 49 64 50 45 51 63 52 46 53 49 54
REMARK SMILES IDX 62 55 80 56 47 57 48 58 61 60 81 61 50 62 35 63 36 64 44 65
REMARK SMILES IDX 37 66 43 67 38 68 39 69 40 70 41 71 42 72 65 73 66 74 74 75
REMARK SMILES IDX 67 76 73 77 68 78 69 79 70 80 71 81 72 82 51 83 52 84 60 85
REMARK SMILES IDX 53 86 59 87 54 88 55 89 56 90 57 91 58 92
REMARK H PARENT 5 18 79 48 49 59
REMARK Flexibility Score: inf
ROOT
ATOM      1  C   UNL     1       0.703  -6.851  -6.112  1.00  0.00     0.202 C 
ENDROOT
BRANCH   1   2
ATOM      2  C   UNL     1      -0.162  -6.011  -7.056  1.00  0.00     0.261 C 
BRANCH   2   3
ATOM      3  O   UNL     1       0.409  -4.708  -7.219  1.00  0.00    -0.460 OA
BRANCH   3   4
ATOM      4  C   UNL     1      -0.476  -3.696  -7.363  1.00  0.00     0.341 C 
ATOM      5  O   UNL     1      -1.671  -3.778  -7.576  1.00  0.00    -0.246 OA
BRANCH   4   6
ATOM      6  C   UNL     1       0.226  -2.443  -7.028  1.00  0.00     0.098 A 
ATOM      7  C   UNL     1       0.575  -0.565  -5.522  1.00  0.00     0.102 A 
ATOM      8  C   UNL     1       1.599  -0.105  -6.369  1.00  0.00     0.025 A 
ATOM      9  C   UNL     1      -0.126  -1.737  -5.852  1.00  0.00     0.077 A 
ATOM     10  C   UNL     1       1.938  -0.811  -7.525  1.00  0.00     0.023 A 
ATOM     11  Cl  UNL     1      -1.353  -2.397  -4.818  1.00  0.00    -0.082 Cl
ATOM     12  C   UNL     1       1.254  -1.979  -7.859  1.00  0.00     0.057 A 
ATOM     13  Cl  UNL     1       1.721  -2.785  -9.313  1.00  0.00    -0.083 Cl
BRANCH   7  14
ATOM     14  S   UNL     1       0.163   0.464  -4.127  1.00  0.00     0.242 S 
ATOM     15  O   UNL     1      -1.241   0.372  -3.811  1.00  0.00    -0.207 OA
ATOM     16  O   UNL     1       0.766   1.762  -4.356  1.00  0.00    -0.207 OA
BRANCH  14  17
ATOM     17  N   UNL     1       1.052  -0.174  -2.846  1.00  0.00    -0.206 NA
ATOM     18  H   UNL     1       1.986  -0.376  -3.202  1.00  0.00     0.141 HD
BRANCH  17  19
ATOM     19  C   UNL     1       0.565  -1.403  -2.182  1.00  0.00     0.161 C 
BRANCH  19  20
ATOM     20  C   UNL     1       1.286  -1.781  -0.857  1.00  0.00     0.263 C 
BRANCH  20  21
ATOM     21  O   UNL     1       0.879  -1.123   0.343  1.00  0.00    -0.355 OA
ATOM     22  C   UNL     1       0.729   0.278   0.335  1.00  0.00     0.198 C 
ENDBRANCH  20  21
BRANCH  20  23
ATOM     23  O   UNL     1       2.688  -2.039  -0.948  1.00  0.00    -0.355 OA
ATOM     24  C   UNL     1       3.544  -0.951  -1.217  1.00  0.00     0.198 C 
ENDBRANCH  20  23
ENDBRANCH  19  20
ENDBRANCH  17  19
ENDBRANCH  14  17
ENDBRANCH   7  14
ENDBRANCH   4   6
ENDBRANCH   3   4
ENDBRANCH   2   3
ENDBRANCH   1   2
BRANCH   1  25
ATOM     25  O   UNL     1       0.959  -6.281  -4.826  1.00  0.00    -0.374 OA
BRANCH  25  26
ATOM     26  C   UNL     1       1.923  -5.228  -4.749  1.00  0.00     0.202 C 
BRANCH  26  27
ATOM     27  C   UNL     1       3.396  -5.612  -4.943  1.00  0.00     0.261 C 
BRANCH  27  28
ATOM     28  O   UNL     1       3.692  -6.016  -6.293  1.00  0.00    -0.460 OA
BRANCH  28  29
ATOM     29  C   UNL     1       4.121  -7.297  -6.428  1.00  0.00     0.338 C 
ATOM     30  O   UNL     1       4.317  -8.107  -5.539  1.00  0.00    -0.246 OA
BRANCH  29  31
ATOM     31  C   UNL     1       4.163  -7.658  -7.857  1.00  0.00     0.060 A 
ATOM     32  C   UNL     1       3.339  -8.702  -8.298  1.00  0.00     0.016 A 
ATOM     33  C   UNL     1       5.049  -7.033  -8.734  1.00  0.00     0.016 A 
ATOM     34  C   UNL     1       3.407  -9.132  -9.624  1.00  0.00     0.010 A 
ATOM     35  C   UNL     1       5.125  -7.475 -10.058  1.00  0.00     0.010 A 
ATOM     36  C   UNL     1       4.317  -8.536 -10.506  1.00  0.00    -0.014 A 
BRANCH  36  37
ATOM     37  C   UNL     1       4.493  -9.070 -11.878  1.00  0.00     0.031 A 
ATOM     38  C   UNL     1       5.657  -9.974 -12.175  1.00  0.00     0.074 A 
ATOM     39  C   UNL     1       3.630  -8.736 -12.854  1.00  0.00     0.049 A 
ATOM     40  N   UNL     1       6.047 -10.469 -13.321  1.00  0.00    -0.248 NA
ATOM     41  C   UNL     1       6.489 -10.372 -11.029  1.00  0.00     0.031 C 
ATOM     42  C   UNL     1       2.435  -7.910 -12.680  1.00  0.00     0.029 A 
ATOM     43  N   UNL     1       3.635  -9.042 -14.192  1.00  0.00    -0.354 N 
ATOM     44  C   UNL     1       7.176 -11.230 -13.038  1.00  0.00     0.074 A 
ATOM     45  C   UNL     1       7.419 -11.112 -11.616  1.00  0.00     0.031 C 
ATOM     46  C   UNL     1       1.829  -7.763 -13.871  1.00  0.00     0.029 A 
ATOM     47  C   UNL     1       2.616  -8.446 -14.896  1.00  0.00     0.049 A 
ATOM     48  H   UNL     1       4.305  -9.631 -14.608  1.00  0.00     0.167 HD
ATOM     49  C   UNL     1       7.940 -11.959 -13.887  1.00  0.00     0.031 A 
ATOM     50  C   UNL     1       2.364  -8.425 -16.220  1.00  0.00     0.031 A 
ATOM     51  C   UNL     1       7.707 -12.052 -15.304  1.00  0.00     0.049 A 
ATOM     52  C   UNL     1       3.288  -9.157 -17.159  1.00  0.00     0.074 A 
ATOM     53  C   UNL     1       8.420 -12.773 -16.247  1.00  0.00     0.029 A 
ATOM     54  N   UNL     1       6.693 -11.397 -15.985  1.00  0.00    -0.354 N 
ATOM     55  N   UNL     1       4.342  -9.885 -16.876  1.00  0.00    -0.248 NA
ATOM     56  C   UNL     1       2.990  -9.061 -18.595  1.00  0.00     0.031 C 
ATOM     57  C   UNL     1       7.872 -12.505 -17.506  1.00  0.00     0.029 A 
ATOM     58  C   UNL     1       6.780 -11.667 -17.340  1.00  0.00     0.049 A 
ATOM     59  H   UNL     1       6.010 -10.823 -15.567  1.00  0.00     0.167 HD
ATOM     60  C   UNL     1       4.818 -10.352 -18.097  1.00  0.00     0.074 A 
ATOM     61  C   UNL     1       3.932  -9.834 -19.119  1.00  0.00     0.031 C 
ATOM     62  C   UNL     1       5.892 -11.142 -18.348  1.00  0.00     0.031 A 
BRANCH  49  63
ATOM     63  C   UNL     1       9.127 -12.680 -13.307  1.00  0.00    -0.014 A 
ATOM     64  C   UNL     1       8.964 -13.812 -12.489  1.00  0.00     0.010 A 
ATOM     65  C   UNL     1      10.427 -12.236 -13.609  1.00  0.00     0.010 A 
ATOM     66  C   UNL     1      10.078 -14.461 -11.949  1.00  0.00     0.020 A 
ATOM     67  C   UNL     1      11.545 -12.899 -13.093  1.00  0.00     0.020 A 
ATOM     68  C   UNL     1      11.361 -13.996 -12.250  1.00  0.00     0.054 A 
BRANCH  68  69
ATOM     69  S   UNL     1      12.790 -14.862 -11.543  1.00  0.00     0.124 S 
ATOM     70  O   UNL     1      12.727 -14.451 -10.142  1.00  0.00    -0.237 OA
ATOM     71  O   UNL     1      12.474 -16.265 -11.799  1.00  0.00    -0.237 OA
ATOM     72  O   UNL     1      13.925 -14.334 -12.296  1.00  0.00    -0.744 OA
ENDBRANCH  68  69
ENDBRANCH  49  63
BRANCH  50  73
ATOM     73  C   UNL     1       1.201  -7.656 -16.742  1.00  0.00    -0.014 A 
ATOM     74  C   UNL     1       0.089  -8.322 -17.284  1.00  0.00     0.010 A 
ATOM     75  C   UNL     1       1.200  -6.250 -16.693  1.00  0.00     0.010 A 
ATOM     76  C   UNL     1      -1.000  -7.596 -17.776  1.00  0.00     0.020 A 
ATOM     77  C   UNL     1       0.102  -5.521 -17.159  1.00  0.00     0.020 A 
ATOM     78  C   UNL     1      -0.988  -6.199 -17.707  1.00  0.00     0.054 A 
BRANCH  78  79
ATOM     79  S   UNL     1      -2.435  -5.280 -18.301  1.00  0.00     0.124 S 
ATOM     80  O   UNL     1      -2.306  -5.413 -19.749  1.00  0.00    -0.237 OA
ATOM     81  O   UNL     1      -3.544  -6.013 -17.694  1.00  0.00    -0.237 OA
ATOM     82  O   UNL     1      -2.225  -3.934 -17.774  1.00  0.00    -0.744 OA
ENDBRANCH  78  79
ENDBRANCH  50  73
BRANCH  62  83
ATOM     83  C   UNL     1       6.162 -11.521 -19.780  1.00  0.00    -0.014 A 
ATOM     84  C   UNL     1       6.694 -10.592 -20.690  1.00  0.00     0.010 A 
ATOM     85  C   UNL     1       5.953 -12.849 -20.198  1.00  0.00     0.010 A 
ATOM     86  C   UNL     1       7.000 -10.980 -21.998  1.00  0.00     0.020 A 
ATOM     87  C   UNL     1       6.281 -13.246 -21.497  1.00  0.00     0.020 A 
ATOM     88  C   UNL     1       6.795 -12.306 -22.392  1.00  0.00     0.054 A 
BRANCH  88  89
ATOM     89  S   UNL     1       7.265 -12.800 -24.073  1.00  0.00     0.124 S 
ATOM     90  O   UNL     1       6.214 -12.183 -24.877  1.00  0.00    -0.237 OA
ATOM     91  O   UNL     1       8.595 -12.214 -24.220  1.00  0.00    -0.237 OA
ATOM     92  O   UNL     1       7.237 -14.261 -24.026  1.00  0.00    -0.744 OA
ENDBRANCH  88  89
ENDBRANCH  62  83
ENDBRANCH  36  37
ENDBRANCH  29  31
ENDBRANCH  28  29
ENDBRANCH  27  28
ENDBRANCH  26  27
ENDBRANCH  25  26
ENDBRANCH   1  25
TORSDOF 23
