REMARK SMILES C[C@H]1[NH2+]CC[C@@H]1C(=O)N[C@@H](CC(=O)OCCOCCOC(=O)c1ccc(-c2c3nc(c(-c4ccc(S(=O)(=O)[O-])cc4)c4ccc([nH]4)c(-c4ccc(S(=O)(=O)[O-])cc4)c4nc(c(-c5ccc(S(=O)(=O)[O-])cc5)c5ccc2[nH]5)C=C4)C=C3)cc1)c1cccs1
REMARK SMILES IDX 17 1 16 2 15 3 14 4 12 5 13 6 11 7 10 8 9 9 7 10 8 11 6 13
REMARK SMILES IDX 1 14 2 15 3 16 4 17 5 20 83 21 84 22 87 23 85 24 86 25 18 26
REMARK SMILES IDX 19 27 20 28 21 29 22 30 23 31 24 32 82 33 25 34 81 35 26 36
REMARK SMILES IDX 27 37 28 38 75 39 29 40 80 41 74 42 76 43 30 44 79 45 73 46
REMARK SMILES IDX 72 47 31 49 61 50 42 51 60 52 43 53 46 54 59 55 77 56 44 57
REMARK SMILES IDX 45 58 58 60 78 61 47 62 32 63 33 64 41 65 34 66 40 67 35 68
REMARK SMILES IDX 36 69 37 70 38 71 39 72 62 73 63 74 71 75 64 76 70 77 65 78
REMARK SMILES IDX 66 79 67 80 68 81 69 82 48 83 49 84 57 85 50 86 56 87 51 88
REMARK SMILES IDX 52 89 53 90 54 91 55 92
REMARK H PARENT 9 12 3 18 3 19 76 48 46 59
REMARK Flexibility Score: inf
ROOT
ATOM      1  O   UNL     1      -6.126   4.856  -3.858  1.00  0.00    -0.374 OA
ENDROOT
BRANCH   1   2
ATOM      2  C   UNL     1      -5.122   4.757  -4.864  1.00  0.00     0.202 C 
BRANCH   2   3
ATOM      3  C   UNL     1      -3.656   4.858  -4.416  1.00  0.00     0.261 C 
BRANCH   3   4
ATOM      4  O   UNL     1      -3.304   4.122  -3.227  1.00  0.00    -0.463 OA
BRANCH   4   5
ATOM      5  C   UNL     1      -3.258   4.876  -2.101  1.00  0.00     0.308 C 
ATOM      6  O   UNL     1      -3.583   6.059  -2.039  1.00  0.00    -0.252 OA
BRANCH   5   7
ATOM      7  C   UNL     1      -2.683   4.190  -0.890  1.00  0.00     0.153 C 
BRANCH   7   8
ATOM      8  C   UNL     1      -2.508   2.677  -0.811  1.00  0.00     0.133 C 
BRANCH   8   9
ATOM      9  N   UNL     1      -1.615   2.131  -1.814  1.00  0.00    -0.347 N 
ATOM     10  C   UNL     1      -0.618   1.204  -1.698  1.00  0.00     0.229 C 
ATOM     11  O   UNL     1      -0.149   0.777  -2.753  1.00  0.00    -0.275 OA
ATOM     12  H   UNL     1      -1.749   2.485  -2.723  1.00  0.00     0.164 HD
BRANCH  10  13
ATOM     13  C   UNL     1      -0.039   0.832  -0.322  1.00  0.00     0.142 C 
ATOM     14  C   UNL     1       2.257   0.117   0.500  1.00  0.00     0.076 C 
ATOM     15  C   UNL     1       1.092  -0.214  -0.438  1.00  0.00     0.192 C 
ATOM     16  N   UNL     1       0.521  -1.522  -0.047  1.00  0.00    -0.343 N 
ATOM     17  C   UNL     1      -0.871  -1.317   0.328  1.00  0.00     0.261 C 
ATOM     18  H   UNL     1       1.039  -1.903   0.745  1.00  0.00     0.346 HD
ATOM     19  H   UNL     1       0.584  -2.181  -0.823  1.00  0.00     0.346 HD
ATOM     20  C   UNL     1      -0.982   0.152   0.662  1.00  0.00     0.081 C 
ENDBRANCH  10  13
ENDBRANCH   8   9
BRANCH   8  21
ATOM     21  C   UNL     1      -3.794   1.866  -0.714  1.00  0.00     0.027 A 
ATOM     22  C   UNL     1      -4.819   2.015   0.209  1.00  0.00     0.017 A 
ATOM     23  S   UNL     1      -4.071   0.466  -1.684  1.00  0.00    -0.147 S 
ATOM     24  C   UNL     1      -5.789   0.971   0.140  1.00  0.00     0.012 A 
ATOM     25  C   UNL     1      -5.492   0.054  -0.840  1.00  0.00     0.065 A 
ENDBRANCH   8  21
ENDBRANCH   7   8
ENDBRANCH   5   7
ENDBRANCH   4   5
ENDBRANCH   3   4
ENDBRANCH   2   3
ENDBRANCH   1   2
BRANCH   1  26
ATOM     26  C   UNL     1      -6.327   3.717  -3.017  1.00  0.00     0.202 C 
BRANCH  26  27
ATOM     27  C   UNL     1      -6.612   2.396  -3.733  1.00  0.00     0.261 C 
BRANCH  27  28
ATOM     28  O   UNL     1      -5.426   1.937  -4.400  1.00  0.00    -0.460 OA
BRANCH  28  29
ATOM     29  C   UNL     1      -5.611   0.832  -5.150  1.00  0.00     0.338 C 
ATOM     30  O   UNL     1      -6.595   0.096  -5.147  1.00  0.00    -0.246 OA
BRANCH  29  31
ATOM     31  C   UNL     1      -4.507   0.725  -6.112  1.00  0.00     0.060 A 
ATOM     32  C   UNL     1      -4.613   1.418  -7.322  1.00  0.00     0.016 A 
ATOM     33  C   UNL     1      -3.437  -0.137  -5.874  1.00  0.00     0.016 A 
ATOM     34  C   UNL     1      -3.674   1.197  -8.331  1.00  0.00     0.010 A 
ATOM     35  C   UNL     1      -2.488  -0.346  -6.883  1.00  0.00     0.010 A 
ATOM     36  C   UNL     1      -2.628   0.283  -8.133  1.00  0.00    -0.014 A 
BRANCH  36  37
ATOM     37  C   UNL     1      -1.776  -0.117  -9.282  1.00  0.00     0.031 A 
ATOM     38  C   UNL     1      -2.084  -1.396 -10.017  1.00  0.00     0.074 A 
ATOM     39  C   UNL     1      -0.767   0.666  -9.704  1.00  0.00     0.049 A 
ATOM     40  N   UNL     1      -1.503  -1.904 -11.075  1.00  0.00    -0.248 NA
ATOM     41  C   UNL     1      -3.200  -2.203  -9.497  1.00  0.00     0.031 C 
ATOM     42  C   UNL     1      -0.380   1.943  -9.106  1.00  0.00     0.029 A 
ATOM     43  N   UNL     1       0.113   0.500 -10.744  1.00  0.00    -0.354 N 
ATOM     44  C   UNL     1      -2.183  -3.085 -11.350  1.00  0.00     0.074 A 
ATOM     45  C   UNL     1      -3.200  -3.234 -10.330  1.00  0.00     0.031 C 
ATOM     46  C   UNL     1       0.657   2.449  -9.796  1.00  0.00     0.029 A 
ATOM     47  C   UNL     1       1.021   1.523 -10.867  1.00  0.00     0.049 A 
ATOM     48  H   UNL     1       0.095  -0.279 -11.346  1.00  0.00     0.167 HD
ATOM     49  C   UNL     1      -1.990  -3.964 -12.362  1.00  0.00     0.031 A 
ATOM     50  C   UNL     1       2.035   1.694 -11.739  1.00  0.00     0.031 A 
ATOM     51  C   UNL     1      -0.966  -3.840 -13.365  1.00  0.00     0.049 A 
ATOM     52  C   UNL     1       2.285   0.664 -12.807  1.00  0.00     0.074 A 
ATOM     53  C   UNL     1      -0.699  -4.680 -14.433  1.00  0.00     0.029 A 
ATOM     54  N   UNL     1      -0.031  -2.819 -13.417  1.00  0.00    -0.354 N 
ATOM     55  N   UNL     1       1.613  -0.432 -13.070  1.00  0.00    -0.248 NA
ATOM     56  C   UNL     1       3.428   0.898 -13.702  1.00  0.00     0.031 C 
ATOM     57  C   UNL     1       0.425  -4.188 -15.107  1.00  0.00     0.029 A 
ATOM     58  C   UNL     1       0.830  -3.018 -14.484  1.00  0.00     0.049 A 
ATOM     59  H   UNL     1       0.015  -2.063 -12.788  1.00  0.00     0.167 HD
ATOM     60  C   UNL     1       2.238  -1.005 -14.172  1.00  0.00     0.074 A 
ATOM     61  C   UNL     1       3.337  -0.132 -14.532  1.00  0.00     0.031 C 
ATOM     62  C   UNL     1       1.925  -2.148 -14.830  1.00  0.00     0.031 A 
BRANCH  49  63
ATOM     63  C   UNL     1      -2.902  -5.159 -12.412  1.00  0.00    -0.014 A 
ATOM     64  C   UNL     1      -4.239  -5.029 -12.830  1.00  0.00     0.010 A 
ATOM     65  C   UNL     1      -2.417  -6.427 -12.046  1.00  0.00     0.010 A 
ATOM     66  C   UNL     1      -5.088  -6.139 -12.837  1.00  0.00     0.020 A 
ATOM     67  C   UNL     1      -3.257  -7.543 -12.071  1.00  0.00     0.020 A 
ATOM     68  C   UNL     1      -4.594  -7.387 -12.446  1.00  0.00     0.054 A 
BRANCH  68  69
ATOM     69  S   UNL     1      -5.715  -8.814 -12.457  1.00  0.00     0.124 S 
ATOM     70  O   UNL     1      -6.486  -8.598 -11.236  1.00  0.00    -0.237 OA
ATOM     71  O   UNL     1      -6.454  -8.637 -13.705  1.00  0.00    -0.237 OA
ATOM     72  O   UNL     1      -4.812  -9.963 -12.430  1.00  0.00    -0.744 OA
ENDBRANCH  68  69
ENDBRANCH  49  63
BRANCH  50  73
ATOM     73  C   UNL     1       2.895   2.902 -11.638  1.00  0.00    -0.014 A 
ATOM     74  C   UNL     1       2.780   3.940 -12.579  1.00  0.00     0.010 A 
ATOM     75  C   UNL     1       3.823   3.028 -10.588  1.00  0.00     0.010 A 
ATOM     76  C   UNL     1       3.579   5.082 -12.473  1.00  0.00     0.020 A 
ATOM     77  C   UNL     1       4.609   4.177 -10.468  1.00  0.00     0.020 A 
ATOM     78  C   UNL     1       4.486   5.194 -11.416  1.00  0.00     0.054 A 
BRANCH  78  79
ATOM     79  S   UNL     1       5.460   6.717 -11.253  1.00  0.00     0.124 S 
ATOM     80  O   UNL     1       6.496   6.524 -12.262  1.00  0.00    -0.237 OA
ATOM     81  O   UNL     1       4.477   7.757 -11.545  1.00  0.00    -0.237 OA
ATOM     82  O   UNL     1       5.920   6.679  -9.866  1.00  0.00    -0.744 OA
ENDBRANCH  78  79
ENDBRANCH  50  73
BRANCH  62  83
ATOM     83  C   UNL     1       2.765  -2.515 -16.024  1.00  0.00    -0.014 A 
ATOM     84  C   UNL     1       4.056  -3.048 -15.867  1.00  0.00     0.010 A 
ATOM     85  C   UNL     1       2.233  -2.372 -17.319  1.00  0.00     0.010 A 
ATOM     86  C   UNL     1       4.813  -3.407 -16.987  1.00  0.00     0.020 A 
ATOM     87  C   UNL     1       2.979  -2.749 -18.439  1.00  0.00     0.020 A 
ATOM     88  C   UNL     1       4.270  -3.252 -18.267  1.00  0.00     0.054 A 
BRANCH  88  89
ATOM     89  S   UNL     1       5.251  -3.764 -19.705  1.00  0.00     0.124 S 
ATOM     90  O   UNL     1       6.179  -2.647 -19.854  1.00  0.00    -0.237 OA
ATOM     91  O   UNL     1       5.848  -5.021 -19.261  1.00  0.00    -0.237 OA
ATOM     92  O   UNL     1       4.258  -3.897 -20.769  1.00  0.00    -0.744 OA
ENDBRANCH  88  89
ENDBRANCH  62  83
ENDBRANCH  36  37
ENDBRANCH  29  31
ENDBRANCH  28  29
ENDBRANCH  27  28
ENDBRANCH  26  27
ENDBRANCH   1  26
TORSDOF 21
