REMARK SMILES O=C(CCCN1C(=O)C(=O)/C(=C(/[O-])c2ccc(Cl)cc2)[C@@H]1c1ccccc1[N+](=O)[O-])OCCOCCOC(=O)c1ccc(-c2c3nc(c(-c4ccc(S(=O)(=O)[O-])cc4)c4ccc([nH]4)c(-c4ccc(S(=O)(=O)[O-])cc4)c4nc(c(-c5ccc(S(=O)(=O)[O-])cc5)c5ccc2[nH]5)C=C4)C=C3)cc1
REMARK SMILES IDX 33 1 32 2 31 3 2 4 1 5 3 6 4 7 5 8 6 9 7 10 21 11 8 12 9 13
REMARK SMILES IDX 11 14 10 15 12 16 13 17 22 18 23 19 27 20 24 21 26 22 25 23
REMARK SMILES IDX 28 24 29 25 30 26 14 27 15 28 20 29 16 30 19 31 17 32 18 33
REMARK SMILES IDX 34 34 35 35 36 36 37 37 38 38 39 39 40 40 41 41 99 42 42 43
REMARK SMILES IDX 98 44 43 45 44 46 45 47 92 48 46 49 97 50 91 51 93 52 47 53
REMARK SMILES IDX 96 54 90 55 89 56 48 58 78 59 59 60 77 61 60 62 63 63 76 64
REMARK SMILES IDX 94 65 61 66 62 67 75 69 95 70 64 71 49 72 50 73 58 74 51 75
REMARK SMILES IDX 57 76 52 77 53 78 54 79 55 80 56 81 79 82 80 83 88 84 81 85
REMARK SMILES IDX 87 86 82 87 83 88 84 89 85 90 86 91 65 92 66 93 74 94 67 95
REMARK SMILES IDX 73 96 68 97 69 98 70 99 71 100 72 101
REMARK H PARENT 93 57 63 68
REMARK Flexibility Score: inf
ROOT
ATOM      1  C   UNL     1       2.751   0.143  -2.388  1.00  0.00     0.202 C 
ENDROOT
BRANCH   1   2
ATOM      2  C   UNL     1       3.075   1.187  -1.319  1.00  0.00     0.261 C 
BRANCH   2   3
ATOM      3  O   UNL     1       2.146   2.212  -1.011  1.00  0.00    -0.463 OA
BRANCH   3   4
ATOM      4  C   UNL     1       2.624   3.003   0.010  1.00  0.00     0.305 C 
ATOM      5  O   UNL     1       1.969   3.284   1.006  1.00  0.00    -0.252 OA
BRANCH   4   6
ATOM      6  C   UNL     1       3.953   3.668  -0.292  1.00  0.00     0.124 C 
BRANCH   6   7
ATOM      7  C   UNL     1       5.308   3.006   0.026  1.00  0.00     0.033 C 
BRANCH   7   8
ATOM      8  C   UNL     1       5.462   1.617   0.736  1.00  0.00     0.121 C 
BRANCH   8   9
ATOM      9  N   UNL     1       5.485   0.435  -0.150  1.00  0.00    -0.324 N 
ATOM     10  C   UNL     1       6.189   0.488  -1.357  1.00  0.00     0.295 C 
ATOM     11  C   UNL     1       5.346  -0.993   0.284  1.00  0.00     0.157 C 
ATOM     12  O   UNL     1       6.921   1.343  -1.806  1.00  0.00    -0.265 OA
ATOM     13  C   UNL     1       5.957  -0.828  -2.058  1.00  0.00     0.248 C 
ATOM     14  C   UNL     1       5.936  -1.808  -0.946  1.00  0.00     0.025 C 
ATOM     15  O   UNL     1       5.831  -0.957  -3.252  1.00  0.00    -0.283 OA
ATOM     16  C   UNL     1       7.000  -2.640  -1.147  1.00  0.00    -0.092 C 
ATOM     17  O   UNL     1       7.892  -3.002  -0.157  1.00  0.00    -0.872 OA
BRANCH  11  18
ATOM     18  C   UNL     1       4.113  -1.512   1.198  1.00  0.00     0.057 A 
ATOM     19  C   UNL     1       4.535  -1.906   2.498  1.00  0.00     0.013 A 
ATOM     20  C   UNL     1       2.715  -1.837   0.996  1.00  0.00     0.275 A 
ATOM     21  C   UNL     1       3.721  -2.621   3.410  1.00  0.00     0.001 A 
ATOM     22  C   UNL     1       1.967  -2.701   1.863  1.00  0.00     0.086 A 
ATOM     23  C   UNL     1       2.472  -3.091   3.072  1.00  0.00     0.007 A 
BRANCH  20  24
ATOM     24  N   UNL     1       1.688  -1.036   0.324  1.00  0.00     0.063 N 
ATOM     25  O   UNL     1       0.982  -1.589  -0.538  1.00  0.00    -0.258 OA
ATOM     26  O   UNL     1       1.411   0.045   0.861  1.00  0.00    -0.258 OA
ENDBRANCH  20  24
ENDBRANCH  11  18
BRANCH  16  27
ATOM     27  C   UNL     1       7.453  -3.191  -2.473  1.00  0.00    -0.033 A 
ATOM     28  C   UNL     1       8.559  -2.649  -3.155  1.00  0.00     0.009 A 
ATOM     29  C   UNL     1       6.796  -4.281  -3.067  1.00  0.00     0.009 A 
ATOM     30  C   UNL     1       8.953  -3.143  -4.412  1.00  0.00     0.021 A 
ATOM     31  C   UNL     1       7.193  -4.783  -4.318  1.00  0.00     0.021 A 
ATOM     32  C   UNL     1       8.259  -4.200  -4.995  1.00  0.00     0.041 A 
ATOM     33  Cl  UNL     1       8.716  -4.781  -6.551  1.00  0.00    -0.084 Cl
ENDBRANCH  16  27
ENDBRANCH   8   9
ENDBRANCH   7   8
ENDBRANCH   6   7
ENDBRANCH   4   6
ENDBRANCH   3   4
ENDBRANCH   2   3
ENDBRANCH   1   2
BRANCH   1  34
ATOM     34  O   UNL     1       3.157  -1.161  -1.893  1.00  0.00    -0.374 OA
BRANCH  34  35
ATOM     35  C   UNL     1       2.840  -2.233  -2.785  1.00  0.00     0.202 C 
BRANCH  35  36
ATOM     36  C   UNL     1       2.723  -3.652  -2.143  1.00  0.00     0.261 C 
BRANCH  36  37
ATOM     37  O   UNL     1       3.312  -3.836  -0.828  1.00  0.00    -0.460 OA
BRANCH  37  38
ATOM     38  C   UNL     1       3.884  -5.049  -0.574  1.00  0.00     0.338 C 
ATOM     39  O   UNL     1       4.097  -5.918  -1.403  1.00  0.00    -0.246 OA
BRANCH  38  40
ATOM     40  C   UNL     1       4.342  -5.210   0.838  1.00  0.00     0.060 A 
ATOM     41  C   UNL     1       5.626  -4.779   1.155  1.00  0.00     0.016 A 
ATOM     42  C   UNL     1       3.658  -5.967   1.791  1.00  0.00     0.016 A 
ATOM     43  C   UNL     1       6.229  -5.031   2.392  1.00  0.00     0.010 A 
ATOM     44  C   UNL     1       4.265  -6.253   3.042  1.00  0.00     0.010 A 
ATOM     45  C   UNL     1       5.564  -5.796   3.349  1.00  0.00    -0.014 A 
BRANCH  45  46
ATOM     46  C   UNL     1       6.352  -6.280   4.526  1.00  0.00     0.031 A 
ATOM     47  C   UNL     1       6.971  -7.652   4.454  1.00  0.00     0.074 A 
ATOM     48  C   UNL     1       6.669  -5.486   5.571  1.00  0.00     0.049 A 
ATOM     49  N   UNL     1       7.696  -8.283   5.342  1.00  0.00    -0.248 NA
ATOM     50  C   UNL     1       6.779  -8.390   3.195  1.00  0.00     0.031 C 
ATOM     51  C   UNL     1       6.307  -4.081   5.697  1.00  0.00     0.029 A 
ATOM     52  N   UNL     1       7.389  -5.731   6.718  1.00  0.00    -0.354 N 
ATOM     53  C   UNL     1       8.045  -9.492   4.752  1.00  0.00     0.074 A 
ATOM     54  C   UNL     1       7.438  -9.513   3.438  1.00  0.00     0.031 C 
ATOM     55  C   UNL     1       6.747  -3.596   6.869  1.00  0.00     0.029 A 
ATOM     56  C   UNL     1       7.447  -4.657   7.582  1.00  0.00     0.049 A 
ATOM     57  H   UNL     1       7.823  -6.594   6.906  1.00  0.00     0.167 HD
ATOM     58  C   UNL     1       8.805 -10.496   5.251  1.00  0.00     0.031 A 
ATOM     59  C   UNL     1       7.999  -4.531   8.806  1.00  0.00     0.031 A 
ATOM     60  C   UNL     1       9.395 -10.491   6.561  1.00  0.00     0.049 A 
ATOM     61  C   UNL     1       8.742  -5.702   9.390  1.00  0.00     0.074 A 
ATOM     62  C   UNL     1      10.094 -11.501   7.199  1.00  0.00     0.029 A 
ATOM     63  N   UNL     1       9.364  -9.414   7.433  1.00  0.00    -0.354 N 
ATOM     64  N   UNL     1       8.984  -6.872   8.848  1.00  0.00    -0.248 NA
ATOM     65  C   UNL     1       9.296  -5.535  10.741  1.00  0.00     0.031 C 
ATOM     66  C   UNL     1      10.457 -11.045   8.471  1.00  0.00     0.029 A 
ATOM     67  C   UNL     1      10.027  -9.735   8.605  1.00  0.00     0.049 A 
ATOM     68  H   UNL     1       8.934  -8.548   7.247  1.00  0.00     0.167 HD
ATOM     69  C   UNL     1       9.732  -7.574   9.786  1.00  0.00     0.074 A 
ATOM     70  C   UNL     1       9.925  -6.690  10.917  1.00  0.00     0.031 C 
ATOM     71  C   UNL     1      10.210  -8.841   9.720  1.00  0.00     0.031 A 
BRANCH  58  72
ATOM     72  C   UNL     1       8.972 -11.710   4.379  1.00  0.00    -0.014 A 
ATOM     73  C   UNL     1       9.816 -11.689   3.254  1.00  0.00     0.010 A 
ATOM     74  C   UNL     1       8.240 -12.876   4.668  1.00  0.00     0.010 A 
ATOM     75  C   UNL     1       9.880 -12.793   2.400  1.00  0.00     0.020 A 
ATOM     76  C   UNL     1       8.320 -13.990   3.830  1.00  0.00     0.020 A 
ATOM     77  C   UNL     1       9.121 -13.932   2.687  1.00  0.00     0.054 A 
BRANCH  77  78
ATOM     78  S   UNL     1       9.193 -15.342   1.549  1.00  0.00     0.124 S 
ATOM     79  O   UNL     1       8.383 -14.866   0.431  1.00  0.00    -0.237 OA
ATOM     80  O   UNL     1      10.623 -15.466   1.280  1.00  0.00    -0.237 OA
ATOM     81  O   UNL     1       8.610 -16.438   2.318  1.00  0.00    -0.744 OA
ENDBRANCH  77  78
ENDBRANCH  58  72
BRANCH  59  82
ATOM     82  C   UNL     1       7.843  -3.269   9.589  1.00  0.00    -0.014 A 
ATOM     83  C   UNL     1       8.947  -2.451   9.888  1.00  0.00     0.010 A 
ATOM     84  C   UNL     1       6.577  -2.906  10.086  1.00  0.00     0.010 A 
ATOM     85  C   UNL     1       8.794  -1.315  10.694  1.00  0.00     0.020 A 
ATOM     86  C   UNL     1       6.415  -1.758  10.869  1.00  0.00     0.020 A 
ATOM     87  C   UNL     1       7.529  -0.980  11.183  1.00  0.00     0.054 A 
BRANCH  87  88
ATOM     88  S   UNL     1       7.344   0.506  12.211  1.00  0.00     0.124 S 
ATOM     89  O   UNL     1       7.883   0.059  13.491  1.00  0.00    -0.237 OA
ATOM     90  O   UNL     1       8.150   1.490  11.492  1.00  0.00    -0.237 OA
ATOM     91  O   UNL     1       5.905   0.757  12.188  1.00  0.00    -0.744 OA
ENDBRANCH  87  88
ENDBRANCH  59  82
BRANCH  71  92
ATOM     92  C   UNL     1      11.011  -9.335  10.893  1.00  0.00    -0.014 A 
ATOM     93  C   UNL     1      10.387  -9.662  12.110  1.00  0.00     0.010 A 
ATOM     94  C   UNL     1      12.399  -9.513  10.760  1.00  0.00     0.010 A 
ATOM     95  C   UNL     1      11.146 -10.128  13.187  1.00  0.00     0.020 A 
ATOM     96  C   UNL     1      13.157 -10.002  11.827  1.00  0.00     0.020 A 
ATOM     97  C   UNL     1      12.527 -10.292  13.039  1.00  0.00     0.054 A 
BRANCH  97  98
ATOM     98  S   UNL     1      13.487 -10.934  14.437  1.00  0.00     0.124 S 
ATOM     99  O   UNL     1      13.597  -9.758  15.295  1.00  0.00    -0.237 OA
ATOM    100  O   UNL     1      12.636 -12.007  14.947  1.00  0.00    -0.237 OA
ATOM    101  O   UNL     1      14.736 -11.378  13.822  1.00  0.00    -0.744 OA
ENDBRANCH  97  98
ENDBRANCH  71  92
ENDBRANCH  45  46
ENDBRANCH  38  40
ENDBRANCH  37  38
ENDBRANCH  36  37
ENDBRANCH  35  36
ENDBRANCH  34  35
ENDBRANCH   1  34
TORSDOF 23
