REMARK SMILES Cc1c(Br)cc(C(=O)OCCOCCOC(=O)c2ccc(-c3c4nc(c(-c5ccc(S(=O)(=O)[O-])cc5)c5ccc([nH]5)c(-c5ccc(S(=O)(=O)[O-])cc5)c5nc(c(-c6ccc(S(=O)(=O)[O-])cc6)c6ccc3[nH]6)C=C5)C=C4)cc2)c(C)c1C
REMARK SMILES IDX 13 1 12 2 11 3 10 4 9 5 7 6 8 7 6 8 1 9 2 10 3 11 80 12 4 13
REMARK SMILES IDX 5 14 78 15 81 16 79 17 14 18 15 19 16 20 17 21 18 22 19 23
REMARK SMILES IDX 77 24 20 25 76 26 21 27 22 28 23 29 70 30 24 31 75 32 69 33
REMARK SMILES IDX 71 34 25 35 74 36 68 37 67 38 26 40 56 41 37 42 55 43 38 44
REMARK SMILES IDX 41 45 54 46 72 47 39 48 40 49 53 51 73 52 42 53 27 54 28 55
REMARK SMILES IDX 36 56 29 57 35 58 30 59 31 60 32 61 33 62 34 63 57 64 58 65
REMARK SMILES IDX 66 66 59 67 65 68 60 69 61 70 62 71 63 72 64 73 43 74 44 75
REMARK SMILES IDX 52 76 45 77 51 78 46 79 47 80 48 81 49 82 50 83
REMARK H PARENT 71 39 41 50
REMARK Flexibility Score: inf
ROOT
ATOM      1  C   UNL     1      -2.784   5.750   0.305  1.00  0.00     0.202 C 
ENDROOT
BRANCH   1   2
ATOM      2  O   UNL     1      -2.944   6.781   1.283  1.00  0.00    -0.374 OA
BRANCH   2   3
ATOM      3  C   UNL     1      -1.880   7.723   1.416  1.00  0.00     0.202 C 
BRANCH   3   4
ATOM      4  C   UNL     1      -0.673   7.255   2.229  1.00  0.00     0.261 C 
BRANCH   4   5
ATOM      5  O   UNL     1      -0.071   6.100   1.625  1.00  0.00    -0.460 OA
BRANCH   5   6
ATOM      6  C   UNL     1      -0.027   4.998   2.406  1.00  0.00     0.338 C 
ATOM      7  O   UNL     1      -0.326   4.936   3.589  1.00  0.00    -0.246 OA
BRANCH   6   8
ATOM      8  C   UNL     1       0.264   3.776   1.609  1.00  0.00     0.064 A 
ATOM      9  C   UNL     1       1.056  -0.127  -0.100  1.00  0.00     0.046 C 
ATOM     10  C   UNL     1       0.736   1.245   0.443  1.00  0.00    -0.034 A 
ATOM     11  C   UNL     1      -0.314   1.431   1.359  1.00  0.00     0.022 A 
ATOM     12  C   UNL     1       1.490   2.381   0.024  1.00  0.00    -0.043 A 
ATOM     13  Br  UNL     1      -1.520   0.047   1.864  1.00  0.00    -0.051 Br
ATOM     14  C   UNL     1      -0.529   2.673   1.946  1.00  0.00     0.032 A 
ATOM     15  C   UNL     1       1.253   3.662   0.610  1.00  0.00    -0.033 A 
ATOM     16  C   UNL     1       2.573   2.241  -1.027  1.00  0.00     0.045 C 
ATOM     17  C   UNL     1       2.016   4.885   0.156  1.00  0.00     0.045 C 
ENDBRANCH   6   8
ENDBRANCH   5   6
ENDBRANCH   4   5
ENDBRANCH   3   4
ENDBRANCH   2   3
ENDBRANCH   1   2
BRANCH   1  18
ATOM     18  C   UNL     1      -2.937   6.170  -1.162  1.00  0.00     0.261 C 
BRANCH  18  19
ATOM     19  O   UNL     1      -1.808   6.938  -1.623  1.00  0.00    -0.460 OA
BRANCH  19  20
ATOM     20  C   UNL     1      -2.089   8.216  -1.969  1.00  0.00     0.338 C 
ATOM     21  O   UNL     1      -3.187   8.755  -1.987  1.00  0.00    -0.246 OA
BRANCH  20  22
ATOM     22  C   UNL     1      -0.839   8.967  -2.163  1.00  0.00     0.060 A 
ATOM     23  C   UNL     1      -0.583  10.046  -1.306  1.00  0.00     0.016 A 
ATOM     24  C   UNL     1       0.004   8.696  -3.242  1.00  0.00     0.016 A 
ATOM     25  C   UNL     1       0.497  10.889  -1.552  1.00  0.00     0.010 A 
ATOM     26  C   UNL     1       1.073   9.558  -3.502  1.00  0.00     0.010 A 
ATOM     27  C   UNL     1       1.298  10.678  -2.682  1.00  0.00    -0.014 A 
BRANCH  27  28
ATOM     28  C   UNL     1       2.234  11.741  -3.112  1.00  0.00     0.031 A 
ATOM     29  C   UNL     1       1.744  12.777  -4.086  1.00  0.00     0.074 A 
ATOM     30  C   UNL     1       3.483  11.807  -2.621  1.00  0.00     0.049 A 
ATOM     31  N   UNL     1       2.392  13.778  -4.621  1.00  0.00    -0.248 NA
ATOM     32  C   UNL     1       0.337  12.673  -4.509  1.00  0.00     0.031 C 
ATOM     33  C   UNL     1       4.050  10.899  -1.626  1.00  0.00     0.029 A 
ATOM     34  N   UNL     1       4.500  12.685  -2.899  1.00  0.00    -0.354 N 
ATOM     35  C   UNL     1       1.475  14.423  -5.442  1.00  0.00     0.074 A 
ATOM     36  C   UNL     1       0.231  13.691  -5.351  1.00  0.00     0.031 C 
ATOM     37  C   UNL     1       5.321  11.264  -1.381  1.00  0.00     0.029 A 
ATOM     38  C   UNL     1       5.663  12.410  -2.223  1.00  0.00     0.049 A 
ATOM     39  H   UNL     1       4.405  13.440  -3.524  1.00  0.00     0.167 HD
ATOM     40  C   UNL     1       1.653  15.527  -6.204  1.00  0.00     0.031 A 
ATOM     41  C   UNL     1       6.872  13.003  -2.290  1.00  0.00     0.031 A 
ATOM     42  C   UNL     1       2.893  16.244  -6.308  1.00  0.00     0.049 A 
ATOM     43  C   UNL     1       7.074  14.173  -3.213  1.00  0.00     0.074 A 
ATOM     44  C   UNL     1       3.169  17.378  -7.050  1.00  0.00     0.029 A 
ATOM     45  N   UNL     1       4.066  15.892  -5.658  1.00  0.00    -0.354 N 
ATOM     46  N   UNL     1       6.199  14.768  -3.987  1.00  0.00    -0.248 NA
ATOM     47  C   UNL     1       8.426  14.748  -3.276  1.00  0.00     0.031 C 
ATOM     48  C   UNL     1       4.524  17.684  -6.888  1.00  0.00     0.029 A 
ATOM     49  C   UNL     1       5.078  16.768  -6.006  1.00  0.00     0.049 A 
ATOM     50  H   UNL     1       4.164  15.131  -5.041  1.00  0.00     0.167 HD
ATOM     51  C   UNL     1       6.891  15.793  -4.623  1.00  0.00     0.074 A 
ATOM     52  C   UNL     1       8.255  15.744  -4.136  1.00  0.00     0.031 C 
ATOM     53  C   UNL     1       6.434  16.695  -5.527  1.00  0.00     0.031 A 
BRANCH  40  54
ATOM     54  C   UNL     1       0.483  16.008  -7.013  1.00  0.00    -0.014 A 
ATOM     55  C   UNL     1      -0.579  16.703  -6.408  1.00  0.00     0.010 A 
ATOM     56  C   UNL     1       0.472  15.809  -8.405  1.00  0.00     0.010 A 
ATOM     57  C   UNL     1      -1.642  17.175  -7.181  1.00  0.00     0.020 A 
ATOM     58  C   UNL     1      -0.581  16.296  -9.184  1.00  0.00     0.020 A 
ATOM     59  C   UNL     1      -1.634  16.973  -8.565  1.00  0.00     0.054 A 
BRANCH  59  60
ATOM     60  S   UNL     1      -3.017  17.621  -9.542  1.00  0.00     0.124 S 
ATOM     61  O   UNL     1      -4.153  16.890  -8.985  1.00  0.00    -0.237 OA
ATOM     62  O   UNL     1      -2.976  19.048  -9.236  1.00  0.00    -0.237 OA
ATOM     63  O   UNL     1      -2.670  17.267 -10.916  1.00  0.00    -0.744 OA
ENDBRANCH  59  60
ENDBRANCH  40  54
BRANCH  41  64
ATOM     64  C   UNL     1       7.987  12.473  -1.464  1.00  0.00    -0.014 A 
ATOM     65  C   UNL     1       8.402  13.149  -0.305  1.00  0.00     0.010 A 
ATOM     66  C   UNL     1       8.600  11.253  -1.806  1.00  0.00     0.010 A 
ATOM     67  C   UNL     1       9.399  12.605   0.509  1.00  0.00     0.020 A 
ATOM     68  C   UNL     1       9.585  10.697  -0.985  1.00  0.00     0.020 A 
ATOM     69  C   UNL     1       9.973  11.374   0.172  1.00  0.00     0.054 A 
BRANCH  69  70
ATOM     70  S   UNL     1      11.201  10.652   1.295  1.00  0.00     0.124 S 
ATOM     71  O   UNL     1      12.262  11.654   1.279  1.00  0.00    -0.237 OA
ATOM     72  O   UNL     1      10.450  10.545   2.543  1.00  0.00    -0.237 OA
ATOM     73  O   UNL     1      11.537   9.377   0.665  1.00  0.00    -0.744 OA
ENDBRANCH  69  70
ENDBRANCH  41  64
BRANCH  53  74
ATOM     74  C   UNL     1       7.408  17.709  -6.061  1.00  0.00    -0.014 A 
ATOM     75  C   UNL     1       8.344  17.356  -7.047  1.00  0.00     0.010 A 
ATOM     76  C   UNL     1       7.314  19.051  -5.647  1.00  0.00     0.010 A 
ATOM     77  C   UNL     1       9.176  18.329  -7.608  1.00  0.00     0.020 A 
ATOM     78  C   UNL     1       8.130  20.029  -6.220  1.00  0.00     0.020 A 
ATOM     79  C   UNL     1       9.057  19.661  -7.197  1.00  0.00     0.054 A 
BRANCH  79  80
ATOM     80  S   UNL     1      10.115  20.907  -7.984  1.00  0.00     0.124 S 
ATOM     81  O   UNL     1      11.453  20.457  -7.608  1.00  0.00    -0.237 OA
ATOM     82  O   UNL     1       9.776  20.759  -9.397  1.00  0.00    -0.237 OA
ATOM     83  O   UNL     1       9.689  22.163  -7.372  1.00  0.00    -0.744 OA
ENDBRANCH  79  80
ENDBRANCH  53  74
ENDBRANCH  27  28
ENDBRANCH  20  22
ENDBRANCH  19  20
ENDBRANCH  18  19
ENDBRANCH   1  18
TORSDOF 17
