REMARK SMILES Cc1c(F)cc(C(=O)OCCOCCOC(=O)c2ccc(-c3c4nc(c(-c5ccc(S(=O)(=O)[O-])cc5)c5ccc([nH]5)c(-c5ccc(S(=O)(=O)[O-])cc5)c5nc(c(-c6ccc(S(=O)(=O)[O-])cc6)c6ccc3[nH]6)C=C5)C=C4)cc2)cc1S(=O)(=O)NC#N
REMARK SMILES IDX 12 1 11 2 10 3 9 4 7 5 8 6 6 7 1 8 2 9 3 10 79 11 4 12 5 13
REMARK SMILES IDX 78 14 80 15 81 16 82 17 83 18 84 20 85 21 13 22 14 23 15 24
REMARK SMILES IDX 16 25 17 26 18 27 19 28 77 29 20 30 76 31 21 32 22 33 23 34
REMARK SMILES IDX 70 35 24 36 75 37 69 38 71 39 25 40 74 41 68 42 67 43 26 45
REMARK SMILES IDX 56 46 37 47 55 48 38 49 41 50 54 51 72 52 39 53 40 54 53 56
REMARK SMILES IDX 73 57 42 58 27 59 28 60 36 61 29 62 35 63 30 64 31 65 32 66
REMARK SMILES IDX 33 67 34 68 57 69 58 70 66 71 59 72 65 73 60 74 61 75 62 76
REMARK SMILES IDX 63 77 64 78 43 79 44 80 52 81 45 82 51 83 46 84 47 85 48 86
REMARK SMILES IDX 49 87 50 88
REMARK H PARENT 83 19 71 44 41 55
REMARK Flexibility Score: inf
ROOT
ATOM      1  O   UNL     1      -4.098  -3.904  -0.966  1.00  0.00    -0.374 OA
ENDROOT
BRANCH   1   2
ATOM      2  C   UNL     1      -5.223  -3.256  -0.381  1.00  0.00     0.202 C 
BRANCH   2   3
ATOM      3  C   UNL     1      -5.019  -2.345   0.836  1.00  0.00     0.261 C 
BRANCH   3   4
ATOM      4  O   UNL     1      -3.995  -1.354   0.646  1.00  0.00    -0.460 OA
BRANCH   4   5
ATOM      5  C   UNL     1      -2.853  -1.615   1.326  1.00  0.00     0.338 C 
ATOM      6  O   UNL     1      -2.654  -2.530   2.110  1.00  0.00    -0.246 OA
BRANCH   5   7
ATOM      7  C   UNL     1      -1.742  -0.769   0.843  1.00  0.00     0.064 A 
ATOM      8  C   UNL     1       1.794   1.316  -0.476  1.00  0.00     0.049 C 
ATOM      9  C   UNL     1       0.502   0.715  -0.029  1.00  0.00     0.005 A 
ATOM     10  C   UNL     1       0.540  -0.685   0.144  1.00  0.00     0.128 A 
ATOM     11  C   UNL     1      -0.697   1.387   0.271  1.00  0.00     0.095 A 
ATOM     12  F   UNL     1       1.672  -1.358  -0.118  1.00  0.00    -0.207 F 
ATOM     13  C   UNL     1      -0.548  -1.421   0.572  1.00  0.00     0.055 A 
ATOM     14  C   UNL     1      -1.829   0.614   0.669  1.00  0.00     0.038 A 
BRANCH  11  15
ATOM     15  S   UNL     1      -1.083   3.125   0.048  1.00  0.00     0.270 S 
ATOM     16  O   UNL     1      -1.312   3.297  -1.371  1.00  0.00    -0.201 OA
ATOM     17  O   UNL     1      -2.163   3.388   0.981  1.00  0.00    -0.201 OA
BRANCH  15  18
ATOM     18  N   UNL     1       0.024   4.287   0.471  1.00  0.00    -0.215 NA
ATOM     19  H   UNL     1      -0.315   5.177   0.722  1.00  0.00     0.193 HD
BRANCH  18  20
ATOM     20  C   UNL     1       1.327   4.096   0.492  1.00  0.00     0.191 C 
ATOM     21  N   UNL     1       2.482   4.082   0.510  1.00  0.00    -0.172 NA
ENDBRANCH  18  20
ENDBRANCH  15  18
ENDBRANCH  11  15
ENDBRANCH   5   7
ENDBRANCH   4   5
ENDBRANCH   3   4
ENDBRANCH   2   3
ENDBRANCH   1   2
BRANCH   1  22
ATOM     22  C   UNL     1      -3.165  -3.118  -1.701  1.00  0.00     0.202 C 
BRANCH  22  23
ATOM     23  C   UNL     1      -3.583  -2.466  -3.028  1.00  0.00     0.261 C 
BRANCH  23  24
ATOM     24  O   UNL     1      -4.707  -1.580  -2.919  1.00  0.00    -0.460 OA
BRANCH  24  25
ATOM     25  C   UNL     1      -5.864  -2.087  -3.417  1.00  0.00     0.338 C 
ATOM     26  O   UNL     1      -6.026  -3.177  -3.939  1.00  0.00    -0.246 OA
BRANCH  25  27
ATOM     27  C   UNL     1      -6.988  -1.203  -3.060  1.00  0.00     0.060 A 
ATOM     28  C   UNL     1      -8.027  -1.738  -2.286  1.00  0.00     0.016 A 
ATOM     29  C   UNL     1      -7.060   0.101  -3.547  1.00  0.00     0.016 A 
ATOM     30  C   UNL     1      -9.166  -0.980  -2.030  1.00  0.00     0.010 A 
ATOM     31  C   UNL     1      -8.209   0.856  -3.295  1.00  0.00     0.010 A 
ATOM     32  C   UNL     1      -9.280   0.308  -2.566  1.00  0.00    -0.014 A 
BRANCH  32  33
ATOM     33  C   UNL     1     -10.567   1.039  -2.467  1.00  0.00     0.031 A 
ATOM     34  C   UNL     1     -11.433   1.171  -3.692  1.00  0.00     0.074 A 
ATOM     35  C   UNL     1     -10.964   1.568  -1.294  1.00  0.00     0.049 A 
ATOM     36  N   UNL     1     -12.559   1.819  -3.841  1.00  0.00    -0.248 NA
ATOM     37  C   UNL     1     -10.966   0.488  -4.911  1.00  0.00     0.031 C 
ATOM     38  C   UNL     1     -10.232   1.467  -0.031  1.00  0.00     0.029 A 
ATOM     39  N   UNL     1     -12.078   2.304  -0.979  1.00  0.00    -0.354 N 
ATOM     40  C   UNL     1     -12.925   1.640  -5.171  1.00  0.00     0.074 A 
ATOM     41  C   UNL     1     -11.888   0.847  -5.793  1.00  0.00     0.031 C 
ATOM     42  C   UNL     1     -10.916   2.121   0.923  1.00  0.00     0.029 A 
ATOM     43  C   UNL     1     -12.106   2.728   0.329  1.00  0.00     0.049 A 
ATOM     44  H   UNL     1     -12.790   2.509  -1.627  1.00  0.00     0.167 HD
ATOM     45  C   UNL     1     -14.027   2.096  -5.812  1.00  0.00     0.031 A 
ATOM     46  C   UNL     1     -12.974   3.538   0.967  1.00  0.00     0.031 A 
ATOM     47  C   UNL     1     -15.051   2.890  -5.185  1.00  0.00     0.049 A 
ATOM     48  C   UNL     1     -14.151   4.095   0.207  1.00  0.00     0.074 A 
ATOM     49  C   UNL     1     -16.221   3.376  -5.743  1.00  0.00     0.029 A 
ATOM     50  N   UNL     1     -15.027   3.324  -3.869  1.00  0.00    -0.354 N 
ATOM     51  N   UNL     1     -14.501   3.889  -1.040  1.00  0.00    -0.248 NA
ATOM     52  C   UNL     1     -15.055   4.988   0.946  1.00  0.00     0.031 C 
ATOM     53  C   UNL     1     -16.863   4.170  -4.790  1.00  0.00     0.029 A 
ATOM     54  C   UNL     1     -16.142   4.104  -3.608  1.00  0.00     0.049 A 
ATOM     55  H   UNL     1     -14.322   3.110  -3.216  1.00  0.00     0.167 HD
ATOM     56  C   UNL     1     -15.688   4.594  -1.222  1.00  0.00     0.074 A 
ATOM     57  C   UNL     1     -16.002   5.216   0.047  1.00  0.00     0.031 C 
ATOM     58  C   UNL     1     -16.449   4.713  -2.338  1.00  0.00     0.031 A 
BRANCH  45  59
ATOM     59  C   UNL     1     -14.176   1.781  -7.279  1.00  0.00    -0.014 A 
ATOM     60  C   UNL     1     -14.436   0.474  -7.729  1.00  0.00     0.010 A 
ATOM     61  C   UNL     1     -14.136   2.830  -8.217  1.00  0.00     0.010 A 
ATOM     62  C   UNL     1     -14.632   0.220  -9.089  1.00  0.00     0.020 A 
ATOM     63  C   UNL     1     -14.365   2.586  -9.574  1.00  0.00     0.020 A 
ATOM     64  C   UNL     1     -14.603   1.279 -10.002  1.00  0.00     0.054 A 
BRANCH  64  65
ATOM     65  S   UNL     1     -14.922   0.925 -11.753  1.00  0.00     0.124 S 
ATOM     66  O   UNL     1     -13.739   0.154 -12.126  1.00  0.00    -0.237 OA
ATOM     67  O   UNL     1     -16.172   0.172 -11.701  1.00  0.00    -0.237 OA
ATOM     68  O   UNL     1     -15.018   2.249 -12.364  1.00  0.00    -0.744 OA
ENDBRANCH  64  65
ENDBRANCH  45  59
BRANCH  46  69
ATOM     69  C   UNL     1     -12.752   3.902   2.396  1.00  0.00    -0.014 A 
ATOM     70  C   UNL     1     -13.665   3.510   3.390  1.00  0.00     0.010 A 
ATOM     71  C   UNL     1     -11.634   4.673   2.765  1.00  0.00     0.010 A 
ATOM     72  C   UNL     1     -13.485   3.912   4.717  1.00  0.00     0.020 A 
ATOM     73  C   UNL     1     -11.428   5.043   4.096  1.00  0.00     0.020 A 
ATOM     74  C   UNL     1     -12.365   4.674   5.062  1.00  0.00     0.054 A 
BRANCH  74  75
ATOM     75  S   UNL     1     -12.140   5.161   6.794  1.00  0.00     0.124 S 
ATOM     76  O   UNL     1     -13.220   6.125   6.982  1.00  0.00    -0.237 OA
ATOM     77  O   UNL     1     -12.294   3.891   7.498  1.00  0.00    -0.237 OA
ATOM     78  O   UNL     1     -10.790   5.720   6.820  1.00  0.00    -0.744 OA
ENDBRANCH  74  75
ENDBRANCH  46  69
BRANCH  58  79
ATOM     79  C   UNL     1     -17.732   5.500  -2.230  1.00  0.00    -0.014 A 
ATOM     80  C   UNL     1     -17.732   6.893  -2.041  1.00  0.00     0.010 A 
ATOM     81  C   UNL     1     -18.963   4.832  -2.380  1.00  0.00     0.010 A 
ATOM     82  C   UNL     1     -18.938   7.596  -1.965  1.00  0.00     0.020 A 
ATOM     83  C   UNL     1     -20.168   5.536  -2.345  1.00  0.00     0.020 A 
ATOM     84  C   UNL     1     -20.148   6.913  -2.123  1.00  0.00     0.054 A 
BRANCH  84  85
ATOM     85  S   UNL     1     -21.695   7.858  -2.067  1.00  0.00     0.124 S 
ATOM     86  O   UNL     1     -21.763   8.251  -0.663  1.00  0.00    -0.237 OA
ATOM     87  O   UNL     1     -21.439   8.943  -3.012  1.00  0.00    -0.237 OA
ATOM     88  O   UNL     1     -22.708   6.894  -2.493  1.00  0.00    -0.744 OA
ENDBRANCH  84  85
ENDBRANCH  58  79
ENDBRANCH  32  33
ENDBRANCH  25  27
ENDBRANCH  24  25
ENDBRANCH  23  24
ENDBRANCH  22  23
ENDBRANCH   1  22
TORSDOF 20
