REMARK SMILES Cc1cscc1CNC(=O)N[C@@H](C)c1nc(C(=O)OCCOCCOC(=O)c2ccc(-c3c4nc(c(-c5ccc(S(=O)(=O)[O-])cc5)c5ccc([nH]5)c(-c5ccc(S(=O)(=O)[O-])cc5)c5nc(c(-c6ccc(S(=O)(=O)[O-])cc6)c6ccc3[nH]6)C=C5)C=C4)cc2)cs1
REMARK SMILES IDX 21 1 20 2 19 3 17 4 18 5 16 6 14 7 15 8 89 9 88 10 12 11
REMARK SMILES IDX 13 12 11 13 8 14 9 15 10 17 7 19 6 20 1 21 2 22 3 23 4 24
REMARK SMILES IDX 5 25 22 26 23 27 24 28 25 29 26 30 27 31 28 32 29 33 87 34
REMARK SMILES IDX 30 35 86 36 31 37 32 38 33 39 80 40 34 41 85 42 79 43 81 44
REMARK SMILES IDX 35 45 84 46 78 47 77 48 36 50 66 51 47 52 65 53 48 54 51 55
REMARK SMILES IDX 64 56 82 57 49 58 50 59 63 61 83 62 52 63 37 64 38 65 46 66
REMARK SMILES IDX 39 67 45 68 40 69 41 70 42 71 43 72 44 73 67 74 68 75 76 76
REMARK SMILES IDX 69 77 75 78 70 79 71 80 72 81 73 82 74 83 53 84 54 85 62 86
REMARK SMILES IDX 55 87 61 88 56 89 57 90 58 91 59 92 60 93
REMARK H PARENT 8 16 11 18 81 49 51 60
REMARK Flexibility Score: inf
ROOT
ATOM      1  C   UNL     1      -5.239   7.602   4.435  1.00  0.00     0.202 C 
ENDROOT
BRANCH   1   2
ATOM      2  C   UNL     1      -4.092   7.504   5.444  1.00  0.00     0.261 C 
BRANCH   2   3
ATOM      3  O   UNL     1      -2.991   6.784   4.862  1.00  0.00    -0.458 OA
BRANCH   3   4
ATOM      4  C   UNL     1      -2.883   5.480   5.243  1.00  0.00     0.357 C 
ATOM      5  O   UNL     1      -3.485   4.974   6.186  1.00  0.00    -0.244 OA
BRANCH   4   6
ATOM      6  C   UNL     1      -2.057   4.684   4.329  1.00  0.00     0.159 A 
ATOM      7  C   UNL     1      -0.521   4.250   2.768  1.00  0.00     0.116 A 
ATOM      8  N   UNL     1      -1.119   5.220   3.437  1.00  0.00    -0.232 NA
ATOM      9  S   UNL     1      -1.127   2.666   3.084  1.00  0.00    -0.124 S 
ATOM     10  C   UNL     1      -2.189   3.309   4.249  1.00  0.00     0.102 A 
BRANCH   7  11
ATOM     11  C   UNL     1       0.638   4.406   1.806  1.00  0.00     0.140 C 
ATOM     12  C   UNL     1       1.688   5.369   2.354  1.00  0.00     0.039 C 
BRANCH  11  13
ATOM     13  N   UNL     1       0.142   4.885   0.526  1.00  0.00    -0.329 N 
ATOM     14  N   UNL     1       1.011   3.482  -1.174  1.00  0.00    -0.334 N 
ATOM     15  C   UNL     1       0.327   4.545  -0.749  1.00  0.00     0.315 C 
ATOM     16  H   UNL     1       1.045   3.438  -2.157  1.00  0.00     0.165 HD
ATOM     17  O   UNL     1      -0.195   5.253  -1.613  1.00  0.00    -0.249 OA
ATOM     18  H   UNL     1      -0.479   5.642   0.625  1.00  0.00     0.166 HD
BRANCH  14  19
ATOM     19  C   UNL     1       1.715   2.377  -0.565  1.00  0.00     0.154 C 
BRANCH  19  20
ATOM     20  C   UNL     1       0.804   1.196  -0.342  1.00  0.00    -0.015 A 
ATOM     21  C   UNL     1       2.715  -0.557  -0.015  1.00  0.00     0.045 C 
ATOM     22  C   UNL     1       1.278  -0.155  -0.094  1.00  0.00    -0.035 A 
ATOM     23  C   UNL     1       0.229  -1.043   0.058  1.00  0.00     0.068 A 
ATOM     24  S   UNL     1      -1.297  -0.298  -0.079  1.00  0.00    -0.152 S 
ATOM     25  C   UNL     1      -0.581   1.225  -0.353  1.00  0.00     0.070 A 
ENDBRANCH  19  20
ENDBRANCH  14  19
ENDBRANCH  11  13
ENDBRANCH   7  11
ENDBRANCH   4   6
ENDBRANCH   3   4
ENDBRANCH   2   3
ENDBRANCH   1   2
BRANCH   1  26
ATOM     26  O   UNL     1      -5.854   6.341   4.154  1.00  0.00    -0.374 OA
BRANCH  26  27
ATOM     27  C   UNL     1      -5.346   5.650   3.008  1.00  0.00     0.202 C 
BRANCH  27  28
ATOM     28  C   UNL     1      -6.010   6.047   1.687  1.00  0.00     0.261 C 
BRANCH  28  29
ATOM     29  O   UNL     1      -5.509   7.319   1.241  1.00  0.00    -0.460 OA
BRANCH  29  30
ATOM     30  C   UNL     1      -6.356   8.363   1.401  1.00  0.00     0.338 C 
ATOM     31  O   UNL     1      -7.520   8.314   1.763  1.00  0.00    -0.246 OA
BRANCH  30  32
ATOM     32  C   UNL     1      -5.611   9.632   1.253  1.00  0.00     0.060 A 
ATOM     33  C   UNL     1      -5.930  10.670   2.137  1.00  0.00     0.016 A 
ATOM     34  C   UNL     1      -4.643   9.821   0.261  1.00  0.00     0.016 A 
ATOM     35  C   UNL     1      -5.328  11.919   1.997  1.00  0.00     0.010 A 
ATOM     36  C   UNL     1      -4.045  11.077   0.117  1.00  0.00     0.010 A 
ATOM     37  C   UNL     1      -4.415  12.140   0.959  1.00  0.00    -0.014 A 
BRANCH  37  38
ATOM     38  C   UNL     1      -3.989  13.524   0.641  1.00  0.00     0.031 A 
ATOM     39  C   UNL     1      -4.711  14.261  -0.454  1.00  0.00     0.074 A 
ATOM     40  C   UNL     1      -2.999  14.123   1.325  1.00  0.00     0.049 A 
ATOM     41  N   UNL     1      -4.488  15.457  -0.934  1.00  0.00    -0.248 NA
ATOM     42  C   UNL     1      -5.835  13.555  -1.093  1.00  0.00     0.031 C 
ATOM     43  C   UNL     1      -2.259  13.532   2.438  1.00  0.00     0.029 A 
ATOM     44  N   UNL     1      -2.444  15.369   1.174  1.00  0.00    -0.354 N 
ATOM     45  C   UNL     1      -5.434  15.642  -1.935  1.00  0.00     0.074 A 
ATOM     46  C   UNL     1      -6.220  14.430  -2.009  1.00  0.00     0.031 C 
ATOM     47  C   UNL     1      -1.336  14.413   2.864  1.00  0.00     0.029 A 
ATOM     48  C   UNL     1      -1.400  15.615   2.034  1.00  0.00     0.049 A 
ATOM     49  H   UNL     1      -2.763  16.025   0.513  1.00  0.00     0.167 HD
ATOM     50  C   UNL     1      -5.632  16.725  -2.723  1.00  0.00     0.031 A 
ATOM     51  C   UNL     1      -0.578  16.679   2.125  1.00  0.00     0.031 A 
ATOM     52  C   UNL     1      -4.842  17.923  -2.659  1.00  0.00     0.049 A 
ATOM     53  C   UNL     1      -0.775  17.848   1.194  1.00  0.00     0.074 A 
ATOM     54  C   UNL     1      -4.963  19.075  -3.417  1.00  0.00     0.029 A 
ATOM     55  N   UNL     1      -3.781  18.122  -1.790  1.00  0.00    -0.354 N 
ATOM     56  N   UNL     1      -1.680  18.012   0.258  1.00  0.00    -0.248 NA
ATOM     57  C   UNL     1       0.156  18.977   1.336  1.00  0.00     0.031 C 
ATOM     58  C   UNL     1      -3.946  19.956  -3.033  1.00  0.00     0.029 A 
ATOM     59  C   UNL     1      -3.226  19.372  -2.002  1.00  0.00     0.049 A 
ATOM     60  H   UNL     1      -3.468  17.471  -1.121  1.00  0.00     0.167 HD
ATOM     61  C   UNL     1      -1.446  19.274  -0.278  1.00  0.00     0.074 A 
ATOM     62  C   UNL     1      -0.318  19.832   0.438  1.00  0.00     0.031 C 
ATOM     63  C   UNL     1      -2.111  19.916  -1.270  1.00  0.00     0.031 A 
BRANCH  50  64
ATOM     64  C   UNL     1      -6.729  16.640  -3.749  1.00  0.00    -0.014 A 
ATOM     65  C   UNL     1      -8.083  16.707  -3.372  1.00  0.00     0.010 A 
ATOM     66  C   UNL     1      -6.400  16.512  -5.110  1.00  0.00     0.010 A 
ATOM     67  C   UNL     1      -9.089  16.608  -4.337  1.00  0.00     0.020 A 
ATOM     68  C   UNL     1      -7.403  16.436  -6.080  1.00  0.00     0.020 A 
ATOM     69  C   UNL     1      -8.742  16.467  -5.684  1.00  0.00     0.054 A 
BRANCH  69  70
ATOM     70  S   UNL     1     -10.066  16.353  -6.919  1.00  0.00     0.124 S 
ATOM     71  O   UNL     1     -10.541  14.986  -6.726  1.00  0.00    -0.237 OA
ATOM     72  O   UNL     1     -10.990  17.404  -6.499  1.00  0.00    -0.237 OA
ATOM     73  O   UNL     1      -9.381  16.602  -8.185  1.00  0.00    -0.744 OA
ENDBRANCH  69  70
ENDBRANCH  50  64
BRANCH  51  74
ATOM     74  C   UNL     1       0.521  16.683   3.127  1.00  0.00    -0.014 A 
ATOM     75  C   UNL     1       0.462  17.519   4.256  1.00  0.00     0.010 A 
ATOM     76  C   UNL     1       1.636  15.841   2.957  1.00  0.00     0.010 A 
ATOM     77  C   UNL     1       1.504  17.522   5.189  1.00  0.00     0.020 A 
ATOM     78  C   UNL     1       2.667  15.825   3.900  1.00  0.00     0.020 A 
ATOM     79  C   UNL     1       2.599  16.674   5.006  1.00  0.00     0.054 A 
BRANCH  79  80
ATOM     80  S   UNL     1       3.913  16.651   6.257  1.00  0.00     0.124 S 
ATOM     81  O   UNL     1       4.638  17.882   5.958  1.00  0.00    -0.237 OA
ATOM     82  O   UNL     1       3.160  16.648   7.509  1.00  0.00    -0.237 OA
ATOM     83  O   UNL     1       4.635  15.413   5.971  1.00  0.00    -0.744 OA
ENDBRANCH  79  80
ENDBRANCH  51  74
BRANCH  63  84
ATOM     84  C   UNL     1      -1.677  21.315  -1.612  1.00  0.00    -0.014 A 
ATOM     85  C   UNL     1      -0.513  21.556  -2.361  1.00  0.00     0.010 A 
ATOM     86  C   UNL     1      -2.500  22.399  -1.251  1.00  0.00     0.010 A 
ATOM     87  C   UNL     1      -0.169  22.860  -2.729  1.00  0.00     0.020 A 
ATOM     88  C   UNL     1      -2.171  23.701  -1.636  1.00  0.00     0.020 A 
ATOM     89  C   UNL     1      -1.002  23.924  -2.365  1.00  0.00     0.054 A 
BRANCH  89  90
ATOM     90  S   UNL     1      -0.572  25.600  -2.911  1.00  0.00     0.124 S 
ATOM     91  O   UNL     1       0.511  25.950  -1.996  1.00  0.00    -0.237 OA
ATOM     92  O   UNL     1      -0.176  25.395  -4.303  1.00  0.00    -0.237 OA
ATOM     93  O   UNL     1      -1.811  26.353  -2.728  1.00  0.00    -0.744 OA
ENDBRANCH  89  90
ENDBRANCH  63  84
ENDBRANCH  37  38
ENDBRANCH  30  32
ENDBRANCH  29  30
ENDBRANCH  28  29
ENDBRANCH  27  28
ENDBRANCH  26  27
ENDBRANCH   1  26
TORSDOF 21
