REMARK SMILES Cc1cc(C(=O)OCCOCCOC(=O)c2ccc(-c3c4nc(c(-c5ccc(S(=O)(=O)[O-])cc5)c5ccc([nH]5)c(-c5ccc(S(=O)(=O)[O-])cc5)c5nc(c(-c6ccc(S(=O)(=O)[O-])cc6)c6ccc3[nH]6)C=C5)C=C4)cc2)ccc1NCCCC(=O)NC1CC1
REMARK SMILES IDX 8 1 7 2 5 3 6 4 4 5 1 6 2 7 3 8 78 9 77 10 76 11 79 12 80 14
REMARK SMILES IDX 81 15 82 16 83 17 84 18 85 19 86 21 87 22 88 23 9 24 10 25
REMARK SMILES IDX 11 26 12 27 13 28 14 29 15 30 16 31 17 32 75 33 18 34 74 35
REMARK SMILES IDX 19 36 20 37 21 38 68 39 22 40 73 41 67 42 69 43 23 44 72 45
REMARK SMILES IDX 66 46 65 47 24 49 54 50 35 51 53 52 36 53 39 54 52 55 70 56
REMARK SMILES IDX 37 57 38 58 51 60 71 61 40 62 25 63 26 64 34 65 27 66 33 67
REMARK SMILES IDX 28 68 29 69 30 70 31 71 32 72 55 73 56 74 64 75 57 76 63 77
REMARK SMILES IDX 58 78 59 79 60 80 61 81 62 82 41 83 42 84 50 85 43 86 49 87
REMARK SMILES IDX 44 88 45 89 46 90 47 91 48 92
REMARK H PARENT 79 13 85 20 69 48 39 59
REMARK Flexibility Score: inf
ROOT
ATOM      1  C   UNL     1      -3.785  -2.398  -1.150  1.00  0.00     0.261 C 
ENDROOT
BRANCH   1   2
ATOM      2  O   UNL     1      -2.913  -1.627  -0.307  1.00  0.00    -0.460 OA
BRANCH   2   3
ATOM      3  C   UNL     1      -1.683  -2.017   0.109  1.00  0.00     0.338 C 
ATOM      4  O   UNL     1      -1.182  -3.110   0.218  1.00  0.00    -0.246 OA
BRANCH   3   5
ATOM      5  C   UNL     1      -0.959  -0.763   0.348  1.00  0.00     0.060 A 
ATOM      6  C   UNL     1       2.634   0.306   0.649  1.00  0.00     0.046 C 
ATOM      7  C   UNL     1       1.131   0.408   0.658  1.00  0.00    -0.027 A 
ATOM      8  C   UNL     1       0.423  -0.792   0.515  1.00  0.00     0.021 A 
ATOM      9  C   UNL     1       0.416   1.628   0.699  1.00  0.00     0.037 A 
ATOM     10  C   UNL     1      -0.954   1.623   0.425  1.00  0.00     0.027 A 
ATOM     11  C   UNL     1      -1.643   0.447   0.286  1.00  0.00     0.018 A 
BRANCH   9  12
ATOM     12  N   UNL     1       1.052   2.833   0.939  1.00  0.00    -0.385 N 
ATOM     13  H   UNL     1       2.019   2.844   1.119  1.00  0.00     0.160 HD
BRANCH  12  14
ATOM     14  C   UNL     1       0.313   4.081   0.928  1.00  0.00     0.113 C 
BRANCH  14  15
ATOM     15  C   UNL     1       1.168   5.238   1.397  1.00  0.00     0.031 C 
BRANCH  15  16
ATOM     16  C   UNL     1       2.599   5.242   0.880  1.00  0.00     0.102 C 
BRANCH  16  17
ATOM     17  C   UNL     1       2.856   5.897  -0.457  1.00  0.00     0.220 C 
ATOM     18  O   UNL     1       3.356   7.027  -0.492  1.00  0.00    -0.275 OA
ATOM     19  N   UNL     1       2.639   5.275  -1.649  1.00  0.00    -0.353 N 
ATOM     20  H   UNL     1       3.131   5.678  -2.400  1.00  0.00     0.163 HD
BRANCH  19  21
ATOM     21  C   UNL     1       1.842   4.155  -2.023  1.00  0.00     0.082 C 
ATOM     22  C   UNL     1       2.248   3.422  -3.288  1.00  0.00     0.027 C 
ATOM     23  C   UNL     1       2.243   2.712  -1.978  1.00  0.00     0.027 C 
ENDBRANCH  19  21
ENDBRANCH  16  17
ENDBRANCH  15  16
ENDBRANCH  14  15
ENDBRANCH  12  14
ENDBRANCH   9  12
ENDBRANCH   3   5
ENDBRANCH   2   3
ENDBRANCH   1   2
BRANCH   1  24
ATOM     24  C   UNL     1      -3.186  -2.591  -2.498  1.00  0.00     0.202 C 
BRANCH  24  25
ATOM     25  O   UNL     1      -2.018  -3.355  -2.250  1.00  0.00    -0.374 OA
BRANCH  25  26
ATOM     26  C   UNL     1      -1.131  -3.506  -3.323  1.00  0.00     0.202 C 
BRANCH  26  27
ATOM     27  C   UNL     1      -1.805  -4.254  -4.468  1.00  0.00     0.261 C 
BRANCH  27  28
ATOM     28  O   UNL     1      -2.084  -5.625  -4.090  1.00  0.00    -0.460 OA
BRANCH  28  29
ATOM     29  C   UNL     1      -3.362  -5.911  -3.685  1.00  0.00     0.338 C 
ATOM     30  O   UNL     1      -4.285  -6.100  -4.458  1.00  0.00    -0.246 OA
BRANCH  29  31
ATOM     31  C   UNL     1      -3.444  -6.048  -2.197  1.00  0.00     0.060 A 
ATOM     32  C   UNL     1      -4.662  -5.922  -1.497  1.00  0.00     0.016 A 
ATOM     33  C   UNL     1      -2.255  -6.112  -1.485  1.00  0.00     0.016 A 
ATOM     34  C   UNL     1      -4.669  -5.703  -0.101  1.00  0.00     0.010 A 
ATOM     35  C   UNL     1      -2.263  -5.798  -0.143  1.00  0.00     0.010 A 
ATOM     36  C   UNL     1      -3.454  -5.556   0.564  1.00  0.00    -0.014 A 
BRANCH  36  37
ATOM     37  C   UNL     1      -3.224  -5.088   1.943  1.00  0.00     0.031 A 
ATOM     38  C   UNL     1      -2.446  -5.982   2.836  1.00  0.00     0.074 A 
ATOM     39  C   UNL     1      -3.374  -3.781   2.284  1.00  0.00     0.049 A 
ATOM     40  N   UNL     1      -2.176  -5.708   4.060  1.00  0.00    -0.248 NA
ATOM     41  C   UNL     1      -1.927  -7.293   2.438  1.00  0.00     0.031 C 
ATOM     42  C   UNL     1      -2.624  -2.995   3.272  1.00  0.00     0.029 A 
ATOM     43  N   UNL     1      -4.253  -2.840   1.762  1.00  0.00    -0.354 N 
ATOM     44  C   UNL     1      -1.204  -6.579   4.485  1.00  0.00     0.074 A 
ATOM     45  C   UNL     1      -1.165  -7.615   3.488  1.00  0.00     0.031 C 
ATOM     46  C   UNL     1      -3.200  -1.789   3.437  1.00  0.00     0.029 A 
ATOM     47  C   UNL     1      -4.424  -1.774   2.652  1.00  0.00     0.049 A 
ATOM     48  H   UNL     1      -4.694  -2.913   0.885  1.00  0.00     0.167 HD
ATOM     49  C   UNL     1      -0.472  -6.233   5.578  1.00  0.00     0.031 A 
ATOM     50  C   UNL     1      -5.681  -1.456   3.066  1.00  0.00     0.031 A 
ATOM     51  C   UNL     1      -1.034  -5.030   6.210  1.00  0.00     0.049 A 
ATOM     52  C   UNL     1      -5.782  -1.915   4.496  1.00  0.00     0.074 A 
ATOM     53  C   UNL     1      -0.631  -3.708   6.272  1.00  0.00     0.029 A 
ATOM     54  N   UNL     1      -2.376  -5.047   6.594  1.00  0.00    -0.354 N 
ATOM     55  N   UNL     1      -4.977  -2.817   4.995  1.00  0.00    -0.248 NA
ATOM     56  C   UNL     1      -6.648  -1.322   5.509  1.00  0.00     0.031 C 
ATOM     57  C   UNL     1      -1.786  -2.921   6.575  1.00  0.00     0.029 A 
ATOM     58  C   UNL     1      -2.876  -3.766   6.741  1.00  0.00     0.049 A 
ATOM     59  H   UNL     1      -2.901  -5.867   6.741  1.00  0.00     0.167 HD
ATOM     60  C   UNL     1      -5.092  -2.836   6.344  1.00  0.00     0.074 A 
ATOM     61  C   UNL     1      -6.199  -1.933   6.622  1.00  0.00     0.031 C 
ATOM     62  C   UNL     1      -4.265  -3.559   7.149  1.00  0.00     0.031 A 
BRANCH  49  63
ATOM     63  C   UNL     1       0.839  -6.867   5.984  1.00  0.00    -0.014 A 
ATOM     64  C   UNL     1       1.505  -6.388   7.130  1.00  0.00     0.010 A 
ATOM     65  C   UNL     1       1.509  -7.877   5.260  1.00  0.00     0.010 A 
ATOM     66  C   UNL     1       2.755  -6.889   7.532  1.00  0.00     0.020 A 
ATOM     67  C   UNL     1       2.747  -8.405   5.662  1.00  0.00     0.020 A 
ATOM     68  C   UNL     1       3.367  -7.902   6.798  1.00  0.00     0.054 A 
BRANCH  68  69
ATOM     69  S   UNL     1       4.974  -8.543   7.337  1.00  0.00     0.124 S 
ATOM     70  O   UNL     1       5.835  -7.370   7.217  1.00  0.00    -0.237 OA
ATOM     71  O   UNL     1       4.696  -8.985   8.701  1.00  0.00    -0.237 OA
ATOM     72  O   UNL     1       5.258  -9.617   6.386  1.00  0.00    -0.744 OA
ENDBRANCH  68  69
ENDBRANCH  49  63
BRANCH  50  73
ATOM     73  C   UNL     1      -6.678  -1.531   1.938  1.00  0.00    -0.014 A 
ATOM     74  C   UNL     1      -6.658  -0.462   1.005  1.00  0.00     0.010 A 
ATOM     75  C   UNL     1      -7.189  -2.768   1.496  1.00  0.00     0.010 A 
ATOM     76  C   UNL     1      -6.978  -0.661  -0.350  1.00  0.00     0.020 A 
ATOM     77  C   UNL     1      -7.486  -2.977   0.131  1.00  0.00     0.020 A 
ATOM     78  C   UNL     1      -7.336  -1.935  -0.792  1.00  0.00     0.054 A 
BRANCH  78  79
ATOM     79  S   UNL     1      -7.252  -2.300  -2.591  1.00  0.00     0.124 S 
ATOM     80  O   UNL     1      -8.574  -1.903  -3.058  1.00  0.00    -0.237 OA
ATOM     81  O   UNL     1      -6.148  -1.455  -3.051  1.00  0.00    -0.237 OA
ATOM     82  O   UNL     1      -6.962  -3.730  -2.622  1.00  0.00    -0.744 OA
ENDBRANCH  78  79
ENDBRANCH  50  73
BRANCH  62  83
ATOM     83  C   UNL     1      -4.742  -4.103   8.459  1.00  0.00    -0.014 A 
ATOM     84  C   UNL     1      -6.108  -4.225   8.763  1.00  0.00     0.010 A 
ATOM     85  C   UNL     1      -3.817  -4.682   9.352  1.00  0.00     0.010 A 
ATOM     86  C   UNL     1      -6.530  -4.789   9.963  1.00  0.00     0.020 A 
ATOM     87  C   UNL     1      -4.233  -5.314  10.521  1.00  0.00     0.020 A 
ATOM     88  C   UNL     1      -5.586  -5.318  10.839  1.00  0.00     0.054 A 
BRANCH  88  89
ATOM     89  S   UNL     1      -6.154  -6.019  12.399  1.00  0.00     0.124 S 
ATOM     90  O   UNL     1      -6.354  -4.816  13.203  1.00  0.00    -0.237 OA
ATOM     91  O   UNL     1      -7.373  -6.724  12.011  1.00  0.00    -0.237 OA
ATOM     92  O   UNL     1      -5.048  -6.876  12.815  1.00  0.00    -0.744 OA
ENDBRANCH  88  89
ENDBRANCH  62  83
ENDBRANCH  36  37
ENDBRANCH  29  31
ENDBRANCH  28  29
ENDBRANCH  27  28
ENDBRANCH  26  27
ENDBRANCH  25  26
ENDBRANCH  24  25
ENDBRANCH   1  24
TORSDOF 23
