REMARK SMILES COc1cc(CC(=O)N[C@@H](CC(=O)OCCOCCOC(=O)c2ccc(-c3c4nc(c(-c5ccc(S(=O)(=O)[O-])cc5)c5ccc([nH]5)c(-c5ccc(S(=O)(=O)[O-])cc5)c5nc(c(-c6ccc(S(=O)(=O)[O-])cc6)c6ccc3[nH]6)C=C5)C=C4)cc2)c2cccs2)ccc1C
REMARK SMILES IDX 16 1 15 2 14 3 12 4 13 5 11 6 10 7 9 8 7 9 8 10 6 12 5 13
REMARK SMILES IDX 3 14 4 15 90 16 89 17 91 18 88 19 2 20 1 21 83 22 84 23
REMARK SMILES IDX 87 24 85 25 86 26 17 27 18 28 19 29 20 30 21 31 22 32 23 33
REMARK SMILES IDX 24 34 82 35 25 36 81 37 26 38 27 39 28 40 75 41 29 42 80 43
REMARK SMILES IDX 74 44 76 45 30 46 79 47 73 48 72 49 31 51 61 52 42 53 60 54
REMARK SMILES IDX 43 55 46 56 59 57 77 58 44 59 45 60 58 62 78 63 47 64 32 65
REMARK SMILES IDX 33 66 41 67 34 68 40 69 35 70 36 71 37 72 38 73 39 74 62 75
REMARK SMILES IDX 63 76 71 77 64 78 70 79 65 80 66 81 67 82 68 83 69 84 48 85
REMARK SMILES IDX 49 86 57 87 50 88 56 89 51 90 52 91 53 92 54 93 55 94
REMARK H PARENT 9 11 76 50 46 61
REMARK Flexibility Score: inf
ROOT
ATOM      1  C   UNL     1       5.852  -4.907   4.884  1.00  0.00     0.202 C 
ENDROOT
BRANCH   1   2
ATOM      2  C   UNL     1       4.675  -5.791   4.571  1.00  0.00     0.261 C 
BRANCH   2   3
ATOM      3  O   UNL     1       3.707  -5.167   3.713  1.00  0.00    -0.463 OA
BRANCH   3   4
ATOM      4  C   UNL     1       3.114  -4.025   4.132  1.00  0.00     0.308 C 
ATOM      5  O   UNL     1       2.618  -3.834   5.234  1.00  0.00    -0.252 OA
BRANCH   4   6
ATOM      6  C   UNL     1       3.031  -3.030   3.009  1.00  0.00     0.153 C 
BRANCH   6   7
ATOM      7  C   UNL     1       4.228  -2.970   2.027  1.00  0.00     0.133 C 
BRANCH   7   8
ATOM      8  N   UNL     1       4.672  -4.275   1.537  1.00  0.00    -0.348 N 
ATOM      9  C   UNL     1       4.276  -4.998   0.455  1.00  0.00     0.224 C 
ATOM     10  O   UNL     1       4.584  -6.187   0.366  1.00  0.00    -0.275 OA
ATOM     11  H   UNL     1       5.374  -4.700   2.081  1.00  0.00     0.164 HD
BRANCH   9  12
ATOM     12  C   UNL     1       3.510  -4.315  -0.654  1.00  0.00     0.135 C 
BRANCH  12  13
ATOM     13  C   UNL     1       2.102  -3.946  -0.262  1.00  0.00    -0.035 A 
ATOM     14  C   UNL     1       0.488  -2.208   0.301  1.00  0.00     0.122 A 
ATOM     15  C   UNL     1       1.715  -2.595  -0.243  1.00  0.00     0.051 A 
ATOM     16  C   UNL     1      -0.400  -3.192   0.765  1.00  0.00    -0.009 A 
ATOM     17  C   UNL     1      -0.039  -4.548   0.677  1.00  0.00     0.007 A 
ATOM     18  C   UNL     1      -1.743  -2.852   1.349  1.00  0.00     0.048 C 
ATOM     19  C   UNL     1       1.206  -4.923   0.178  1.00  0.00     0.005 A 
BRANCH  14  20
ATOM     20  O   UNL     1       0.108  -0.905   0.487  1.00  0.00    -0.496 OA
ATOM     21  C   UNL     1       0.882   0.103  -0.144  1.00  0.00     0.278 C 
ENDBRANCH  14  20
ENDBRANCH  12  13
ENDBRANCH   9  12
ENDBRANCH   7   8
BRANCH   7  22
ATOM     22  C   UNL     1       5.401  -2.122   2.507  1.00  0.00     0.027 A 
ATOM     23  C   UNL     1       5.351  -0.873   3.113  1.00  0.00     0.017 A 
ATOM     24  S   UNL     1       7.041  -2.546   2.176  1.00  0.00    -0.147 S 
ATOM     25  C   UNL     1       6.642  -0.349   3.426  1.00  0.00     0.012 A 
ATOM     26  C   UNL     1       7.648  -1.198   3.029  1.00  0.00     0.065 A 
ENDBRANCH   7  22
ENDBRANCH   6   7
ENDBRANCH   4   6
ENDBRANCH   3   4
ENDBRANCH   2   3
ENDBRANCH   1   2
BRANCH   1  27
ATOM     27  O   UNL     1       5.343  -3.849   5.688  1.00  0.00    -0.374 OA
BRANCH  27  28
ATOM     28  C   UNL     1       6.211  -2.808   6.067  1.00  0.00     0.202 C 
BRANCH  28  29
ATOM     29  C   UNL     1       7.637  -3.215   6.434  1.00  0.00     0.261 C 
BRANCH  29  30
ATOM     30  O   UNL     1       7.739  -3.711   7.788  1.00  0.00    -0.460 OA
BRANCH  30  31
ATOM     31  C   UNL     1       7.732  -5.068   7.952  1.00  0.00     0.338 C 
ATOM     32  O   UNL     1       8.746  -5.749   7.926  1.00  0.00    -0.246 OA
BRANCH  31  33
ATOM     33  C   UNL     1       6.355  -5.566   8.234  1.00  0.00     0.060 A 
ATOM     34  C   UNL     1       5.982  -6.909   8.055  1.00  0.00     0.016 A 
ATOM     35  C   UNL     1       5.374  -4.613   8.450  1.00  0.00     0.016 A 
ATOM     36  C   UNL     1       4.619  -7.258   7.943  1.00  0.00     0.010 A 
ATOM     37  C   UNL     1       4.082  -4.925   8.109  1.00  0.00     0.010 A 
ATOM     38  C   UNL     1       3.666  -6.245   7.897  1.00  0.00    -0.014 A 
BRANCH  38  39
ATOM     39  C   UNL     1       2.226  -6.347   7.627  1.00  0.00     0.031 A 
ATOM     40  C   UNL     1       1.314  -5.823   8.689  1.00  0.00     0.074 A 
ATOM     41  C   UNL     1       1.710  -6.652   6.406  1.00  0.00     0.049 A 
ATOM     42  N   UNL     1       0.069  -6.137   8.780  1.00  0.00    -0.248 NA
ATOM     43  C   UNL     1       1.729  -4.938   9.787  1.00  0.00     0.031 C 
ATOM     44  C   UNL     1       0.386  -6.297   5.892  1.00  0.00     0.029 A 
ATOM     45  N   UNL     1       2.261  -7.377   5.341  1.00  0.00    -0.354 N 
ATOM     46  C   UNL     1      -0.517  -5.241   9.647  1.00  0.00     0.074 A 
ATOM     47  C   UNL     1       0.566  -4.622  10.354  1.00  0.00     0.031 C 
ATOM     48  C   UNL     1       0.125  -7.006   4.779  1.00  0.00     0.029 A 
ATOM     49  C   UNL     1       1.220  -7.941   4.590  1.00  0.00     0.049 A 
ATOM     50  H   UNL     1       3.222  -7.474   5.152  1.00  0.00     0.167 HD
ATOM     51  C   UNL     1      -1.851  -5.000   9.539  1.00  0.00     0.031 A 
ATOM     52  C   UNL     1       1.152  -9.283   4.368  1.00  0.00     0.031 A 
ATOM     53  C   UNL     1      -2.438  -5.826   8.483  1.00  0.00     0.049 A 
ATOM     54  C   UNL     1      -0.084  -9.818   5.034  1.00  0.00     0.074 A 
ATOM     55  C   UNL     1      -2.868  -5.537   7.200  1.00  0.00     0.029 A 
ATOM     56  N   UNL     1      -2.331  -7.210   8.563  1.00  0.00    -0.354 N 
ATOM     57  N   UNL     1      -0.705  -9.151   5.966  1.00  0.00    -0.248 NA
ATOM     58  C   UNL     1      -0.764 -11.063   4.700  1.00  0.00     0.031 C 
ATOM     59  C   UNL     1      -2.992  -6.767   6.498  1.00  0.00     0.029 A 
ATOM     60  C   UNL     1      -2.665  -7.800   7.363  1.00  0.00     0.049 A 
ATOM     61  H   UNL     1      -2.053  -7.702   9.370  1.00  0.00     0.167 HD
ATOM     62  C   UNL     1      -1.846  -9.795   6.321  1.00  0.00     0.074 A 
ATOM     63  C   UNL     1      -1.828 -11.010   5.526  1.00  0.00     0.031 C 
ATOM     64  C   UNL     1      -2.698  -9.254   7.237  1.00  0.00     0.031 A 
BRANCH  51  65
ATOM     65  C   UNL     1      -2.596  -3.858  10.195  1.00  0.00    -0.014 A 
ATOM     66  C   UNL     1      -3.915  -3.588   9.776  1.00  0.00     0.010 A 
ATOM     67  C   UNL     1      -2.082  -3.004  11.191  1.00  0.00     0.010 A 
ATOM     68  C   UNL     1      -4.661  -2.519  10.291  1.00  0.00     0.020 A 
ATOM     69  C   UNL     1      -2.812  -1.924  11.711  1.00  0.00     0.020 A 
ATOM     70  C   UNL     1      -4.103  -1.689  11.257  1.00  0.00     0.054 A 
BRANCH  70  71
ATOM     71  S   UNL     1      -5.092  -0.332  11.928  1.00  0.00     0.124 S 
ATOM     72  O   UNL     1      -5.373   0.470  10.740  1.00  0.00    -0.237 OA
ATOM     73  O   UNL     1      -6.237  -1.034  12.502  1.00  0.00    -0.237 OA
ATOM     74  O   UNL     1      -4.202   0.299  12.901  1.00  0.00    -0.744 OA
ENDBRANCH  70  71
ENDBRANCH  51  65
BRANCH  52  75
ATOM     75  C   UNL     1       2.509  -9.913   4.245  1.00  0.00    -0.014 A 
ATOM     76  C   UNL     1       3.209  -9.674   3.036  1.00  0.00     0.010 A 
ATOM     77  C   UNL     1       3.261 -10.196   5.400  1.00  0.00     0.010 A 
ATOM     78  C   UNL     1       4.604  -9.514   3.027  1.00  0.00     0.020 A 
ATOM     79  C   UNL     1       4.660 -10.034   5.391  1.00  0.00     0.020 A 
ATOM     80  C   UNL     1       5.315  -9.632   4.221  1.00  0.00     0.054 A 
BRANCH  80  81
ATOM     81  S   UNL     1       7.035  -9.011   4.293  1.00  0.00     0.124 S 
ATOM     82  O   UNL     1       7.782 -10.072   3.628  1.00  0.00    -0.237 OA
ATOM     83  O   UNL     1       6.968  -7.741   3.570  1.00  0.00    -0.237 OA
ATOM     84  O   UNL     1       7.279  -8.868   5.725  1.00  0.00    -0.744 OA
ENDBRANCH  80  81
ENDBRANCH  52  75
BRANCH  64  85
ATOM     85  C   UNL     1      -3.699 -10.027   8.048  1.00  0.00    -0.014 A 
ATOM     86  C   UNL     1      -3.739 -11.426   8.101  1.00  0.00     0.010 A 
ATOM     87  C   UNL     1      -4.563  -9.326   8.925  1.00  0.00     0.010 A 
ATOM     88  C   UNL     1      -4.656 -12.092   8.918  1.00  0.00     0.020 A 
ATOM     89  C   UNL     1      -5.434  -9.979   9.793  1.00  0.00     0.020 A 
ATOM     90  C   UNL     1      -5.502 -11.363   9.752  1.00  0.00     0.054 A 
BRANCH  90  91
ATOM     91  S   UNL     1      -6.678 -12.249  10.793  1.00  0.00     0.124 S 
ATOM     92  O   UNL     1      -7.710 -12.615   9.826  1.00  0.00    -0.237 OA
ATOM     93  O   UNL     1      -5.878 -13.360  11.306  1.00  0.00    -0.237 OA
ATOM     94  O   UNL     1      -7.074 -11.261  11.792  1.00  0.00    -0.744 OA
ENDBRANCH  90  91
ENDBRANCH  64  85
ENDBRANCH  38  39
ENDBRANCH  31  33
ENDBRANCH  30  31
ENDBRANCH  29  30
ENDBRANCH  28  29
ENDBRANCH  27  28
ENDBRANCH   1  27
TORSDOF 23
