REMARK SMILES CS(=O)(=O)c1ccc(/C=C(/C(=O)OCCOCCOC(=O)c2ccc(-c3c4nc(c(-c5ccc(S(=O)(=O)[O-])cc5)c5ccc([nH]5)c(-c5ccc(S(=O)(=O)[O-])cc5)c5nc(c(-c6ccc(S(=O)(=O)[O-])cc6)c6ccc3[nH]6)C=C5)C=C4)cc2)c2cccc(-c3ccc(S(C)(=O)=O)cc3)c2)cc1
REMARK SMILES IDX 16 1 15 2 14 3 13 4 11 5 12 6 10 7 9 8 8 9 5 10 6 11 99 12
REMARK SMILES IDX 7 13 98 14 2 15 1 16 3 17 4 18 82 19 83 20 97 21 84 22 86 23
REMARK SMILES IDX 85 24 87 25 88 26 96 27 89 28 95 29 90 30 91 31 92 32 93 33
REMARK SMILES IDX 94 34 17 35 18 36 19 37 20 38 21 39 22 40 23 41 81 42 24 43
REMARK SMILES IDX 80 44 25 45 26 46 27 47 74 48 28 49 79 50 73 51 75 52 29 53
REMARK SMILES IDX 78 54 72 55 71 56 30 58 60 59 41 60 59 61 42 62 45 63 58 64
REMARK SMILES IDX 76 65 43 66 44 67 57 69 77 70 46 71 31 72 32 73 40 74 33 75
REMARK SMILES IDX 39 76 34 77 35 78 36 79 37 80 38 81 61 82 62 83 70 84 63 85
REMARK SMILES IDX 69 86 64 87 65 88 66 89 67 90 68 91 47 92 48 93 56 94 49 95
REMARK SMILES IDX 55 96 50 97 51 98 52 99 53 100 54 101
REMARK H PARENT 75 57 45 68
REMARK Flexibility Score: inf
ROOT
ATOM      1  O   UNL     1       2.184   9.504   6.167  1.00  0.00    -0.374 OA
ENDROOT
BRANCH   1   2
ATOM      2  C   UNL     1       2.538  10.388   5.105  1.00  0.00     0.202 C 
BRANCH   2   3
ATOM      3  C   UNL     1       3.395   9.854   3.952  1.00  0.00     0.261 C 
BRANCH   3   4
ATOM      4  O   UNL     1       2.790   8.724   3.304  1.00  0.00    -0.460 OA
BRANCH   4   5
ATOM      5  C   UNL     1       3.484   7.568   3.450  1.00  0.00     0.338 C 
ATOM      6  O   UNL     1       4.604   7.465   3.934  1.00  0.00    -0.246 OA
BRANCH   5   7
ATOM      7  C   UNL     1       2.667   6.366   3.090  1.00  0.00     0.067 C 
ATOM      8  C   UNL     1       1.843   6.378   2.013  1.00  0.00     0.024 C 
BRANCH   8   9
ATOM      9  C   UNL     1       1.201   5.214   1.338  1.00  0.00    -0.025 A 
ATOM     10  C   UNL     1       0.430   2.924  -0.122  1.00  0.00     0.067 A 
ATOM     11  C   UNL     1       0.474   2.878   1.268  1.00  0.00     0.021 A 
ATOM     12  C   UNL     1       0.666   4.129  -0.786  1.00  0.00     0.021 A 
ATOM     13  C   UNL     1       0.818   4.030   1.986  1.00  0.00     0.009 A 
ATOM     14  C   UNL     1       1.047   5.265  -0.057  1.00  0.00     0.009 A 
BRANCH  10  15
ATOM     15  S   UNL     1       0.115   1.454  -1.070  1.00  0.00     0.175 S 
ATOM     16  C   UNL     1       0.941   0.129  -0.225  1.00  0.00     0.163 C 
ATOM     17  O   UNL     1       0.784   1.614  -2.348  1.00  0.00    -0.224 OA
ATOM     18  O   UNL     1      -1.312   1.209  -0.996  1.00  0.00    -0.224 OA
ENDBRANCH  10  15
ENDBRANCH   8   9
BRANCH   7  19
ATOM     19  C   UNL     1       2.954   5.160   3.887  1.00  0.00    -0.010 A 
ATOM     20  C   UNL     1       2.425   4.990   5.173  1.00  0.00     0.009 A 
ATOM     21  C   UNL     1       3.717   4.141   3.324  1.00  0.00     0.017 A 
ATOM     22  C   UNL     1       2.649   3.811   5.879  1.00  0.00     0.001 A 
ATOM     23  C   UNL     1       3.895   2.922   3.990  1.00  0.00    -0.018 A 
ATOM     24  C   UNL     1       3.372   2.778   5.285  1.00  0.00     0.009 A 
BRANCH  23  25
ATOM     25  C   UNL     1       4.507   1.808   3.263  1.00  0.00    -0.018 A 
ATOM     26  C   UNL     1       3.834   0.578   3.171  1.00  0.00     0.010 A 
ATOM     27  C   UNL     1       5.696   1.988   2.535  1.00  0.00     0.010 A 
ATOM     28  C   UNL     1       4.324  -0.439   2.357  1.00  0.00     0.021 A 
ATOM     29  C   UNL     1       6.194   0.977   1.717  1.00  0.00     0.021 A 
ATOM     30  C   UNL     1       5.503  -0.231   1.638  1.00  0.00     0.067 A 
BRANCH  30  31
ATOM     31  S   UNL     1       6.102  -1.532   0.597  1.00  0.00     0.175 S 
ATOM     32  C   UNL     1       6.591  -2.773   1.766  1.00  0.00     0.163 C 
ATOM     33  O   UNL     1       4.965  -2.029  -0.152  1.00  0.00    -0.224 OA
ATOM     34  O   UNL     1       7.299  -1.060  -0.071  1.00  0.00    -0.224 OA
ENDBRANCH  30  31
ENDBRANCH  23  25
ENDBRANCH   7  19
ENDBRANCH   5   7
ENDBRANCH   4   5
ENDBRANCH   3   4
ENDBRANCH   2   3
ENDBRANCH   1   2
BRANCH   1  35
ATOM     35  C   UNL     1       1.252   8.465   5.890  1.00  0.00     0.202 C 
BRANCH  35  36
ATOM     36  C   UNL     1      -0.228   8.804   5.674  1.00  0.00     0.261 C 
BRANCH  36  37
ATOM     37  O   UNL     1      -0.452   9.764   4.636  1.00  0.00    -0.460 OA
BRANCH  37  38
ATOM     38  C   UNL     1      -0.771  11.004   5.083  1.00  0.00     0.338 C 
ATOM     39  O   UNL     1      -0.934  11.353   6.243  1.00  0.00    -0.246 OA
BRANCH  38  40
ATOM     40  C   UNL     1      -0.696  11.953   3.962  1.00  0.00     0.060 A 
ATOM     41  C   UNL     1       0.227  13.003   4.054  1.00  0.00     0.016 A 
ATOM     42  C   UNL     1      -1.532  11.830   2.852  1.00  0.00     0.016 A 
ATOM     43  C   UNL     1       0.311  13.947   3.035  1.00  0.00     0.010 A 
ATOM     44  C   UNL     1      -1.461  12.790   1.841  1.00  0.00     0.010 A 
ATOM     45  C   UNL     1      -0.553  13.861   1.938  1.00  0.00    -0.014 A 
BRANCH  45  46
ATOM     46  C   UNL     1      -0.593  14.956   0.943  1.00  0.00     0.031 A 
ATOM     47  C   UNL     1      -1.695  15.973   1.025  1.00  0.00     0.074 A 
ATOM     48  C   UNL     1       0.345  15.039  -0.017  1.00  0.00     0.049 A 
ATOM     49  N   UNL     1      -1.964  16.966   0.220  1.00  0.00    -0.248 NA
ATOM     50  C   UNL     1      -2.616  15.852   2.167  1.00  0.00     0.031 C 
ATOM     51  C   UNL     1       1.491  14.140  -0.159  1.00  0.00     0.029 A 
ATOM     52  N   UNL     1       0.474  15.919  -1.060  1.00  0.00    -0.354 N 
ATOM     53  C   UNL     1      -3.092  17.583   0.747  1.00  0.00     0.074 A 
ATOM     54  C   UNL     1      -3.472  16.835   1.927  1.00  0.00     0.031 C 
ATOM     55  C   UNL     1       2.203  14.512  -1.237  1.00  0.00     0.029 A 
ATOM     56  C   UNL     1       1.538  15.641  -1.884  1.00  0.00     0.049 A 
ATOM     57  H   UNL     1      -0.136  16.677  -1.205  1.00  0.00     0.167 HD
ATOM     58  C   UNL     1      -3.749  18.675   0.289  1.00  0.00     0.031 A 
ATOM     59  C   UNL     1       1.914  16.214  -3.044  1.00  0.00     0.031 A 
ATOM     60  C   UNL     1      -3.375  19.396  -0.898  1.00  0.00     0.049 A 
ATOM     61  C   UNL     1       1.106  17.363  -3.590  1.00  0.00     0.074 A 
ATOM     62  C   UNL     1      -3.966  20.523  -1.441  1.00  0.00     0.029 A 
ATOM     63  N   UNL     1      -2.322  19.054  -1.734  1.00  0.00    -0.354 N 
ATOM     64  N   UNL     1       0.058  17.955  -3.067  1.00  0.00    -0.248 NA
ATOM     65  C   UNL     1       1.532  17.919  -4.882  1.00  0.00     0.031 C 
ATOM     66  C   UNL     1      -3.314  20.820  -2.643  1.00  0.00     0.029 A 
ATOM     67  C   UNL     1      -2.272  19.922  -2.812  1.00  0.00     0.049 A 
ATOM     68  H   UNL     1      -1.702  18.304  -1.584  1.00  0.00     0.167 HD
ATOM     69  C   UNL     1      -0.288  18.967  -3.957  1.00  0.00     0.074 A 
ATOM     70  C   UNL     1       0.674  18.919  -5.039  1.00  0.00     0.031 C 
ATOM     71  C   UNL     1      -1.311  19.855  -3.886  1.00  0.00     0.031 A 
BRANCH  58  72
ATOM     72  C   UNL     1      -4.967  19.124   1.053  1.00  0.00    -0.014 A 
ATOM     73  C   UNL     1      -4.859  19.690   2.337  1.00  0.00     0.010 A 
ATOM     74  C   UNL     1      -6.239  19.004   0.465  1.00  0.00     0.010 A 
ATOM     75  C   UNL     1      -6.003  20.086   3.034  1.00  0.00     0.020 A 
ATOM     76  C   UNL     1      -7.384  19.427   1.147  1.00  0.00     0.020 A 
ATOM     77  C   UNL     1      -7.259  19.949   2.435  1.00  0.00     0.054 A 
BRANCH  77  78
ATOM     78  S   UNL     1      -8.726  20.483   3.360  1.00  0.00     0.124 S 
ATOM     79  O   UNL     1      -8.813  19.462   4.402  1.00  0.00    -0.237 OA
ATOM     80  O   UNL     1      -8.345  21.817   3.818  1.00  0.00    -0.237 OA
ATOM     81  O   UNL     1      -9.795  20.449   2.366  1.00  0.00    -0.744 OA
ENDBRANCH  77  78
ENDBRANCH  58  72
BRANCH  59  82
ATOM     82  C   UNL     1       3.096  15.691  -3.782  1.00  0.00    -0.014 A 
ATOM     83  C   UNL     1       4.265  16.462  -3.902  1.00  0.00     0.010 A 
ATOM     84  C   UNL     1       3.061  14.410  -4.364  1.00  0.00     0.010 A 
ATOM     85  C   UNL     1       5.372  15.967  -4.596  1.00  0.00     0.020 A 
ATOM     86  C   UNL     1       4.176  13.899  -5.033  1.00  0.00     0.020 A 
ATOM     87  C   UNL     1       5.323  14.685  -5.152  1.00  0.00     0.054 A 
BRANCH  87  88
ATOM     88  S   UNL     1       6.795  14.043  -5.995  1.00  0.00     0.124 S 
ATOM     89  O   UNL     1       6.824  14.847  -7.212  1.00  0.00    -0.237 OA
ATOM     90  O   UNL     1       7.854  14.318  -5.027  1.00  0.00    -0.237 OA
ATOM     91  O   UNL     1       6.489  12.627  -6.186  1.00  0.00    -0.744 OA
ENDBRANCH  87  88
ENDBRANCH  59  82
BRANCH  71  92
ATOM     92  C   UNL     1      -1.438  20.862  -5.000  1.00  0.00    -0.014 A 
ATOM     93  C   UNL     1      -1.869  20.478  -6.282  1.00  0.00     0.010 A 
ATOM     94  C   UNL     1      -1.194  22.224  -4.739  1.00  0.00     0.010 A 
ATOM     95  C   UNL     1      -2.031  21.433  -7.289  1.00  0.00     0.020 A 
ATOM     96  C   UNL     1      -1.385  23.186  -5.735  1.00  0.00     0.020 A 
ATOM     97  C   UNL     1      -1.794  22.782  -7.007  1.00  0.00     0.054 A 
BRANCH  97  98
ATOM     98  S   UNL     1      -2.075  24.007  -8.315  1.00  0.00     0.124 S 
ATOM     99  O   UNL     1      -0.967  23.738  -9.228  1.00  0.00    -0.237 OA
ATOM    100  O   UNL     1      -3.401  23.645  -8.811  1.00  0.00    -0.237 OA
ATOM    101  O   UNL     1      -2.006  25.287  -7.613  1.00  0.00    -0.744 OA
ENDBRANCH  97  98
ENDBRANCH  71  92
ENDBRANCH  45  46
ENDBRANCH  38  40
ENDBRANCH  37  38
ENDBRANCH  36  37
ENDBRANCH  35  36
ENDBRANCH   1  35
TORSDOF 22
