REMARK SMILES CCOC(=O)C1=NN(c2ccc(Br)cc2F)[C@](C)(C(=O)OCCOCCOC(=O)c2ccc(-c3c4nc(c(-c5ccc(S(=O)(=O)[O-])cc5)c5ccc([nH]5)c(-c5ccc(S(=O)(=O)[O-])cc5)c5nc(c(-c6ccc(S(=O)(=O)[O-])cc6)c6ccc3[nH]6)C=C5)C=C4)cc2)C1
REMARK SMILES IDX 24 1 23 2 22 3 21 4 19 5 20 6 17 7 6 8 7 9 90 10 8 11 18 12
REMARK SMILES IDX 4 13 5 14 3 15 2 16 1 17 9 18 10 19 15 20 11 21 14 22 16 23
REMARK SMILES IDX 12 24 13 25 25 26 26 27 27 28 28 29 29 30 30 31 31 32 89 33
REMARK SMILES IDX 32 34 88 35 33 36 34 37 35 38 82 39 36 40 87 41 81 42 83 43
REMARK SMILES IDX 37 44 86 45 80 46 79 47 38 49 68 50 49 51 67 52 50 53 53 54
REMARK SMILES IDX 66 55 84 56 51 57 52 58 65 60 85 61 54 62 39 63 40 64 48 65
REMARK SMILES IDX 41 66 47 67 42 68 43 69 44 70 45 71 46 72 69 73 70 74 78 75
REMARK SMILES IDX 71 76 77 77 72 78 73 79 74 80 75 81 76 82 55 83 56 84 64 85
REMARK SMILES IDX 57 86 63 87 58 88 59 89 60 90 61 91 62 92
REMARK H PARENT 83 48 53 59
REMARK Flexibility Score: inf
ROOT
ATOM      1  O   UNL     1       5.931   7.200  -1.362  1.00  0.00    -0.374 OA
ENDROOT
BRANCH   1   2
ATOM      2  C   UNL     1       6.605   7.987  -0.378  1.00  0.00     0.202 C 
BRANCH   2   3
ATOM      3  C   UNL     1       5.784   8.411   0.844  1.00  0.00     0.261 C 
BRANCH   3   4
ATOM      4  O   UNL     1       5.497   7.301   1.712  1.00  0.00    -0.461 OA
BRANCH   4   5
ATOM      5  C   UNL     1       4.304   6.682   1.488  1.00  0.00     0.334 C 
ATOM      6  O   UNL     1       3.528   7.010   0.599  1.00  0.00    -0.249 OA
BRANCH   5   7
ATOM      7  C   UNL     1       4.109   5.451   2.388  1.00  0.00     0.163 C 
ATOM      8  C   UNL     1       2.729   3.610   2.324  1.00  0.00     0.149 C 
ATOM      9  N   UNL     1       2.165   4.365   3.221  1.00  0.00    -0.169 NA
ATOM     10  C   UNL     1       3.819   4.225   1.510  1.00  0.00     0.108 C 
ATOM     11  N   UNL     1       2.860   5.536   3.169  1.00  0.00    -0.245 N 
ATOM     12  C   UNL     1       5.289   5.143   3.328  1.00  0.00     0.050 C 
BRANCH   8  13
ATOM     13  C   UNL     1       2.380   2.173   2.067  1.00  0.00     0.354 C 
ATOM     14  O   UNL     1       3.224   1.304   2.172  1.00  0.00    -0.245 OA
BRANCH  13  15
ATOM     15  O   UNL     1       1.105   2.050   1.661  1.00  0.00    -0.461 OA
BRANCH  15  16
ATOM     16  C   UNL     1       0.666   0.700   1.459  1.00  0.00     0.230 C 
ATOM     17  C   UNL     1       1.049   0.195   0.079  1.00  0.00     0.049 C 
ENDBRANCH  15  16
ENDBRANCH  13  15
ENDBRANCH   8  13
BRANCH  11  18
ATOM     18  C   UNL     1       2.447   6.694   3.813  1.00  0.00     0.097 A 
ATOM     19  C   UNL     1       2.814   6.941   5.139  1.00  0.00     0.032 A 
ATOM     20  C   UNL     1       1.789   7.722   3.115  1.00  0.00     0.149 A 
ATOM     21  C   UNL     1       2.608   8.200   5.715  1.00  0.00     0.018 A 
ATOM     22  C   UNL     1       1.611   8.988   3.661  1.00  0.00     0.057 A 
ATOM     23  F   UNL     1       1.346   7.511   1.867  1.00  0.00    -0.205 F 
ATOM     24  C   UNL     1       2.037   9.225   4.960  1.00  0.00     0.021 A 
ATOM     25  Br  UNL     1       1.854  10.954   5.700  1.00  0.00    -0.051 Br
ENDBRANCH  11  18
ENDBRANCH   5   7
ENDBRANCH   4   5
ENDBRANCH   3   4
ENDBRANCH   2   3
ENDBRANCH   1   2
BRANCH   1  26
ATOM     26  C   UNL     1       5.830   5.799  -1.121  1.00  0.00     0.202 C 
BRANCH  26  27
ATOM     27  C   UNL     1       7.009   4.937  -1.569  1.00  0.00     0.261 C 
BRANCH  27  28
ATOM     28  O   UNL     1       8.182   5.250  -0.803  1.00  0.00    -0.460 OA
BRANCH  28  29
ATOM     29  C   UNL     1       9.050   6.057  -1.459  1.00  0.00     0.338 C 
ATOM     30  O   UNL     1       8.983   6.409  -2.625  1.00  0.00    -0.246 OA
BRANCH  29  31
ATOM     31  C   UNL     1      10.028   6.631  -0.517  1.00  0.00     0.060 A 
ATOM     32  C   UNL     1      10.322   7.990  -0.679  1.00  0.00     0.016 A 
ATOM     33  C   UNL     1      10.704   5.861   0.433  1.00  0.00     0.016 A 
ATOM     34  C   UNL     1      11.378   8.556   0.018  1.00  0.00     0.010 A 
ATOM     35  C   UNL     1      11.767   6.434   1.138  1.00  0.00     0.010 A 
ATOM     36  C   UNL     1      12.151   7.761   0.873  1.00  0.00    -0.014 A 
BRANCH  36  37
ATOM     37  C   UNL     1      13.479   8.271   1.283  1.00  0.00     0.031 A 
ATOM     38  C   UNL     1      14.696   7.790   0.535  1.00  0.00     0.074 A 
ATOM     39  C   UNL     1      13.589   9.221   2.226  1.00  0.00     0.049 A 
ATOM     40  N   UNL     1      15.943   8.164   0.653  1.00  0.00    -0.248 NA
ATOM     41  C   UNL     1      14.475   6.749  -0.483  1.00  0.00     0.031 C 
ATOM     42  C   UNL     1      12.477   9.792   2.984  1.00  0.00     0.029 A 
ATOM     43  N   UNL     1      14.694   9.884   2.693  1.00  0.00    -0.354 N 
ATOM     44  C   UNL     1      16.655   7.398  -0.264  1.00  0.00     0.074 A 
ATOM     45  C   UNL     1      15.708   6.513  -0.904  1.00  0.00     0.031 C 
ATOM     46  C   UNL     1      12.957  10.728   3.820  1.00  0.00     0.029 A 
ATOM     47  C   UNL     1      14.409  10.804   3.671  1.00  0.00     0.049 A 
ATOM     48  H   UNL     1      15.605   9.716   2.359  1.00  0.00     0.167 HD
ATOM     49  C   UNL     1      17.977   7.434  -0.556  1.00  0.00     0.031 A 
ATOM     50  C   UNL     1      15.229  11.613   4.370  1.00  0.00     0.031 A 
ATOM     51  C   UNL     1      18.915   8.313   0.090  1.00  0.00     0.049 A 
ATOM     52  C   UNL     1      16.700  11.613   4.056  1.00  0.00     0.074 A 
ATOM     53  C   UNL     1      20.273   8.445  -0.141  1.00  0.00     0.029 A 
ATOM     54  N   UNL     1      18.593   9.206   1.102  1.00  0.00    -0.354 N 
ATOM     55  N   UNL     1      17.356  10.901   3.169  1.00  0.00    -0.248 NA
ATOM     56  C   UNL     1      17.538  12.545   4.822  1.00  0.00     0.031 C 
ATOM     57  C   UNL     1      20.782   9.374   0.774  1.00  0.00     0.029 A 
ATOM     58  C   UNL     1      19.729   9.874   1.525  1.00  0.00     0.049 A 
ATOM     59  H   UNL     1      17.688   9.344   1.466  1.00  0.00     0.167 HD
ATOM     60  C   UNL     1      18.680  11.320   3.249  1.00  0.00     0.074 A 
ATOM     61  C   UNL     1      18.725  12.358   4.260  1.00  0.00     0.031 C 
ATOM     62  C   UNL     1      19.759  10.893   2.545  1.00  0.00     0.031 A 
BRANCH  49  63
ATOM     63  C   UNL     1      18.486   6.456  -1.585  1.00  0.00    -0.014 A 
ATOM     64  C   UNL     1      18.143   6.570  -2.945  1.00  0.00     0.010 A 
ATOM     65  C   UNL     1      19.324   5.402  -1.179  1.00  0.00     0.010 A 
ATOM     66  C   UNL     1      18.585   5.618  -3.869  1.00  0.00     0.020 A 
ATOM     67  C   UNL     1      19.794   4.466  -2.104  1.00  0.00     0.020 A 
ATOM     68  C   UNL     1      19.402   4.567  -3.441  1.00  0.00     0.054 A 
BRANCH  68  69
ATOM     69  S   UNL     1      19.960   3.343  -4.657  1.00  0.00     0.124 S 
ATOM     70  O   UNL     1      18.734   2.588  -4.907  1.00  0.00    -0.237 OA
ATOM     71  O   UNL     1      20.421   4.177  -5.764  1.00  0.00    -0.237 OA
ATOM     72  O   UNL     1      21.009   2.609  -3.955  1.00  0.00    -0.744 OA
ENDBRANCH  68  69
ENDBRANCH  49  63
BRANCH  50  73
ATOM     73  C   UNL     1      14.662  12.488   5.432  1.00  0.00    -0.014 A 
ATOM     74  C   UNL     1      14.595  13.881   5.263  1.00  0.00     0.010 A 
ATOM     75  C   UNL     1      14.151  11.916   6.612  1.00  0.00     0.010 A 
ATOM     76  C   UNL     1      14.030  14.687   6.256  1.00  0.00     0.020 A 
ATOM     77  C   UNL     1      13.561  12.715   7.594  1.00  0.00     0.020 A 
ATOM     78  C   UNL     1      13.510  14.097   7.412  1.00  0.00     0.054 A 
BRANCH  78  79
ATOM     79  S   UNL     1      12.710  15.154   8.652  1.00  0.00     0.124 S 
ATOM     80  O   UNL     1      13.851  15.839   9.250  1.00  0.00    -0.237 OA
ATOM     81  O   UNL     1      11.829  15.985   7.834  1.00  0.00    -0.237 OA
ATOM     82  O   UNL     1      12.024  14.201   9.521  1.00  0.00    -0.744 OA
ENDBRANCH  78  79
ENDBRANCH  50  73
BRANCH  62  83
ATOM     83  C   UNL     1      21.073  11.578   2.818  1.00  0.00    -0.014 A 
ATOM     84  C   UNL     1      21.756  11.405   4.035  1.00  0.00     0.010 A 
ATOM     85  C   UNL     1      21.642  12.399   1.826  1.00  0.00     0.010 A 
ATOM     86  C   UNL     1      22.951  12.089   4.278  1.00  0.00     0.020 A 
ATOM     87  C   UNL     1      22.853  13.057   2.052  1.00  0.00     0.020 A 
ATOM     88  C   UNL     1      23.487  12.917   3.287  1.00  0.00     0.054 A 
BRANCH  88  89
ATOM     89  S   UNL     1      25.035  13.799   3.626  1.00  0.00     0.124 S 
ATOM     90  O   UNL     1      24.590  14.851   4.536  1.00  0.00    -0.237 OA
ATOM     91  O   UNL     1      25.872  12.762   4.224  1.00  0.00    -0.237 OA
ATOM     92  O   UNL     1      25.468  14.258   2.308  1.00  0.00    -0.744 OA
ENDBRANCH  88  89
ENDBRANCH  62  83
ENDBRANCH  36  37
ENDBRANCH  29  31
ENDBRANCH  28  29
ENDBRANCH  27  28
ENDBRANCH  26  27
ENDBRANCH   1  26
TORSDOF 21
