REMARK SMILES CC(=O)N[C@@H](CS[C@@H]1CC(=O)N(c2cccc3ccccc23)C1=O)C(=O)OCCOCCOC(=O)c1ccc(-c2c3nc(c(-c4ccc(S(=O)(=O)[O-])cc4)c4ccc([nH]4)c(-c4ccc(S(=O)(=O)[O-])cc4)c4nc(c(-c5ccc(S(=O)(=O)[O-])cc5)c5ccc2[nH]5)C=C4)C=C3)cc1
REMARK SMILES IDX 29 1 28 2 27 3 25 4 26 5 5 6 4 7 1 8 2 9 3 10 6 12 7 13 8 14
REMARK SMILES IDX 9 15 23 16 10 17 12 18 24 19 11 20 13 21 14 22 22 23 15 24
REMARK SMILES IDX 17 25 21 26 16 27 18 28 20 29 19 30 30 31 31 32 32 33 33 34
REMARK SMILES IDX 34 35 35 36 36 37 37 38 95 39 38 40 94 41 39 42 40 43 41 44
REMARK SMILES IDX 88 45 42 46 93 47 87 48 89 49 43 50 92 51 86 52 85 53 44 55
REMARK SMILES IDX 74 56 55 57 73 58 56 59 59 60 72 61 90 62 57 63 58 64 71 66
REMARK SMILES IDX 91 67 60 68 45 69 46 70 54 71 47 72 53 73 48 74 49 75 50 76
REMARK SMILES IDX 51 77 52 78 75 79 76 80 84 81 77 82 83 83 78 84 79 85 80 86
REMARK SMILES IDX 81 87 82 88 61 89 62 90 70 91 63 92 69 93 64 94 65 95 66 96
REMARK SMILES IDX 67 97 68 98
REMARK H PARENT 4 11 89 54 59 65
REMARK Flexibility Score: inf
ROOT
ATOM      1  C   UNL     1      -1.011  -4.622   4.055  1.00  0.00     0.202 C 
ENDROOT
BRANCH   1   2
ATOM      2  C   UNL     1       0.485  -4.349   4.248  1.00  0.00     0.261 C 
BRANCH   2   3
ATOM      3  O   UNL     1       0.830  -3.070   3.697  1.00  0.00    -0.462 OA
BRANCH   3   4
ATOM      4  C   UNL     1       2.104  -2.945   3.220  1.00  0.00     0.329 C 
ATOM      5  O   UNL     1       3.001  -3.764   3.369  1.00  0.00    -0.250 OA
BRANCH   4   6
ATOM      6  C   UNL     1       2.290  -1.588   2.522  1.00  0.00     0.202 C 
BRANCH   6   7
ATOM      7  N   UNL     1       1.003  -1.078   2.034  1.00  0.00    -0.342 N 
ATOM      8  C   UNL     1       1.733  -0.264  -0.178  1.00  0.00     0.114 C 
ATOM      9  C   UNL     1       0.679  -0.455   0.871  1.00  0.00     0.217 C 
ATOM     10  O   UNL     1      -0.484  -0.105   0.688  1.00  0.00    -0.275 OA
ATOM     11  H   UNL     1       0.248  -1.210   2.652  1.00  0.00     0.164 HD
ENDBRANCH   6   7
BRANCH   6  12
ATOM     12  C   UNL     1       3.006  -0.570   3.444  1.00  0.00     0.107 C 
BRANCH  12  13
ATOM     13  S   UNL     1       2.589  -0.603   5.245  1.00  0.00    -0.145 SA
BRANCH  13  14
ATOM     14  C   UNL     1       1.366   0.732   5.520  1.00  0.00     0.146 C 
ATOM     15  C   UNL     1       0.223   0.808   4.558  1.00  0.00     0.125 C 
ATOM     16  C   UNL     1       1.948   2.125   5.524  1.00  0.00     0.247 C 
ATOM     17  C   UNL     1       0.017   2.266   4.348  1.00  0.00     0.235 C 
ATOM     18  N   UNL     1       1.167   2.932   4.719  1.00  0.00    -0.249 N 
ATOM     19  O   UNL     1       2.868   2.451   6.263  1.00  0.00    -0.273 OA
ATOM     20  O   UNL     1      -1.004   2.682   3.817  1.00  0.00    -0.274 OA
BRANCH  18  21
ATOM     21  C   UNL     1       1.416   4.317   4.419  1.00  0.00     0.060 A 
ATOM     22  C   UNL     1       0.302   5.160   4.213  1.00  0.00     0.027 A 
ATOM     23  C   UNL     1       2.734   4.886   4.279  1.00  0.00     0.006 A 
ATOM     24  C   UNL     1       0.438   6.507   3.901  1.00  0.00     0.003 A 
ATOM     25  C   UNL     1       2.842   6.283   4.012  1.00  0.00    -0.016 A 
ATOM     26  C   UNL     1       3.970   4.185   4.323  1.00  0.00     0.011 A 
ATOM     27  C   UNL     1       1.700   7.065   3.818  1.00  0.00     0.009 A 
ATOM     28  C   UNL     1       4.095   6.911   3.917  1.00  0.00     0.009 A 
ATOM     29  C   UNL     1       5.213   4.822   4.243  1.00  0.00     0.001 A 
ATOM     30  C   UNL     1       5.276   6.191   4.055  1.00  0.00     0.001 A 
ENDBRANCH  18  21
ENDBRANCH  13  14
ENDBRANCH  12  13
ENDBRANCH   6  12
ENDBRANCH   4   6
ENDBRANCH   3   4
ENDBRANCH   2   3
ENDBRANCH   1   2
BRANCH   1  31
ATOM     31  O   UNL     1      -1.473  -4.718   2.705  1.00  0.00    -0.374 OA
BRANCH  31  32
ATOM     32  C   UNL     1      -1.497  -3.527   1.920  1.00  0.00     0.202 C 
BRANCH  32  33
ATOM     33  C   UNL     1      -2.582  -2.485   2.236  1.00  0.00     0.261 C 
BRANCH  33  34
ATOM     34  O   UNL     1      -2.602  -2.057   3.610  1.00  0.00    -0.460 OA
BRANCH  34  35
ATOM     35  C   UNL     1      -3.704  -2.458   4.290  1.00  0.00     0.338 C 
ATOM     36  O   UNL     1      -4.657  -3.091   3.844  1.00  0.00    -0.246 OA
BRANCH  35  37
ATOM     37  C   UNL     1      -3.572  -2.195   5.731  1.00  0.00     0.060 A 
ATOM     38  C   UNL     1      -3.653  -3.299   6.589  1.00  0.00     0.016 A 
ATOM     39  C   UNL     1      -3.524  -0.897   6.246  1.00  0.00     0.016 A 
ATOM     40  C   UNL     1      -3.745  -3.108   7.965  1.00  0.00     0.010 A 
ATOM     41  C   UNL     1      -3.620  -0.709   7.633  1.00  0.00     0.010 A 
ATOM     42  C   UNL     1      -3.774  -1.811   8.495  1.00  0.00    -0.014 A 
BRANCH  42  43
ATOM     43  C   UNL     1      -4.118  -1.630   9.929  1.00  0.00     0.031 A 
ATOM     44  C   UNL     1      -5.523  -1.239  10.308  1.00  0.00     0.074 A 
ATOM     45  C   UNL     1      -3.209  -1.885  10.889  1.00  0.00     0.049 A 
ATOM     46  N   UNL     1      -6.042  -1.068  11.497  1.00  0.00    -0.248 NA
ATOM     47  C   UNL     1      -6.468  -1.016   9.201  1.00  0.00     0.031 C 
ATOM     48  C   UNL     1      -1.833  -2.320  10.655  1.00  0.00     0.029 A 
ATOM     49  N   UNL     1      -3.315  -1.823  12.256  1.00  0.00    -0.354 N 
ATOM     50  C   UNL     1      -7.370  -0.715  11.284  1.00  0.00     0.074 A 
ATOM     51  C   UNL     1      -7.569  -0.665   9.851  1.00  0.00     0.031 C 
ATOM     52  C   UNL     1      -1.222  -2.490  11.840  1.00  0.00     0.029 A 
ATOM     53  C   UNL     1      -2.153  -2.149  12.914  1.00  0.00     0.049 A 
ATOM     54  H   UNL     1      -4.145  -1.570  12.721  1.00  0.00     0.167 HD
ATOM     55  C   UNL     1      -8.340  -0.462  12.196  1.00  0.00     0.031 A 
ATOM     56  C   UNL     1      -1.867  -2.159  14.231  1.00  0.00     0.031 A 
ATOM     57  C   UNL     1      -8.141  -0.502  13.621  1.00  0.00     0.049 A 
ATOM     58  C   UNL     1      -2.942  -1.806  15.225  1.00  0.00     0.074 A 
ATOM     59  C   UNL     1      -9.066  -0.271  14.626  1.00  0.00     0.029 A 
ATOM     60  N   UNL     1      -6.936  -0.785  14.245  1.00  0.00    -0.354 N 
ATOM     61  N   UNL     1      -4.197  -1.493  15.005  1.00  0.00    -0.248 NA
ATOM     62  C   UNL     1      -2.564  -1.817  16.645  1.00  0.00     0.031 C 
ATOM     63  C   UNL     1      -8.406  -0.361  15.856  1.00  0.00     0.029 A 
ATOM     64  C   UNL     1      -7.085  -0.709  15.620  1.00  0.00     0.049 A 
ATOM     65  H   UNL     1      -6.098  -1.008  13.780  1.00  0.00     0.167 HD
ATOM     66  C   UNL     1      -4.764  -1.296  16.261  1.00  0.00     0.074 A 
ATOM     67  C   UNL     1      -3.719  -1.539  17.234  1.00  0.00     0.031 C 
ATOM     68  C   UNL     1      -6.036  -0.949  16.579  1.00  0.00     0.031 A 
BRANCH  55  69
ATOM     69  C   UNL     1      -9.703  -0.084  11.677  1.00  0.00    -0.014 A 
ATOM     70  C   UNL     1     -10.541  -1.033  11.065  1.00  0.00     0.010 A 
ATOM     71  C   UNL     1     -10.167   1.235  11.839  1.00  0.00     0.010 A 
ATOM     72  C   UNL     1     -11.803  -0.661  10.591  1.00  0.00     0.020 A 
ATOM     73  C   UNL     1     -11.438   1.604  11.390  1.00  0.00     0.020 A 
ATOM     74  C   UNL     1     -12.242   0.656  10.754  1.00  0.00     0.054 A 
BRANCH  74  75
ATOM     75  S   UNL     1     -13.892   1.107  10.148  1.00  0.00     0.124 S 
ATOM     76  O   UNL     1     -13.687   1.122   8.701  1.00  0.00    -0.237 OA
ATOM     77  O   UNL     1     -14.727   0.021  10.652  1.00  0.00    -0.237 OA
ATOM     78  O   UNL     1     -14.140   2.413  10.754  1.00  0.00    -0.744 OA
ENDBRANCH  74  75
ENDBRANCH  55  69
BRANCH  56  79
ATOM     79  C   UNL     1      -0.493  -2.505  14.689  1.00  0.00    -0.014 A 
ATOM     80  C   UNL     1      -0.242  -3.704  15.378  1.00  0.00     0.010 A 
ATOM     81  C   UNL     1       0.577  -1.627  14.432  1.00  0.00     0.010 A 
ATOM     82  C   UNL     1       1.050  -4.011  15.816  1.00  0.00     0.020 A 
ATOM     83  C   UNL     1       1.875  -1.944  14.843  1.00  0.00     0.020 A 
ATOM     84  C   UNL     1       2.101  -3.130  15.543  1.00  0.00     0.054 A 
BRANCH  84  85
ATOM     85  S   UNL     1       3.779  -3.575  16.072  1.00  0.00     0.124 S 
ATOM     86  O   UNL     1       3.712  -3.351  17.513  1.00  0.00    -0.237 OA
ATOM     87  O   UNL     1       3.882  -4.971  15.653  1.00  0.00    -0.237 OA
ATOM     88  O   UNL     1       4.628  -2.646  15.331  1.00  0.00    -0.744 OA
ENDBRANCH  84  85
ENDBRANCH  56  79
BRANCH  68  89
ATOM     89  C   UNL     1      -6.382  -0.841  18.041  1.00  0.00    -0.014 A 
ATOM     90  C   UNL     1      -5.910   0.225  18.828  1.00  0.00     0.010 A 
ATOM     91  C   UNL     1      -7.233  -1.798  18.625  1.00  0.00     0.010 A 
ATOM     92  C   UNL     1      -6.254   0.312  20.180  1.00  0.00     0.020 A 
ATOM     93  C   UNL     1      -7.602  -1.699  19.969  1.00  0.00     0.020 A 
ATOM     94  C   UNL     1      -7.097  -0.652  20.742  1.00  0.00     0.054 A 
BRANCH  94  95
ATOM     95  S   UNL     1      -7.557  -0.499  22.490  1.00  0.00     0.124 S 
ATOM     96  O   UNL     1      -6.330  -0.910  23.165  1.00  0.00    -0.237 OA
ATOM     97  O   UNL     1      -7.897   0.917  22.611  1.00  0.00    -0.237 OA
ATOM     98  O   UNL     1      -8.685  -1.417  22.634  1.00  0.00    -0.744 OA
ENDBRANCH  94  95
ENDBRANCH  68  89
ENDBRANCH  42  43
ENDBRANCH  35  37
ENDBRANCH  34  35
ENDBRANCH  33  34
ENDBRANCH  32  33
ENDBRANCH  31  32
ENDBRANCH   1  31
TORSDOF 22
