REMARK SMILES Cc1cccc(-n2ncc(C(=O)Nc3cccc(C(=O)OCCOCCOC(=O)c4ccc(-c5c6nc(c(-c7ccc(S(=O)(=O)[O-])cc7)c7ccc([nH]7)c(-c7ccc(S(=O)(=O)[O-])cc7)c7nc(c(-c8ccc(S(=O)(=O)[O-])cc8)c8ccc5[nH]8)C=C7)C=C6)cc4)c3C)c2C)c1
REMARK SMILES IDX 24 1 23 2 22 3 21 4 19 5 20 6 18 7 14 8 15 9 90 10 16 11
REMARK SMILES IDX 91 12 17 13 13 14 11 15 12 16 10 18 7 19 8 20 92 21 9 22
REMARK SMILES IDX 93 23 6 24 1 25 2 26 3 27 94 28 4 29 5 30 25 31 26 32 27 33
REMARK SMILES IDX 28 34 29 35 30 36 31 37 89 38 32 39 88 40 33 41 34 42 35 43
REMARK SMILES IDX 82 44 36 45 87 46 81 47 83 48 37 49 86 50 80 51 79 52 38 54
REMARK SMILES IDX 68 55 49 56 67 57 50 58 53 59 66 60 84 61 51 62 52 63 65 65
REMARK SMILES IDX 85 66 54 67 39 68 40 69 48 70 41 71 47 72 42 73 43 74 44 75
REMARK SMILES IDX 45 76 46 77 69 78 70 79 78 80 71 81 77 82 72 83 73 84 74 85
REMARK SMILES IDX 75 86 76 87 55 88 56 89 64 90 57 91 63 92 58 93 59 94 60 95
REMARK SMILES IDX 61 96 62 97
REMARK H PARENT 13 17 83 53 53 64
REMARK Flexibility Score: inf
ROOT
ATOM      1  O   UNL     1      -3.453  10.930  -2.188  1.00  0.00    -0.374 OA
ENDROOT
BRANCH   1   2
ATOM      2  C   UNL     1      -3.207  10.614  -3.558  1.00  0.00     0.202 C 
BRANCH   2   3
ATOM      3  C   UNL     1      -1.775  10.132  -3.668  1.00  0.00     0.261 C 
BRANCH   3   4
ATOM      4  O   UNL     1      -1.551   8.856  -3.055  1.00  0.00    -0.460 OA
BRANCH   4   5
ATOM      5  C   UNL     1      -1.872   8.765  -1.742  1.00  0.00     0.338 C 
ATOM      6  O   UNL     1      -1.375   9.389  -0.830  1.00  0.00    -0.246 OA
BRANCH   5   7
ATOM      7  C   UNL     1      -2.957   7.752  -1.600  1.00  0.00     0.065 A 
ATOM      8  C   UNL     1      -4.384   6.385  -0.261  1.00  0.00     0.045 A 
ATOM      9  C   UNL     1      -4.704   5.596  -1.377  1.00  0.00     0.026 A 
ATOM     10  C   UNL     1      -3.623   7.559  -0.374  1.00  0.00    -0.013 A 
ATOM     11  C   UNL     1      -4.167   5.893  -2.617  1.00  0.00     0.003 A 
ATOM     12  C   UNL     1      -3.418   8.445   0.830  1.00  0.00     0.047 C 
ATOM     13  C   UNL     1      -3.255   6.931  -2.712  1.00  0.00     0.016 A 
BRANCH   8  14
ATOM     14  N   UNL     1      -4.681   5.886   1.010  1.00  0.00    -0.322 N 
ATOM     15  C   UNL     1      -4.255   4.676   1.529  1.00  0.00     0.259 C 
ATOM     16  O   UNL     1      -4.781   4.283   2.571  1.00  0.00    -0.269 OA
ATOM     17  H   UNL     1      -5.246   6.446   1.590  1.00  0.00     0.170 HD
BRANCH  15  18
ATOM     18  C   UNL     1      -3.159   3.933   0.889  1.00  0.00     0.081 A 
ATOM     19  N   UNL     1      -1.721   2.310   0.346  1.00  0.00    -0.237 N 
ATOM     20  N   UNL     1      -1.270   3.399  -0.307  1.00  0.00    -0.175 NA
ATOM     21  C   UNL     1      -2.791   2.619   1.174  1.00  0.00     0.054 A 
ATOM     22  C   UNL     1      -2.126   4.361   0.022  1.00  0.00     0.149 A 
ATOM     23  C   UNL     1      -3.280   1.751   2.278  1.00  0.00     0.068 C 
BRANCH  19  24
ATOM     24  C   UNL     1      -1.051   1.075   0.167  1.00  0.00     0.065 A 
ATOM     25  C   UNL     1       2.549  -0.108  -0.131  1.00  0.00     0.044 C 
ATOM     26  C   UNL     1       1.050  -0.115  -0.077  1.00  0.00    -0.049 A 
ATOM     27  C   UNL     1       0.347  -1.325  -0.043  1.00  0.00     0.003 A 
ATOM     28  C   UNL     1       0.339   1.087  -0.014  1.00  0.00     0.031 A 
ATOM     29  C   UNL     1      -1.046  -1.335   0.068  1.00  0.00     0.002 A 
ATOM     30  C   UNL     1      -1.749  -0.136   0.184  1.00  0.00     0.028 A 
ENDBRANCH  19  24
ENDBRANCH  15  18
ENDBRANCH   8  14
ENDBRANCH   5   7
ENDBRANCH   4   5
ENDBRANCH   3   4
ENDBRANCH   2   3
ENDBRANCH   1   2
BRANCH   1  31
ATOM     31  C   UNL     1      -4.771  11.322  -1.855  1.00  0.00     0.202 C 
BRANCH  31  32
ATOM     32  C   UNL     1      -5.267  12.558  -2.616  1.00  0.00     0.261 C 
BRANCH  32  33
ATOM     33  O   UNL     1      -4.587  13.749  -2.169  1.00  0.00    -0.460 OA
BRANCH  33  34
ATOM     34  C   UNL     1      -3.632  14.233  -3.018  1.00  0.00     0.338 C 
ATOM     35  O   UNL     1      -3.884  14.815  -4.057  1.00  0.00    -0.246 OA
BRANCH  34  36
ATOM     36  C   UNL     1      -2.273  13.907  -2.500  1.00  0.00     0.060 A 
ATOM     37  C   UNL     1      -1.139  13.947  -3.330  1.00  0.00     0.016 A 
ATOM     38  C   UNL     1      -2.175  13.349  -1.230  1.00  0.00     0.016 A 
ATOM     39  C   UNL     1       0.056  13.310  -2.935  1.00  0.00     0.010 A 
ATOM     40  C   UNL     1      -1.052  12.623  -0.908  1.00  0.00     0.010 A 
ATOM     41  C   UNL     1       0.079  12.588  -1.746  1.00  0.00    -0.014 A 
BRANCH  41  42
ATOM     42  C   UNL     1       1.138  11.706  -1.229  1.00  0.00     0.031 A 
ATOM     43  C   UNL     1       1.605  11.971   0.164  1.00  0.00     0.074 A 
ATOM     44  C   UNL     1       1.325  10.467  -1.757  1.00  0.00     0.049 A 
ATOM     45  N   UNL     1       2.370  11.188   0.837  1.00  0.00    -0.248 NA
ATOM     46  C   UNL     1       1.243  13.169   0.931  1.00  0.00     0.031 C 
ATOM     47  C   UNL     1       1.620   9.233  -1.022  1.00  0.00     0.029 A 
ATOM     48  N   UNL     1       1.349  10.050  -3.087  1.00  0.00    -0.354 N 
ATOM     49  C   UNL     1       2.296  11.552   2.159  1.00  0.00     0.074 A 
ATOM     50  C   UNL     1       1.666  12.847   2.159  1.00  0.00     0.031 C 
ATOM     51  C   UNL     1       2.002   8.270  -1.875  1.00  0.00     0.029 A 
ATOM     52  C   UNL     1       2.145   8.893  -3.174  1.00  0.00     0.049 A 
ATOM     53  H   UNL     1       0.887  10.490  -3.837  1.00  0.00     0.167 HD
ATOM     54  C   UNL     1       2.687  10.645   3.095  1.00  0.00     0.031 A 
ATOM     55  C   UNL     1       3.260   8.871  -3.960  1.00  0.00     0.031 A 
ATOM     56  C   UNL     1       3.333   9.496   2.461  1.00  0.00     0.049 A 
ATOM     57  C   UNL     1       4.495   8.690  -3.114  1.00  0.00     0.074 A 
ATOM     58  C   UNL     1       2.959   8.186   2.222  1.00  0.00     0.029 A 
ATOM     59  N   UNL     1       4.462   9.734   1.687  1.00  0.00    -0.354 N 
ATOM     60  N   UNL     1       4.502   8.908  -1.827  1.00  0.00    -0.248 NA
ATOM     61  C   UNL     1       5.786   8.208  -3.592  1.00  0.00     0.031 C 
ATOM     62  C   UNL     1       3.842   7.662   1.232  1.00  0.00     0.029 A 
ATOM     63  C   UNL     1       4.770   8.640   0.909  1.00  0.00     0.049 A 
ATOM     64  H   UNL     1       4.974  10.575   1.694  1.00  0.00     0.167 HD
ATOM     65  C   UNL     1       5.710   8.579  -1.297  1.00  0.00     0.074 A 
ATOM     66  C   UNL     1       6.497   8.170  -2.447  1.00  0.00     0.031 C 
ATOM     67  C   UNL     1       5.945   8.676   0.043  1.00  0.00     0.031 A 
BRANCH  54  68
ATOM     68  C   UNL     1       2.403  10.703   4.577  1.00  0.00    -0.014 A 
ATOM     69  C   UNL     1       2.858   9.648   5.396  1.00  0.00     0.010 A 
ATOM     70  C   UNL     1       1.653  11.708   5.219  1.00  0.00     0.010 A 
ATOM     71  C   UNL     1       2.587   9.596   6.771  1.00  0.00     0.020 A 
ATOM     72  C   UNL     1       1.393  11.681   6.599  1.00  0.00     0.020 A 
ATOM     73  C   UNL     1       1.857  10.620   7.368  1.00  0.00     0.054 A 
BRANCH  73  74
ATOM     74  S   UNL     1       1.519  10.539   9.145  1.00  0.00     0.124 S 
ATOM     75  O   UNL     1       0.697   9.337   9.253  1.00  0.00    -0.237 OA
ATOM     76  O   UNL     1       2.858  10.441   9.719  1.00  0.00    -0.237 OA
ATOM     77  O   UNL     1       0.818  11.792   9.423  1.00  0.00    -0.744 OA
ENDBRANCH  73  74
ENDBRANCH  54  68
BRANCH  55  78
ATOM     78  C   UNL     1       3.074   9.695  -5.199  1.00  0.00    -0.014 A 
ATOM     79  C   UNL     1       2.186   9.154  -6.163  1.00  0.00     0.010 A 
ATOM     80  C   UNL     1       3.195  11.097  -5.116  1.00  0.00     0.010 A 
ATOM     81  C   UNL     1       1.267   9.977  -6.829  1.00  0.00     0.020 A 
ATOM     82  C   UNL     1       2.277  11.922  -5.791  1.00  0.00     0.020 A 
ATOM     83  C   UNL     1       1.271  11.349  -6.575  1.00  0.00     0.054 A 
BRANCH  83  84
ATOM     84  S   UNL     1      -0.179  12.326  -7.093  1.00  0.00     0.124 S 
ATOM     85  O   UNL     1      -0.152  12.184  -8.545  1.00  0.00    -0.237 OA
ATOM     86  O   UNL     1      -1.281  11.637  -6.422  1.00  0.00    -0.237 OA
ATOM     87  O   UNL     1       0.104  13.665  -6.584  1.00  0.00    -0.744 OA
ENDBRANCH  83  84
ENDBRANCH  55  78
BRANCH  67  88
ATOM     88  C   UNL     1       7.305   8.780   0.685  1.00  0.00    -0.014 A 
ATOM     89  C   UNL     1       8.486   9.022  -0.029  1.00  0.00     0.010 A 
ATOM     90  C   UNL     1       7.399   8.794   2.100  1.00  0.00     0.010 A 
ATOM     91  C   UNL     1       9.709   9.197   0.629  1.00  0.00     0.020 A 
ATOM     92  C   UNL     1       8.600   9.031   2.768  1.00  0.00     0.020 A 
ATOM     93  C   UNL     1       9.758   9.196   2.022  1.00  0.00     0.054 A 
BRANCH  93  94
ATOM     94  S   UNL     1      11.346   9.445   2.844  1.00  0.00     0.124 S 
ATOM     95  O   UNL     1      11.963   8.129   2.698  1.00  0.00    -0.237 OA
ATOM     96  O   UNL     1      11.954  10.512   2.052  1.00  0.00    -0.237 OA
ATOM     97  O   UNL     1      10.980   9.819   4.207  1.00  0.00    -0.744 OA
ENDBRANCH  93  94
ENDBRANCH  67  88
ENDBRANCH  41  42
ENDBRANCH  34  36
ENDBRANCH  33  34
ENDBRANCH  32  33
ENDBRANCH  31  32
ENDBRANCH   1  31
TORSDOF 20
