REMARK SMILES CC(C)[C@H](CNc1ncnc2c1CCCCC2)C(=O)OCCOCCOC(=O)c1ccc(-c2c3nc(c(-c4ccc(S(=O)(=O)[O-])cc4)c4ccc([nH]4)c(-c4ccc(S(=O)(=O)[O-])cc4)c4nc(c(-c5ccc(S(=O)(=O)[O-])cc5)c5ccc2[nH]5)C=C4)C=C3)cc1
REMARK SMILES IDX 21 1 20 2 18 3 19 4 4 5 2 6 1 7 3 8 5 9 6 10 7 12 8 13 12 14
REMARK SMILES IDX 9 15 11 16 10 17 13 18 14 19 15 20 16 21 17 23 22 25 23 26
REMARK SMILES IDX 24 27 25 28 26 29 27 30 28 31 29 32 30 33 88 34 31 35 87 36
REMARK SMILES IDX 32 37 33 38 34 39 81 40 35 41 86 42 80 43 82 44 36 45 85 46
REMARK SMILES IDX 79 47 78 48 37 50 67 51 48 52 66 53 49 54 52 55 65 56 83 57
REMARK SMILES IDX 50 58 51 59 64 61 84 62 53 63 38 64 39 65 47 66 40 67 46 68
REMARK SMILES IDX 41 69 42 70 43 71 44 72 45 73 68 74 69 75 77 76 70 77 76 78
REMARK SMILES IDX 71 79 72 80 73 81 74 82 75 83 54 84 55 85 63 86 56 87 62 88
REMARK SMILES IDX 57 89 58 90 59 91 60 92 61 93
REMARK H PARENT 6 11 82 49 52 60
REMARK Flexibility Score: 80.00
ROOT
ATOM      1  C   UNL     1      -2.545  -4.582   0.525  1.00  0.00     0.261 C 
ENDROOT
BRANCH   1   2
ATOM      2  O   UNL     1      -1.742  -3.494   0.029  1.00  0.00    -0.463 OA
BRANCH   2   3
ATOM      3  C   UNL     1      -2.097  -2.236   0.403  1.00  0.00     0.311 C 
ATOM      4  O   UNL     1      -3.047  -1.963   1.126  1.00  0.00    -0.252 OA
BRANCH   3   5
ATOM      5  C   UNL     1      -1.183  -1.174  -0.204  1.00  0.00     0.121 C 
BRANCH   5   6
ATOM      6  C   UNL     1      -1.716  -0.735  -1.590  1.00  0.00    -0.001 C 
ATOM      7  C   UNL     1      -1.706  -1.850  -2.636  1.00  0.00     0.008 C 
ATOM      8  C   UNL     1      -3.122  -0.127  -1.486  1.00  0.00     0.008 C 
ENDBRANCH   5   6
BRANCH   5   9
ATOM      9  C   UNL     1       0.298  -1.617  -0.117  1.00  0.00     0.130 C 
BRANCH   9  10
ATOM     10  N   UNL     1       1.201  -0.894  -1.004  1.00  0.00    -0.369 N 
ATOM     11  H   UNL     1       1.304  -1.229  -1.924  1.00  0.00     0.162 HD
BRANCH  10  12
ATOM     12  C   UNL     1       1.917   0.222  -0.645  1.00  0.00     0.132 A 
ATOM     13  N   UNL     1       1.614   1.287  -1.407  1.00  0.00    -0.219 NA
ATOM     14  C   UNL     1       2.924   0.257   0.317  1.00  0.00     0.016 A 
ATOM     15  C   UNL     1       2.304   2.409  -1.188  1.00  0.00     0.224 A 
ATOM     16  C   UNL     1       3.595   1.476   0.438  1.00  0.00     0.049 A 
ATOM     17  N   UNL     1       3.280   2.566  -0.294  1.00  0.00    -0.241 NA
BRANCH  14  18
ATOM     18  C   UNL     1       3.388  -0.947   1.092  1.00  0.00     0.041 C 
BRANCH  18  19
ATOM     19  C   UNL     1       4.779  -1.434   0.679  1.00  0.00     0.005 C 
BRANCH  19  20
ATOM     20  C   UNL     1       5.933  -0.639   1.289  1.00  0.00     0.001 C 
BRANCH  20  21
ATOM     21  C   UNL     1       5.995   0.827   0.868  1.00  0.00     0.006 CG0
ATOM     22  G   UNL     1       4.793   1.646   1.339  1.00  0.00     0.000 G0
ENDBRANCH  20  21
ENDBRANCH  19  20
ENDBRANCH  18  19
ENDBRANCH  14  18
BRANCH  16  23
ATOM     23  C   UNL     1       4.793   1.646   1.339  1.00  0.00     0.057 CG0
ATOM     24  G   UNL     1       5.995   0.827   0.868  1.00  0.00     0.000 G0
ENDBRANCH  16  23
ENDBRANCH  10  12
ENDBRANCH   9  10
ENDBRANCH   5   9
ENDBRANCH   3   5
ENDBRANCH   2   3
ENDBRANCH   1   2
BRANCH   1  25
ATOM     25  C   UNL     1      -1.789  -5.415   1.565  1.00  0.00     0.202 C 
BRANCH  25  26
ATOM     26  O   UNL     1      -1.614  -4.804   2.844  1.00  0.00    -0.374 OA
BRANCH  26  27
ATOM     27  C   UNL     1      -0.598  -3.813   2.963  1.00  0.00     0.202 C 
BRANCH  27  28
ATOM     28  C   UNL     1       0.838  -4.323   3.124  1.00  0.00     0.261 C 
BRANCH  28  29
ATOM     29  O   UNL     1       1.305  -5.029   1.961  1.00  0.00    -0.460 OA
BRANCH  29  30
ATOM     30  C   UNL     1       1.434  -6.366   2.134  1.00  0.00     0.338 C 
ATOM     31  O   UNL     1       1.241  -6.994   3.168  1.00  0.00    -0.246 OA
BRANCH  30  32
ATOM     32  C   UNL     1       1.705  -7.040   0.852  1.00  0.00     0.060 A 
ATOM     33  C   UNL     1       0.916  -8.153   0.531  1.00  0.00     0.016 A 
ATOM     34  C   UNL     1       2.773  -6.668   0.032  1.00  0.00     0.016 A 
ATOM     35  C   UNL     1       1.229  -8.935  -0.579  1.00  0.00     0.010 A 
ATOM     36  C   UNL     1       3.093  -7.463  -1.075  1.00  0.00     0.010 A 
ATOM     37  C   UNL     1       2.347  -8.620  -1.362  1.00  0.00    -0.014 A 
BRANCH  37  38
ATOM     38  C   UNL     1       2.821  -9.582  -2.386  1.00  0.00     0.031 A 
ATOM     39  C   UNL     1       3.930 -10.537  -2.032  1.00  0.00     0.074 A 
ATOM     40  C   UNL     1       2.251  -9.629  -3.603  1.00  0.00     0.049 A 
ATOM     41  N   UNL     1       4.540 -11.412  -2.788  1.00  0.00    -0.248 NA
ATOM     42  C   UNL     1       4.412 -10.503  -0.641  1.00  0.00     0.031 C 
ATOM     43  C   UNL     1       1.124  -8.806  -4.041  1.00  0.00     0.029 A 
ATOM     44  N   UNL     1       2.547 -10.405  -4.695  1.00  0.00    -0.354 N 
ATOM     45  C   UNL     1       5.478 -12.031  -1.970  1.00  0.00     0.074 A 
ATOM     46  C   UNL     1       5.371 -11.418  -0.663  1.00  0.00     0.031 C 
ATOM     47  C   UNL     1       0.830  -9.115  -5.316  1.00  0.00     0.029 A 
ATOM     48  C   UNL     1       1.770 -10.128  -5.794  1.00  0.00     0.049 A 
ATOM     49  H   UNL     1       3.250 -11.094  -4.692  1.00  0.00     0.167 HD
ATOM     50  C   UNL     1       6.348 -13.022  -2.278  1.00  0.00     0.031 A 
ATOM     51  C   UNL     1       1.825 -10.618  -7.048  1.00  0.00     0.031 A 
ATOM     52  C   UNL     1       6.464 -13.618  -3.582  1.00  0.00     0.049 A 
ATOM     53  C   UNL     1       2.859 -11.658  -7.390  1.00  0.00     0.074 A 
ATOM     54  C   UNL     1       7.332 -14.613  -3.999  1.00  0.00     0.029 A 
ATOM     55  N   UNL     1       5.689 -13.278  -4.680  1.00  0.00    -0.354 N 
ATOM     56  N   UNL     1       3.761 -12.210  -6.613  1.00  0.00    -0.248 NA
ATOM     57  C   UNL     1       2.878 -12.145  -8.777  1.00  0.00     0.031 C 
ATOM     58  C   UNL     1       7.111 -14.844  -5.361  1.00  0.00     0.029 A 
ATOM     59  C   UNL     1       6.066 -14.034  -5.777  1.00  0.00     0.049 A 
ATOM     60  H   UNL     1       4.975 -12.600  -4.679  1.00  0.00     0.167 HD
ATOM     61  C   UNL     1       4.435 -13.130  -7.409  1.00  0.00     0.074 A 
ATOM     62  C   UNL     1       3.831 -13.066  -8.725  1.00  0.00     0.031 C 
ATOM     63  C   UNL     1       5.457 -13.958  -7.080  1.00  0.00     0.031 A 
BRANCH  50  64
ATOM     64  C   UNL     1       7.268 -13.509  -1.192  1.00  0.00    -0.014 A 
ATOM     65  C   UNL     1       6.795 -14.333  -0.156  1.00  0.00     0.010 A 
ATOM     66  C   UNL     1       8.639 -13.195  -1.248  1.00  0.00     0.010 A 
ATOM     67  C   UNL     1       7.674 -14.821   0.815  1.00  0.00     0.020 A 
ATOM     68  C   UNL     1       9.524 -13.699  -0.291  1.00  0.00     0.020 A 
ATOM     69  C   UNL     1       9.034 -14.504   0.740  1.00  0.00     0.054 A 
BRANCH  69  70
ATOM     70  S   UNL     1      10.159 -15.194   1.984  1.00  0.00     0.124 S 
ATOM     71  O   UNL     1       9.789 -14.438   3.178  1.00  0.00    -0.237 OA
ATOM     72  O   UNL     1       9.792 -16.608   1.997  1.00  0.00    -0.237 OA
ATOM     73  O   UNL     1      11.488 -14.902   1.451  1.00  0.00    -0.744 OA
ENDBRANCH  69  70
ENDBRANCH  50  64
BRANCH  51  74
ATOM     74  C   UNL     1       0.883 -10.113  -8.084  1.00  0.00    -0.014 A 
ATOM     75  C   UNL     1      -0.146 -10.932  -8.578  1.00  0.00     0.010 A 
ATOM     76  C   UNL     1       1.011  -8.801  -8.576  1.00  0.00     0.010 A 
ATOM     77  C   UNL     1      -1.026 -10.452  -9.553  1.00  0.00     0.020 A 
ATOM     78  C   UNL     1       0.118  -8.309  -9.532  1.00  0.00     0.020 A 
ATOM     79  C   UNL     1      -0.890  -9.141 -10.021  1.00  0.00     0.054 A 
BRANCH  79  80
ATOM     80  S   UNL     1      -2.080  -8.520 -11.241  1.00  0.00     0.124 S 
ATOM     81  O   UNL     1      -1.661  -9.211 -12.455  1.00  0.00    -0.237 OA
ATOM     82  O   UNL     1      -3.359  -8.945 -10.678  1.00  0.00    -0.237 OA
ATOM     83  O   UNL     1      -1.855  -7.076 -11.232  1.00  0.00    -0.744 OA
ENDBRANCH  79  80
ENDBRANCH  51  74
BRANCH  63  84
ATOM     84  C   UNL     1       5.960 -14.896  -8.144  1.00  0.00    -0.014 A 
ATOM     85  C   UNL     1       6.734 -14.431  -9.223  1.00  0.00     0.010 A 
ATOM     86  C   UNL     1       5.690 -16.272  -8.036  1.00  0.00     0.010 A 
ATOM     87  C   UNL     1       7.194 -15.323 -10.195  1.00  0.00     0.020 A 
ATOM     88  C   UNL     1       6.170 -17.170  -8.992  1.00  0.00     0.020 A 
ATOM     89  C   UNL     1       6.905 -16.687 -10.076  1.00  0.00     0.054 A 
BRANCH  89  90
ATOM     90  S   UNL     1       7.533 -17.828 -11.339  1.00  0.00     0.124 S 
ATOM     91  O   UNL     1       6.654 -17.541 -12.469  1.00  0.00    -0.237 OA
ATOM     92  O   UNL     1       8.921 -17.400 -11.498  1.00  0.00    -0.237 OA
ATOM     93  O   UNL     1       7.359 -19.146 -10.733  1.00  0.00    -0.744 OA
ENDBRANCH  89  90
ENDBRANCH  63  84
ENDBRANCH  37  38
ENDBRANCH  30  32
ENDBRANCH  29  30
ENDBRANCH  28  29
ENDBRANCH  27  28
ENDBRANCH  26  27
ENDBRANCH  25  26
ENDBRANCH   1  25
TORSDOF 21
