REMARK SMILES Cc1c(Cl)cccc1NC(=O)C[C@H](C(=O)OCCOCCOC(=O)c1ccc(-c2c3nc(c(-c4ccc(S(=O)(=O)[O-])cc4)c4ccc([nH]4)c(-c4ccc(S(=O)(=O)[O-])cc4)c4nc(c(-c5ccc(S(=O)(=O)[O-])cc5)c5ccc2[nH]5)C=C4)C=C3)cc1)[C@H](C)c1ccccc1
REMARK SMILES IDX 19 1 18 2 17 3 16 4 14 5 15 6 13 7 12 8 10 9 9 10 11 12 8 13
REMARK SMILES IDX 1 14 2 15 3 16 4 17 5 18 7 19 6 20 85 21 86 22 87 23 88 24
REMARK SMILES IDX 92 25 89 26 91 27 90 28 20 29 21 30 22 31 23 32 24 33 25 34
REMARK SMILES IDX 26 35 84 36 27 37 83 38 28 39 29 40 30 41 77 42 31 43 82 44
REMARK SMILES IDX 76 45 78 46 32 47 81 48 75 49 74 50 33 52 63 53 44 54 62 55
REMARK SMILES IDX 45 56 48 57 61 58 79 59 46 60 47 61 60 63 80 64 49 65 34 66
REMARK SMILES IDX 35 67 43 68 36 69 42 70 37 71 38 72 39 73 40 74 41 75 64 76
REMARK SMILES IDX 65 77 73 78 66 79 72 80 67 81 68 82 69 83 70 84 71 85 50 86
REMARK SMILES IDX 51 87 59 88 52 89 58 90 53 91 54 92 55 93 56 94 57 95
REMARK H PARENT 9 11 78 51 48 62
REMARK Flexibility Score: inf
ROOT
ATOM      1  O   UNL     1      -9.661  -0.551   1.772  1.00  0.00    -0.374 OA
ENDROOT
BRANCH   1   2
ATOM      2  C   UNL     1      -8.544  -1.327   2.213  1.00  0.00     0.202 C 
BRANCH   2   3
ATOM      3  C   UNL     1      -7.910  -2.246   1.156  1.00  0.00     0.261 C 
BRANCH   3   4
ATOM      4  O   UNL     1      -6.971  -1.529   0.315  1.00  0.00    -0.463 OA
BRANCH   4   5
ATOM      5  C   UNL     1      -7.232  -1.456  -1.021  1.00  0.00     0.310 C 
ATOM      6  O   UNL     1      -8.226  -1.930  -1.556  1.00  0.00    -0.252 OA
BRANCH   5   7
ATOM      7  C   UNL     1      -6.173  -0.634  -1.777  1.00  0.00     0.116 C 
BRANCH   7   8
ATOM      8  C   UNL     1      -6.337   0.836  -1.344  1.00  0.00     0.116 C 
BRANCH   8   9
ATOM      9  C   UNL     1      -5.231   1.858  -1.360  1.00  0.00     0.225 C 
ATOM     10  N   UNL     1      -4.385   2.088  -0.315  1.00  0.00    -0.326 N 
ATOM     11  H   UNL     1      -3.904   2.945  -0.377  1.00  0.00     0.169 HD
ATOM     12  O   UNL     1      -5.086   2.566  -2.365  1.00  0.00    -0.275 OA
BRANCH  10  13
ATOM     13  C   UNL     1      -4.064   1.339   0.839  1.00  0.00     0.045 A 
ATOM     14  C   UNL     1      -1.599   2.031   0.563  1.00  0.00     0.048 C 
ATOM     15  C   UNL     1      -2.711   1.282   1.260  1.00  0.00    -0.009 A 
ATOM     16  C   UNL     1      -2.357   0.361   2.273  1.00  0.00     0.046 A 
ATOM     17  Cl  UNL     1      -0.723   0.178   2.811  1.00  0.00    -0.084 Cl
ATOM     18  C   UNL     1      -3.301  -0.490   2.842  1.00  0.00     0.021 A 
ATOM     19  C   UNL     1      -5.000   0.536   1.489  1.00  0.00     0.026 A 
ATOM     20  C   UNL     1      -4.625  -0.396   2.456  1.00  0.00     0.004 A 
ENDBRANCH  10  13
ENDBRANCH   8   9
ENDBRANCH   7   8
BRANCH   7  21
ATOM     21  C   UNL     1      -4.844  -1.442  -1.781  1.00  0.00     0.031 C 
ATOM     22  C   UNL     1      -3.502  -0.723  -1.687  1.00  0.00     0.013 C 
BRANCH  21  23
ATOM     23  C   UNL     1      -4.777  -2.312  -3.041  1.00  0.00    -0.044 A 
ATOM     24  C   UNL     1      -5.086  -3.675  -2.974  1.00  0.00     0.004 A 
ATOM     25  C   UNL     1      -4.356  -1.771  -4.271  1.00  0.00     0.004 A 
ATOM     26  C   UNL     1      -4.917  -4.489  -4.095  1.00  0.00     0.000 A 
ATOM     27  C   UNL     1      -4.168  -2.590  -5.381  1.00  0.00     0.000 A 
ATOM     28  C   UNL     1      -4.439  -3.951  -5.290  1.00  0.00     0.000 A 
ENDBRANCH  21  23
ENDBRANCH   7  21
ENDBRANCH   5   7
ENDBRANCH   4   5
ENDBRANCH   3   4
ENDBRANCH   2   3
ENDBRANCH   1   2
BRANCH   1  29
ATOM     29  C   UNL     1      -9.365   0.567   0.944  1.00  0.00     0.202 C 
BRANCH  29  30
ATOM     30  C   UNL     1      -9.015   1.875   1.673  1.00  0.00     0.261 C 
BRANCH  30  31
ATOM     31  O   UNL     1      -7.875   1.750   2.544  1.00  0.00    -0.460 OA
BRANCH  31  32
ATOM     32  C   UNL     1      -8.181   1.619   3.858  1.00  0.00     0.338 C 
ATOM     33  O   UNL     1      -9.299   1.653   4.352  1.00  0.00    -0.246 OA
BRANCH  32  34
ATOM     34  C   UNL     1      -6.986   1.246   4.646  1.00  0.00     0.060 A 
ATOM     35  C   UNL     1      -7.120   0.170   5.531  1.00  0.00     0.016 A 
ATOM     36  C   UNL     1      -5.781   1.952   4.582  1.00  0.00     0.016 A 
ATOM     37  C   UNL     1      -6.079  -0.166   6.396  1.00  0.00     0.010 A 
ATOM     38  C   UNL     1      -4.728   1.601   5.443  1.00  0.00     0.010 A 
ATOM     39  C   UNL     1      -4.887   0.570   6.389  1.00  0.00    -0.014 A 
BRANCH  39  40
ATOM     40  C   UNL     1      -3.895   0.362   7.481  1.00  0.00     0.031 A 
ATOM     41  C   UNL     1      -3.776   1.401   8.570  1.00  0.00     0.074 A 
ATOM     42  C   UNL     1      -3.156  -0.762   7.559  1.00  0.00     0.049 A 
ATOM     43  N   UNL     1      -3.006   1.411   9.628  1.00  0.00    -0.248 NA
ATOM     44  C   UNL     1      -4.646   2.583   8.452  1.00  0.00     0.031 C 
ATOM     45  C   UNL     1      -3.209  -1.877   6.614  1.00  0.00     0.029 A 
ATOM     46  N   UNL     1      -2.220  -1.156   8.485  1.00  0.00    -0.354 N 
ATOM     47  C   UNL     1      -3.291   2.598  10.295  1.00  0.00     0.074 A 
ATOM     48  C   UNL     1      -4.274   3.301   9.501  1.00  0.00     0.031 C 
ATOM     49  C   UNL     1      -2.340  -2.825   7.005  1.00  0.00     0.029 A 
ATOM     50  C   UNL     1      -1.650  -2.378   8.214  1.00  0.00     0.049 A 
ATOM     51  H   UNL     1      -1.979  -0.613   9.270  1.00  0.00     0.167 HD
ATOM     52  C   UNL     1      -2.793   3.060  11.468  1.00  0.00     0.031 A 
ATOM     53  C   UNL     1      -0.679  -3.059   8.857  1.00  0.00     0.031 A 
ATOM     54  C   UNL     1      -1.811   2.368  12.260  1.00  0.00     0.049 A 
ATOM     55  C   UNL     1      -0.078  -2.487  10.116  1.00  0.00     0.074 A 
ATOM     56  C   UNL     1      -1.262   2.749  13.472  1.00  0.00     0.029 A 
ATOM     57  N   UNL     1      -1.222   1.160  11.918  1.00  0.00    -0.354 N 
ATOM     58  N   UNL     1      -0.384  -1.379  10.747  1.00  0.00    -0.248 NA
ATOM     59  C   UNL     1       0.990  -3.268  10.758  1.00  0.00     0.031 C 
ATOM     60  C   UNL     1      -0.291   1.808  13.829  1.00  0.00     0.029 A 
ATOM     61  C   UNL     1      -0.289   0.801  12.878  1.00  0.00     0.049 A 
ATOM     62  H   UNL     1      -1.435   0.636  11.113  1.00  0.00     0.167 HD
ATOM     63  C   UNL     1       0.433  -1.344  11.873  1.00  0.00     0.074 A 
ATOM     64  C   UNL     1       1.234  -2.551  11.846  1.00  0.00     0.031 C 
ATOM     65  C   UNL     1       0.509  -0.400  12.844  1.00  0.00     0.031 A 
BRANCH  52  66
ATOM     66  C   UNL     1      -3.279   4.404  11.948  1.00  0.00    -0.014 A 
ATOM     67  C   UNL     1      -4.598   4.591  12.401  1.00  0.00     0.010 A 
ATOM     68  C   UNL     1      -2.387   5.492  11.979  1.00  0.00     0.010 A 
ATOM     69  C   UNL     1      -5.027   5.849  12.832  1.00  0.00     0.020 A 
ATOM     70  C   UNL     1      -2.803   6.744  12.440  1.00  0.00     0.020 A 
ATOM     71  C   UNL     1      -4.127   6.919  12.845  1.00  0.00     0.054 A 
BRANCH  71  72
ATOM     72  S   UNL     1      -4.708   8.537  13.422  1.00  0.00     0.124 S 
ATOM     73  O   UNL     1      -5.590   8.946  12.332  1.00  0.00    -0.237 OA
ATOM     74  O   UNL     1      -5.374   8.208  14.679  1.00  0.00    -0.237 OA
ATOM     75  O   UNL     1      -3.482   9.320  13.556  1.00  0.00    -0.744 OA
ENDBRANCH  71  72
ENDBRANCH  52  66
BRANCH  53  76
ATOM     76  C   UNL     1      -0.199  -4.361   8.313  1.00  0.00    -0.014 A 
ATOM     77  C   UNL     1      -0.440  -5.565   8.999  1.00  0.00     0.010 A 
ATOM     78  C   UNL     1       0.509  -4.401   7.096  1.00  0.00     0.010 A 
ATOM     79  C   UNL     1       0.027  -6.780   8.486  1.00  0.00     0.020 A 
ATOM     80  C   UNL     1       0.950  -5.616   6.565  1.00  0.00     0.020 A 
ATOM     81  C   UNL     1       0.713  -6.798   7.268  1.00  0.00     0.054 A 
BRANCH  81  82
ATOM     82  S   UNL     1       1.252  -8.393   6.591  1.00  0.00     0.124 S 
ATOM     83  O   UNL     1       2.337  -8.758   7.497  1.00  0.00    -0.237 OA
ATOM     84  O   UNL     1       0.040  -9.201   6.695  1.00  0.00    -0.237 OA
ATOM     85  O   UNL     1       1.658  -8.065   5.226  1.00  0.00    -0.744 OA
ENDBRANCH  81  82
ENDBRANCH  53  76
BRANCH  65  86
ATOM     86  C   UNL     1       1.467  -0.640  13.984  1.00  0.00    -0.014 A 
ATOM     87  C   UNL     1       2.860  -0.579  13.800  1.00  0.00     0.010 A 
ATOM     88  C   UNL     1       0.961  -0.873  15.277  1.00  0.00     0.010 A 
ATOM     89  C   UNL     1       3.727  -0.779  14.878  1.00  0.00     0.020 A 
ATOM     90  C   UNL     1       1.823  -1.042  16.364  1.00  0.00     0.020 A 
ATOM     91  C   UNL     1       3.203  -1.008  16.154  1.00  0.00     0.054 A 
BRANCH  91  92
ATOM     92  S   UNL     1       4.350  -1.223  17.544  1.00  0.00     0.124 S 
ATOM     93  O   UNL     1       4.918  -2.540  17.269  1.00  0.00    -0.237 OA
ATOM     94  O   UNL     1       5.266  -0.097  17.379  1.00  0.00    -0.237 OA
ATOM     95  O   UNL     1       3.487  -1.151  18.721  1.00  0.00    -0.744 OA
ENDBRANCH  91  92
ENDBRANCH  65  86
ENDBRANCH  39  40
ENDBRANCH  32  34
ENDBRANCH  31  32
ENDBRANCH  30  31
ENDBRANCH  29  30
ENDBRANCH   1  29
TORSDOF 22
