REMARK SMILES C[C@@H]1[C@@H](C(=O)OCCOCCOC(=O)c2ccc(-c3c4nc(c(-c5ccc(S(=O)(=O)[O-])cc5)c5ccc([nH]5)c(-c5ccc(S(=O)(=O)[O-])cc5)c5nc(c(-c6ccc(S(=O)(=O)[O-])cc6)c6ccc3[nH]6)C=C5)C=C4)cc2)CC[N@@H+]1CC(=O)N(C)C1CC1
REMARK SMILES IDX 8 1 7 2 6 3 4 4 5 5 3 6 1 7 2 8 77 9 75 10 76 11 78 13 79 14
REMARK SMILES IDX 80 15 81 16 82 17 83 18 84 19 85 20 9 21 10 22 11 23 12 24
REMARK SMILES IDX 13 25 14 26 15 27 16 28 74 29 17 30 73 31 18 32 19 33 20 34
REMARK SMILES IDX 67 35 21 36 72 37 66 38 68 39 22 40 71 41 65 42 64 43 23 45
REMARK SMILES IDX 53 46 34 47 52 48 35 49 38 50 51 51 69 52 36 53 37 54 50 56
REMARK SMILES IDX 70 57 39 58 24 59 25 60 33 61 26 62 32 63 27 64 28 65 29 66
REMARK SMILES IDX 30 67 31 68 54 69 55 70 63 71 56 72 62 73 57 74 58 75 59 76
REMARK SMILES IDX 60 77 61 78 40 79 41 80 49 81 42 82 48 83 43 84 44 85 45 86
REMARK SMILES IDX 46 87 47 88
REMARK H PARENT 77 12 68 44 38 55
REMARK Flexibility Score: inf
ROOT
ATOM      1  C   UNL     1      -1.530   2.459  -4.838  1.00  0.00     0.202 C 
ENDROOT
BRANCH   1   2
ATOM      2  C   UNL     1      -2.409   1.524  -3.999  1.00  0.00     0.261 C 
BRANCH   2   3
ATOM      3  O   UNL     1      -2.052   1.584  -2.611  1.00  0.00    -0.463 OA
BRANCH   3   4
ATOM      4  C   UNL     1      -1.704   0.391  -2.051  1.00  0.00     0.315 C 
ATOM      5  O   UNL     1      -1.904  -0.706  -2.554  1.00  0.00    -0.252 OA
BRANCH   4   6
ATOM      6  C   UNL     1      -0.952   0.626  -0.753  1.00  0.00     0.162 C 
ATOM      7  C   UNL     1       1.547   0.480  -0.397  1.00  0.00     0.076 C 
ATOM      8  C   UNL     1       0.270  -0.307  -0.682  1.00  0.00     0.195 C 
ATOM      9  N   UNL     1      -0.104  -1.346   0.275  1.00  0.00    -0.324 N 
ATOM     10  C   UNL     1      -1.795   0.272   0.456  1.00  0.00     0.083 C 
ATOM     11  C   UNL     1      -1.496  -1.198   0.680  1.00  0.00     0.264 C 
ATOM     12  H   UNL     1       0.011  -2.188  -0.288  1.00  0.00     0.348 HD
BRANCH   9  13
ATOM     13  C   UNL     1       0.834  -1.932   1.224  1.00  0.00     0.364 C 
BRANCH  13  14
ATOM     14  C   UNL     1       0.976  -1.126   2.527  1.00  0.00     0.277 C 
ATOM     15  O   UNL     1       0.022  -1.055   3.313  1.00  0.00    -0.268 OA
BRANCH  14  16
ATOM     16  N   UNL     1       2.169  -0.465   2.813  1.00  0.00    -0.338 N 
ATOM     17  C   UNL     1       3.451  -0.672   2.154  1.00  0.00     0.147 C 
BRANCH  16  18
ATOM     18  C   UNL     1       2.165   0.448   3.938  1.00  0.00     0.085 C 
ATOM     19  C   UNL     1       2.949   1.733   3.980  1.00  0.00     0.027 C 
ATOM     20  C   UNL     1       1.462   1.778   3.812  1.00  0.00     0.027 C 
ENDBRANCH  16  18
ENDBRANCH  14  16
ENDBRANCH  13  14
ENDBRANCH   9  13
ENDBRANCH   4   6
ENDBRANCH   3   4
ENDBRANCH   2   3
ENDBRANCH   1   2
BRANCH   1  21
ATOM     21  O   UNL     1      -0.117   2.287  -4.749  1.00  0.00    -0.374 OA
BRANCH  21  22
ATOM     22  C   UNL     1       0.535   2.692  -3.546  1.00  0.00     0.202 C 
BRANCH  22  23
ATOM     23  C   UNL     1       0.533   4.182  -3.178  1.00  0.00     0.261 C 
BRANCH  23  24
ATOM     24  O   UNL     1      -0.779   4.675  -2.851  1.00  0.00    -0.460 OA
BRANCH  24  25
ATOM     25  C   UNL     1      -1.225   5.674  -3.655  1.00  0.00     0.338 C 
ATOM     26  O   UNL     1      -0.623   6.212  -4.566  1.00  0.00    -0.246 OA
BRANCH  25  27
ATOM     27  C   UNL     1      -2.656   5.914  -3.403  1.00  0.00     0.060 A 
ATOM     28  C   UNL     1      -3.561   5.616  -4.431  1.00  0.00     0.016 A 
ATOM     29  C   UNL     1      -3.090   6.523  -2.225  1.00  0.00     0.016 A 
ATOM     30  C   UNL     1      -4.905   5.951  -4.294  1.00  0.00     0.010 A 
ATOM     31  C   UNL     1      -4.437   6.873  -2.097  1.00  0.00     0.010 A 
ATOM     32  C   UNL     1      -5.343   6.616  -3.142  1.00  0.00    -0.014 A 
BRANCH  32  33
ATOM     33  C   UNL     1      -6.716   7.171  -3.104  1.00  0.00     0.031 A 
ATOM     34  C   UNL     1      -6.921   8.627  -3.422  1.00  0.00     0.074 A 
ATOM     35  C   UNL     1      -7.767   6.380  -2.827  1.00  0.00     0.049 A 
ATOM     36  N   UNL     1      -8.027   9.324  -3.430  1.00  0.00    -0.248 NA
ATOM     37  C   UNL     1      -5.719   9.399  -3.780  1.00  0.00     0.031 C 
ATOM     38  C   UNL     1      -7.697   4.945  -2.554  1.00  0.00     0.029 A 
ATOM     39  N   UNL     1      -9.103   6.677  -2.729  1.00  0.00    -0.354 N 
ATOM     40  C   UNL     1      -7.657  10.616  -3.786  1.00  0.00     0.074 A 
ATOM     41  C   UNL     1      -6.221  10.613  -3.959  1.00  0.00     0.031 C 
ATOM     42  C   UNL     1      -8.937   4.487  -2.312  1.00  0.00     0.029 A 
ATOM     43  C   UNL     1      -9.882   5.600  -2.379  1.00  0.00     0.049 A 
ATOM     44  H   UNL     1      -9.469   7.576  -2.893  1.00  0.00     0.167 HD
ATOM     45  C   UNL     1      -8.443  11.706  -3.955  1.00  0.00     0.031 A 
ATOM     46  C   UNL     1     -11.202   5.526  -2.122  1.00  0.00     0.031 A 
ATOM     47  C   UNL     1      -9.869  11.707  -3.765  1.00  0.00     0.049 A 
ATOM     48  C   UNL     1     -12.045   6.769  -2.241  1.00  0.00     0.074 A 
ATOM     49  C   UNL     1     -10.757  12.756  -3.920  1.00  0.00     0.029 A 
ATOM     50  N   UNL     1     -10.615  10.606  -3.371  1.00  0.00    -0.354 N 
ATOM     51  N   UNL     1     -11.683   7.980  -2.596  1.00  0.00    -0.248 NA
ATOM     52  C   UNL     1     -13.475   6.634  -1.934  1.00  0.00     0.031 C 
ATOM     53  C   UNL     1     -12.033  12.304  -3.565  1.00  0.00     0.029 A 
ATOM     54  C   UNL     1     -11.949  10.957  -3.251  1.00  0.00     0.049 A 
ATOM     55  H   UNL     1     -10.250   9.707  -3.202  1.00  0.00     0.167 HD
ATOM     56  C   UNL     1     -12.846   8.743  -2.581  1.00  0.00     0.074 A 
ATOM     57  C   UNL     1     -13.924   7.855  -2.195  1.00  0.00     0.031 C 
ATOM     58  C   UNL     1     -13.009  10.060  -2.864  1.00  0.00     0.031 A 
BRANCH  45  59
ATOM     59  C   UNL     1      -7.768  12.998  -4.329  1.00  0.00    -0.014 A 
ATOM     60  C   UNL     1      -7.226  13.195  -5.612  1.00  0.00     0.010 A 
ATOM     61  C   UNL     1      -7.704  14.046  -3.392  1.00  0.00     0.010 A 
ATOM     62  C   UNL     1      -6.600  14.402  -5.938  1.00  0.00     0.020 A 
ATOM     63  C   UNL     1      -7.103  15.263  -3.723  1.00  0.00     0.020 A 
ATOM     64  C   UNL     1      -6.539  15.427  -4.990  1.00  0.00     0.054 A 
BRANCH  64  65
ATOM     65  S   UNL     1      -5.739  16.990  -5.446  1.00  0.00     0.124 S 
ATOM     66  O   UNL     1      -4.327  16.612  -5.460  1.00  0.00    -0.237 OA
ATOM     67  O   UNL     1      -6.323  17.280  -6.752  1.00  0.00    -0.237 OA
ATOM     68  O   UNL     1      -6.127  17.905  -4.375  1.00  0.00    -0.744 OA
ENDBRANCH  64  65
ENDBRANCH  45  59
BRANCH  46  69
ATOM     69  C   UNL     1     -11.807   4.232  -1.705  1.00  0.00    -0.014 A 
ATOM     70  C   UNL     1     -12.689   3.543  -2.555  1.00  0.00     0.010 A 
ATOM     71  C   UNL     1     -11.500   3.680  -0.447  1.00  0.00     0.010 A 
ATOM     72  C   UNL     1     -13.266   2.335  -2.149  1.00  0.00     0.020 A 
ATOM     73  C   UNL     1     -12.053   2.460  -0.049  1.00  0.00     0.020 A 
ATOM     74  C   UNL     1     -12.942   1.801  -0.898  1.00  0.00     0.054 A 
BRANCH  74  75
ATOM     75  S   UNL     1     -13.664   0.209  -0.413  1.00  0.00     0.124 S 
ATOM     76  O   UNL     1     -15.046   0.579  -0.122  1.00  0.00    -0.237 OA
ATOM     77  O   UNL     1     -13.465  -0.606  -1.609  1.00  0.00    -0.237 OA
ATOM     78  O   UNL     1     -12.865  -0.190   0.744  1.00  0.00    -0.744 OA
ENDBRANCH  74  75
ENDBRANCH  46  69
BRANCH  58  79
ATOM     79  C   UNL     1     -14.408  10.615  -2.805  1.00  0.00    -0.014 A 
ATOM     80  C   UNL     1     -15.063  10.819  -1.578  1.00  0.00     0.010 A 
ATOM     81  C   UNL     1     -15.054  10.991  -3.998  1.00  0.00     0.010 A 
ATOM     82  C   UNL     1     -16.351  11.360  -1.547  1.00  0.00     0.020 A 
ATOM     83  C   UNL     1     -16.330  11.559  -3.969  1.00  0.00     0.020 A 
ATOM     84  C   UNL     1     -16.977  11.726  -2.743  1.00  0.00     0.054 A 
BRANCH  84  85
ATOM     85  S   UNL     1     -18.632  12.466  -2.674  1.00  0.00     0.124 S 
ATOM     86  O   UNL     1     -19.468  11.310  -2.363  1.00  0.00    -0.237 OA
ATOM     87  O   UNL     1     -18.498  13.451  -1.603  1.00  0.00    -0.237 OA
ATOM     88  O   UNL     1     -18.817  13.028  -4.010  1.00  0.00    -0.744 OA
ENDBRANCH  84  85
ENDBRANCH  58  79
ENDBRANCH  32  33
ENDBRANCH  25  27
ENDBRANCH  24  25
ENDBRANCH  23  24
ENDBRANCH  22  23
ENDBRANCH  21  22
ENDBRANCH   1  21
TORSDOF 21
