REMARK SMILES O=C(OCCOCCOC(=O)c1ccc(-c2c3nc(c(-c4ccc(S(=O)(=O)[O-])cc4)c4ccc([nH]4)c(-c4ccc(S(=O)(=O)[O-])cc4)c4nc(c(-c5ccc(S(=O)(=O)[O-])cc5)c5ccc2[nH]5)C=C4)C=C3)cc1)C1=Cc2cc(Cl)cc(-c3ccc(Cl)cc3)c2O[C@@H]1C(F)(F)F
REMARK SMILES IDX 7 1 6 2 5 3 4 4 3 5 2 6 1 7 72 8 73 9 89 10 74 11 88 12
REMARK SMILES IDX 75 13 87 14 76 15 79 16 77 17 78 18 90 19 91 20 92 21 93 22
REMARK SMILES IDX 80 23 81 24 86 25 82 26 85 27 83 28 84 29 8 30 9 31 10 32
REMARK SMILES IDX 11 33 12 34 13 35 71 36 14 37 70 38 15 39 16 40 17 41 64 42
REMARK SMILES IDX 18 43 69 44 63 45 65 46 19 47 68 48 62 49 61 50 20 52 50 53
REMARK SMILES IDX 31 54 49 55 32 56 35 57 48 58 66 59 33 60 34 61 47 63 67 64
REMARK SMILES IDX 36 65 21 66 22 67 30 68 23 69 29 70 24 71 25 72 26 73 27 74
REMARK SMILES IDX 28 75 51 76 52 77 60 78 53 79 59 80 54 81 55 82 56 83 57 84
REMARK SMILES IDX 58 85 37 86 38 87 46 88 39 89 45 90 40 91 41 92 42 93 43 94
REMARK SMILES IDX 44 95
REMARK H PARENT 65 51 35 62
REMARK Flexibility Score: inf
ROOT
ATOM      1  C   UNL     1       2.662  -2.962  -1.184  1.00  0.00     0.202 C 
ENDROOT
BRANCH   1   2
ATOM      2  O   UNL     1       3.721  -2.050  -1.552  1.00  0.00    -0.374 OA
BRANCH   2   3
ATOM      3  C   UNL     1       4.297  -0.668  -0.954  1.00  0.00     0.202 C 
BRANCH   3   4
ATOM      4  C   UNL     1       3.391   0.829   0.340  1.00  0.00     0.261 C 
BRANCH   4   5
ATOM      5  O   UNL     1       2.481   2.030  -0.145  1.00  0.00    -0.460 OA
BRANCH   5   6
ATOM      6  C   UNL     1       2.674   2.372  -1.424  1.00  0.00     0.338 C 
ATOM      7  O   UNL     1       2.153   3.201  -2.123  1.00  0.00    -0.246 OA
BRANCH   6   8
ATOM      8  C   UNL     1       3.522   1.249  -1.708  1.00  0.00     0.087 C 
ATOM      9  C   UNL     1       4.874   1.535  -1.195  1.00  0.00     0.027 C 
ATOM     10  C   UNL     1       2.366  -0.165  -1.060  1.00  0.00     0.316 C 
ATOM     11  C   UNL     1       5.595   0.672   0.221  1.00  0.00     0.019 A 
ATOM     12  O   UNL     1       3.139  -1.091   0.470  1.00  0.00    -0.475 OA
ATOM     13  C   UNL     1       6.755   1.235   0.685  1.00  0.00     0.032 A 
ATOM     14  C   UNL     1       4.752  -0.560   1.150  1.00  0.00     0.135 A 
ATOM     15  C   UNL     1       7.150   0.792   1.938  1.00  0.00     0.042 A 
ATOM     16  C   UNL     1       5.303  -1.019   2.370  1.00  0.00     0.026 A 
ATOM     17  Cl  UNL     1       8.574   1.501   2.622  1.00  0.00    -0.084 Cl
ATOM     18  C   UNL     1       6.462  -0.216   2.709  1.00  0.00     0.033 A 
BRANCH  10  19
ATOM     19  C   UNL     1       1.807  -0.630  -2.479  1.00  0.00     0.430 C 
ATOM     20  F   UNL     1       0.806  -1.530  -2.417  1.00  0.00    -0.167 F 
ATOM     21  F   UNL     1       1.235   0.466  -3.072  1.00  0.00    -0.167 F 
ATOM     22  F   UNL     1       2.728  -1.035  -3.382  1.00  0.00    -0.167 F 
ENDBRANCH  10  19
BRANCH  16  23
ATOM     23  C   UNL     1       5.018  -2.171   3.461  1.00  0.00    -0.015 A 
ATOM     24  C   UNL     1       4.269  -1.350   4.896  1.00  0.00     0.010 A 
ATOM     25  C   UNL     1       5.363  -4.166   3.674  1.00  0.00     0.010 A 
ATOM     26  C   UNL     1       3.894  -2.299   6.346  1.00  0.00     0.021 A 
ATOM     27  C   UNL     1       4.882  -5.003   5.189  1.00  0.00     0.021 A 
ATOM     28  C   UNL     1       4.185  -4.045   6.473  1.00  0.00     0.041 A 
ATOM     29  Cl  UNL     1       3.714  -4.862   7.915  1.00  0.00    -0.084 Cl
ENDBRANCH  16  23
ENDBRANCH   6   8
ENDBRANCH   5   6
ENDBRANCH   4   5
ENDBRANCH   3   4
ENDBRANCH   2   3
ENDBRANCH   1   2
BRANCH   1  30
ATOM     30  C   UNL     1       3.007  -4.436  -0.986  1.00  0.00     0.261 C 
BRANCH  30  31
ATOM     31  O   UNL     1       3.684  -4.620   0.231  1.00  0.00    -0.460 OA
BRANCH  31  32
ATOM     32  C   UNL     1       4.904  -4.059   0.252  1.00  0.00     0.338 C 
ATOM     33  O   UNL     1       5.716  -3.955  -0.644  1.00  0.00    -0.246 OA
BRANCH  32  34
ATOM     34  C   UNL     1       5.035  -3.560   1.611  1.00  0.00     0.060 A 
ATOM     35  C   UNL     1       6.680  -3.213   2.180  1.00  0.00     0.016 A 
ATOM     36  C   UNL     1       3.608  -3.603   2.655  1.00  0.00     0.016 A 
ATOM     37  C   UNL     1       7.058  -2.913   3.872  1.00  0.00     0.010 A 
ATOM     38  C   UNL     1       3.858  -3.336   4.410  1.00  0.00     0.010 A 
ATOM     39  C   UNL     1       5.735  -2.962   5.100  1.00  0.00    -0.014 A 
BRANCH  39  40
ATOM     40  C   UNL     1       6.547  -2.849   6.523  1.00  0.00     0.031 A 
ATOM     41  C   UNL     1       7.197  -4.088   7.162  1.00  0.00     0.074 A 
ATOM     42  C   UNL     1       6.742  -1.698   7.210  1.00  0.00     0.049 A 
ATOM     43  N   UNL     1       7.461  -4.338   8.426  1.00  0.00    -0.248 NA
ATOM     44  C   UNL     1       7.563  -5.192   6.267  1.00  0.00     0.031 C 
ATOM     45  C   UNL     1       6.469  -0.346   6.743  1.00  0.00     0.029 A 
ATOM     46  N   UNL     1       7.140  -1.505   8.523  1.00  0.00    -0.354 N 
ATOM     47  C   UNL     1       7.880  -5.670   8.481  1.00  0.00     0.074 A 
ATOM     48  C   UNL     1       7.817  -6.170   7.125  1.00  0.00     0.031 C 
ATOM     49  C   UNL     1       6.538   0.510   7.773  1.00  0.00     0.029 A 
ATOM     50  C   UNL     1       6.899  -0.225   8.979  1.00  0.00     0.049 A 
ATOM     51  H   UNL     1       7.552  -2.209   9.074  1.00  0.00     0.167 HD
ATOM     52  C   UNL     1       8.301  -6.411   9.542  1.00  0.00     0.031 A 
ATOM     53  C   UNL     1       6.928   0.313  10.217  1.00  0.00     0.031 A 
ATOM     54  C   UNL     1       8.549  -5.879  10.861  1.00  0.00     0.049 A 
ATOM     55  C   UNL     1       7.388  -0.502  11.394  1.00  0.00     0.074 A 
ATOM     56  C   UNL     1       9.104  -6.524  11.957  1.00  0.00     0.029 A 
ATOM     57  N   UNL     1       8.316  -4.572  11.251  1.00  0.00    -0.354 N 
ATOM     58  N   UNL     1       7.713  -1.770  11.441  1.00  0.00    -0.248 NA
ATOM     59  C   UNL     1       7.536   0.205  12.676  1.00  0.00     0.031 C 
ATOM     60  C   UNL     1       9.172  -5.616  13.018  1.00  0.00     0.029 A 
ATOM     61  C   UNL     1       8.716  -4.390  12.566  1.00  0.00     0.049 A 
ATOM     62  H   UNL     1       7.923  -3.873  10.678  1.00  0.00     0.167 HD
ATOM     63  C   UNL     1       8.168  -1.993  12.738  1.00  0.00     0.074 A 
ATOM     64  C   UNL     1       8.069  -0.735  13.444  1.00  0.00     0.031 C 
ATOM     65  C   UNL     1       8.645  -3.141  13.279  1.00  0.00     0.031 A 
BRANCH  52  66
ATOM     66  C   UNL     1       8.546  -7.895   9.339  1.00  0.00    -0.014 A 
ATOM     67  C   UNL     1       9.574  -8.377   8.510  1.00  0.00     0.010 A 
ATOM     68  C   UNL     1       7.770  -8.829  10.057  1.00  0.00     0.010 A 
ATOM     69  C   UNL     1       9.773  -9.752   8.344  1.00  0.00     0.020 A 
ATOM     70  C   UNL     1       7.996 -10.205   9.933  1.00  0.00     0.020 A 
ATOM     71  C   UNL     1       8.980 -10.658   9.055  1.00  0.00     0.054 A 
BRANCH  71  72
ATOM     72  S   UNL     1       9.278 -12.434   8.832  1.00  0.00     0.124 S 
ATOM     73  O   UNL     1       8.735 -12.664   7.495  1.00  0.00    -0.237 OA
ATOM     74  O   UNL     1      10.732 -12.531   8.942  1.00  0.00    -0.237 OA
ATOM     75  O   UNL     1       8.530 -13.053   9.923  1.00  0.00    -0.744 OA
ENDBRANCH  71  72
ENDBRANCH  52  66
BRANCH  53  76
ATOM     76  C   UNL     1       6.535   1.738  10.410  1.00  0.00    -0.014 A 
ATOM     77  C   UNL     1       7.515   2.716  10.652  1.00  0.00     0.010 A 
ATOM     78  C   UNL     1       5.182   2.124  10.353  1.00  0.00     0.010 A 
ATOM     79  C   UNL     1       7.151   4.049  10.854  1.00  0.00     0.020 A 
ATOM     80  C   UNL     1       4.816   3.463  10.529  1.00  0.00     0.020 A 
ATOM     81  C   UNL     1       5.804   4.416  10.785  1.00  0.00     0.054 A 
BRANCH  81  82
ATOM     82  S   UNL     1       5.372   6.166  10.993  1.00  0.00     0.124 S 
ATOM     83  O   UNL     1       5.658   6.386  12.407  1.00  0.00    -0.237 OA
ATOM     84  O   UNL     1       6.277   6.823  10.053  1.00  0.00    -0.237 OA
ATOM     85  O   UNL     1       3.959   6.216  10.624  1.00  0.00    -0.744 OA
ENDBRANCH  81  82
ENDBRANCH  53  76
BRANCH  65  86
ATOM     86  C   UNL     1       9.177  -3.092  14.690  1.00  0.00    -0.014 A 
ATOM     87  C   UNL     1       8.326  -2.926  15.797  1.00  0.00     0.010 A 
ATOM     88  C   UNL     1      10.557  -3.268  14.913  1.00  0.00     0.010 A 
ATOM     89  C   UNL     1       8.848  -2.907  17.095  1.00  0.00     0.020 A 
ATOM     90  C   UNL     1      11.078  -3.280  16.211  1.00  0.00     0.020 A 
ATOM     91  C   UNL     1      10.220  -3.087  17.294  1.00  0.00     0.054 A 
BRANCH  91  92
ATOM     92  S   UNL     1      10.862  -3.107  18.992  1.00  0.00     0.124 S 
ATOM     93  O   UNL     1      10.729  -1.707  19.385  1.00  0.00    -0.237 OA
ATOM     94  O   UNL     1       9.958  -4.037  19.663  1.00  0.00    -0.237 OA
ATOM     95  O   UNL     1      12.235  -3.583  18.839  1.00  0.00    -0.744 OA
ENDBRANCH  91  92
ENDBRANCH  65  86
ENDBRANCH  39  40
ENDBRANCH  32  34
ENDBRANCH  31  32
ENDBRANCH  30  31
ENDBRANCH   1  30
TORSDOF 19
