REMARK SMILES N#Cc1cc2c(nc1N1CC[NH+]([C@H](C(=O)OCCOCCOC(=O)c3ccc(-c4c5nc(c(-c6ccc(S(=O)(=O)[O-])cc6)c6ccc([nH]6)c(-c6ccc(S(=O)(=O)[O-])cc6)c6nc(c(-c7ccc(S(=O)(=O)[O-])cc7)c7ccc4[nH]7)C=C6)C=C5)cc3)c3c[nH]c4cc(Cl)ccc34)CC1)CCCC2
REMARK SMILES IDX 19 1 18 2 17 3 16 4 14 5 15 6 13 7 12 8 9 9 10 10 96 11
REMARK SMILES IDX 11 12 95 13 8 15 3 16 4 17 5 18 7 19 6 20 100 21 97 22 99 23
REMARK SMILES IDX 98 24 2 25 1 26 85 27 86 28 94 29 87 30 88 31 93 32 89 34
REMARK SMILES IDX 92 35 90 36 91 37 20 38 21 39 22 40 23 41 24 42 25 43 26 44
REMARK SMILES IDX 84 45 27 46 83 47 28 48 29 49 30 50 77 51 31 52 82 53 76 54
REMARK SMILES IDX 78 55 32 56 81 57 75 58 74 59 33 61 63 62 44 63 62 64 45 65
REMARK SMILES IDX 48 66 61 67 79 68 46 69 47 70 60 72 80 73 49 74 34 75 35 76
REMARK SMILES IDX 43 77 36 78 42 79 37 80 38 81 39 82 40 83 41 84 64 85 65 86
REMARK SMILES IDX 73 87 66 88 72 89 67 90 68 91 69 92 70 93 71 94 50 95 51 96
REMARK SMILES IDX 59 97 52 98 58 99 53 100 54 101 55 102 56 103 57 104
REMARK H PARENT 12 14 87 33 78 60 48 71
REMARK Flexibility Score: inf
ROOT
ATOM      1  O   UNL     1       1.347  -1.520   1.133  1.00  0.00    -0.374 OA
ENDROOT
BRANCH   1   2
ATOM      2  C   UNL     1       0.377  -2.390   1.712  1.00  0.00     0.202 C 
BRANCH   2   3
ATOM      3  C   UNL     1       0.245  -3.814   1.124  1.00  0.00     0.261 C 
BRANCH   3   4
ATOM      4  O   UNL     1       1.456  -4.617   1.148  1.00  0.00    -0.459 OA
BRANCH   4   5
ATOM      5  C   UNL     1       1.821  -5.289   0.011  1.00  0.00     0.370 C 
ATOM      6  O   UNL     1       1.236  -5.112  -1.059  1.00  0.00    -0.245 OA
BRANCH   5   7
ATOM      7  C   UNL     1       3.073  -6.264   0.113  1.00  0.00     0.328 C 
BRANCH   7   8
ATOM      8  N   UNL     1       4.198  -5.698  -0.680  1.00  0.00    -0.316 N 
ATOM      9  N   UNL     1       6.909  -5.444  -1.585  1.00  0.00    -0.344 N 
ATOM     10  C   UNL     1       5.992  -6.104  -2.495  1.00  0.00     0.179 C 
ATOM     11  C   UNL     1       6.343  -4.311  -0.869  1.00  0.00     0.179 C 
ATOM     12  C   UNL     1       4.742  -6.599  -1.707  1.00  0.00     0.285 C 
ATOM     13  C   UNL     1       5.112  -4.757  -0.045  1.00  0.00     0.285 C 
ATOM     14  H   UNL     1       3.707  -4.993  -1.229  1.00  0.00     0.349 HD
BRANCH   9  15
ATOM     15  C   UNL     1       8.186  -5.871  -1.336  1.00  0.00     0.147 A 
ATOM     16  C   UNL     1       8.560  -6.456  -0.127  1.00  0.00     0.095 A 
ATOM     17  C   UNL     1       9.900  -6.655   0.191  1.00  0.00     0.029 A 
ATOM     18  C   UNL     1      10.858  -6.446  -0.774  1.00  0.00    -0.025 A 
ATOM     19  N   UNL     1       9.128  -5.642  -2.280  1.00  0.00    -0.234 NA
ATOM     20  C   UNL     1      10.431  -5.950  -2.006  1.00  0.00     0.046 A 
ATOM     21  C   UNL     1      12.279  -6.798  -0.453  1.00  0.00     0.037 C 
ATOM     22  C   UNL     1      11.414  -5.817  -3.140  1.00  0.00     0.056 C 
ATOM     23  C   UNL     1      13.122  -6.977  -1.705  1.00  0.00     0.005 C 
ATOM     24  C   UNL     1      12.870  -5.820  -2.666  1.00  0.00     0.007 C 
BRANCH  16  25
ATOM     25  C   UNL     1       7.672  -7.190   0.679  1.00  0.00     0.103 C 
ATOM     26  N   UNL     1       7.182  -8.045   1.306  1.00  0.00    -0.192 NA
ENDBRANCH  16  25
ENDBRANCH   9  15
ENDBRANCH   7   8
BRANCH   7  27
ATOM     27  C   UNL     1       3.392  -7.010   1.483  1.00  0.00     0.046 A 
ATOM     28  C   UNL     1       2.378  -7.057   2.442  1.00  0.00     0.094 A 
ATOM     29  C   UNL     1       4.466  -6.866   2.448  1.00  0.00     0.009 A 
ATOM     30  N   UNL     1       2.695  -5.790   2.990  1.00  0.00    -0.361 N 
ATOM     31  C   UNL     1       4.076  -5.717   3.118  1.00  0.00     0.047 A 
ATOM     32  C   UNL     1       5.335  -7.662   3.238  1.00  0.00     0.012 A 
ATOM     33  H   UNL     1       2.051  -5.087   3.236  1.00  0.00     0.166 HD
ATOM     34  C   UNL     1       4.928  -4.982   3.950  1.00  0.00     0.047 A 
ATOM     35  C   UNL     1       6.125  -7.049   4.239  1.00  0.00     0.021 A 
ATOM     36  C   UNL     1       5.978  -5.697   4.515  1.00  0.00     0.043 A 
ATOM     37  Cl  UNL     1       6.946  -4.933   5.717  1.00  0.00    -0.084 Cl
ENDBRANCH   7  27
ENDBRANCH   5   7
ENDBRANCH   4   5
ENDBRANCH   3   4
ENDBRANCH   2   3
ENDBRANCH   1   2
BRANCH   1  38
ATOM     38  C   UNL     1       2.685  -1.997   1.120  1.00  0.00     0.202 C 
BRANCH  38  39
ATOM     39  C   UNL     1       3.330  -2.253   2.491  1.00  0.00     0.261 C 
BRANCH  39  40
ATOM     40  O   UNL     1       2.528  -3.087   3.359  1.00  0.00    -0.460 OA
BRANCH  40  41
ATOM     41  C   UNL     1       2.543  -2.783   4.682  1.00  0.00     0.338 C 
ATOM     42  O   UNL     1       3.171  -1.888   5.215  1.00  0.00    -0.246 OA
BRANCH  41  43
ATOM     43  C   UNL     1       1.679  -3.722   5.435  1.00  0.00     0.060 A 
ATOM     44  C   UNL     1       0.405  -3.297   5.788  1.00  0.00     0.016 A 
ATOM     45  C   UNL     1       2.148  -4.966   5.887  1.00  0.00     0.016 A 
ATOM     46  C   UNL     1      -0.349  -4.069   6.672  1.00  0.00     0.010 A 
ATOM     47  C   UNL     1       1.348  -5.792   6.673  1.00  0.00     0.010 A 
ATOM     48  C   UNL     1       0.134  -5.301   7.150  1.00  0.00    -0.014 A 
BRANCH  48  49
ATOM     49  C   UNL     1      -0.559  -5.982   8.270  1.00  0.00     0.031 A 
ATOM     50  C   UNL     1       0.094  -6.023   9.632  1.00  0.00     0.074 A 
ATOM     51  C   UNL     1      -1.801  -6.465   8.085  1.00  0.00     0.049 A 
ATOM     52  N   UNL     1      -0.393  -6.463  10.764  1.00  0.00    -0.248 NA
ATOM     53  C   UNL     1       1.467  -5.495   9.745  1.00  0.00     0.031 C 
ATOM     54  C   UNL     1      -2.525  -6.460   6.812  1.00  0.00     0.029 A 
ATOM     55  N   UNL     1      -2.688  -7.013   8.973  1.00  0.00    -0.354 N 
ATOM     56  C   UNL     1       0.598  -6.246  11.716  1.00  0.00     0.074 A 
ATOM     57  C   UNL     1       1.740  -5.696  11.026  1.00  0.00     0.031 C 
ATOM     58  C   UNL     1      -3.769  -6.923   7.015  1.00  0.00     0.029 A 
ATOM     59  C   UNL     1      -3.912  -7.304   8.417  1.00  0.00     0.049 A 
ATOM     60  H   UNL     1      -2.471  -7.183   9.918  1.00  0.00     0.167 HD
ATOM     61  C   UNL     1       0.549  -6.455  13.052  1.00  0.00     0.031 A 
ATOM     62  C   UNL     1      -5.023  -7.816   8.979  1.00  0.00     0.031 A 
ATOM     63  C   UNL     1      -0.594  -7.001  13.733  1.00  0.00     0.049 A 
ATOM     64  C   UNL     1      -5.011  -8.126  10.452  1.00  0.00     0.074 A 
ATOM     65  C   UNL     1      -0.747  -7.258  15.083  1.00  0.00     0.029 A 
ATOM     66  N   UNL     1      -1.782  -7.364  13.118  1.00  0.00    -0.354 N 
ATOM     67  N   UNL     1      -4.070  -7.893  11.337  1.00  0.00    -0.248 NA
ATOM     68  C   UNL     1      -6.216  -8.759  11.004  1.00  0.00     0.031 C 
ATOM     69  C   UNL     1      -2.005  -7.833  15.277  1.00  0.00     0.029 A 
ATOM     70  C   UNL     1      -2.664  -7.866  14.058  1.00  0.00     0.049 A 
ATOM     71  H   UNL     1      -1.970  -7.278  12.155  1.00  0.00     0.167 HD
ATOM     72  C   UNL     1      -4.584  -8.323  12.555  1.00  0.00     0.074 A 
ATOM     73  C   UNL     1      -5.926  -8.802  12.297  1.00  0.00     0.031 C 
ATOM     74  C   UNL     1      -3.999  -8.328  13.779  1.00  0.00     0.031 A 
BRANCH  61  75
ATOM     75  C   UNL     1       1.748  -6.078  13.884  1.00  0.00    -0.014 A 
ATOM     76  C   UNL     1       2.056  -4.727  14.129  1.00  0.00     0.010 A 
ATOM     77  C   UNL     1       2.499  -7.078  14.530  1.00  0.00     0.010 A 
ATOM     78  C   UNL     1       3.088  -4.384  15.006  1.00  0.00     0.020 A 
ATOM     79  C   UNL     1       3.516  -6.738  15.428  1.00  0.00     0.020 A 
ATOM     80  C   UNL     1       3.803  -5.391  15.662  1.00  0.00     0.054 A 
BRANCH  80  81
ATOM     81  S   UNL     1       5.073  -4.909  16.863  1.00  0.00     0.124 S 
ATOM     82  O   UNL     1       6.066  -4.259  16.011  1.00  0.00    -0.237 OA
ATOM     83  O   UNL     1       4.339  -4.021  17.760  1.00  0.00    -0.237 OA
ATOM     84  O   UNL     1       5.496  -6.177  17.452  1.00  0.00    -0.744 OA
ENDBRANCH  80  81
ENDBRANCH  61  75
BRANCH  62  85
ATOM     85  C   UNL     1      -6.237  -8.074   8.154  1.00  0.00    -0.014 A 
ATOM     86  C   UNL     1      -7.438  -7.389   8.410  1.00  0.00     0.010 A 
ATOM     87  C   UNL     1      -6.206  -9.035   7.126  1.00  0.00     0.010 A 
ATOM     88  C   UNL     1      -8.594  -7.692   7.686  1.00  0.00     0.020 A 
ATOM     89  C   UNL     1      -7.349  -9.313   6.374  1.00  0.00     0.020 A 
ATOM     90  C   UNL     1      -8.542  -8.655   6.674  1.00  0.00     0.054 A 
BRANCH  90  91
ATOM     91  S   UNL     1     -10.058  -9.037   5.755  1.00  0.00     0.124 S 
ATOM     92  O   UNL     1     -10.874  -9.688   6.774  1.00  0.00    -0.237 OA
ATOM     93  O   UNL     1     -10.507  -7.714   5.330  1.00  0.00    -0.237 OA
ATOM     94  O   UNL     1      -9.594  -9.907   4.676  1.00  0.00    -0.744 OA
ENDBRANCH  90  91
ENDBRANCH  62  85
BRANCH  74  95
ATOM     95  C   UNL     1      -4.817  -8.835  14.937  1.00  0.00    -0.014 A 
ATOM     96  C   UNL     1      -5.151 -10.195  15.052  1.00  0.00     0.010 A 
ATOM     97  C   UNL     1      -5.207  -7.943  15.954  1.00  0.00     0.010 A 
ATOM     98  C   UNL     1      -5.898 -10.647  16.142  1.00  0.00     0.020 A 
ATOM     99  C   UNL     1      -5.921  -8.398  17.064  1.00  0.00     0.020 A 
ATOM    100  C   UNL     1      -6.276  -9.746  17.142  1.00  0.00     0.054 A 
BRANCH 100 101
ATOM    101  S   UNL     1      -7.217 -10.371  18.559  1.00  0.00     0.124 S 
ATOM    102  O   UNL     1      -8.495 -10.720  17.945  1.00  0.00    -0.237 OA
ATOM    103  O   UNL     1      -6.405 -11.499  19.006  1.00  0.00    -0.237 OA
ATOM    104  O   UNL     1      -7.259  -9.235  19.478  1.00  0.00    -0.744 OA
ENDBRANCH 100 101
ENDBRANCH  74  95
ENDBRANCH  48  49
ENDBRANCH  41  43
ENDBRANCH  40  41
ENDBRANCH  39  40
ENDBRANCH  38  39
ENDBRANCH   1  38
TORSDOF 21
