REMARK SMILES Cc1cc(C[N@H+]2CCN(C)C(=O)C2(C)C)oc1C(=O)OCCOCCOC(=O)c1ccc(-c2c3nc(c(-c4ccc(S(=O)(=O)[O-])cc4)c4ccc([nH]4)c(-c4ccc(S(=O)(=O)[O-])cc4)c4nc(c(-c5ccc(S(=O)(=O)[O-])cc5)c5ccc2[nH]5)C=C4)C=C3)cc1
REMARK SMILES IDX 24 1 23 2 22 3 21 4 20 5 18 6 19 7 17 8 1 9 2 10 3 11 4 12
REMARK SMILES IDX 16 13 5 14 6 15 7 16 13 17 8 19 11 20 14 21 15 22 9 23 12 24
REMARK SMILES IDX 10 25 25 26 26 27 27 28 28 29 29 30 30 31 88 32 31 33 87 34
REMARK SMILES IDX 32 35 33 36 34 37 81 38 35 39 86 40 80 41 82 42 36 43 85 44
REMARK SMILES IDX 79 45 78 46 37 48 67 49 48 50 66 51 49 52 52 53 65 54 83 55
REMARK SMILES IDX 50 56 51 57 64 59 84 60 53 61 38 62 39 63 47 64 40 65 46 66
REMARK SMILES IDX 41 67 42 68 43 69 44 70 45 71 68 72 69 73 77 74 70 75 76 76
REMARK SMILES IDX 71 77 72 78 73 79 74 80 75 81 54 82 55 83 63 84 56 85 62 86
REMARK SMILES IDX 57 87 58 88 59 89 60 90 61 91
REMARK H PARENT 6 18 82 47 52 58
REMARK Flexibility Score: inf
ROOT
ATOM      1  C   UNL     1       0.155  -3.377  -1.941  1.00  0.00     0.202 C 
ENDROOT
BRANCH   1   2
ATOM      2  O   UNL     1      -0.013  -4.646  -1.304  1.00  0.00    -0.374 OA
BRANCH   2   3
ATOM      3  C   UNL     1      -1.246  -4.830  -0.604  1.00  0.00     0.202 C 
BRANCH   3   4
ATOM      4  C   UNL     1      -1.163  -4.440   0.874  1.00  0.00     0.261 C 
BRANCH   4   5
ATOM      5  O   UNL     1      -1.134  -3.008   0.994  1.00  0.00    -0.457 OA
BRANCH   5   6
ATOM      6  C   UNL     1       0.081  -2.441   1.223  1.00  0.00     0.374 C 
ATOM      7  O   UNL     1       1.095  -3.062   1.525  1.00  0.00    -0.242 OA
BRANCH   6   8
ATOM      8  C   UNL     1       0.021  -1.020   0.947  1.00  0.00     0.215 A 
ATOM      9  C   UNL     1      -2.483  -0.292   0.735  1.00  0.00     0.049 C 
ATOM     10  C   UNL     1      -1.008  -0.104   0.752  1.00  0.00     0.003 A 
ATOM     11  C   UNL     1      -0.372   1.155   0.566  1.00  0.00     0.056 A 
ATOM     12  C   UNL     1       0.982   0.927   0.482  1.00  0.00     0.159 A 
ATOM     13  O   UNL     1       1.225  -0.385   0.756  1.00  0.00    -0.448 OA
BRANCH  12  14
ATOM     14  C   UNL     1       2.181   1.776   0.214  1.00  0.00     0.339 C 
BRANCH  14  15
ATOM     15  N   UNL     1       2.265   2.466  -1.089  1.00  0.00    -0.315 N 
ATOM     16  C   UNL     1       2.490   1.560  -2.219  1.00  0.00     0.285 C 
ATOM     17  C   UNL     1       1.243   3.506  -1.398  1.00  0.00     0.172 C 
ATOM     18  H   UNL     1       3.109   3.022  -0.950  1.00  0.00     0.349 HD
ATOM     19  C   UNL     1       1.220   0.920  -2.784  1.00  0.00     0.180 C 
ATOM     20  C   UNL     1      -0.069   2.908  -1.994  1.00  0.00     0.283 C 
ATOM     21  C   UNL     1       0.941   4.407  -0.180  1.00  0.00     0.090 C 
ATOM     22  C   UNL     1       1.784   4.458  -2.495  1.00  0.00     0.090 C 
ATOM     23  N   UNL     1       0.051   1.793  -2.821  1.00  0.00    -0.335 N 
ATOM     24  O   UNL     1      -1.153   3.473  -1.824  1.00  0.00    -0.268 OA
ATOM     25  C   UNL     1      -1.111   1.291  -3.532  1.00  0.00     0.147 C 
ENDBRANCH  14  15
ENDBRANCH  12  14
ENDBRANCH   6   8
ENDBRANCH   5   6
ENDBRANCH   4   5
ENDBRANCH   3   4
ENDBRANCH   2   3
ENDBRANCH   1   2
BRANCH   1  26
ATOM     26  C   UNL     1      -0.357  -3.338  -3.383  1.00  0.00     0.261 C 
BRANCH  26  27
ATOM     27  O   UNL     1      -1.795  -3.298  -3.404  1.00  0.00    -0.460 OA
BRANCH  27  28
ATOM     28  C   UNL     1      -2.395  -4.470  -3.726  1.00  0.00     0.338 C 
ATOM     29  O   UNL     1      -1.849  -5.494  -4.098  1.00  0.00    -0.246 OA
BRANCH  28  30
ATOM     30  C   UNL     1      -3.836  -4.400  -3.401  1.00  0.00     0.060 A 
ATOM     31  C   UNL     1      -4.415  -5.527  -2.805  1.00  0.00     0.016 A 
ATOM     32  C   UNL     1      -4.618  -3.282  -3.704  1.00  0.00     0.016 A 
ATOM     33  C   UNL     1      -5.785  -5.560  -2.555  1.00  0.00     0.010 A 
ATOM     34  C   UNL     1      -5.995  -3.318  -3.457  1.00  0.00     0.010 A 
ATOM     35  C   UNL     1      -6.590  -4.470  -2.912  1.00  0.00    -0.014 A 
BRANCH  35  36
ATOM     36  C   UNL     1      -8.065  -4.596  -2.839  1.00  0.00     0.031 A 
ATOM     37  C   UNL     1      -8.833  -4.928  -4.089  1.00  0.00     0.074 A 
ATOM     38  C   UNL     1      -8.711  -4.450  -1.668  1.00  0.00     0.049 A 
ATOM     39  N   UNL     1     -10.121  -5.086  -4.251  1.00  0.00    -0.248 NA
ATOM     40  C   UNL     1      -8.043  -5.109  -5.319  1.00  0.00     0.031 C 
ATOM     41  C   UNL     1      -8.079  -4.163  -0.381  1.00  0.00     0.029 A 
ATOM     42  N   UNL     1     -10.050  -4.524  -1.377  1.00  0.00    -0.354 N 
ATOM     43  C   UNL     1     -10.299  -5.381  -5.598  1.00  0.00     0.074 A 
ATOM     44  C   UNL     1      -8.989  -5.353  -6.214  1.00  0.00     0.031 C 
ATOM     45  C   UNL     1      -9.032  -4.080   0.563  1.00  0.00     0.029 A 
ATOM     46  C   UNL     1     -10.341  -4.281  -0.056  1.00  0.00     0.049 A 
ATOM     47  H   UNL     1     -10.738  -4.731  -2.050  1.00  0.00     0.167 HD
ATOM     48  C   UNL     1     -11.446  -5.657  -6.262  1.00  0.00     0.031 A 
ATOM     49  C   UNL     1     -11.528  -4.212   0.579  1.00  0.00     0.031 A 
ATOM     50  C   UNL     1     -12.750  -5.671  -5.655  1.00  0.00     0.049 A 
ATOM     51  C   UNL     1     -12.797  -4.458  -0.193  1.00  0.00     0.074 A 
ATOM     52  C   UNL     1     -13.971  -5.950  -6.244  1.00  0.00     0.029 A 
ATOM     53  N   UNL     1     -13.004  -5.385  -4.323  1.00  0.00    -0.354 N 
ATOM     54  N   UNL     1     -12.944  -4.760  -1.461  1.00  0.00    -0.248 NA
ATOM     55  C   UNL     1     -14.059  -4.359   0.554  1.00  0.00     0.031 C 
ATOM     56  C   UNL     1     -14.969  -5.787  -5.277  1.00  0.00     0.029 A 
ATOM     57  C   UNL     1     -14.365  -5.457  -4.075  1.00  0.00     0.049 A 
ATOM     58  H   UNL     1     -12.319  -5.163  -3.651  1.00  0.00     0.167 HD
ATOM     59  C   UNL     1     -14.313  -4.912  -1.658  1.00  0.00     0.074 A 
ATOM     60  C   UNL     1     -14.949  -4.679  -0.377  1.00  0.00     0.031 C 
ATOM     61  C   UNL     1     -14.983  -5.220  -2.796  1.00  0.00     0.031 A 
BRANCH  48  62
ATOM     62  C   UNL     1     -11.339  -5.939  -7.736  1.00  0.00    -0.014 A 
ATOM     63  C   UNL     1     -10.806  -7.152  -8.207  1.00  0.00     0.010 A 
ATOM     64  C   UNL     1     -11.803  -4.988  -8.662  1.00  0.00     0.010 A 
ATOM     65  C   UNL     1     -10.702  -7.393  -9.579  1.00  0.00     0.020 A 
ATOM     66  C   UNL     1     -11.722  -5.234 -10.035  1.00  0.00     0.020 A 
ATOM     67  C   UNL     1     -11.155  -6.428 -10.485  1.00  0.00     0.054 A 
BRANCH  67  68
ATOM     68  S   UNL     1     -11.019  -6.768 -12.262  1.00  0.00     0.124 S 
ATOM     69  O   UNL     1      -9.590  -6.574 -12.495  1.00  0.00    -0.237 OA
ATOM     70  O   UNL     1     -11.490  -8.147 -12.363  1.00  0.00    -0.237 OA
ATOM     71  O   UNL     1     -11.891  -5.769 -12.874  1.00  0.00    -0.744 OA
ENDBRANCH  67  68
ENDBRANCH  48  62
BRANCH  49  72
ATOM     72  C   UNL     1     -11.573  -3.881   2.029  1.00  0.00    -0.014 A 
ATOM     73  C   UNL     1     -11.915  -4.858   2.979  1.00  0.00     0.010 A 
ATOM     74  C   UNL     1     -11.268  -2.578   2.464  1.00  0.00     0.010 A 
ATOM     75  C   UNL     1     -11.961  -4.536   4.339  1.00  0.00     0.020 A 
ATOM     76  C   UNL     1     -11.291  -2.259   3.824  1.00  0.00     0.020 A 
ATOM     77  C   UNL     1     -11.647  -3.238   4.753  1.00  0.00     0.054 A 
BRANCH  77  78
ATOM     78  S   UNL     1     -11.655  -2.855   6.526  1.00  0.00     0.124 S 
ATOM     79  O   UNL     1     -13.082  -2.750   6.808  1.00  0.00    -0.237 OA
ATOM     80  O   UNL     1     -10.978  -4.014   7.103  1.00  0.00    -0.237 OA
ATOM     81  O   UNL     1     -10.905  -1.604   6.607  1.00  0.00    -0.744 OA
ENDBRANCH  77  78
ENDBRANCH  49  72
BRANCH  61  82
ATOM     82  C   UNL     1     -16.480  -5.353  -2.706  1.00  0.00    -0.014 A 
ATOM     83  C   UNL     1     -17.305  -4.221  -2.587  1.00  0.00     0.010 A 
ATOM     84  C   UNL     1     -17.070  -6.626  -2.801  1.00  0.00     0.010 A 
ATOM     85  C   UNL     1     -18.695  -4.363  -2.537  1.00  0.00     0.020 A 
ATOM     86  C   UNL     1     -18.460  -6.770  -2.775  1.00  0.00     0.020 A 
ATOM     87  C   UNL     1     -19.264  -5.638  -2.629  1.00  0.00     0.054 A 
BRANCH  87  88
ATOM     88  S   UNL     1     -21.071  -5.795  -2.607  1.00  0.00     0.124 S 
ATOM     89  O   UNL     1     -21.374  -5.604  -1.191  1.00  0.00    -0.237 OA
ATOM     90  O   UNL     1     -21.500  -4.715  -3.493  1.00  0.00    -0.237 OA
ATOM     91  O   UNL     1     -21.307  -7.143  -3.119  1.00  0.00    -0.744 OA
ENDBRANCH  87  88
ENDBRANCH  61  82
ENDBRANCH  35  36
ENDBRANCH  28  30
ENDBRANCH  27  28
ENDBRANCH  26  27
ENDBRANCH   1  26
TORSDOF 19
