REMARK SMILES CCOc1cccc2c(SCC(=O)OCCOCCOC(=O)c3ccc(-c4c5nc(c(-c6ccc(S(=O)(=O)[O-])cc6)c6ccc([nH]6)c(-c6ccc(S(=O)(=O)[O-])cc6)c6nc(c(-c7ccc(S(=O)(=O)[O-])cc7)c7ccc4[nH]7)C=C6)C=C5)cc3)cc(C)nc12
REMARK SMILES IDX 16 1 15 2 14 3 12 4 13 5 11 6 10 7 9 8 4 9 5 10 87 11 6 12
REMARK SMILES IDX 8 13 86 14 7 15 84 16 83 17 85 18 3 19 2 20 1 21 17 22 18 23
REMARK SMILES IDX 19 24 20 25 21 26 22 27 23 28 24 29 82 30 25 31 81 32 26 33
REMARK SMILES IDX 27 34 28 35 75 36 29 37 80 38 74 39 76 40 30 41 79 42 73 43
REMARK SMILES IDX 72 44 31 46 61 47 42 48 60 49 43 50 46 51 59 52 77 53 44 54
REMARK SMILES IDX 45 55 58 57 78 58 47 59 32 60 33 61 41 62 34 63 40 64 35 65
REMARK SMILES IDX 36 66 37 67 38 68 39 69 62 70 63 71 71 72 64 73 70 74 65 75
REMARK SMILES IDX 66 76 67 77 68 78 69 79 48 80 49 81 57 82 50 83 56 84 51 85
REMARK SMILES IDX 52 86 53 87 54 88 55 89
REMARK H PARENT 76 45 46 56
REMARK Flexibility Score: inf
ROOT
ATOM      1  C   UNL     1       7.135  -3.094  -1.784  1.00  0.00     0.202 C 
ENDROOT
BRANCH   1   2
ATOM      2  C   UNL     1       8.348  -2.167  -1.943  1.00  0.00     0.261 C 
BRANCH   2   3
ATOM      3  O   UNL     1       8.162  -0.867  -1.338  1.00  0.00    -0.463 OA
BRANCH   3   4
ATOM      4  C   UNL     1       8.223   0.207  -2.170  1.00  0.00     0.316 C 
ATOM      5  O   UNL     1       8.377   0.131  -3.387  1.00  0.00    -0.251 OA
BRANCH   4   6
ATOM      6  C   UNL     1       8.160   1.553  -1.482  1.00  0.00     0.197 C 
BRANCH   6   7
ATOM      7  S   UNL     1       7.335   1.612   0.136  1.00  0.00    -0.114 SA
BRANCH   7   8
ATOM      8  C   UNL     1       5.558   1.804  -0.171  1.00  0.00     0.019 A 
ATOM      9  C   UNL     1       2.403   1.811   1.782  1.00  0.00     0.145 A 
ATOM     10  C   UNL     1       2.831   1.927   3.105  1.00  0.00     0.049 A 
ATOM     11  C   UNL     1       3.287   1.846   0.693  1.00  0.00     0.114 A 
ATOM     12  C   UNL     1       4.185   2.028   3.370  1.00  0.00     0.005 A 
ATOM     13  C   UNL     1       4.674   1.890   0.953  1.00  0.00     0.018 A 
ATOM     14  N   UNL     1       2.801   1.787  -0.562  1.00  0.00    -0.249 NA
ATOM     15  C   UNL     1       5.093   1.996   2.310  1.00  0.00     0.012 A 
ATOM     16  C   UNL     1       3.641   1.750  -1.612  1.00  0.00     0.039 A 
ATOM     17  C   UNL     1       5.018   1.766  -1.460  1.00  0.00     0.039 A 
ATOM     18  C   UNL     1       3.000   1.488  -2.942  1.00  0.00     0.067 C 
BRANCH   9  19
ATOM     19  O   UNL     1       1.044   1.702   1.567  1.00  0.00    -0.492 OA
BRANCH  19  20
ATOM     20  C   UNL     1       0.616   0.332   1.625  1.00  0.00     0.226 C 
ATOM     21  C   UNL     1       0.497  -0.265   0.232  1.00  0.00     0.049 C 
ENDBRANCH  19  20
ENDBRANCH   9  19
ENDBRANCH   7   8
ENDBRANCH   6   7
ENDBRANCH   4   6
ENDBRANCH   3   4
ENDBRANCH   2   3
ENDBRANCH   1   2
BRANCH   1  22
ATOM     22  O   UNL     1       5.979  -2.758  -2.556  1.00  0.00    -0.374 OA
BRANCH  22  23
ATOM     23  C   UNL     1       5.254  -1.600  -2.152  1.00  0.00     0.202 C 
BRANCH  23  24
ATOM     24  C   UNL     1       4.335  -1.766  -0.941  1.00  0.00     0.261 C 
BRANCH  24  25
ATOM     25  O   UNL     1       5.034  -2.271   0.200  1.00  0.00    -0.460 OA
BRANCH  25  26
ATOM     26  C   UNL     1       4.446  -3.352   0.752  1.00  0.00     0.338 C 
ATOM     27  O   UNL     1       3.341  -3.814   0.494  1.00  0.00    -0.246 OA
BRANCH  26  28
ATOM     28  C   UNL     1       5.401  -4.047   1.618  1.00  0.00     0.060 A 
ATOM     29  C   UNL     1       5.708  -5.368   1.280  1.00  0.00     0.016 A 
ATOM     30  C   UNL     1       5.895  -3.464   2.787  1.00  0.00     0.016 A 
ATOM     31  C   UNL     1       6.447  -6.143   2.161  1.00  0.00     0.010 A 
ATOM     32  C   UNL     1       6.643  -4.247   3.672  1.00  0.00     0.010 A 
ATOM     33  C   UNL     1       6.874  -5.602   3.383  1.00  0.00    -0.014 A 
BRANCH  33  34
ATOM     34  C   UNL     1       7.432  -6.534   4.388  1.00  0.00     0.031 A 
ATOM     35  C   UNL     1       6.527  -7.083   5.456  1.00  0.00     0.074 A 
ATOM     36  C   UNL     1       8.693  -6.979   4.254  1.00  0.00     0.049 A 
ATOM     37  N   UNL     1       6.742  -8.061   6.296  1.00  0.00    -0.248 NA
ATOM     38  C   UNL     1       5.201  -6.456   5.588  1.00  0.00     0.031 C 
ATOM     39  C   UNL     1       9.644  -6.522   3.240  1.00  0.00     0.029 A 
ATOM     40  N   UNL     1       9.376  -7.942   4.949  1.00  0.00    -0.354 N 
ATOM     41  C   UNL     1       5.577  -8.178   7.045  1.00  0.00     0.074 A 
ATOM     42  C   UNL     1       4.674  -7.144   6.591  1.00  0.00     0.031 C 
ATOM     43  C   UNL     1      10.781  -7.229   3.360  1.00  0.00     0.029 A 
ATOM     44  C   UNL     1      10.638  -8.178   4.461  1.00  0.00     0.049 A 
ATOM     45  H   UNL     1       8.999  -8.419   5.724  1.00  0.00     0.167 HD
ATOM     46  C   UNL     1       5.281  -9.077   8.015  1.00  0.00     0.031 A 
ATOM     47  C   UNL     1      11.565  -9.076   4.846  1.00  0.00     0.031 A 
ATOM     48  C   UNL     1       6.197 -10.087   8.474  1.00  0.00     0.049 A 
ATOM     49  C   UNL     1      11.222 -10.048   5.942  1.00  0.00     0.074 A 
ATOM     50  C   UNL     1       6.004 -11.049   9.450  1.00  0.00     0.029 A 
ATOM     51  N   UNL     1       7.485 -10.261   7.990  1.00  0.00    -0.354 N 
ATOM     52  N   UNL     1      10.101 -10.170   6.614  1.00  0.00    -0.248 NA
ATOM     53  C   UNL     1      12.260 -11.017   6.312  1.00  0.00     0.031 C 
ATOM     54  C   UNL     1       7.194 -11.775   9.587  1.00  0.00     0.029 A 
ATOM     55  C   UNL     1       8.108 -11.300   8.659  1.00  0.00     0.049 A 
ATOM     56  H   UNL     1       7.896  -9.724   7.274  1.00  0.00     0.167 HD
ATOM     57  C   UNL     1      10.294 -11.243   7.477  1.00  0.00     0.074 A 
ATOM     58  C   UNL     1      11.629 -11.748   7.221  1.00  0.00     0.031 C 
ATOM     59  C   UNL     1       9.446 -11.767   8.399  1.00  0.00     0.031 A 
BRANCH  46  60
ATOM     60  C   UNL     1       3.923  -8.981   8.658  1.00  0.00    -0.014 A 
ATOM     61  C   UNL     1       2.759  -9.359   7.962  1.00  0.00     0.010 A 
ATOM     62  C   UNL     1       3.807  -8.522   9.982  1.00  0.00     0.010 A 
ATOM     63  C   UNL     1       1.503  -9.244   8.566  1.00  0.00     0.020 A 
ATOM     64  C   UNL     1       2.555  -8.427  10.597  1.00  0.00     0.020 A 
ATOM     65  C   UNL     1       1.409  -8.772   9.879  1.00  0.00     0.054 A 
BRANCH  65  66
ATOM     66  S   UNL     1      -0.231  -8.642  10.644  1.00  0.00     0.124 S 
ATOM     67  O   UNL     1      -0.782  -7.465   9.977  1.00  0.00    -0.237 OA
ATOM     68  O   UNL     1      -0.854  -9.914  10.290  1.00  0.00    -0.237 OA
ATOM     69  O   UNL     1       0.063  -8.471  12.065  1.00  0.00    -0.744 OA
ENDBRANCH  65  66
ENDBRANCH  46  60
BRANCH  47  70
ATOM     70  C   UNL     1      12.891  -9.104   4.173  1.00  0.00    -0.014 A 
ATOM     71  C   UNL     1      13.248 -10.163   3.320  1.00  0.00     0.010 A 
ATOM     72  C   UNL     1      13.799  -8.048   4.368  1.00  0.00     0.010 A 
ATOM     73  C   UNL     1      14.495 -10.171   2.686  1.00  0.00     0.020 A 
ATOM     74  C   UNL     1      15.035  -8.040   3.717  1.00  0.00     0.020 A 
ATOM     75  C   UNL     1      15.380  -9.108   2.887  1.00  0.00     0.054 A 
BRANCH  75  76
ATOM     76  S   UNL     1      16.967  -9.104   2.007  1.00  0.00     0.124 S 
ATOM     77  O   UNL     1      17.740 -10.078   2.772  1.00  0.00    -0.237 OA
ATOM     78  O   UNL     1      16.583  -9.517   0.659  1.00  0.00    -0.237 OA
ATOM     79  O   UNL     1      17.415  -7.718   2.121  1.00  0.00    -0.744 OA
ENDBRANCH  75  76
ENDBRANCH  47  70
BRANCH  59  80
ATOM     80  C   UNL     1       9.945 -12.951   9.182  1.00  0.00    -0.014 A 
ATOM     81  C   UNL     1      10.940 -12.804  10.165  1.00  0.00     0.010 A 
ATOM     82  C   UNL     1       9.406 -14.226   8.933  1.00  0.00     0.010 A 
ATOM     83  C   UNL     1      11.429 -13.922  10.845  1.00  0.00     0.020 A 
ATOM     84  C   UNL     1       9.873 -15.342   9.631  1.00  0.00     0.020 A 
ATOM     85  C   UNL     1      10.900 -15.186  10.565  1.00  0.00     0.054 A 
BRANCH  85  86
ATOM     86  S   UNL     1      11.553 -16.625  11.453  1.00  0.00     0.124 S 
ATOM     87  O   UNL     1      12.811 -16.867  10.751  1.00  0.00    -0.237 OA
ATOM     88  O   UNL     1      11.682 -16.131  12.822  1.00  0.00    -0.237 OA
ATOM     89  O   UNL     1      10.524 -17.645  11.260  1.00  0.00    -0.744 OA
ENDBRANCH  85  86
ENDBRANCH  59  80
ENDBRANCH  33  34
ENDBRANCH  26  28
ENDBRANCH  25  26
ENDBRANCH  24  25
ENDBRANCH  23  24
ENDBRANCH  22  23
ENDBRANCH   1  22
TORSDOF 21
