REMARK SMILES CC(C)CCc1cc2c(cc1Cl)C=C(C(=O)OCCOCCOC(=O)c1ccc(-c3c4nc(c(-c5ccc(S(=O)(=O)[O-])cc5)c5ccc([nH]5)c(-c5ccc(S(=O)(=O)[O-])cc5)c5nc(c(-c6ccc(S(=O)(=O)[O-])cc6)c6ccc3[nH]6)C=C5)C=C4)cc1)[C@@H](C(F)(F)F)O2
REMARK SMILES IDX 20 1 19 2 18 3 17 4 15 5 16 6 14 7 6 8 7 9 11 10 8 11 10 12
REMARK SMILES IDX 12 13 9 14 91 15 13 16 86 17 5 18 4 19 2 20 1 21 3 22 87 23
REMARK SMILES IDX 88 24 89 25 90 26 21 27 22 28 23 29 24 30 25 31 26 32 27 33
REMARK SMILES IDX 85 34 28 35 84 36 29 37 30 38 31 39 78 40 32 41 83 42 77 43
REMARK SMILES IDX 79 44 33 45 82 46 76 47 75 48 34 50 64 51 45 52 63 53 46 54
REMARK SMILES IDX 49 55 62 56 80 57 47 58 48 59 61 61 81 62 50 63 35 64 36 65
REMARK SMILES IDX 44 66 37 67 43 68 38 69 39 70 40 71 41 72 42 73 65 74 66 75
REMARK SMILES IDX 74 76 67 77 73 78 68 79 69 80 70 81 71 82 72 83 51 84 52 85
REMARK SMILES IDX 60 86 53 87 59 88 54 89 55 90 56 91 57 92 58 93
REMARK H PARENT 79 49 49 60
REMARK Flexibility Score: inf
ROOT
ATOM      1  O   UNL     1       0.429  -2.080  11.237  1.00  0.00    -0.374 OA
ENDROOT
BRANCH   1   2
ATOM      2  C   UNL     1       1.359  -1.078  11.643  1.00  0.00     0.202 C 
BRANCH   2   3
ATOM      3  C   UNL     1       2.469  -0.697  10.657  1.00  0.00     0.261 C 
BRANCH   3   4
ATOM      4  O   UNL     1       1.936  -0.235   9.408  1.00  0.00    -0.460 OA
BRANCH   4   5
ATOM      5  C   UNL     1       2.128  -1.080   8.368  1.00  0.00     0.338 C 
ATOM      6  O   UNL     1       2.783  -2.110   8.370  1.00  0.00    -0.246 OA
BRANCH   5   7
ATOM      7  C   UNL     1       1.291  -0.658   7.229  1.00  0.00     0.087 C 
ATOM      8  C   UNL     1      -1.107  -0.605   2.832  1.00  0.00    -0.026 A 
ATOM      9  C   UNL     1      -0.733   0.384   3.762  1.00  0.00     0.052 A 
ATOM     10  C   UNL     1      -1.041  -1.948   3.243  1.00  0.00     0.045 A 
ATOM     11  C   UNL     1      -0.158   0.042   4.987  1.00  0.00     0.128 A 
ATOM     12  C   UNL     1      -0.494  -2.290   4.483  1.00  0.00     0.032 A 
ATOM     13  Cl  UNL     1      -1.601  -3.247   2.248  1.00  0.00    -0.084 Cl
ATOM     14  C   UNL     1      -0.006  -1.296   5.332  1.00  0.00     0.019 A 
ATOM     15  O   UNL     1       0.239   1.079   5.781  1.00  0.00    -0.475 OA
ATOM     16  C   UNL     1       0.715  -1.650   6.538  1.00  0.00     0.027 C 
ATOM     17  C   UNL     1       1.139   0.801   6.893  1.00  0.00     0.316 C 
BRANCH   8  18
ATOM     18  C   UNL     1      -1.567  -0.221   1.440  1.00  0.00     0.037 C 
BRANCH  18  19
ATOM     19  C   UNL     1      -0.939   1.047   0.831  1.00  0.00     0.008 C 
BRANCH  19  20
ATOM     20  C   UNL     1       0.604   1.053   0.751  1.00  0.00    -0.017 C 
ATOM     21  C   UNL     1       1.146  -0.022  -0.190  1.00  0.00     0.007 C 
ATOM     22  C   UNL     1       1.092   2.434   0.306  1.00  0.00     0.007 C 
ENDBRANCH  19  20
ENDBRANCH  18  19
ENDBRANCH   8  18
BRANCH  17  23
ATOM     23  C   UNL     1       2.490   1.481   6.623  1.00  0.00     0.430 C 
ATOM     24  F   UNL     1       2.322   2.770   6.244  1.00  0.00    -0.167 F 
ATOM     25  F   UNL     1       3.271   1.494   7.727  1.00  0.00    -0.167 F 
ATOM     26  F   UNL     1       3.180   0.855   5.642  1.00  0.00    -0.167 F 
ENDBRANCH  17  23
ENDBRANCH   5   7
ENDBRANCH   4   5
ENDBRANCH   3   4
ENDBRANCH   2   3
ENDBRANCH   1   2
BRANCH   1  27
ATOM     27  C   UNL     1      -0.582  -1.730  10.294  1.00  0.00     0.202 C 
BRANCH  27  28
ATOM     28  C   UNL     1      -1.740  -0.836  10.756  1.00  0.00     0.261 C 
BRANCH  28  29
ATOM     29  O   UNL     1      -1.317   0.474  11.162  1.00  0.00    -0.460 OA
BRANCH  29  30
ATOM     30  C   UNL     1      -1.337   0.686  12.502  1.00  0.00     0.338 C 
ATOM     31  O   UNL     1      -1.677  -0.108  13.367  1.00  0.00    -0.246 OA
BRANCH  30  32
ATOM     32  C   UNL     1      -0.694   1.979  12.804  1.00  0.00     0.060 A 
ATOM     33  C   UNL     1      -1.093   3.151  12.162  1.00  0.00     0.016 A 
ATOM     34  C   UNL     1       0.307   2.008  13.784  1.00  0.00     0.016 A 
ATOM     35  C   UNL     1      -0.498   4.362  12.523  1.00  0.00     0.010 A 
ATOM     36  C   UNL     1       0.892   3.221  14.149  1.00  0.00     0.010 A 
ATOM     37  C   UNL     1       0.482   4.411  13.533  1.00  0.00    -0.014 A 
BRANCH  37  38
ATOM     38  C   UNL     1       0.988   5.723  14.009  1.00  0.00     0.031 A 
ATOM     39  C   UNL     1       2.380   6.185  13.695  1.00  0.00     0.074 A 
ATOM     40  C   UNL     1       0.161   6.507  14.728  1.00  0.00     0.049 A 
ATOM     41  N   UNL     1       2.925   7.350  13.934  1.00  0.00    -0.248 NA
ATOM     42  C   UNL     1       3.277   5.225  13.034  1.00  0.00     0.031 C 
ATOM     43  C   UNL     1      -1.202   6.143  15.120  1.00  0.00     0.029 A 
ATOM     44  N   UNL     1       0.326   7.773  15.235  1.00  0.00    -0.354 N 
ATOM     45  C   UNL     1       4.218   7.275  13.433  1.00  0.00     0.074 A 
ATOM     46  C   UNL     1       4.397   5.930  12.930  1.00  0.00     0.031 C 
ATOM     47  C   UNL     1      -1.767   7.180  15.756  1.00  0.00     0.029 A 
ATOM     48  C   UNL     1      -0.798   8.269  15.855  1.00  0.00     0.049 A 
ATOM     49  H   UNL     1       1.168   8.277  15.161  1.00  0.00     0.167 HD
ATOM     50  C   UNL     1       5.155   8.251  13.376  1.00  0.00     0.031 A 
ATOM     51  C   UNL     1      -1.036   9.468  16.425  1.00  0.00     0.031 A 
ATOM     52  C   UNL     1       4.965   9.582  13.896  1.00  0.00     0.049 A 
ATOM     53  C   UNL     1       0.036  10.522  16.383  1.00  0.00     0.074 A 
ATOM     54  C   UNL     1       5.847  10.649  13.852  1.00  0.00     0.029 A 
ATOM     55  N   UNL     1       3.829  10.033  14.554  1.00  0.00    -0.354 N 
ATOM     56  N   UNL     1       1.224  10.462  15.829  1.00  0.00    -0.248 NA
ATOM     57  C   UNL     1      -0.265  11.811  17.022  1.00  0.00     0.031 C 
ATOM     58  C   UNL     1       5.281  11.713  14.555  1.00  0.00     0.029 A 
ATOM     59  C   UNL     1       4.004  11.348  14.952  1.00  0.00     0.049 A 
ATOM     60  H   UNL     1       3.019   9.496  14.714  1.00  0.00     0.167 HD
ATOM     61  C   UNL     1       1.800  11.713  16.027  1.00  0.00     0.074 A 
ATOM     62  C   UNL     1       0.825  12.514  16.737  1.00  0.00     0.031 C 
ATOM     63  C   UNL     1       3.027  12.150  15.651  1.00  0.00     0.031 A 
BRANCH  50  64
ATOM     64  C   UNL     1       6.473   7.946  12.706  1.00  0.00    -0.014 A 
ATOM     65  C   UNL     1       7.669   8.002  13.446  1.00  0.00     0.010 A 
ATOM     66  C   UNL     1       6.542   7.753  11.314  1.00  0.00     0.010 A 
ATOM     67  C   UNL     1       8.908   7.918  12.804  1.00  0.00     0.020 A 
ATOM     68  C   UNL     1       7.778   7.634  10.672  1.00  0.00     0.020 A 
ATOM     69  C   UNL     1       8.954   7.745  11.418  1.00  0.00     0.054 A 
BRANCH  69  70
ATOM     70  S   UNL     1      10.570   7.690  10.597  1.00  0.00     0.124 S 
ATOM     71  O   UNL     1      11.012   9.078  10.691  1.00  0.00    -0.237 OA
ATOM     72  O   UNL     1      11.310   6.734  11.417  1.00  0.00    -0.237 OA
ATOM     73  O   UNL     1      10.254   7.225   9.248  1.00  0.00    -0.744 OA
ENDBRANCH  69  70
ENDBRANCH  50  64
BRANCH  51  74
ATOM     74  C   UNL     1      -2.377   9.736  17.020  1.00  0.00    -0.014 A 
ATOM     75  C   UNL     1      -2.821   9.004  18.138  1.00  0.00     0.010 A 
ATOM     76  C   UNL     1      -3.254  10.656  16.419  1.00  0.00     0.010 A 
ATOM     77  C   UNL     1      -4.132   9.136  18.600  1.00  0.00     0.020 A 
ATOM     78  C   UNL     1      -4.557  10.820  16.903  1.00  0.00     0.020 A 
ATOM     79  C   UNL     1      -4.997  10.033  17.970  1.00  0.00     0.054 A 
BRANCH  79  80
ATOM     80  S   UNL     1      -6.714  10.135  18.547  1.00  0.00     0.124 S 
ATOM     81  O   UNL     1      -7.268   8.874  18.059  1.00  0.00    -0.237 OA
ATOM     82  O   UNL     1      -6.556  10.235  19.995  1.00  0.00    -0.237 OA
ATOM     83  O   UNL     1      -7.225  11.336  17.892  1.00  0.00    -0.744 OA
ENDBRANCH  79  80
ENDBRANCH  51  74
BRANCH  63  84
ATOM     84  C   UNL     1       3.420  13.571  15.978  1.00  0.00    -0.014 A 
ATOM     85  C   UNL     1       3.684  14.476  14.931  1.00  0.00     0.010 A 
ATOM     86  C   UNL     1       3.684  13.965  17.301  1.00  0.00     0.010 A 
ATOM     87  C   UNL     1       4.258  15.723  15.195  1.00  0.00     0.020 A 
ATOM     88  C   UNL     1       4.223  15.227  17.573  1.00  0.00     0.020 A 
ATOM     89  C   UNL     1       4.537  16.084  16.515  1.00  0.00     0.054 A 
BRANCH  89  90
ATOM     90  S   UNL     1       5.345  17.677  16.830  1.00  0.00     0.124 S 
ATOM     91  O   UNL     1       6.706  17.430  16.364  1.00  0.00    -0.237 OA
ATOM     92  O   UNL     1       4.558  18.601  16.015  1.00  0.00    -0.237 OA
ATOM     93  O   UNL     1       5.202  17.856  18.273  1.00  0.00    -0.744 OA
ENDBRANCH  89  90
ENDBRANCH  63  84
ENDBRANCH  37  38
ENDBRANCH  30  32
ENDBRANCH  29  30
ENDBRANCH  28  29
ENDBRANCH  27  28
ENDBRANCH   1  27
TORSDOF 21
