REMARK SMILES CC[NH2+][C@]1(C(=O)OCCOCCOC(=O)c2ccc(-c3c4nc(c(-c5ccc(S(=O)(=O)[O-])cc5)c5ccc([nH]5)c(-c5ccc(S(=O)(=O)[O-])cc5)c5nc(c(-c6ccc(S(=O)(=O)[O-])cc6)c6ccc3[nH]6)C=C5)C=C4)cc2)CCC[C@H]1CC[N@H+]1CCC[C@@H](CC)C1
REMARK SMILES IDX 9 1 8 2 7 3 5 4 6 5 4 6 76 7 79 8 77 9 78 10 3 11 2 14 1 15
REMARK SMILES IDX 80 16 81 17 82 18 83 19 89 20 84 22 86 23 85 24 87 25 88 26
REMARK SMILES IDX 10 27 11 28 12 29 13 30 14 31 15 32 16 33 17 34 75 35 18 36
REMARK SMILES IDX 74 37 19 38 20 39 21 40 68 41 22 42 73 43 67 44 69 45 23 46
REMARK SMILES IDX 72 47 66 48 65 49 24 51 54 52 35 53 53 54 36 55 39 56 52 57
REMARK SMILES IDX 70 58 37 59 38 60 51 62 71 63 40 64 25 65 26 66 34 67 27 68
REMARK SMILES IDX 33 69 28 70 29 71 30 72 31 73 32 74 55 75 56 76 64 77 57 78
REMARK SMILES IDX 63 79 58 80 59 81 60 82 61 83 62 84 41 85 42 86 50 87 43 88
REMARK SMILES IDX 49 89 44 90 45 91 46 92 47 93 48 94
REMARK H PARENT 3 12 3 13 82 21 69 50 39 61
REMARK Flexibility Score: inf
ROOT
ATOM      1  C   UNL     1       3.039   1.109  -0.833  1.00  0.00     0.202 C 
ENDROOT
BRANCH   1   2
ATOM      2  C   UNL     1       1.809   1.970  -1.160  1.00  0.00     0.261 C 
BRANCH   2   3
ATOM      3  O   UNL     1       1.432   2.869  -0.099  1.00  0.00    -0.459 OA
BRANCH   3   4
ATOM      4  C   UNL     1       0.564   2.317   0.786  1.00  0.00     0.368 C 
ATOM      5  O   UNL     1       0.237   1.139   0.722  1.00  0.00    -0.245 OA
BRANCH   4   6
ATOM      6  C   UNL     1       0.104   3.244   1.917  1.00  0.00     0.197 C 
ATOM      7  C   UNL     1       0.577   4.699   1.709  1.00  0.00     0.081 C 
ATOM      8  C   UNL     1      -1.445   3.410   1.968  1.00  0.00     0.068 C 
ATOM      9  C   UNL     1      -0.325   5.541   2.598  1.00  0.00     0.008 C 
ATOM     10  C   UNL     1      -1.635   4.761   2.709  1.00  0.00     0.011 C 
BRANCH   6  11
ATOM     11  N   UNL     1       0.689   2.777   3.228  1.00  0.00    -0.332 N 
ATOM     12  H   UNL     1       1.702   2.732   3.125  1.00  0.00     0.347 HD
ATOM     13  H   UNL     1       0.383   3.449   3.932  1.00  0.00     0.347 HD
BRANCH  11  14
ATOM     14  C   UNL     1       0.218   1.463   3.683  1.00  0.00     0.257 C 
ATOM     15  C   UNL     1       1.048   0.982   4.865  1.00  0.00     0.071 C 
ENDBRANCH  11  14
ENDBRANCH   6  11
BRANCH   8  16
ATOM     16  C   UNL     1      -2.229   3.429   0.620  1.00  0.00     0.072 C 
BRANCH  16  17
ATOM     17  C   UNL     1      -2.369   2.106  -0.186  1.00  0.00     0.262 C 
BRANCH  17  18
ATOM     18  N   UNL     1      -2.600   0.915   0.640  1.00  0.00    -0.335 N 
ATOM     19  C   UNL     1      -4.003   0.733   1.016  1.00  0.00     0.262 C 
ATOM     20  C   UNL     1      -2.079  -0.324   0.018  1.00  0.00     0.265 C 
ATOM     21  H   UNL     1      -2.072   1.091   1.494  1.00  0.00     0.348 HD
ATOM     22  C   UNL     1      -4.155  -0.430   2.005  1.00  0.00     0.062 C 
ATOM     23  C   UNL     1      -2.041  -1.432   1.090  1.00  0.00     0.044 C 
ATOM     24  C   UNL     1      -3.487  -1.716   1.515  1.00  0.00     0.015 C 
BRANCH  23  25
ATOM     25  C   UNL     1      -1.338  -2.717   0.614  1.00  0.00     0.006 C 
ATOM     26  C   UNL     1       0.183  -2.619   0.687  1.00  0.00     0.004 C 
ENDBRANCH  23  25
ENDBRANCH  17  18
ENDBRANCH  16  17
ENDBRANCH   8  16
ENDBRANCH   4   6
ENDBRANCH   3   4
ENDBRANCH   2   3
ENDBRANCH   1   2
BRANCH   1  27
ATOM     27  O   UNL     1       2.908   0.005   0.069  1.00  0.00    -0.374 OA
BRANCH  27  28
ATOM     28  C   UNL     1       2.856   0.291   1.467  1.00  0.00     0.202 C 
BRANCH  28  29
ATOM     29  C   UNL     1       4.163   0.460   2.236  1.00  0.00     0.261 C 
BRANCH  29  30
ATOM     30  O   UNL     1       5.024   1.395   1.592  1.00  0.00    -0.460 OA
BRANCH  30  31
ATOM     31  C   UNL     1       5.899   0.797   0.757  1.00  0.00     0.338 C 
ATOM     32  O   UNL     1       6.136  -0.401   0.664  1.00  0.00    -0.246 OA
BRANCH  31  33
ATOM     33  C   UNL     1       6.411   1.788  -0.195  1.00  0.00     0.060 A 
ATOM     34  C   UNL     1       6.490   1.380  -1.530  1.00  0.00     0.016 A 
ATOM     35  C   UNL     1       6.821   3.065   0.202  1.00  0.00     0.016 A 
ATOM     36  C   UNL     1       7.097   2.204  -2.458  1.00  0.00     0.010 A 
ATOM     37  C   UNL     1       7.433   3.895  -0.735  1.00  0.00     0.010 A 
ATOM     38  C   UNL     1       7.635   3.429  -2.044  1.00  0.00    -0.014 A 
BRANCH  38  39
ATOM     39  C   UNL     1       8.601   4.084  -2.944  1.00  0.00     0.031 A 
ATOM     40  C   UNL     1      10.066   3.863  -2.691  1.00  0.00     0.074 A 
ATOM     41  C   UNL     1       8.163   4.739  -4.031  1.00  0.00     0.049 A 
ATOM     42  N   UNL     1      11.092   4.228  -3.413  1.00  0.00    -0.248 NA
ATOM     43  C   UNL     1      10.426   3.127  -1.466  1.00  0.00     0.031 C 
ATOM     44  C   UNL     1       6.757   4.950  -4.378  1.00  0.00     0.029 A 
ATOM     45  N   UNL     1       8.858   5.318  -5.056  1.00  0.00    -0.354 N 
ATOM     46  C   UNL     1      12.213   3.768  -2.731  1.00  0.00     0.074 A 
ATOM     47  C   UNL     1      11.748   3.135  -1.519  1.00  0.00     0.031 C 
ATOM     48  C   UNL     1       6.694   5.599  -5.553  1.00  0.00     0.029 A 
ATOM     49  C   UNL     1       8.050   5.870  -6.019  1.00  0.00     0.049 A 
ATOM     50  H   UNL     1       9.841   5.338  -5.099  1.00  0.00     0.167 HD
ATOM     51  C   UNL     1      13.514   3.859  -3.092  1.00  0.00     0.031 A 
ATOM     52  C   UNL     1       8.379   6.522  -7.149  1.00  0.00     0.031 A 
ATOM     53  C   UNL     1      13.954   4.506  -4.299  1.00  0.00     0.049 A 
ATOM     54  C   UNL     1       9.836   6.661  -7.500  1.00  0.00     0.074 A 
ATOM     55  C   UNL     1      15.244   4.661  -4.773  1.00  0.00     0.029 A 
ATOM     56  N   UNL     1      13.111   5.111  -5.221  1.00  0.00    -0.354 N 
ATOM     57  N   UNL     1      10.887   6.211  -6.854  1.00  0.00    -0.248 NA
ATOM     58  C   UNL     1      10.149   7.378  -8.741  1.00  0.00     0.031 C 
ATOM     59  C   UNL     1      15.185   5.415  -5.949  1.00  0.00     0.029 A 
ATOM     60  C   UNL     1      13.854   5.665  -6.249  1.00  0.00     0.049 A 
ATOM     61  H   UNL     1      12.130   5.140  -5.155  1.00  0.00     0.167 HD
ATOM     62  C   UNL     1      11.987   6.568  -7.624  1.00  0.00     0.074 A 
ATOM     63  C   UNL     1      11.467   7.249  -8.794  1.00  0.00     0.031 C 
ATOM     64  C   UNL     1      13.307   6.352  -7.393  1.00  0.00     0.031 A 
BRANCH  51  65
ATOM     65  C   UNL     1      14.543   3.289  -2.151  1.00  0.00    -0.014 A 
ATOM     66  C   UNL     1      14.671   1.902  -1.949  1.00  0.00     0.010 A 
ATOM     67  C   UNL     1      15.417   4.159  -1.473  1.00  0.00     0.010 A 
ATOM     68  C   UNL     1      15.629   1.400  -1.063  1.00  0.00     0.020 A 
ATOM     69  C   UNL     1      16.396   3.659  -0.610  1.00  0.00     0.020 A 
ATOM     70  C   UNL     1      16.487   2.282  -0.400  1.00  0.00     0.054 A 
BRANCH  70  71
ATOM     71  S   UNL     1      17.742   1.602   0.719  1.00  0.00     0.124 S 
ATOM     72  O   UNL     1      16.929   1.136   1.839  1.00  0.00    -0.237 OA
ATOM     73  O   UNL     1      18.357   0.554  -0.090  1.00  0.00    -0.237 OA
ATOM     74  O   UNL     1      18.604   2.746   1.011  1.00  0.00    -0.744 OA
ENDBRANCH  70  71
ENDBRANCH  51  65
BRANCH  52  75
ATOM     75  C   UNL     1       7.310   7.091  -8.013  1.00  0.00    -0.014 A 
ATOM     76  C   UNL     1       7.060   6.575  -9.296  1.00  0.00     0.010 A 
ATOM     77  C   UNL     1       6.518   8.154  -7.538  1.00  0.00     0.010 A 
ATOM     78  C   UNL     1       6.051   7.124 -10.094  1.00  0.00     0.020 A 
ATOM     79  C   UNL     1       5.488   8.683  -8.319  1.00  0.00     0.020 A 
ATOM     80  C   UNL     1       5.269   8.172  -9.599  1.00  0.00     0.054 A 
BRANCH  80  81
ATOM     81  S   UNL     1       3.934   8.835 -10.632  1.00  0.00     0.124 S 
ATOM     82  O   UNL     1       4.676   9.557 -11.661  1.00  0.00    -0.237 OA
ATOM     83  O   UNL     1       3.249   7.623 -11.076  1.00  0.00    -0.237 OA
ATOM     84  O   UNL     1       3.169   9.670  -9.709  1.00  0.00    -0.744 OA
ENDBRANCH  80  81
ENDBRANCH  52  75
BRANCH  64  85
ATOM     85  C   UNL     1      14.271   6.833  -8.446  1.00  0.00    -0.014 A 
ATOM     86  C   UNL     1      14.486   8.204  -8.672  1.00  0.00     0.010 A 
ATOM     87  C   UNL     1      14.983   5.890  -9.210  1.00  0.00     0.010 A 
ATOM     88  C   UNL     1      15.351   8.623  -9.686  1.00  0.00     0.020 A 
ATOM     89  C   UNL     1      15.877   6.306 -10.198  1.00  0.00     0.020 A 
ATOM     90  C   UNL     1      16.035   7.670 -10.447  1.00  0.00     0.054 A 
BRANCH  90  91
ATOM     91  S   UNL     1      17.151   8.239 -11.758  1.00  0.00     0.124 S 
ATOM     92  O   UNL     1      16.211   8.696 -12.777  1.00  0.00    -0.237 OA
ATOM     93  O   UNL     1      17.917   9.290 -11.092  1.00  0.00    -0.237 OA
ATOM     94  O   UNL     1      17.915   7.043 -12.106  1.00  0.00    -0.744 OA
ENDBRANCH  90  91
ENDBRANCH  64  85
ENDBRANCH  38  39
ENDBRANCH  31  33
ENDBRANCH  30  31
ENDBRANCH  29  30
ENDBRANCH  28  29
ENDBRANCH  27  28
ENDBRANCH   1  27
TORSDOF 23
