REMARK SMILES Cc1ccc(C(=O)OCCOCCOC(=O)c2ccc(-c3c4nc(c(-c5ccc(S(=O)(=O)[O-])cc5)c5ccc([nH]5)c(-c5ccc(S(=O)(=O)[O-])cc5)c5nc(c(-c6ccc(S(=O)(=O)[O-])cc6)c6ccc3[nH]6)C=C5)C=C4)cc2)cc1NC(=O)N1C[C@@H](C)[C@H](C)C1
REMARK SMILES IDX 12 1 11 2 10 3 9 4 8 5 6 6 7 7 5 8 1 9 2 10 3 11 78 12 4 13
REMARK SMILES IDX 77 14 79 15 80 16 81 18 82 19 83 20 88 21 84 22 86 23 85 24
REMARK SMILES IDX 87 25 13 26 14 27 15 28 16 29 17 30 18 31 76 32 19 33 75 34
REMARK SMILES IDX 20 35 21 36 22 37 69 38 23 39 74 40 68 41 70 42 24 43 73 44
REMARK SMILES IDX 67 45 66 46 25 48 55 49 36 50 54 51 37 52 40 53 53 54 71 55
REMARK SMILES IDX 38 56 39 57 52 59 72 60 41 61 26 62 27 63 35 64 28 65 34 66
REMARK SMILES IDX 29 67 30 68 31 69 32 70 33 71 56 72 57 73 65 74 58 75 64 76
REMARK SMILES IDX 59 77 60 78 61 79 62 80 63 81 42 82 43 83 51 84 44 85 50 86
REMARK SMILES IDX 45 87 46 88 47 89 48 90 49 91
REMARK H PARENT 79 17 70 47 40 58
REMARK Flexibility Score: inf
ROOT
ATOM      1  C   UNL     1      -3.672  -1.537  -3.596  1.00  0.00     0.202 C 
ENDROOT
BRANCH   1   2
ATOM      2  O   UNL     1      -3.636  -1.119  -2.245  1.00  0.00    -0.374 OA
BRANCH   2   3
ATOM      3  C   UNL     1      -3.460   0.266  -2.103  1.00  0.00     0.202 C 
BRANCH   3   4
ATOM      4  C   UNL     1      -3.443   0.639  -0.655  1.00  0.00     0.261 C 
BRANCH   4   5
ATOM      5  O   UNL     1      -2.745  -0.046   0.364  1.00  0.00    -0.460 OA
BRANCH   5   6
ATOM      6  C   UNL     1      -2.112  -1.181   0.022  1.00  0.00     0.338 C 
ATOM      7  O   UNL     1      -2.534  -2.295   0.232  1.00  0.00    -0.246 OA
BRANCH   6   8
ATOM      8  C   UNL     1      -0.686  -0.830  -0.198  1.00  0.00     0.062 A 
ATOM      9  C   UNL     1       3.439   0.180   0.144  1.00  0.00     0.046 C 
ATOM     10  C   UNL     1       1.962  -0.073   0.034  1.00  0.00    -0.027 A 
ATOM     11  C   UNL     1       1.568  -1.413   0.257  1.00  0.00     0.006 A 
ATOM     12  C   UNL     1       1.006   0.909  -0.313  1.00  0.00     0.046 A 
ATOM     13  C   UNL     1       0.237  -1.779   0.202  1.00  0.00     0.016 A 
ATOM     14  C   UNL     1      -0.270   0.460  -0.587  1.00  0.00     0.042 A 
BRANCH  12  15
ATOM     15  N   UNL     1       1.384   2.265  -0.388  1.00  0.00    -0.308 N 
ATOM     16  C   UNL     1       0.891   3.514  -0.470  1.00  0.00     0.321 C 
ATOM     17  H   UNL     1       2.367   2.317  -0.376  1.00  0.00     0.171 HD
ATOM     18  O   UNL     1       1.753   4.356  -0.775  1.00  0.00    -0.248 OA
ATOM     19  N   UNL     1      -0.363   3.937  -0.220  1.00  0.00    -0.324 N 
ATOM     20  C   UNL     1      -0.704   5.324  -0.589  1.00  0.00     0.125 C 
ATOM     21  C   UNL     1      -1.583   3.318   0.283  1.00  0.00     0.125 C 
ATOM     22  C   UNL     1      -2.165   5.489  -0.170  1.00  0.00     0.010 C 
ATOM     23  C   UNL     1      -2.614   4.072  -0.583  1.00  0.00     0.010 C 
ATOM     24  C   UNL     1      -2.814   6.733  -0.739  1.00  0.00     0.010 C 
ATOM     25  C   UNL     1      -4.078   3.802  -0.536  1.00  0.00     0.010 C 
ENDBRANCH  12  15
ENDBRANCH   6   8
ENDBRANCH   5   6
ENDBRANCH   4   5
ENDBRANCH   3   4
ENDBRANCH   2   3
ENDBRANCH   1   2
BRANCH   1  26
ATOM     26  C   UNL     1      -4.752  -0.834  -4.438  1.00  0.00     0.261 C 
BRANCH  26  27
ATOM     27  O   UNL     1      -6.072  -1.285  -4.055  1.00  0.00    -0.460 OA
BRANCH  27  28
ATOM     28  C   UNL     1      -6.948  -0.355  -3.565  1.00  0.00     0.338 C 
ATOM     29  O   UNL     1      -7.734   0.254  -4.267  1.00  0.00    -0.246 OA
BRANCH  28  30
ATOM     30  C   UNL     1      -6.936  -0.324  -2.076  1.00  0.00     0.060 A 
ATOM     31  C   UNL     1      -7.447   0.762  -1.346  1.00  0.00     0.016 A 
ATOM     32  C   UNL     1      -6.301  -1.362  -1.406  1.00  0.00     0.016 A 
ATOM     33  C   UNL     1      -7.219   0.854   0.033  1.00  0.00     0.010 A 
ATOM     34  C   UNL     1      -5.959  -1.199  -0.084  1.00  0.00     0.010 A 
ATOM     35  C   UNL     1      -6.426  -0.100   0.651  1.00  0.00    -0.014 A 
BRANCH  35  36
ATOM     36  C   UNL     1      -5.965  -0.048   2.039  1.00  0.00     0.031 A 
ATOM     37  C   UNL     1      -6.432  -1.172   2.881  1.00  0.00     0.074 A 
ATOM     38  C   UNL     1      -5.058   0.893   2.402  1.00  0.00     0.049 A 
ATOM     39  N   UNL     1      -6.506  -1.156   4.163  1.00  0.00    -0.248 NA
ATOM     40  C   UNL     1      -7.030  -2.404   2.323  1.00  0.00     0.031 C 
ATOM     41  C   UNL     1      -4.108   0.970   3.510  1.00  0.00     0.029 A 
ATOM     42  N   UNL     1      -4.857   2.130   1.763  1.00  0.00    -0.354 N 
ATOM     43  C   UNL     1      -6.638  -2.482   4.528  1.00  0.00     0.074 A 
ATOM     44  C   UNL     1      -7.261  -3.126   3.415  1.00  0.00     0.031 C 
ATOM     45  C   UNL     1      -3.728   2.261   3.668  1.00  0.00     0.029 A 
ATOM     46  C   UNL     1      -4.549   3.072   2.749  1.00  0.00     0.049 A 
ATOM     47  H   UNL     1      -4.922   2.302   0.796  1.00  0.00     0.167 HD
ATOM     48  C   UNL     1      -5.880  -2.950   5.558  1.00  0.00     0.031 A 
ATOM     49  C   UNL     1      -5.370   4.126   3.064  1.00  0.00     0.031 A 
ATOM     50  C   UNL     1      -5.161  -1.836   6.195  1.00  0.00     0.049 A 
ATOM     51  C   UNL     1      -5.687   3.898   4.506  1.00  0.00     0.074 A 
ATOM     52  C   UNL     1      -3.824  -1.498   6.298  1.00  0.00     0.029 A 
ATOM     53  N   UNL     1      -5.875  -0.685   6.533  1.00  0.00    -0.354 N 
ATOM     54  N   UNL     1      -6.008   2.719   4.978  1.00  0.00    -0.248 NA
ATOM     55  C   UNL     1      -5.353   4.888   5.522  1.00  0.00     0.031 C 
ATOM     56  C   UNL     1      -3.749  -0.112   6.640  1.00  0.00     0.029 A 
ATOM     57  C   UNL     1      -5.040   0.400   6.697  1.00  0.00     0.049 A 
ATOM     58  H   UNL     1      -6.854  -0.651   6.641  1.00  0.00     0.167 HD
ATOM     59  C   UNL     1      -5.739   2.739   6.316  1.00  0.00     0.074 A 
ATOM     60  C   UNL     1      -5.409   4.128   6.625  1.00  0.00     0.031 C 
ATOM     61  C   UNL     1      -5.599   1.665   7.138  1.00  0.00     0.031 A 
BRANCH  48  62
ATOM     62  C   UNL     1      -5.545  -4.422   5.764  1.00  0.00    -0.014 A 
ATOM     63  C   UNL     1      -4.553  -4.772   6.699  1.00  0.00     0.010 A 
ATOM     64  C   UNL     1      -6.128  -5.508   5.070  1.00  0.00     0.010 A 
ATOM     65  C   UNL     1      -4.158  -6.103   6.916  1.00  0.00     0.020 A 
ATOM     66  C   UNL     1      -5.745  -6.844   5.272  1.00  0.00     0.020 A 
ATOM     67  C   UNL     1      -4.763  -7.135   6.205  1.00  0.00     0.054 A 
BRANCH  67  68
ATOM     68  S   UNL     1      -4.293  -8.848   6.553  1.00  0.00     0.124 S 
ATOM     69  O   UNL     1      -2.871  -8.860   6.218  1.00  0.00    -0.237 OA
ATOM     70  O   UNL     1      -4.607  -8.974   7.973  1.00  0.00    -0.237 OA
ATOM     71  O   UNL     1      -5.143  -9.634   5.661  1.00  0.00    -0.744 OA
ENDBRANCH  67  68
ENDBRANCH  48  62
BRANCH  49  72
ATOM     72  C   UNL     1      -6.294   4.760   2.036  1.00  0.00    -0.014 A 
ATOM     73  C   UNL     1      -5.786   5.707   1.114  1.00  0.00     0.010 A 
ATOM     74  C   UNL     1      -7.540   4.208   1.714  1.00  0.00     0.010 A 
ATOM     75  C   UNL     1      -6.298   5.807  -0.209  1.00  0.00     0.020 A 
ATOM     76  C   UNL     1      -8.077   4.325   0.408  1.00  0.00     0.020 A 
ATOM     77  C   UNL     1      -7.367   5.000  -0.583  1.00  0.00     0.054 A 
BRANCH  77  78
ATOM     78  S   UNL     1      -7.648   4.612  -2.361  1.00  0.00     0.124 S 
ATOM     79  O   UNL     1      -7.602   5.925  -2.998  1.00  0.00    -0.237 OA
ATOM     80  O   UNL     1      -6.522   3.732  -2.677  1.00  0.00    -0.237 OA
ATOM     81  O   UNL     1      -8.954   3.961  -2.357  1.00  0.00    -0.744 OA
ENDBRANCH  77  78
ENDBRANCH  49  72
BRANCH  61  82
ATOM     82  C   UNL     1      -6.161   1.743   8.521  1.00  0.00    -0.014 A 
ATOM     83  C   UNL     1      -7.018   2.779   8.925  1.00  0.00     0.010 A 
ATOM     84  C   UNL     1      -6.017   0.627   9.372  1.00  0.00     0.010 A 
ATOM     85  C   UNL     1      -7.641   2.741  10.163  1.00  0.00     0.020 A 
ATOM     86  C   UNL     1      -6.694   0.548  10.580  1.00  0.00     0.020 A 
ATOM     87  C   UNL     1      -7.468   1.628  10.983  1.00  0.00     0.054 A 
BRANCH  87  88
ATOM     88  S   UNL     1      -8.278   1.606  12.586  1.00  0.00     0.124 S 
ATOM     89  O   UNL     1      -7.390   2.463  13.367  1.00  0.00    -0.237 OA
ATOM     90  O   UNL     1      -9.594   2.169  12.290  1.00  0.00    -0.237 OA
ATOM     91  O   UNL     1      -8.276   0.194  12.955  1.00  0.00    -0.744 OA
ENDBRANCH  87  88
ENDBRANCH  61  82
ENDBRANCH  35  36
ENDBRANCH  28  30
ENDBRANCH  27  28
ENDBRANCH  26  27
ENDBRANCH   1  26
TORSDOF 18
