REMARK SMILES O=C(OCCOCCOC(=O)[C@H](c1c[nH]c2cc(F)ccc12)[NH+]1CCN(c2ccccc2)CC1)c1ccc(-c2c3nc(c(-c4ccc(S(=O)(=O)[O-])cc4)c4ccc([nH]4)c(-c4ccc(S(=O)(=O)[O-])cc4)c4nc(c(-c5ccc(S(=O)(=O)[O-])cc5)c5ccc2[nH]5)C=C4)C=C3)cc1
REMARK SMILES IDX 5 1 4 2 3 3 2 4 1 5 35 6 36 7 94 8 37 9 93 10 38 11 39 12
REMARK SMILES IDX 40 13 87 14 41 15 92 16 86 17 88 18 42 19 91 20 85 21 84 22
REMARK SMILES IDX 43 24 73 25 54 26 72 27 55 28 58 29 71 30 89 31 56 32 57 33
REMARK SMILES IDX 70 35 90 36 59 37 44 38 45 39 53 40 46 41 52 42 47 43 48 44
REMARK SMILES IDX 49 45 50 46 51 47 74 48 75 49 83 50 76 51 82 52 77 53 78 54
REMARK SMILES IDX 79 55 80 56 81 57 60 58 61 59 69 60 62 61 68 62 63 63 64 64
REMARK SMILES IDX 65 65 66 66 67 67 6 68 7 69 8 70 9 71 10 72 11 73 12 74
REMARK SMILES IDX 23 75 24 76 34 77 25 79 33 80 26 81 27 82 28 83 32 84 29 85
REMARK SMILES IDX 31 86 30 87 13 88 14 89 22 90 15 91 16 92 21 93 17 95 20 96
REMARK SMILES IDX 18 97 19 98
REMARK H PARENT 88 23 58 34 23 78 15 94
REMARK Flexibility Score: inf
ROOT
ATOM      1  C   UNL     1       6.850  -3.637  -0.226  1.00  0.00     0.202 C 
ENDROOT
BRANCH   1   2
ATOM      2  C   UNL     1       8.082  -3.760   0.672  1.00  0.00     0.261 C 
BRANCH   2   3
ATOM      3  O   UNL     1       8.230  -5.119   1.118  1.00  0.00    -0.460 OA
BRANCH   3   4
ATOM      4  C   UNL     1       7.871  -5.695   2.286  1.00  0.00     0.338 C 
ATOM      5  O   UNL     1       8.117  -6.894   2.426  1.00  0.00    -0.246 OA
BRANCH   4   6
ATOM      6  C   UNL     1       7.152  -5.000   3.405  1.00  0.00     0.060 A 
ATOM      7  C   UNL     1       6.447  -3.798   3.304  1.00  0.00     0.016 A 
ATOM      8  C   UNL     1       7.093  -5.687   4.633  1.00  0.00     0.016 A 
ATOM      9  C   UNL     1       5.705  -3.294   4.361  1.00  0.00     0.010 A 
ATOM     10  C   UNL     1       6.367  -5.179   5.714  1.00  0.00     0.010 A 
ATOM     11  C   UNL     1       5.681  -3.971   5.574  1.00  0.00    -0.014 A 
BRANCH  11  12
ATOM     12  C   UNL     1       5.093  -3.266   6.720  1.00  0.00     0.031 A 
ATOM     13  C   UNL     1       6.015  -2.424   7.548  1.00  0.00     0.074 A 
ATOM     14  C   UNL     1       3.760  -3.253   6.889  1.00  0.00     0.049 A 
ATOM     15  N   UNL     1       5.750  -1.689   8.591  1.00  0.00    -0.248 NA
ATOM     16  C   UNL     1       7.427  -2.384   7.121  1.00  0.00     0.031 C 
ATOM     17  C   UNL     1       2.792  -3.921   6.016  1.00  0.00     0.029 A 
ATOM     18  N   UNL     1       2.988  -2.624   7.827  1.00  0.00    -0.354 N 
ATOM     19  C   UNL     1       6.960  -1.111   8.953  1.00  0.00     0.074 A 
ATOM     20  C   UNL     1       7.960  -1.573   8.020  1.00  0.00     0.031 C 
ATOM     21  C   UNL     1       1.550  -3.654   6.456  1.00  0.00     0.029 A 
ATOM     22  C   UNL     1       1.641  -2.846   7.667  1.00  0.00     0.049 A 
ATOM     23  H   UNL     1       3.361  -2.067   8.547  1.00  0.00     0.167 HD
ATOM     24  C   UNL     1       7.209  -0.283   9.992  1.00  0.00     0.031 A 
ATOM     25  C   UNL     1       0.610  -2.456   8.442  1.00  0.00     0.031 A 
ATOM     26  C   UNL     1       6.196   0.113  10.927  1.00  0.00     0.049 A 
ATOM     27  C   UNL     1       0.931  -1.639   9.667  1.00  0.00     0.074 A 
ATOM     28  C   UNL     1       6.326   0.849  12.088  1.00  0.00     0.029 A 
ATOM     29  N   UNL     1       4.851  -0.211  10.799  1.00  0.00    -0.354 N 
ATOM     30  N   UNL     1       2.094  -1.169  10.060  1.00  0.00    -0.248 NA
ATOM     31  C   UNL     1      -0.185  -1.316  10.563  1.00  0.00     0.031 C 
ATOM     32  C   UNL     1       5.064   0.928  12.687  1.00  0.00     0.029 A 
ATOM     33  C   UNL     1       4.139   0.291  11.870  1.00  0.00     0.049 A 
ATOM     34  H   UNL     1       4.462  -0.725  10.054  1.00  0.00     0.167 HD
ATOM     35  C   UNL     1       1.849  -0.486  11.244  1.00  0.00     0.074 A 
ATOM     36  C   UNL     1       0.422  -0.586  11.490  1.00  0.00     0.031 C 
ATOM     37  C   UNL     1       2.716   0.160  12.063  1.00  0.00     0.031 A 
BRANCH  24  38
ATOM     38  C   UNL     1       8.639   0.130  10.201  1.00  0.00    -0.014 A 
ATOM     39  C   UNL     1       9.268   1.062   9.355  1.00  0.00     0.010 A 
ATOM     40  C   UNL     1       9.386  -0.478  11.225  1.00  0.00     0.010 A 
ATOM     41  C   UNL     1      10.631   1.340   9.500  1.00  0.00     0.020 A 
ATOM     42  C   UNL     1      10.743  -0.187  11.387  1.00  0.00     0.020 A 
ATOM     43  C   UNL     1      11.362   0.704  10.508  1.00  0.00     0.054 A 
BRANCH  43  44
ATOM     44  S   UNL     1      13.135   1.059  10.660  1.00  0.00     0.124 S 
ATOM     45  O   UNL     1      13.685   0.334   9.517  1.00  0.00    -0.237 OA
ATOM     46  O   UNL     1      13.182   2.515  10.560  1.00  0.00    -0.237 OA
ATOM     47  O   UNL     1      13.487   0.515  11.970  1.00  0.00    -0.744 OA
ENDBRANCH  43  44
ENDBRANCH  24  38
BRANCH  25  48
ATOM     48  C   UNL     1      -0.782  -2.888   8.127  1.00  0.00    -0.014 A 
ATOM     49  C   UNL     1      -1.777  -1.957   7.781  1.00  0.00     0.010 A 
ATOM     50  C   UNL     1      -1.122  -4.254   8.176  1.00  0.00     0.010 A 
ATOM     51  C   UNL     1      -3.084  -2.381   7.508  1.00  0.00     0.020 A 
ATOM     52  C   UNL     1      -2.418  -4.684   7.876  1.00  0.00     0.020 A 
ATOM     53  C   UNL     1      -3.396  -3.743   7.557  1.00  0.00     0.054 A 
BRANCH  53  54
ATOM     54  S   UNL     1      -5.086  -4.277   7.163  1.00  0.00     0.124 S 
ATOM     55  O   UNL     1      -5.819  -3.873   8.359  1.00  0.00    -0.237 OA
ATOM     56  O   UNL     1      -5.385  -3.519   5.951  1.00  0.00    -0.237 OA
ATOM     57  O   UNL     1      -4.952  -5.720   6.969  1.00  0.00    -0.744 OA
ENDBRANCH  53  54
ENDBRANCH  25  48
BRANCH  37  58
ATOM     58  C   UNL     1       2.136   0.821  13.280  1.00  0.00    -0.014 A 
ATOM     59  C   UNL     1       1.743   0.063  14.396  1.00  0.00     0.010 A 
ATOM     60  C   UNL     1       2.063   2.225  13.332  1.00  0.00     0.010 A 
ATOM     61  C   UNL     1       1.264   0.700  15.541  1.00  0.00     0.020 A 
ATOM     62  C   UNL     1       1.609   2.865  14.484  1.00  0.00     0.020 A 
ATOM     63  C   UNL     1       1.202   2.098  15.578  1.00  0.00     0.054 A 
BRANCH  63  64
ATOM     64  S   UNL     1       0.637   2.905  17.099  1.00  0.00     0.124 S 
ATOM     65  O   UNL     1      -0.807   2.695  17.034  1.00  0.00    -0.237 OA
ATOM     66  O   UNL     1       1.336   2.156  18.140  1.00  0.00    -0.237 OA
ATOM     67  O   UNL     1       1.074   4.290  16.937  1.00  0.00    -0.744 OA
ENDBRANCH  63  64
ENDBRANCH  37  58
ENDBRANCH  11  12
ENDBRANCH   4   6
ENDBRANCH   3   4
ENDBRANCH   2   3
ENDBRANCH   1   2
BRANCH   1  68
ATOM     68  O   UNL     1       5.616  -3.795   0.463  1.00  0.00    -0.374 OA
BRANCH  68  69
ATOM     69  C   UNL     1       5.080  -5.119   0.552  1.00  0.00     0.202 C 
BRANCH  69  70
ATOM     70  C   UNL     1       3.567  -5.021   0.371  1.00  0.00     0.261 C 
BRANCH  70  71
ATOM     71  O   UNL     1       3.353  -4.582  -0.976  1.00  0.00    -0.459 OA
BRANCH  71  72
ATOM     72  C   UNL     1       3.344  -3.245  -1.181  1.00  0.00     0.370 C 
ATOM     73  O   UNL     1       3.144  -2.425  -0.288  1.00  0.00    -0.245 OA
BRANCH  72  74
ATOM     74  C   UNL     1       3.761  -2.867  -2.619  1.00  0.00     0.328 C 
BRANCH  74  75
ATOM     75  N   UNL     1       3.715  -3.897  -3.702  1.00  0.00    -0.316 N 
ATOM     76  C   UNL     1       4.581  -5.080  -3.545  1.00  0.00     0.284 C 
ATOM     77  C   UNL     1       2.412  -4.327  -4.207  1.00  0.00     0.284 C 
ATOM     78  H   UNL     1       4.117  -3.294  -4.420  1.00  0.00     0.349 HD
ATOM     79  C   UNL     1       3.983  -6.420  -3.001  1.00  0.00     0.178 C 
ATOM     80  C   UNL     1       1.702  -5.391  -3.363  1.00  0.00     0.178 C 
ATOM     81  N   UNL     1       2.534  -6.599  -3.210  1.00  0.00    -0.360 N 
BRANCH  81  82
ATOM     82  C   UNL     1       1.871  -7.699  -2.649  1.00  0.00     0.037 A 
ATOM     83  C   UNL     1       2.326  -8.377  -1.507  1.00  0.00     0.026 A 
ATOM     84  C   UNL     1       0.664  -8.154  -3.209  1.00  0.00     0.026 A 
ATOM     85  C   UNL     1       1.587  -9.416  -0.924  1.00  0.00     0.002 A 
ATOM     86  C   UNL     1      -0.076  -9.194  -2.638  1.00  0.00     0.002 A 
ATOM     87  C   UNL     1       0.381  -9.820  -1.487  1.00  0.00     0.000 A 
ENDBRANCH  81  82
ENDBRANCH  74  75
BRANCH  74  88
ATOM     88  C   UNL     1       3.017  -1.608  -3.033  1.00  0.00     0.046 A 
ATOM     89  C   UNL     1       1.648  -1.405  -2.929  1.00  0.00     0.094 A 
ATOM     90  C   UNL     1       3.574  -0.358  -3.478  1.00  0.00     0.009 A 
ATOM     91  N   UNL     1       1.356  -0.136  -3.330  1.00  0.00    -0.361 N 
ATOM     92  C   UNL     1       2.508   0.528  -3.669  1.00  0.00     0.049 A 
ATOM     93  C   UNL     1       4.884   0.120  -3.707  1.00  0.00     0.014 A 
ATOM     94  H   UNL     1       0.450   0.248  -3.370  1.00  0.00     0.166 HD
ATOM     95  C   UNL     1       2.679   1.847  -4.102  1.00  0.00     0.065 A 
ATOM     96  C   UNL     1       5.074   1.444  -4.126  1.00  0.00     0.040 A 
ATOM     97  C   UNL     1       3.983   2.280  -4.324  1.00  0.00     0.125 A 
ATOM     98  F   UNL     1       4.187   3.540  -4.733  1.00  0.00    -0.207 F 
ENDBRANCH  74  88
ENDBRANCH  72  74
ENDBRANCH  71  72
ENDBRANCH  70  71
ENDBRANCH  69  70
ENDBRANCH  68  69
ENDBRANCH   1  68
TORSDOF 20
