REMARK SMILES C=CC[C@@](CC)(C(=O)OCCOCCOC(=O)c1ccc(-c2c3nc(c(-c4ccc(S(=O)(=O)[O-])cc4)c4ccc([nH]4)c(-c4ccc(S(=O)(=O)[O-])cc4)c4nc(c(-c5ccc(S(=O)(=O)[O-])cc5)c5ccc2[nH]5)C=C4)C=C3)cc1)c1ccccc1
REMARK SMILES IDX 13 1 12 2 11 3 10 4 9 5 7 6 8 7 4 8 3 9 2 10 1 11 5 12 6 13
REMARK SMILES IDX 78 14 79 15 83 16 80 17 82 18 81 19 14 20 15 21 16 22 17 23
REMARK SMILES IDX 18 24 19 25 77 26 20 27 76 28 21 29 22 30 23 31 70 32 24 33
REMARK SMILES IDX 75 34 69 35 71 36 25 37 74 38 68 39 67 40 26 42 56 43 37 44
REMARK SMILES IDX 55 45 38 46 41 47 54 48 72 49 39 50 40 51 53 53 73 54 42 55
REMARK SMILES IDX 27 56 28 57 36 58 29 59 35 60 30 61 31 62 32 63 33 64 34 65
REMARK SMILES IDX 57 66 58 67 66 68 59 69 65 70 60 71 61 72 62 73 63 74 64 75
REMARK SMILES IDX 43 76 44 77 52 78 45 79 51 80 46 81 47 82 48 83 49 84 50 85
REMARK H PARENT 71 41 41 52
REMARK Flexibility Score: inf
ROOT
ATOM      1  C   UNL     1      -4.390  -0.422  -1.177  1.00  0.00     0.202 C 
ENDROOT
BRANCH   1   2
ATOM      2  O   UNL     1      -5.567  -1.222  -1.088  1.00  0.00    -0.374 OA
BRANCH   2   3
ATOM      3  C   UNL     1      -5.990  -1.644   0.205  1.00  0.00     0.202 C 
BRANCH   3   4
ATOM      4  C   UNL     1      -5.162  -2.726   0.905  1.00  0.00     0.261 C 
BRANCH   4   5
ATOM      5  O   UNL     1      -3.763  -2.405   0.982  1.00  0.00    -0.463 OA
BRANCH   5   6
ATOM      6  C   UNL     1      -2.940  -3.235   0.281  1.00  0.00     0.316 C 
ATOM      7  O   UNL     1      -3.333  -4.236  -0.313  1.00  0.00    -0.251 OA
BRANCH   6   8
ATOM      8  C   UNL     1      -1.439  -2.828   0.351  1.00  0.00     0.096 C 
BRANCH   8   9
ATOM      9  C   UNL     1      -1.226  -1.408   0.991  1.00  0.00     0.050 C 
BRANCH   9  10
ATOM     10  C   UNL     1       0.220  -1.000   1.196  1.00  0.00    -0.033 C 
ATOM     11  C   UNL     1       0.808   0.066   0.636  1.00  0.00     0.004 C 
ENDBRANCH   9  10
ENDBRANCH   8   9
BRANCH   8  12
ATOM     12  C   UNL     1      -0.775  -3.920   1.264  1.00  0.00     0.020 C 
ATOM     13  C   UNL     1      -1.157  -3.860   2.744  1.00  0.00     0.005 C 
ENDBRANCH   8  12
BRANCH   8  14
ATOM     14  C   UNL     1      -0.893  -2.904  -1.115  1.00  0.00    -0.030 A 
ATOM     15  C   UNL     1      -0.634  -4.149  -1.724  1.00  0.00     0.005 A 
ATOM     16  C   UNL     1      -0.742  -1.764  -1.928  1.00  0.00     0.005 A 
ATOM     17  C   UNL     1      -0.219  -4.246  -3.056  1.00  0.00     0.000 A 
ATOM     18  C   UNL     1      -0.312  -1.858  -3.257  1.00  0.00     0.000 A 
ATOM     19  C   UNL     1      -0.049  -3.100  -3.821  1.00  0.00     0.000 A 
ENDBRANCH   8  14
ENDBRANCH   6   8
ENDBRANCH   5   6
ENDBRANCH   4   5
ENDBRANCH   3   4
ENDBRANCH   2   3
ENDBRANCH   1   2
BRANCH   1  20
ATOM     20  C   UNL     1      -4.448   0.995  -0.590  1.00  0.00     0.261 C 
BRANCH  20  21
ATOM     21  O   UNL     1      -4.630   1.007   0.839  1.00  0.00    -0.460 OA
BRANCH  21  22
ATOM     22  C   UNL     1      -5.753   1.640   1.257  1.00  0.00     0.338 C 
ATOM     23  O   UNL     1      -6.561   2.243   0.557  1.00  0.00    -0.246 OA
BRANCH  22  24
ATOM     24  C   UNL     1      -6.012   1.373   2.683  1.00  0.00     0.060 A 
ATOM     25  C   UNL     1      -7.246   0.800   3.018  1.00  0.00     0.016 A 
ATOM     26  C   UNL     1      -5.128   1.787   3.682  1.00  0.00     0.016 A 
ATOM     27  C   UNL     1      -7.626   0.691   4.354  1.00  0.00     0.010 A 
ATOM     28  C   UNL     1      -5.518   1.686   5.024  1.00  0.00     0.010 A 
ATOM     29  C   UNL     1      -6.784   1.176   5.364  1.00  0.00    -0.014 A 
BRANCH  29  30
ATOM     30  C   UNL     1      -7.309   1.290   6.748  1.00  0.00     0.031 A 
ATOM     31  C   UNL     1      -7.847   2.616   7.219  1.00  0.00     0.074 A 
ATOM     32  C   UNL     1      -7.365   0.216   7.556  1.00  0.00     0.049 A 
ATOM     33  N   UNL     1      -8.375   2.932   8.374  1.00  0.00    -0.248 NA
ATOM     34  C   UNL     1      -7.788   3.731   6.259  1.00  0.00     0.031 C 
ATOM     35  C   UNL     1      -6.922  -1.132   7.203  1.00  0.00     0.029 A 
ATOM     36  N   UNL     1      -7.828   0.093   8.842  1.00  0.00    -0.354 N 
ATOM     37  C   UNL     1      -8.714   4.278   8.280  1.00  0.00     0.074 A 
ATOM     38  C   UNL     1      -8.302   4.726   6.967  1.00  0.00     0.031 C 
ATOM     39  C   UNL     1      -7.133  -1.948   8.251  1.00  0.00     0.029 A 
ATOM     40  C   UNL     1      -7.701  -1.176   9.355  1.00  0.00     0.049 A 
ATOM     41  H   UNL     1      -8.214   0.843   9.350  1.00  0.00     0.167 HD
ATOM     42  C   UNL     1      -9.321   5.068   9.197  1.00  0.00     0.031 A 
ATOM     43  C   UNL     1      -7.998  -1.658  10.578  1.00  0.00     0.031 A 
ATOM     44  C   UNL     1      -9.715   4.630  10.509  1.00  0.00     0.049 A 
ATOM     45  C   UNL     1      -8.602  -0.740  11.609  1.00  0.00     0.074 A 
ATOM     46  C   UNL     1     -10.333   5.359  11.511  1.00  0.00     0.029 A 
ATOM     47  N   UNL     1      -9.526   3.350  11.005  1.00  0.00    -0.354 N 
ATOM     48  N   UNL     1      -8.927   0.526  11.498  1.00  0.00    -0.248 NA
ATOM     49  C   UNL     1      -8.886  -1.322  12.929  1.00  0.00     0.031 C 
ATOM     50  C   UNL     1     -10.476   4.531  12.630  1.00  0.00     0.029 A 
ATOM     51  C   UNL     1      -9.995   3.272  12.306  1.00  0.00     0.049 A 
ATOM     52  H   UNL     1      -9.119   2.605  10.506  1.00  0.00     0.167 HD
ATOM     53  C   UNL     1      -9.478   0.885  12.724  1.00  0.00     0.074 A 
ATOM     54  C   UNL     1      -9.453  -0.300  13.557  1.00  0.00     0.031 C 
ATOM     55  C   UNL     1      -9.963   2.087  13.124  1.00  0.00     0.031 A 
BRANCH  42  56
ATOM     56  C   UNL     1      -9.571   6.503   8.816  1.00  0.00    -0.014 A 
ATOM     57  C   UNL     1     -10.575   6.844   7.891  1.00  0.00     0.010 A 
ATOM     58  C   UNL     1      -8.811   7.526   9.411  1.00  0.00     0.010 A 
ATOM     59  C   UNL     1     -10.788   8.179   7.540  1.00  0.00     0.020 A 
ATOM     60  C   UNL     1      -9.037   8.865   9.080  1.00  0.00     0.020 A 
ATOM     61  C   UNL     1     -10.014   9.181   8.132  1.00  0.00     0.054 A 
BRANCH  61  62
ATOM     62  S   UNL     1     -10.319  10.909   7.669  1.00  0.00     0.124 S 
ATOM     63  O   UNL     1      -9.721  10.972   6.337  1.00  0.00    -0.237 OA
ATOM     64  O   UNL     1     -11.776  11.000   7.708  1.00  0.00    -0.237 OA
ATOM     65  O   UNL     1      -9.622  11.673   8.701  1.00  0.00    -0.744 OA
ENDBRANCH  61  62
ENDBRANCH  42  56
BRANCH  43  66
ATOM     66  C   UNL     1      -7.712  -3.081  10.906  1.00  0.00    -0.014 A 
ATOM     67  C   UNL     1      -8.756  -4.003  11.089  1.00  0.00     0.010 A 
ATOM     68  C   UNL     1      -6.381  -3.517  11.047  1.00  0.00     0.010 A 
ATOM     69  C   UNL     1      -8.477  -5.331  11.425  1.00  0.00     0.020 A 
ATOM     70  C   UNL     1      -6.097  -4.849  11.357  1.00  0.00     0.020 A 
ATOM     71  C   UNL     1      -7.148  -5.745  11.557  1.00  0.00     0.054 A 
BRANCH  71  72
ATOM     72  S   UNL     1      -6.803  -7.484  11.948  1.00  0.00     0.124 S 
ATOM     73  O   UNL     1      -7.111  -7.540  13.373  1.00  0.00    -0.237 OA
ATOM     74  O   UNL     1      -7.729  -8.196  11.071  1.00  0.00    -0.237 OA
ATOM     75  O   UNL     1      -5.391  -7.635  11.604  1.00  0.00    -0.744 OA
ENDBRANCH  71  72
ENDBRANCH  43  66
BRANCH  55  76
ATOM     76  C   UNL     1     -10.537   2.175  14.512  1.00  0.00    -0.014 A 
ATOM     77  C   UNL     1      -9.707   2.175  15.646  1.00  0.00     0.010 A 
ATOM     78  C   UNL     1     -11.928   2.308  14.681  1.00  0.00     0.010 A 
ATOM     79  C   UNL     1     -10.259   2.273  16.927  1.00  0.00     0.020 A 
ATOM     80  C   UNL     1     -12.482   2.431  15.958  1.00  0.00     0.020 A 
ATOM     81  C   UNL     1     -11.644   2.397  17.074  1.00  0.00     0.054 A 
BRANCH  81  82
ATOM     82  S   UNL     1     -12.336   2.560  18.744  1.00  0.00     0.124 S 
ATOM     83  O   UNL     1     -12.257   1.189  19.240  1.00  0.00    -0.237 OA
ATOM     84  O   UNL     1     -11.428   3.512  19.378  1.00  0.00    -0.237 OA
ATOM     85  O   UNL     1     -13.689   3.061  18.510  1.00  0.00    -0.744 OA
ENDBRANCH  81  82
ENDBRANCH  55  76
ENDBRANCH  29  30
ENDBRANCH  22  24
ENDBRANCH  21  22
ENDBRANCH  20  21
ENDBRANCH   1  20
TORSDOF 21
