REMARK SMILES C[C@@H](C(=O)OCCOCCOC(=O)c1ccc(-c2c3nc(c(-c4ccc(S(=O)(=O)[O-])cc4)c4ccc([nH]4)c(-c4ccc(S(=O)(=O)[O-])cc4)c4nc(c(-c5ccc(S(=O)(=O)[O-])cc5)c5ccc2[nH]5)C=C4)C=C3)cc1)c1ccc(-c2ccccc2)cc1
REMARK SMILES IDX 9 1 8 2 7 3 6 4 5 5 3 6 4 7 2 8 1 9 74 10 75 11 85 12 76 13
REMARK SMILES IDX 84 14 77 15 78 16 79 17 83 18 80 19 82 20 81 21 10 22 11 23
REMARK SMILES IDX 12 24 13 25 14 26 15 27 73 28 16 29 72 30 17 31 18 32 19 33
REMARK SMILES IDX 66 34 20 35 71 36 65 37 67 38 21 39 70 40 64 41 63 42 22 44
REMARK SMILES IDX 52 45 33 46 51 47 34 48 37 49 50 50 68 51 35 52 36 53 49 55
REMARK SMILES IDX 69 56 38 57 23 58 24 59 32 60 25 61 31 62 26 63 27 64 28 65
REMARK SMILES IDX 29 66 30 67 53 68 54 69 62 70 55 71 61 72 56 73 57 74 58 75
REMARK SMILES IDX 59 76 60 77 39 78 40 79 48 80 41 81 47 82 42 83 43 84 44 85
REMARK SMILES IDX 45 86 46 87
REMARK H PARENT 67 43 37 54
REMARK Flexibility Score: inf
ROOT
ATOM      1  C   UNL     1       0.591  -3.631  -0.039  1.00  0.00     0.202 C 
ENDROOT
BRANCH   1   2
ATOM      2  O   UNL     1       1.021  -4.544  -1.049  1.00  0.00    -0.374 OA
BRANCH   2   3
ATOM      3  C   UNL     1       2.274  -4.265  -1.683  1.00  0.00     0.202 C 
BRANCH   3   4
ATOM      4  C   UNL     1       2.245  -3.163  -2.746  1.00  0.00     0.261 C 
BRANCH   4   5
ATOM      5  O   UNL     1       1.942  -1.899  -2.132  1.00  0.00    -0.463 OA
BRANCH   5   6
ATOM      6  C   UNL     1       1.008  -1.138  -2.761  1.00  0.00     0.313 C 
ATOM      7  O   UNL     1       0.584  -1.359  -3.890  1.00  0.00    -0.252 OA
BRANCH   6   8
ATOM      8  C   UNL     1       0.474  -0.011  -1.870  1.00  0.00     0.126 C 
ATOM      9  C   UNL     1       1.218   0.182  -0.543  1.00  0.00     0.025 C 
BRANCH   8  10
ATOM     10  C   UNL     1      -1.031  -0.109  -1.623  1.00  0.00    -0.034 A 
ATOM     11  C   UNL     1      -1.759   1.056  -1.344  1.00  0.00     0.005 A 
ATOM     12  C   UNL     1      -1.727  -1.328  -1.657  1.00  0.00     0.005 A 
ATOM     13  C   UNL     1      -3.143   1.007  -1.145  1.00  0.00     0.009 A 
ATOM     14  C   UNL     1      -3.110  -1.375  -1.450  1.00  0.00     0.009 A 
ATOM     15  C   UNL     1      -3.842  -0.207  -1.209  1.00  0.00    -0.018 A 
BRANCH  15  16
ATOM     16  C   UNL     1      -5.304  -0.246  -1.081  1.00  0.00    -0.018 A 
ATOM     17  C   UNL     1      -6.115   0.412  -2.021  1.00  0.00     0.009 A 
ATOM     18  C   UNL     1      -5.931  -0.951  -0.042  1.00  0.00     0.009 A 
ATOM     19  C   UNL     1      -7.507   0.369  -1.925  1.00  0.00     0.001 A 
ATOM     20  C   UNL     1      -7.324  -0.992   0.057  1.00  0.00     0.001 A 
ATOM     21  C   UNL     1      -8.112  -0.332  -0.885  1.00  0.00     0.000 A 
ENDBRANCH  15  16
ENDBRANCH   8  10
ENDBRANCH   6   8
ENDBRANCH   5   6
ENDBRANCH   4   5
ENDBRANCH   3   4
ENDBRANCH   2   3
ENDBRANCH   1   2
BRANCH   1  22
ATOM     22  C   UNL     1       1.217  -3.789   1.351  1.00  0.00     0.261 C 
BRANCH  22  23
ATOM     23  O   UNL     1       2.628  -3.517   1.344  1.00  0.00    -0.460 OA
BRANCH  23  24
ATOM     24  C   UNL     1       3.410  -4.612   1.492  1.00  0.00     0.338 C 
ATOM     25  O   UNL     1       3.039  -5.758   1.717  1.00  0.00    -0.246 OA
BRANCH  24  26
ATOM     26  C   UNL     1       4.808  -4.285   1.157  1.00  0.00     0.060 A 
ATOM     27  C   UNL     1       5.466  -5.138   0.261  1.00  0.00     0.016 A 
ATOM     28  C   UNL     1       5.483  -3.212   1.743  1.00  0.00     0.016 A 
ATOM     29  C   UNL     1       6.820  -4.957  -0.006  1.00  0.00     0.010 A 
ATOM     30  C   UNL     1       6.846  -3.037   1.479  1.00  0.00     0.010 A 
ATOM     31  C   UNL     1       7.527  -3.933   0.635  1.00  0.00    -0.014 A 
BRANCH  31  32
ATOM     32  C   UNL     1       9.006  -3.910   0.545  1.00  0.00     0.031 A 
ATOM     33  C   UNL     1       9.809  -4.504   1.671  1.00  0.00     0.074 A 
ATOM     34  C   UNL     1       9.623  -3.411  -0.541  1.00  0.00     0.049 A 
ATOM     35  N   UNL     1      11.107  -4.601   1.801  1.00  0.00    -0.248 NA
ATOM     36  C   UNL     1       9.047  -5.067   2.799  1.00  0.00     0.031 C 
ATOM     37  C   UNL     1       8.951  -2.854  -1.714  1.00  0.00     0.029 A 
ATOM     38  N   UNL     1      10.959  -3.299  -0.832  1.00  0.00    -0.354 N 
ATOM     39  C   UNL     1      11.318  -5.225   3.025  1.00  0.00     0.074 A 
ATOM     40  C   UNL     1      10.017  -5.461   3.611  1.00  0.00     0.031 C 
ATOM     41  C   UNL     1       9.880  -2.457  -2.600  1.00  0.00     0.029 A 
ATOM     42  C   UNL     1      11.210  -2.704  -2.045  1.00  0.00     0.049 A 
ATOM     43  H   UNL     1      11.670  -3.615  -0.229  1.00  0.00     0.167 HD
ATOM     44  C   UNL     1      12.489  -5.573   3.608  1.00  0.00     0.031 A 
ATOM     45  C   UNL     1      12.379  -2.383  -2.633  1.00  0.00     0.031 A 
ATOM     46  C   UNL     1      13.782  -5.327   3.026  1.00  0.00     0.049 A 
ATOM     47  C   UNL     1      13.671  -2.717  -1.934  1.00  0.00     0.074 A 
ATOM     48  C   UNL     1      15.028  -5.658   3.528  1.00  0.00     0.029 A 
ATOM     49  N   UNL     1      13.995  -4.681   1.818  1.00  0.00    -0.354 N 
ATOM     50  N   UNL     1      13.853  -3.330  -0.788  1.00  0.00    -0.248 NA
ATOM     51  C   UNL     1      14.914  -2.323  -2.611  1.00  0.00     0.031 C 
ATOM     52  C   UNL     1      15.997  -5.163   2.648  1.00  0.00     0.029 A 
ATOM     53  C   UNL     1      15.352  -4.577   1.571  1.00  0.00     0.049 A 
ATOM     54  H   UNL     1      13.285  -4.347   1.223  1.00  0.00     0.167 HD
ATOM     55  C   UNL     1      15.231  -3.418  -0.620  1.00  0.00     0.074 A 
ATOM     56  C   UNL     1      15.834  -2.806  -1.787  1.00  0.00     0.031 C 
ATOM     57  C   UNL     1      15.935  -3.961   0.405  1.00  0.00     0.031 A 
BRANCH  44  58
ATOM     58  C   UNL     1      12.424  -6.223   4.964  1.00  0.00    -0.014 A 
ATOM     59  C   UNL     1      11.967  -7.544   5.122  1.00  0.00     0.010 A 
ATOM     60  C   UNL     1      12.855  -5.508   6.097  1.00  0.00     0.010 A 
ATOM     61  C   UNL     1      11.905  -8.124   6.392  1.00  0.00     0.020 A 
ATOM     62  C   UNL     1      12.818  -6.093   7.365  1.00  0.00     0.020 A 
ATOM     63  C   UNL     1      12.327  -7.392   7.507  1.00  0.00     0.054 A 
BRANCH  63  64
ATOM     64  S   UNL     1      12.250  -8.172   9.143  1.00  0.00     0.124 S 
ATOM     65  O   UNL     1      10.815  -8.157   9.416  1.00  0.00    -0.237 OA
ATOM     66  O   UNL     1      12.829  -9.491   8.897  1.00  0.00    -0.237 OA
ATOM     67  O   UNL     1      13.053  -7.290   9.986  1.00  0.00    -0.744 OA
ENDBRANCH  63  64
ENDBRANCH  44  58
BRANCH  45  68
ATOM     68  C   UNL     1      12.383  -1.694  -3.952  1.00  0.00    -0.014 A 
ATOM     69  C   UNL     1      12.817  -2.362  -5.110  1.00  0.00     0.010 A 
ATOM     70  C   UNL     1      11.943  -0.361  -4.056  1.00  0.00     0.010 A 
ATOM     71  C   UNL     1      12.825  -1.706  -6.345  1.00  0.00     0.020 A 
ATOM     72  C   UNL     1      11.925   0.289  -5.292  1.00  0.00     0.020 A 
ATOM     73  C   UNL     1      12.375  -0.384  -6.428  1.00  0.00     0.054 A 
BRANCH  73  74
ATOM     74  S   UNL     1      12.340   0.429  -8.050  1.00  0.00     0.124 S 
ATOM     75  O   UNL     1      13.754   0.702  -8.284  1.00  0.00    -0.237 OA
ATOM     76  O   UNL     1      11.741  -0.594  -8.903  1.00  0.00    -0.237 OA
ATOM     77  O   UNL     1      11.503   1.606  -7.822  1.00  0.00    -0.744 OA
ENDBRANCH  73  74
ENDBRANCH  45  68
BRANCH  57  78
ATOM     78  C   UNL     1      17.437  -3.949   0.299  1.00  0.00    -0.014 A 
ATOM     79  C   UNL     1      18.170  -2.761   0.468  1.00  0.00     0.010 A 
ATOM     80  C   UNL     1      18.126  -5.157   0.086  1.00  0.00     0.010 A 
ATOM     81  C   UNL     1      19.566  -2.778   0.395  1.00  0.00     0.020 A 
ATOM     82  C   UNL     1      19.522  -5.182   0.039  1.00  0.00     0.020 A 
ATOM     83  C   UNL     1      20.233  -3.989   0.180  1.00  0.00     0.054 A 
BRANCH  83  84
ATOM     84  S   UNL     1      22.046  -3.992   0.133  1.00  0.00     0.124 S 
ATOM     85  O   UNL     1      22.317  -3.408  -1.177  1.00  0.00    -0.237 OA
ATOM     86  O   UNL     1      22.399  -3.157   1.279  1.00  0.00    -0.237 OA
ATOM     87  O   UNL     1      22.394  -5.405   0.270  1.00  0.00    -0.744 OA
ENDBRANCH  83  84
ENDBRANCH  57  78
ENDBRANCH  31  32
ENDBRANCH  24  26
ENDBRANCH  23  24
ENDBRANCH  22  23
ENDBRANCH   1  22
TORSDOF 19
