REMARK SMILES O=C(OCCOCCOC(=O)c1cc(S(=O)(=O)Nc2ccc(F)c(C(F)(F)F)c2)c[nH]1)c1ccc(-c2c3nc(c(-c4ccc(S(=O)(=O)[O-])cc4)c4ccc([nH]4)c(-c4ccc(S(=O)(=O)[O-])cc4)c4nc(c(-c5ccc(S(=O)(=O)[O-])cc5)c5ccc2[nH]5)C=C4)C=C3)cc1
REMARK SMILES IDX 7 1 6 2 5 3 4 4 3 5 2 6 1 7 32 8 33 9 91 10 34 11 90 12
REMARK SMILES IDX 35 13 36 14 37 15 84 16 38 17 89 18 83 19 85 20 39 21 88 22
REMARK SMILES IDX 82 23 81 24 40 26 70 27 51 28 69 29 52 30 55 31 68 32 86 33
REMARK SMILES IDX 53 34 54 35 67 37 87 38 56 39 41 40 42 41 50 42 43 43 49 44
REMARK SMILES IDX 44 45 45 46 46 47 47 48 48 49 71 50 72 51 80 52 73 53 79 54
REMARK SMILES IDX 74 55 75 56 76 57 77 58 78 59 57 60 58 61 66 62 59 63 65 64
REMARK SMILES IDX 60 65 61 66 62 67 63 68 64 69 8 70 9 71 10 72 11 73 12 74
REMARK SMILES IDX 13 75 31 76 14 77 30 78 15 80 16 81 17 82 18 83 19 85 20 86
REMARK SMILES IDX 29 87 21 88 24 89 22 90 23 91 25 92 26 93 27 94 28 95
REMARK H PARENT 85 25 55 36 31 79 18 84
REMARK Flexibility Score: inf
ROOT
ATOM      1  C   UNL     1       3.256   1.922  -0.808  1.00  0.00     0.202 C 
ENDROOT
BRANCH   1   2
ATOM      2  O   UNL     1       4.396   1.216  -0.296  1.00  0.00    -0.374 OA
BRANCH   2   3
ATOM      3  C   UNL     1       4.867   0.088  -1.030  1.00  0.00     0.202 C 
BRANCH   3   4
ATOM      4  C   UNL     1       4.316  -1.298  -0.702  1.00  0.00     0.261 C 
BRANCH   4   5
ATOM      5  O   UNL     1       2.896  -1.335  -0.938  1.00  0.00    -0.460 OA
BRANCH   5   6
ATOM      6  C   UNL     1       1.937  -0.885  -0.090  1.00  0.00     0.338 C 
ATOM      7  O   UNL     1       0.858  -0.490  -0.519  1.00  0.00    -0.246 OA
BRANCH   6   8
ATOM      8  C   UNL     1       2.124  -1.085   1.358  1.00  0.00     0.060 A 
ATOM      9  C   UNL     1       3.326  -0.854   2.026  1.00  0.00     0.016 A 
ATOM     10  C   UNL     1       1.032  -1.631   2.042  1.00  0.00     0.016 A 
ATOM     11  C   UNL     1       3.544  -1.454   3.245  1.00  0.00     0.010 A 
ATOM     12  C   UNL     1       1.209  -2.139   3.316  1.00  0.00     0.010 A 
ATOM     13  C   UNL     1       2.491  -2.127   3.868  1.00  0.00    -0.014 A 
BRANCH  13  14
ATOM     14  C   UNL     1       2.761  -2.684   5.196  1.00  0.00     0.031 A 
ATOM     15  C   UNL     1       2.947  -1.570   6.222  1.00  0.00     0.074 A 
ATOM     16  C   UNL     1       2.904  -4.039   5.267  1.00  0.00     0.049 A 
ATOM     17  N   UNL     1       3.716  -1.533   7.263  1.00  0.00    -0.248 NA
ATOM     18  C   UNL     1       2.293  -0.252   5.981  1.00  0.00     0.031 C 
ATOM     19  C   UNL     1       2.755  -4.967   4.121  1.00  0.00     0.029 A 
ATOM     20  N   UNL     1       3.209  -4.913   6.286  1.00  0.00    -0.354 N 
ATOM     21  C   UNL     1       3.500  -0.293   7.895  1.00  0.00     0.074 A 
ATOM     22  C   UNL     1       2.737   0.505   6.984  1.00  0.00     0.031 C 
ATOM     23  C   UNL     1       3.019  -6.238   4.492  1.00  0.00     0.029 A 
ATOM     24  C   UNL     1       3.343  -6.270   5.904  1.00  0.00     0.049 A 
ATOM     25  H   UNL     1       3.327  -4.614   7.217  1.00  0.00     0.167 HD
ATOM     26  C   UNL     1       3.822  -0.054   9.198  1.00  0.00     0.031 A 
ATOM     27  C   UNL     1       3.725  -7.340   6.664  1.00  0.00     0.031 A 
ATOM     28  C   UNL     1       4.414  -1.212   9.782  1.00  0.00     0.049 A 
ATOM     29  C   UNL     1       3.861  -6.837   8.044  1.00  0.00     0.074 A 
ATOM     30  C   UNL     1       5.637  -1.815   9.642  1.00  0.00     0.029 A 
ATOM     31  N   UNL     1       3.545  -2.097  10.378  1.00  0.00    -0.354 N 
ATOM     32  N   UNL     1       2.878  -6.464   8.807  1.00  0.00    -0.248 NA
ATOM     33  C   UNL     1       5.207  -6.659   8.603  1.00  0.00     0.031 C 
ATOM     34  C   UNL     1       5.341  -3.194   9.732  1.00  0.00     0.029 A 
ATOM     35  C   UNL     1       3.994  -3.359  10.078  1.00  0.00     0.049 A 
ATOM     36  H   UNL     1       2.752  -1.869  10.917  1.00  0.00     0.167 HD
ATOM     37  C   UNL     1       3.504  -5.669   9.736  1.00  0.00     0.074 A 
ATOM     38  C   UNL     1       4.892  -6.078   9.758  1.00  0.00     0.031 C 
ATOM     39  C   UNL     1       3.018  -4.426   9.990  1.00  0.00     0.031 A 
BRANCH  26  40
ATOM     40  C   UNL     1       3.388   1.044  10.128  1.00  0.00    -0.014 A 
ATOM     41  C   UNL     1       4.074   1.140  11.364  1.00  0.00     0.010 A 
ATOM     42  C   UNL     1       2.173   1.733  10.003  1.00  0.00     0.010 A 
ATOM     43  C   UNL     1       3.499   1.758  12.474  1.00  0.00     0.020 A 
ATOM     44  C   UNL     1       1.607   2.394  11.104  1.00  0.00     0.020 A 
ATOM     45  C   UNL     1       2.245   2.346  12.345  1.00  0.00     0.054 A 
BRANCH  45  46
ATOM     46  S   UNL     1       1.425   2.957  13.840  1.00  0.00     0.124 S 
ATOM     47  O   UNL     1       1.028   1.716  14.497  1.00  0.00    -0.237 OA
ATOM     48  O   UNL     1       2.490   3.704  14.505  1.00  0.00    -0.237 OA
ATOM     49  O   UNL     1       0.332   3.775  13.320  1.00  0.00    -0.744 OA
ENDBRANCH  45  46
ENDBRANCH  26  40
BRANCH  27  50
ATOM     50  C   UNL     1       4.147  -8.771   6.432  1.00  0.00    -0.014 A 
ATOM     51  C   UNL     1       4.212  -9.423   5.194  1.00  0.00     0.010 A 
ATOM     52  C   UNL     1       4.667  -9.498   7.539  1.00  0.00     0.010 A 
ATOM     53  C   UNL     1       4.897 -10.652   5.051  1.00  0.00     0.020 A 
ATOM     54  C   UNL     1       5.393 -10.684   7.405  1.00  0.00     0.020 A 
ATOM     55  C   UNL     1       5.531 -11.244   6.147  1.00  0.00     0.054 A 
BRANCH  55  56
ATOM     56  S   UNL     1       6.659 -12.650   5.931  1.00  0.00     0.124 S 
ATOM     57  O   UNL     1       5.761 -13.793   6.054  1.00  0.00    -0.237 OA
ATOM     58  O   UNL     1       7.214 -12.422   4.599  1.00  0.00    -0.237 OA
ATOM     59  O   UNL     1       7.615 -12.484   7.025  1.00  0.00    -0.744 OA
ENDBRANCH  55  56
ENDBRANCH  27  50
BRANCH  39  60
ATOM     60  C   UNL     1       1.532  -4.235   9.700  1.00  0.00    -0.014 A 
ATOM     61  C   UNL     1       0.573  -5.033  10.349  1.00  0.00     0.010 A 
ATOM     62  C   UNL     1       1.058  -3.335   8.726  1.00  0.00     0.010 A 
ATOM     63  C   UNL     1      -0.793  -4.943  10.033  1.00  0.00     0.020 A 
ATOM     64  C   UNL     1      -0.305  -3.235   8.397  1.00  0.00     0.020 A 
ATOM     65  C   UNL     1      -1.227  -4.044   9.056  1.00  0.00     0.054 A 
BRANCH  65  66
ATOM     66  S   UNL     1      -2.998  -3.965   8.655  1.00  0.00     0.124 S 
ATOM     67  O   UNL     1      -3.306  -5.341   8.274  1.00  0.00    -0.237 OA
ATOM     68  O   UNL     1      -3.587  -3.518   9.914  1.00  0.00    -0.237 OA
ATOM     69  O   UNL     1      -3.067  -2.997   7.560  1.00  0.00    -0.744 OA
ENDBRANCH  65  66
ENDBRANCH  39  60
ENDBRANCH  13  14
ENDBRANCH   6   8
ENDBRANCH   5   6
ENDBRANCH   4   5
ENDBRANCH   3   4
ENDBRANCH   2   3
ENDBRANCH   1   2
BRANCH   1  70
ATOM     70  C   UNL     1       3.446   2.788  -2.063  1.00  0.00     0.261 C 
BRANCH  70  71
ATOM     71  O   UNL     1       3.652   1.982  -3.237  1.00  0.00    -0.459 OA
BRANCH  71  72
ATOM     72  C   UNL     1       4.960   1.836  -3.599  1.00  0.00     0.354 C 
ATOM     73  O   UNL     1       5.891   2.485  -3.183  1.00  0.00    -0.244 OA
BRANCH  72  74
ATOM     74  C   UNL     1       5.108   0.663  -4.437  1.00  0.00     0.126 A 
ATOM     75  C   UNL     1       4.222  -0.017  -5.252  1.00  0.00     0.057 A 
ATOM     76  N   UNL     1       6.302  -0.028  -4.498  1.00  0.00    -0.354 N 
ATOM     77  C   UNL     1       5.021  -0.808  -6.120  1.00  0.00     0.106 A 
ATOM     78  C   UNL     1       6.269  -0.912  -5.542  1.00  0.00     0.105 A 
ATOM     79  H   UNL     1       7.061   0.096  -3.884  1.00  0.00     0.166 HD
BRANCH  77  80
ATOM     80  S   UNL     1       4.527  -1.403  -7.665  1.00  0.00     0.263 S 
ATOM     81  O   UNL     1       5.719  -1.993  -8.238  1.00  0.00    -0.201 OA
ATOM     82  O   UNL     1       3.338  -2.184  -7.409  1.00  0.00    -0.201 OA
BRANCH  80  83
ATOM     83  N   UNL     1       4.082  -0.119  -8.705  1.00  0.00    -0.280 N 
ATOM     84  H   UNL     1       4.286  -0.158  -9.667  1.00  0.00     0.180 HD
BRANCH  83  85
ATOM     85  C   UNL     1       3.407   1.012  -8.148  1.00  0.00     0.050 A 
ATOM     86  C   UNL     1       4.165   2.015  -7.538  1.00  0.00     0.030 A 
ATOM     87  C   UNL     1       2.013   1.102  -8.156  1.00  0.00     0.043 A 
ATOM     88  C   UNL     1       3.533   3.079  -6.894  1.00  0.00     0.042 A 
ATOM     89  C   UNL     1       1.369   2.205  -7.554  1.00  0.00     0.093 A 
ATOM     90  C   UNL     1       2.145   3.168  -6.910  1.00  0.00     0.135 A 
ATOM     91  F   UNL     1       1.571   4.210  -6.297  1.00  0.00    -0.206 F 
BRANCH  89  92
ATOM     92  C   UNL     1      -0.120   2.360  -7.652  1.00  0.00     0.419 C 
ATOM     93  F   UNL     1      -0.514   2.547  -8.945  1.00  0.00    -0.166 F 
ATOM     94  F   UNL     1      -0.787   1.252  -7.226  1.00  0.00    -0.166 F 
ATOM     95  F   UNL     1      -0.645   3.403  -6.956  1.00  0.00    -0.166 F 
ENDBRANCH  89  92
ENDBRANCH  83  85
ENDBRANCH  80  83
ENDBRANCH  77  80
ENDBRANCH  72  74
ENDBRANCH  71  72
ENDBRANCH  70  71
ENDBRANCH   1  70
TORSDOF 21
