REMARK SMILES CC(C)C[C@H](NC(=O)CNC(=O)[C@@H]([NH3+])C(C)C)C(=O)OCCOCCOC(=O)c1ccc(-c2c3nc(c(-c4ccc(S(=O)(=O)[O-])cc4)c4ccc([nH]4)c(-c4ccc(S(=O)(=O)[O-])cc4)c4nc(c(-c5ccc(S(=O)(=O)[O-])cc5)c5ccc2[nH]5)C=C4)C=C3)cc1
REMARK SMILES IDX 22 1 21 2 20 3 18 4 19 5 5 6 4 7 2 8 1 9 3 10 6 11 7 12 8 14
REMARK SMILES IDX 9 15 10 16 11 17 12 19 13 20 14 21 15 25 16 26 17 27 23 28
REMARK SMILES IDX 24 29 25 30 26 31 27 32 28 33 29 34 30 35 88 36 31 37 87 38
REMARK SMILES IDX 32 39 33 40 34 41 81 42 35 43 86 44 80 45 82 46 36 47 85 48
REMARK SMILES IDX 79 49 78 50 37 52 67 53 48 54 66 55 49 56 52 57 65 58 83 59
REMARK SMILES IDX 50 60 51 61 64 63 84 64 53 65 38 66 39 67 47 68 40 69 46 70
REMARK SMILES IDX 41 71 42 72 43 73 44 74 45 75 68 76 69 77 77 78 70 79 76 80
REMARK SMILES IDX 71 81 72 82 73 83 74 84 75 85 54 86 55 87 63 88 56 89 62 90
REMARK SMILES IDX 57 91 58 92 59 93 60 94 61 95
REMARK H PARENT 6 13 10 18 14 22 14 23 14 24 82 51 52 62
REMARK Flexibility Score: inf
ROOT
ATOM      1  C   UNL     1      -6.160   0.008  -0.516  1.00  0.00     0.202 C 
ENDROOT
BRANCH   1   2
ATOM      2  C   UNL     1      -5.555   1.337  -0.973  1.00  0.00     0.261 C 
BRANCH   2   3
ATOM      3  O   UNL     1      -4.190   1.253  -1.407  1.00  0.00    -0.462 OA
BRANCH   3   4
ATOM      4  C   UNL     1      -3.293   1.677  -0.473  1.00  0.00     0.328 C 
ATOM      5  O   UNL     1      -3.563   1.915   0.699  1.00  0.00    -0.250 OA
BRANCH   4   6
ATOM      6  C   UNL     1      -1.918   1.950  -1.075  1.00  0.00     0.192 C 
BRANCH   6   7
ATOM      7  C   UNL     1      -1.906   3.300  -1.807  1.00  0.00     0.040 C 
BRANCH   7   8
ATOM      8  C   UNL     1      -2.814   4.465  -1.371  1.00  0.00    -0.015 C 
ATOM      9  C   UNL     1      -2.674   4.876   0.095  1.00  0.00     0.007 C 
ATOM     10  C   UNL     1      -2.457   5.683  -2.238  1.00  0.00     0.007 C 
ENDBRANCH   7   8
ENDBRANCH   6   7
BRANCH   6  11
ATOM     11  N   UNL     1      -1.495   0.865  -1.976  1.00  0.00    -0.341 N 
ATOM     12  C   UNL     1      -0.243   0.440  -2.318  1.00  0.00     0.240 C 
ATOM     13  H   UNL     1      -2.232   0.368  -2.399  1.00  0.00     0.164 HD
ATOM     14  O   UNL     1      -0.154  -0.596  -2.984  1.00  0.00    -0.273 OA
BRANCH  12  15
ATOM     15  C   UNL     1       1.028   1.176  -1.851  1.00  0.00     0.216 C 
BRANCH  15  16
ATOM     16  N   UNL     1       1.149   2.510  -2.418  1.00  0.00    -0.342 N 
ATOM     17  C   UNL     1       1.437   3.718  -1.862  1.00  0.00     0.278 C 
ATOM     18  H   UNL     1       0.992   2.546  -3.389  1.00  0.00     0.164 HD
ATOM     19  O   UNL     1       1.418   4.696  -2.618  1.00  0.00    -0.268 OA
BRANCH  17  20
ATOM     20  C   UNL     1       1.797   3.919  -0.367  1.00  0.00     0.273 C 
BRANCH  20  21
ATOM     21  N   UNL     1       0.973   3.077   0.524  1.00  0.00    -0.347 N 
ATOM     22  H   UNL     1       1.149   2.093   0.320  1.00  0.00     0.345 HD
ATOM     23  H   UNL     1      -0.014   3.285   0.371  1.00  0.00     0.345 HD
ATOM     24  H   UNL     1       1.215   3.272   1.495  1.00  0.00     0.345 HD
ENDBRANCH  20  21
BRANCH  20  25
ATOM     25  C   UNL     1       3.320   3.768  -0.155  1.00  0.00     0.051 C 
ATOM     26  C   UNL     1       4.057   4.920  -0.859  1.00  0.00     0.014 C 
ATOM     27  C   UNL     1       3.715   3.777   1.326  1.00  0.00     0.014 C 
ENDBRANCH  20  25
ENDBRANCH  17  20
ENDBRANCH  15  16
ENDBRANCH  12  15
ENDBRANCH   6  11
ENDBRANCH   4   6
ENDBRANCH   3   4
ENDBRANCH   2   3
ENDBRANCH   1   2
BRANCH   1  28
ATOM     28  O   UNL     1      -5.502  -0.695   0.530  1.00  0.00    -0.374 OA
BRANCH  28  29
ATOM     29  C   UNL     1      -4.270  -1.358   0.247  1.00  0.00     0.202 C 
BRANCH  29  30
ATOM     30  C   UNL     1      -4.277  -2.465  -0.811  1.00  0.00     0.261 C 
BRANCH  30  31
ATOM     31  O   UNL     1      -4.463  -1.948  -2.143  1.00  0.00    -0.460 OA
BRANCH  31  32
ATOM     32  C   UNL     1      -5.544  -2.444  -2.790  1.00  0.00     0.338 C 
ATOM     33  O   UNL     1      -6.347  -3.265  -2.365  1.00  0.00    -0.246 OA
BRANCH  32  34
ATOM     34  C   UNL     1      -5.765  -1.731  -4.056  1.00  0.00     0.060 A 
ATOM     35  C   UNL     1      -6.972  -1.037  -4.214  1.00  0.00     0.016 A 
ATOM     36  C   UNL     1      -4.880  -1.879  -5.125  1.00  0.00     0.016 A 
ATOM     37  C   UNL     1      -7.328  -0.539  -5.465  1.00  0.00     0.010 A 
ATOM     38  C   UNL     1      -5.246  -1.388  -6.382  1.00  0.00     0.010 A 
ATOM     39  C   UNL     1      -6.490  -0.757  -6.565  1.00  0.00    -0.014 A 
BRANCH  39  40
ATOM     40  C   UNL     1      -6.994  -0.476  -7.930  1.00  0.00     0.031 A 
ATOM     41  C   UNL     1      -7.563  -1.608  -8.743  1.00  0.00     0.074 A 
ATOM     42  C   UNL     1      -6.979   0.774  -8.422  1.00  0.00     0.049 A 
ATOM     43  N   UNL     1      -8.033  -1.595  -9.963  1.00  0.00    -0.248 NA
ATOM     44  C   UNL     1      -7.612  -2.928  -8.092  1.00  0.00     0.031 C 
ATOM     45  C   UNL     1      -6.506   1.959  -7.707  1.00  0.00     0.029 A 
ATOM     46  N   UNL     1      -7.374   1.253  -9.645  1.00  0.00    -0.354 N 
ATOM     47  C   UNL     1      -8.427  -2.901 -10.230  1.00  0.00     0.074 A 
ATOM     48  C   UNL     1      -8.121  -3.686  -9.054  1.00  0.00     0.031 C 
ATOM     49  C   UNL     1      -6.631   3.030  -8.509  1.00  0.00     0.029 A 
ATOM     50  C   UNL     1      -7.159   2.600  -9.803  1.00  0.00     0.049 A 
ATOM     51  H   UNL     1      -7.773   0.685 -10.344  1.00  0.00     0.167 HD
ATOM     52  C   UNL     1      -8.995  -3.402 -11.353  1.00  0.00     0.031 A 
ATOM     53  C   UNL     1      -7.345   3.393 -10.877  1.00  0.00     0.031 A 
ATOM     54  C   UNL     1      -9.281  -2.623 -12.527  1.00  0.00     0.049 A 
ATOM     55  C   UNL     1      -7.899   2.797 -12.145  1.00  0.00     0.074 A 
ATOM     56  C   UNL     1      -9.858  -3.035 -13.716  1.00  0.00     0.029 A 
ATOM     57  N   UNL     1      -9.005  -1.271 -12.665  1.00  0.00    -0.354 N 
ATOM     58  N   UNL     1      -8.276   1.562 -12.378  1.00  0.00    -0.248 NA
ATOM     59  C   UNL     1      -8.055   3.703 -13.291  1.00  0.00     0.031 C 
ATOM     60  C   UNL     1      -9.883  -1.943 -14.590  1.00  0.00     0.029 A 
ATOM     61  C   UNL     1      -9.374  -0.838 -13.927  1.00  0.00     0.049 A 
ATOM     62  H   UNL     1      -8.604  -0.703 -11.967  1.00  0.00     0.167 HD
ATOM     63  C   UNL     1      -8.736   1.548 -13.691  1.00  0.00     0.074 A 
ATOM     64  C   UNL     1      -8.600   2.899 -14.195  1.00  0.00     0.031 C 
ATOM     65  C   UNL     1      -9.229   0.511 -14.413  1.00  0.00     0.031 A 
BRANCH  52  66
ATOM     66  C   UNL     1      -9.309  -4.874 -11.374  1.00  0.00    -0.014 A 
ATOM     67  C   UNL     1     -10.376  -5.403 -10.626  1.00  0.00     0.010 A 
ATOM     68  C   UNL     1      -8.543  -5.738 -12.179  1.00  0.00     0.010 A 
ATOM     69  C   UNL     1     -10.648  -6.774 -10.653  1.00  0.00     0.020 A 
ATOM     70  C   UNL     1      -8.826  -7.106 -12.227  1.00  0.00     0.020 A 
ATOM     71  C   UNL     1      -9.867  -7.618 -11.449  1.00  0.00     0.054 A 
BRANCH  71  72
ATOM     72  S   UNL     1     -10.250  -9.391 -11.478  1.00  0.00     0.124 S 
ATOM     73  O   UNL     1      -9.751  -9.828 -10.177  1.00  0.00    -0.237 OA
ATOM     74  O   UNL     1     -11.703  -9.404 -11.630  1.00  0.00    -0.237 OA
ATOM     75  O   UNL     1      -9.503  -9.888 -12.631  1.00  0.00    -0.744 OA
ENDBRANCH  71  72
ENDBRANCH  52  66
BRANCH  53  76
ATOM     76  C   UNL     1      -6.981   4.833 -10.806  1.00  0.00    -0.014 A 
ATOM     77  C   UNL     1      -7.976   5.825 -10.798  1.00  0.00     0.010 A 
ATOM     78  C   UNL     1      -5.630   5.218 -10.732  1.00  0.00     0.010 A 
ATOM     79  C   UNL     1      -7.626   7.177 -10.729  1.00  0.00     0.020 A 
ATOM     80  C   UNL     1      -5.277   6.567 -10.637  1.00  0.00     0.020 A 
ATOM     81  C   UNL     1      -6.279   7.539 -10.646  1.00  0.00     0.054 A 
BRANCH  81  82
ATOM     82  S   UNL     1      -5.850   9.296 -10.495  1.00  0.00     0.124 S 
ATOM     83  O   UNL     1      -6.076   9.781 -11.853  1.00  0.00    -0.237 OA
ATOM     84  O   UNL     1      -6.798   9.767  -9.488  1.00  0.00    -0.237 OA
ATOM     85  O   UNL     1      -4.455   9.270 -10.061  1.00  0.00    -0.744 OA
ENDBRANCH  81  82
ENDBRANCH  53  76
BRANCH  65  86
ATOM     86  C   UNL     1      -9.688   0.799 -15.817  1.00  0.00    -0.014 A 
ATOM     87  C   UNL     1      -8.765   1.020 -16.854  1.00  0.00     0.010 A 
ATOM     88  C   UNL     1     -11.064   0.785 -16.113  1.00  0.00     0.010 A 
ATOM     89  C   UNL     1      -9.211   1.247 -18.159  1.00  0.00     0.020 A 
ATOM     90  C   UNL     1     -11.512   0.986 -17.421  1.00  0.00     0.020 A 
ATOM     91  C   UNL     1     -10.582   1.229 -18.434  1.00  0.00     0.054 A 
BRANCH  91  92
ATOM     92  S   UNL     1     -11.135   1.476 -20.144  1.00  0.00     0.124 S 
ATOM     93  O   UNL     1     -10.947   2.913 -20.319  1.00  0.00    -0.237 OA
ATOM     94  O   UNL     1     -10.222   0.625 -20.903  1.00  0.00    -0.237 OA
ATOM     95  O   UNL     1     -12.525   1.026 -20.127  1.00  0.00    -0.744 OA
ENDBRANCH  91  92
ENDBRANCH  65  86
ENDBRANCH  39  40
ENDBRANCH  32  34
ENDBRANCH  31  32
ENDBRANCH  30  31
ENDBRANCH  29  30
ENDBRANCH  28  29
ENDBRANCH   1  28
TORSDOF 25
