REMARK SMILES O=C(OCCOCCOC(=O)c1ccc(-c2c3nc(c(-c4ccc(S(=O)(=O)[O-])cc4)c4ccc([nH]4)c(-c4ccc(S(=O)(=O)[O-])cc4)c4nc(c(-c5ccc(S(=O)(=O)[O-])cc5)c5ccc2[nH]5)C=C4)C=C3)cc1)c1ccc(-c2ccc(=O)[nH]c2)cc1
REMARK SMILES IDX 7 1 6 2 5 3 4 4 3 5 2 6 1 7 72 8 73 9 84 10 74 11 83 12
REMARK SMILES IDX 75 13 76 14 77 15 82 16 78 17 81 18 79 19 80 21 8 22 9 23
REMARK SMILES IDX 10 24 11 25 12 26 13 27 71 28 14 29 70 30 15 31 16 32 17 33
REMARK SMILES IDX 64 34 18 35 69 36 63 37 65 38 19 39 68 40 62 41 61 42 20 44
REMARK SMILES IDX 50 45 31 46 49 47 32 48 35 49 48 50 66 51 33 52 34 53 47 55
REMARK SMILES IDX 67 56 36 57 21 58 22 59 30 60 23 61 29 62 24 63 25 64 26 65
REMARK SMILES IDX 27 66 28 67 51 68 52 69 60 70 53 71 59 72 54 73 55 74 56 75
REMARK SMILES IDX 57 76 58 77 37 78 38 79 46 80 39 81 45 82 40 83 41 84 42 85
REMARK SMILES IDX 43 86 44 87
REMARK H PARENT 81 20 65 43 35 54
REMARK Flexibility Score: inf
ROOT
ATOM      1  C   UNL     1       2.772   1.905   1.177  1.00  0.00     0.202 C 
ENDROOT
BRANCH   1   2
ATOM      2  O   UNL     1       4.117   1.595   0.788  1.00  0.00    -0.374 OA
BRANCH   2   3
ATOM      3  C   UNL     1       4.334   1.451  -0.616  1.00  0.00     0.202 C 
BRANCH   3   4
ATOM      4  C   UNL     1       4.032   0.048  -1.141  1.00  0.00     0.261 C 
BRANCH   4   5
ATOM      5  O   UNL     1       2.665  -0.307  -0.852  1.00  0.00    -0.460 OA
BRANCH   5   6
ATOM      6  C   UNL     1       2.236  -1.267   0.002  1.00  0.00     0.338 C 
ATOM      7  O   UNL     1       1.038  -1.526   0.089  1.00  0.00    -0.246 OA
BRANCH   6   8
ATOM      8  C   UNL     1       3.181  -2.047   0.842  1.00  0.00     0.060 A 
ATOM      9  C   UNL     1       4.216  -1.460   1.567  1.00  0.00     0.016 A 
ATOM     10  C   UNL     1       2.947  -3.419   1.002  1.00  0.00     0.016 A 
ATOM     11  C   UNL     1       5.056  -2.225   2.367  1.00  0.00     0.009 A 
ATOM     12  C   UNL     1       3.768  -4.189   1.839  1.00  0.00     0.009 A 
ATOM     13  C   UNL     1       4.834  -3.595   2.526  1.00  0.00    -0.017 A 
BRANCH  13  14
ATOM     14  C   UNL     1       5.753  -4.359   3.389  1.00  0.00    -0.002 A 
ATOM     15  C   UNL     1       6.497  -5.521   2.929  1.00  0.00     0.016 A 
ATOM     16  C   UNL     1       5.994  -3.901   4.633  1.00  0.00     0.094 A 
ATOM     17  C   UNL     1       7.437  -6.094   3.696  1.00  0.00     0.072 A 
ATOM     18  N   UNL     1       6.946  -4.482   5.431  1.00  0.00    -0.328 N 
ATOM     19  C   UNL     1       7.719  -5.548   5.048  1.00  0.00     0.247 A 
ATOM     20  H   UNL     1       7.083  -4.111   6.333  1.00  0.00     0.169 HD
ATOM     21  O   UNL     1       8.589  -6.032   5.761  1.00  0.00    -0.270 OA
ENDBRANCH  13  14
ENDBRANCH   6   8
ENDBRANCH   5   6
ENDBRANCH   4   5
ENDBRANCH   3   4
ENDBRANCH   2   3
ENDBRANCH   1   2
BRANCH   1  22
ATOM     22  C   UNL     1       2.801   2.983   2.266  1.00  0.00     0.261 C 
BRANCH  22  23
ATOM     23  O   UNL     1       3.284   4.196   1.676  1.00  0.00    -0.460 OA
BRANCH  23  24
ATOM     24  C   UNL     1       4.635   4.265   1.563  1.00  0.00     0.338 C 
ATOM     25  O   UNL     1       5.463   3.735   2.284  1.00  0.00    -0.246 OA
BRANCH  24  26
ATOM     26  C   UNL     1       4.940   4.908   0.265  1.00  0.00     0.060 A 
ATOM     27  C   UNL     1       6.097   4.517  -0.425  1.00  0.00     0.016 A 
ATOM     28  C   UNL     1       4.063   5.840  -0.297  1.00  0.00     0.016 A 
ATOM     29  C   UNL     1       6.401   5.086  -1.662  1.00  0.00     0.010 A 
ATOM     30  C   UNL     1       4.363   6.407  -1.528  1.00  0.00     0.010 A 
ATOM     31  C   UNL     1       5.551   6.062  -2.193  1.00  0.00    -0.014 A 
BRANCH  31  32
ATOM     32  C   UNL     1       5.973   6.931  -3.309  1.00  0.00     0.031 A 
ATOM     33  C   UNL     1       6.511   8.286  -2.951  1.00  0.00     0.074 A 
ATOM     34  C   UNL     1       5.750   6.582  -4.586  1.00  0.00     0.049 A 
ATOM     35  N   UNL     1       6.715   9.326  -3.711  1.00  0.00    -0.248 NA
ATOM     36  C   UNL     1       6.822   8.502  -1.526  1.00  0.00     0.031 C 
ATOM     37  C   UNL     1       5.240   5.288  -5.034  1.00  0.00     0.029 A 
ATOM     38  N   UNL     1       5.878   7.316  -5.736  1.00  0.00    -0.354 N 
ATOM     39  C   UNL     1       7.138  10.333  -2.852  1.00  0.00     0.074 A 
ATOM     40  C   UNL     1       7.144   9.784  -1.514  1.00  0.00     0.031 C 
ATOM     41  C   UNL     1       5.059   5.332  -6.365  1.00  0.00     0.029 A 
ATOM     42  C   UNL     1       5.397   6.670  -6.849  1.00  0.00     0.049 A 
ATOM     43  H   UNL     1       6.275   8.217  -5.762  1.00  0.00     0.167 HD
ATOM     44  C   UNL     1       7.480  11.607  -3.153  1.00  0.00     0.031 A 
ATOM     45  C   UNL     1       5.209   7.126  -8.103  1.00  0.00     0.031 A 
ATOM     46  C   UNL     1       7.440  12.139  -4.487  1.00  0.00     0.049 A 
ATOM     47  C   UNL     1       5.574   8.552  -8.422  1.00  0.00     0.074 A 
ATOM     48  C   UNL     1       7.798  13.400  -4.924  1.00  0.00     0.029 A 
ATOM     49  N   UNL     1       7.000  11.434  -5.599  1.00  0.00    -0.354 N 
ATOM     50  N   UNL     1       6.019   9.487  -7.615  1.00  0.00    -0.248 NA
ATOM     51  C   UNL     1       5.424   8.982  -9.818  1.00  0.00     0.031 C 
ATOM     52  C   UNL     1       7.524  13.475  -6.293  1.00  0.00     0.029 A 
ATOM     53  C   UNL     1       7.056  12.240  -6.721  1.00  0.00     0.049 A 
ATOM     54  H   UNL     1       6.693  10.499  -5.590  1.00  0.00     0.167 HD
ATOM     55  C   UNL     1       6.229  10.609  -8.410  1.00  0.00     0.074 A 
ATOM     56  C   UNL     1       5.864  10.233  -9.762  1.00  0.00     0.031 C 
ATOM     57  C   UNL     1       6.691  11.835  -8.057  1.00  0.00     0.031 A 
BRANCH  44  58
ATOM     58  C   UNL     1       7.862  12.504  -2.005  1.00  0.00    -0.014 A 
ATOM     59  C   UNL     1       9.038  12.287  -1.263  1.00  0.00     0.010 A 
ATOM     60  C   UNL     1       7.010  13.562  -1.639  1.00  0.00     0.010 A 
ATOM     61  C   UNL     1       9.318  13.064  -0.136  1.00  0.00     0.020 A 
ATOM     62  C   UNL     1       7.304  14.363  -0.533  1.00  0.00     0.020 A 
ATOM     63  C   UNL     1       8.442  14.090   0.229  1.00  0.00     0.054 A 
BRANCH  63  64
ATOM     64  S   UNL     1       8.812  15.067   1.711  1.00  0.00     0.124 S 
ATOM     65  O   UNL     1       8.468  14.132   2.780  1.00  0.00    -0.237 OA
ATOM     66  O   UNL     1      10.237  15.351   1.561  1.00  0.00    -0.237 OA
ATOM     67  O   UNL     1       7.933  16.227   1.591  1.00  0.00    -0.744 OA
ENDBRANCH  63  64
ENDBRANCH  44  58
BRANCH  45  68
ATOM     68  C   UNL     1       4.637   6.215  -9.130  1.00  0.00    -0.014 A 
ATOM     69  C   UNL     1       5.457   5.661 -10.127  1.00  0.00     0.010 A 
ATOM     70  C   UNL     1       3.284   5.832  -9.066  1.00  0.00     0.010 A 
ATOM     71  C   UNL     1       4.940   4.729 -11.032  1.00  0.00     0.020 A 
ATOM     72  C   UNL     1       2.769   4.883  -9.955  1.00  0.00     0.020 A 
ATOM     73  C   UNL     1       3.602   4.335 -10.932  1.00  0.00     0.054 A 
BRANCH  73  74
ATOM     74  S   UNL     1       2.988   3.038 -12.043  1.00  0.00     0.124 S 
ATOM     75  O   UNL     1       2.912   3.740 -13.320  1.00  0.00    -0.237 OA
ATOM     76  O   UNL     1       4.032   2.020 -11.942  1.00  0.00    -0.237 OA
ATOM     77  O   UNL     1       1.705   2.662 -11.455  1.00  0.00    -0.744 OA
ENDBRANCH  73  74
ENDBRANCH  45  68
BRANCH  57  78
ATOM     78  C   UNL     1       6.879  12.853  -9.149  1.00  0.00    -0.014 A 
ATOM     79  C   UNL     1       5.785  13.517  -9.729  1.00  0.00     0.010 A 
ATOM     80  C   UNL     1       8.185  13.222  -9.522  1.00  0.00     0.010 A 
ATOM     81  C   UNL     1       5.995  14.526 -10.672  1.00  0.00     0.020 A 
ATOM     82  C   UNL     1       8.399  14.247 -10.444  1.00  0.00     0.020 A 
ATOM     83  C   UNL     1       7.301  14.889 -11.020  1.00  0.00     0.054 A 
BRANCH  83  84
ATOM     84  S   UNL     1       7.548  16.254 -12.188  1.00  0.00     0.124 S 
ATOM     85  O   UNL     1       7.169  15.640 -13.457  1.00  0.00    -0.237 OA
ATOM     86  O   UNL     1       6.633  17.276 -11.684  1.00  0.00    -0.237 OA
ATOM     87  O   UNL     1       8.967  16.576 -12.050  1.00  0.00    -0.744 OA
ENDBRANCH  83  84
ENDBRANCH  57  78
ENDBRANCH  31  32
ENDBRANCH  24  26
ENDBRANCH  23  24
ENDBRANCH  22  23
ENDBRANCH   1  22
TORSDOF 18
