REMARK SMILES CNC(=O)CNC(=O)NC[C@H](CC(C)C)C(=O)OCCOCCOC(=O)c1ccc(-c2c3nc(c(-c4ccc(S(=O)(=O)[O-])cc4)c4ccc([nH]4)c(-c4ccc(S(=O)(=O)[O-])cc4)c4nc(c(-c5ccc(S(=O)(=O)[O-])cc5)c5ccc2[nH]5)C=C4)C=C3)cc1
REMARK SMILES IDX 20 1 19 2 18 3 16 4 17 5 11 6 10 7 9 8 6 9 7 10 8 12 5 14
REMARK SMILES IDX 3 15 1 16 2 17 4 19 12 20 13 21 14 22 15 23 21 24 22 25
REMARK SMILES IDX 23 26 24 27 25 28 26 29 27 30 28 31 86 32 29 33 85 34 30 35
REMARK SMILES IDX 31 36 32 37 79 38 33 39 84 40 78 41 80 42 34 43 83 44 77 45
REMARK SMILES IDX 76 46 35 48 65 49 46 50 64 51 47 52 50 53 63 54 81 55 48 56
REMARK SMILES IDX 49 57 62 59 82 60 51 61 36 62 37 63 45 64 38 65 44 66 39 67
REMARK SMILES IDX 40 68 41 69 42 70 43 71 66 72 67 73 75 74 68 75 74 76 69 77
REMARK SMILES IDX 70 78 71 79 72 80 73 81 52 82 53 83 61 84 54 85 60 86 55 87
REMARK SMILES IDX 56 88 57 89 58 90 59 91
REMARK H PARENT 6 11 9 13 2 18 80 47 50 58
REMARK Flexibility Score: inf
ROOT
ATOM      1  C   UNL     1      -5.775   0.099   0.349  1.00  0.00     0.202 C 
ENDROOT
BRANCH   1   2
ATOM      2  C   UNL     1      -5.657   0.695   1.749  1.00  0.00     0.261 C 
BRANCH   2   3
ATOM      3  O   UNL     1      -4.269   0.770   2.123  1.00  0.00    -0.463 OA
BRANCH   3   4
ATOM      4  C   UNL     1      -3.829  -0.047   3.106  1.00  0.00     0.310 C 
ATOM      5  O   UNL     1      -4.513  -0.877   3.692  1.00  0.00    -0.252 OA
BRANCH   4   6
ATOM      6  C   UNL     1      -2.370   0.202   3.442  1.00  0.00     0.119 C 
BRANCH   6   7
ATOM      7  C   UNL     1      -2.169   1.442   4.314  1.00  0.00     0.133 C 
BRANCH   7   8
ATOM      8  N   UNL     1      -2.905   2.612   3.898  1.00  0.00    -0.337 N 
ATOM      9  N   UNL     1      -4.782   2.771   5.324  1.00  0.00    -0.329 N 
ATOM     10  C   UNL     1      -4.047   3.188   4.291  1.00  0.00     0.315 C 
ATOM     11  H   UNL     1      -5.519   3.390   5.530  1.00  0.00     0.165 HD
ATOM     12  O   UNL     1      -4.424   4.188   3.680  1.00  0.00    -0.249 OA
ATOM     13  H   UNL     1      -2.469   3.095   3.159  1.00  0.00     0.165 HD
BRANCH   9  14
ATOM     14  C   UNL     1      -4.760   1.628   6.217  1.00  0.00     0.217 C 
BRANCH  14  15
ATOM     15  C   UNL     1      -4.208   1.775   7.645  1.00  0.00     0.239 C 
ATOM     16  C   UNL     1      -2.317   3.468   7.256  1.00  0.00     0.142 C 
ATOM     17  N   UNL     1      -3.153   2.553   7.993  1.00  0.00    -0.358 N 
ATOM     18  H   UNL     1      -2.908   2.478   8.943  1.00  0.00     0.163 HD
ATOM     19  O   UNL     1      -4.644   1.033   8.537  1.00  0.00    -0.273 OA
ENDBRANCH  14  15
ENDBRANCH   9  14
ENDBRANCH   7   8
ENDBRANCH   6   7
BRANCH   6  20
ATOM     20  C   UNL     1      -1.324   0.036   2.317  1.00  0.00     0.020 C 
BRANCH  20  21
ATOM     21  C   UNL     1      -1.520   0.614   0.904  1.00  0.00    -0.017 C 
ATOM     22  C   UNL     1      -1.729   2.119   0.807  1.00  0.00     0.007 C 
ATOM     23  C   UNL     1      -0.311   0.224   0.039  1.00  0.00     0.007 C 
ENDBRANCH  20  21
ENDBRANCH   6  20
ENDBRANCH   4   6
ENDBRANCH   3   4
ENDBRANCH   2   3
ENDBRANCH   1   2
BRANCH   1  24
ATOM     24  O   UNL     1      -5.692  -1.327   0.298  1.00  0.00    -0.374 OA
BRANCH  24  25
ATOM     25  C   UNL     1      -4.382  -1.891   0.288  1.00  0.00     0.202 C 
BRANCH  25  26
ATOM     26  C   UNL     1      -3.700  -1.955  -1.089  1.00  0.00     0.261 C 
BRANCH  26  27
ATOM     27  O   UNL     1      -3.403  -0.651  -1.626  1.00  0.00    -0.460 OA
BRANCH  27  28
ATOM     28  C   UNL     1      -4.282  -0.194  -2.551  1.00  0.00     0.338 C 
ATOM     29  O   UNL     1      -5.225  -0.812  -3.023  1.00  0.00    -0.246 OA
BRANCH  28  30
ATOM     30  C   UNL     1      -4.072   1.252  -2.800  1.00  0.00     0.060 A 
ATOM     31  C   UNL     1      -5.213   2.062  -2.875  1.00  0.00     0.016 A 
ATOM     32  C   UNL     1      -2.809   1.808  -3.014  1.00  0.00     0.016 A 
ATOM     33  C   UNL     1      -5.103   3.406  -3.235  1.00  0.00     0.010 A 
ATOM     34  C   UNL     1      -2.699   3.162  -3.366  1.00  0.00     0.010 A 
ATOM     35  C   UNL     1      -3.849   3.959  -3.528  1.00  0.00    -0.014 A 
BRANCH  35  36
ATOM     36  C   UNL     1      -3.769   5.300  -4.175  1.00  0.00     0.031 A 
ATOM     37  C   UNL     1      -3.446   5.380  -5.649  1.00  0.00     0.074 A 
ATOM     38  C   UNL     1      -4.043   6.433  -3.497  1.00  0.00     0.049 A 
ATOM     39  N   UNL     1      -3.303   6.434  -6.412  1.00  0.00    -0.248 NA
ATOM     40  C   UNL     1      -3.261   4.101  -6.356  1.00  0.00     0.031 C 
ATOM     41  C   UNL     1      -4.426   6.508  -2.087  1.00  0.00     0.029 A 
ATOM     42  N   UNL     1      -4.045   7.745  -3.912  1.00  0.00    -0.354 N 
ATOM     43  C   UNL     1      -3.011   5.947  -7.681  1.00  0.00     0.074 A 
ATOM     44  C   UNL     1      -2.954   4.506  -7.579  1.00  0.00     0.031 C 
ATOM     45  C   UNL     1      -4.624   7.796  -1.755  1.00  0.00     0.029 A 
ATOM     46  C   UNL     1      -4.345   8.644  -2.914  1.00  0.00     0.049 A 
ATOM     47  H   UNL     1      -3.848   8.015  -4.837  1.00  0.00     0.167 HD
ATOM     48  C   UNL     1      -2.824   6.631  -8.835  1.00  0.00     0.031 A 
ATOM     49  C   UNL     1      -4.372   9.993  -2.924  1.00  0.00     0.031 A 
ATOM     50  C   UNL     1      -2.883   8.064  -8.950  1.00  0.00     0.049 A 
ATOM     51  C   UNL     1      -4.067  10.736  -4.204  1.00  0.00     0.074 A 
ATOM     52  C   UNL     1      -2.700   8.841 -10.082  1.00  0.00     0.029 A 
ATOM     53  N   UNL     1      -3.149   8.934  -7.906  1.00  0.00    -0.354 N 
ATOM     54  N   UNL     1      -3.797  10.256  -5.394  1.00  0.00    -0.248 NA
ATOM     55  C   UNL     1      -4.080  12.207  -4.143  1.00  0.00     0.031 C 
ATOM     56  C   UNL     1      -2.801  10.184  -9.711  1.00  0.00     0.029 A 
ATOM     57  C   UNL     1      -3.118  10.241  -8.364  1.00  0.00     0.049 A 
ATOM     58  H   UNL     1      -3.333   8.664  -6.978  1.00  0.00     0.167 HD
ATOM     59  C   UNL     1      -3.655  11.364  -6.228  1.00  0.00     0.074 A 
ATOM     60  C   UNL     1      -3.876  12.537  -5.410  1.00  0.00     0.031 C 
ATOM     61  C   UNL     1      -3.369  11.404  -7.552  1.00  0.00     0.031 A 
BRANCH  48  62
ATOM     62  C   UNL     1      -2.525   5.840 -10.082  1.00  0.00    -0.014 A 
ATOM     63  C   UNL     1      -3.525   5.079 -10.714  1.00  0.00     0.010 A 
ATOM     64  C   UNL     1      -1.253   5.929 -10.677  1.00  0.00     0.010 A 
ATOM     65  C   UNL     1      -3.252   4.406 -11.908  1.00  0.00     0.020 A 
ATOM     66  C   UNL     1      -0.985   5.282 -11.886  1.00  0.00     0.020 A 
ATOM     67  C   UNL     1      -1.984   4.517 -12.489  1.00  0.00     0.054 A 
BRANCH  67  68
ATOM     68  S   UNL     1      -1.679   3.680 -14.069  1.00  0.00     0.124 S 
ATOM     69  O   UNL     1      -1.683   2.275 -13.672  1.00  0.00    -0.237 OA
ATOM     70  O   UNL     1      -2.817   4.107 -14.880  1.00  0.00    -0.237 OA
ATOM     71  O   UNL     1      -0.383   4.202 -14.495  1.00  0.00    -0.744 OA
ENDBRANCH  67  68
ENDBRANCH  48  62
BRANCH  49  72
ATOM     72  C   UNL     1      -4.658  10.755  -1.672  1.00  0.00    -0.014 A 
ATOM     73  C   UNL     1      -5.800  11.569  -1.561  1.00  0.00     0.010 A 
ATOM     74  C   UNL     1      -3.744  10.719  -0.602  1.00  0.00     0.010 A 
ATOM     75  C   UNL     1      -5.996  12.367  -0.428  1.00  0.00     0.020 A 
ATOM     76  C   UNL     1      -3.955  11.486   0.546  1.00  0.00     0.020 A 
ATOM     77  C   UNL     1      -5.069  12.324   0.616  1.00  0.00     0.054 A 
BRANCH  77  78
ATOM     78  S   UNL     1      -5.338  13.371   2.074  1.00  0.00     0.124 S 
ATOM     79  O   UNL     1      -5.035  14.700   1.552  1.00  0.00    -0.237 OA
ATOM     80  O   UNL     1      -6.741  13.119   2.390  1.00  0.00    -0.237 OA
ATOM     81  O   UNL     1      -4.383  12.850   3.050  1.00  0.00    -0.744 OA
ENDBRANCH  77  78
ENDBRANCH  49  72
BRANCH  61  82
ATOM     82  C   UNL     1      -3.350  12.748  -8.236  1.00  0.00    -0.014 A 
ATOM     83  C   UNL     1      -2.320  13.678  -8.011  1.00  0.00     0.010 A 
ATOM     84  C   UNL     1      -4.344  13.048  -9.188  1.00  0.00     0.010 A 
ATOM     85  C   UNL     1      -2.299  14.892  -8.704  1.00  0.00     0.020 A 
ATOM     86  C   UNL     1      -4.310  14.247  -9.906  1.00  0.00     0.020 A 
ATOM     87  C   UNL     1      -3.292  15.167  -9.651  1.00  0.00     0.054 A 
BRANCH  87  88
ATOM     88  S   UNL     1      -3.207  16.723 -10.581  1.00  0.00     0.124 S 
ATOM     89  O   UNL     1      -3.561  17.707  -9.562  1.00  0.00    -0.237 OA
ATOM     90  O   UNL     1      -1.815  16.753 -11.027  1.00  0.00    -0.237 OA
ATOM     91  O   UNL     1      -4.192  16.547 -11.646  1.00  0.00    -0.744 OA
ENDBRANCH  87  88
ENDBRANCH  61  82
ENDBRANCH  35  36
ENDBRANCH  28  30
ENDBRANCH  27  28
ENDBRANCH  26  27
ENDBRANCH  25  26
ENDBRANCH  24  25
ENDBRANCH   1  24
TORSDOF 23
