REMARK SMILES CCCCCCNC(=O)Oc1cccc(-c2ccc([C@@H](C)C(=O)OCCOCCOC(=O)c3ccc(-c4c5nc(c(-c6ccc(S(=O)(=O)[O-])cc6)c6ccc([nH]6)c(-c6ccc(S(=O)(=O)[O-])cc6)c6nc(c(-c7ccc(S(=O)(=O)[O-])cc7)c7ccc4[nH]7)C=C6)C=C5)cc3)cc2[N+](=O)[O-])c1
REMARK SMILES IDX 24 1 22 2 23 3 20 4 21 5 19 6 16 7 17 8 94 9 18 10 93 11
REMARK SMILES IDX 15 12 11 13 12 14 98 15 13 16 14 17 10 18 8 19 7 20 9 22
REMARK SMILES IDX 6 23 5 24 4 25 3 26 2 27 1 28 95 29 96 30 97 31 25 32 26 33
REMARK SMILES IDX 27 34 28 35 29 36 30 37 31 38 32 39 33 40 34 41 92 42 35 43
REMARK SMILES IDX 91 44 36 45 37 46 38 47 85 48 39 49 90 50 84 51 86 52 40 53
REMARK SMILES IDX 89 54 83 55 82 56 41 58 71 59 52 60 70 61 53 62 56 63 69 64
REMARK SMILES IDX 87 65 54 66 55 67 68 69 88 70 57 71 42 72 43 73 51 74 44 75
REMARK SMILES IDX 50 76 45 77 46 78 47 79 48 80 49 81 72 82 73 83 81 84 74 85
REMARK SMILES IDX 80 86 75 87 76 88 77 89 78 90 79 91 58 92 59 93 67 94 60 95
REMARK SMILES IDX 66 96 61 97 62 98 63 99 64 100 65 101
REMARK H PARENT 7 21 86 57 56 68
REMARK Flexibility Score: inf
ROOT
ATOM      1  O   UNL     1      -3.046  14.809  -0.005  1.00  0.00    -0.463 OA
ENDROOT
BRANCH   1   2
ATOM      2  C   UNL     1      -3.639  14.755  -1.225  1.00  0.00     0.313 C 
ATOM      3  O   UNL     1      -3.300  15.426  -2.196  1.00  0.00    -0.252 OA
BRANCH   2   4
ATOM      4  C   UNL     1      -4.814  13.793  -1.296  1.00  0.00     0.126 C 
ATOM      5  C   UNL     1      -6.114  14.568  -1.106  1.00  0.00     0.025 C 
BRANCH   4   6
ATOM      6  C   UNL     1      -4.770  12.531  -0.438  1.00  0.00    -0.027 A 
ATOM      7  C   UNL     1      -4.884  10.100   1.097  1.00  0.00     0.060 A 
ATOM      8  C   UNL     1      -4.864  11.365   1.712  1.00  0.00     0.016 A 
ATOM      9  C   UNL     1      -4.829  10.092  -0.307  1.00  0.00     0.277 A 
ATOM     10  C   UNL     1      -4.816  12.555   0.963  1.00  0.00     0.006 A 
ATOM     11  C   UNL     1      -4.760  11.276  -1.067  1.00  0.00     0.091 A 
BRANCH   7  12
ATOM     12  C   UNL     1      -4.982   8.881   1.923  1.00  0.00    -0.008 A 
ATOM     13  C   UNL     1      -4.139   6.713   2.623  1.00  0.00     0.133 A 
ATOM     14  C   UNL     1      -5.274   6.491   3.399  1.00  0.00     0.047 A 
ATOM     15  C   UNL     1      -3.985   7.893   1.889  1.00  0.00     0.056 A 
ATOM     16  C   UNL     1      -6.258   7.472   3.462  1.00  0.00     0.004 A 
ATOM     17  C   UNL     1      -6.113   8.655   2.729  1.00  0.00     0.009 A 
BRANCH  13  18
ATOM     18  O   UNL     1      -3.238   5.640   2.502  1.00  0.00    -0.410 OA
BRANCH  18  19
ATOM     19  C   UNL     1      -1.880   5.884   2.632  1.00  0.00     0.412 C 
ATOM     20  N   UNL     1      -1.107   4.783   2.394  1.00  0.00    -0.321 N 
ATOM     21  H   UNL     1      -0.135   4.898   2.503  1.00  0.00     0.167 HD
ATOM     22  O   UNL     1      -1.369   6.963   2.926  1.00  0.00    -0.224 OA
BRANCH  20  23
ATOM     23  C   UNL     1      -1.561   3.464   1.999  1.00  0.00     0.119 C 
BRANCH  23  24
ATOM     24  C   UNL     1      -0.979   3.038   0.650  1.00  0.00     0.021 C 
BRANCH  24  25
ATOM     25  C   UNL     1       0.549   2.903   0.617  1.00  0.00     0.002 C 
BRANCH  25  26
ATOM     26  C   UNL     1       1.144   1.887   1.598  1.00  0.00    -0.000 C 
BRANCH  26  27
ATOM     27  C   UNL     1       0.670   0.442   1.416  1.00  0.00    -0.003 C 
ATOM     28  C   UNL     1       1.062  -0.155   0.073  1.00  0.00     0.004 C 
ENDBRANCH  26  27
ENDBRANCH  25  26
ENDBRANCH  24  25
ENDBRANCH  23  24
ENDBRANCH  20  23
ENDBRANCH  18  19
ENDBRANCH  13  18
ENDBRANCH   7  12
BRANCH   9  29
ATOM     29  N   UNL     1      -4.894   8.845  -1.056  1.00  0.00     0.063 N 
ATOM     30  O   UNL     1      -3.987   8.639  -1.876  1.00  0.00    -0.258 OA
ATOM     31  O   UNL     1      -5.873   8.110  -0.873  1.00  0.00    -0.258 OA
ENDBRANCH   9  29
ENDBRANCH   4   6
ENDBRANCH   2   4
ENDBRANCH   1   2
BRANCH   1  32
ATOM     32  C   UNL     1      -1.860  15.621   0.081  1.00  0.00     0.261 C 
BRANCH  32  33
ATOM     33  C   UNL     1      -0.622  14.774   0.385  1.00  0.00     0.202 C 
BRANCH  33  34
ATOM     34  O   UNL     1      -0.224  13.843  -0.622  1.00  0.00    -0.374 OA
BRANCH  34  35
ATOM     35  C   UNL     1      -0.984  12.643  -0.753  1.00  0.00     0.202 C 
BRANCH  35  36
ATOM     36  C   UNL     1      -0.776  11.554   0.307  1.00  0.00     0.261 C 
BRANCH  36  37
ATOM     37  O   UNL     1      -1.187  11.968   1.622  1.00  0.00    -0.460 OA
BRANCH  37  38
ATOM     38  C   UNL     1      -0.162  12.165   2.489  1.00  0.00     0.338 C 
ATOM     39  O   UNL     1       1.026  11.987   2.272  1.00  0.00    -0.246 OA
BRANCH  38  40
ATOM     40  C   UNL     1      -0.642  12.834   3.714  1.00  0.00     0.060 A 
ATOM     41  C   UNL     1       0.065  13.967   4.137  1.00  0.00     0.016 A 
ATOM     42  C   UNL     1      -1.689  12.324   4.485  1.00  0.00     0.016 A 
ATOM     43  C   UNL     1      -0.224  14.553   5.366  1.00  0.00     0.010 A 
ATOM     44  C   UNL     1      -1.977  12.915   5.723  1.00  0.00     0.010 A 
ATOM     45  C   UNL     1      -1.215  14.003   6.189  1.00  0.00    -0.014 A 
BRANCH  45  46
ATOM     46  C   UNL     1      -1.319  14.469   7.595  1.00  0.00     0.031 A 
ATOM     47  C   UNL     1      -0.697  13.638   8.688  1.00  0.00     0.074 A 
ATOM     48  C   UNL     1      -1.885  15.654   7.891  1.00  0.00     0.049 A 
ATOM     49  N   UNL     1      -0.627  13.877   9.973  1.00  0.00    -0.248 NA
ATOM     50  C   UNL     1      -0.066  12.373   8.277  1.00  0.00     0.031 C 
ATOM     51  C   UNL     1      -2.470  16.577   6.920  1.00  0.00     0.029 A 
ATOM     52  N   UNL     1      -2.046  16.288   9.098  1.00  0.00    -0.354 N 
ATOM     53  C   UNL     1       0.053  12.796  10.522  1.00  0.00     0.074 A 
ATOM     54  C   UNL     1       0.339  11.882   9.438  1.00  0.00     0.031 C 
ATOM     55  C   UNL     1      -2.917  17.666   7.569  1.00  0.00     0.029 A 
ATOM     56  C   UNL     1      -2.678  17.505   9.002  1.00  0.00     0.049 A 
ATOM     57  H   UNL     1      -1.738  15.907   9.952  1.00  0.00     0.167 HD
ATOM     58  C   UNL     1       0.417  12.584  11.810  1.00  0.00     0.031 A 
ATOM     59  C   UNL     1      -3.031  18.385   9.960  1.00  0.00     0.031 A 
ATOM     60  C   UNL     1       0.119  13.485  12.892  1.00  0.00     0.049 A 
ATOM     61  C   UNL     1      -2.693  18.088  11.398  1.00  0.00     0.074 A 
ATOM     62  C   UNL     1       0.446  13.360  14.231  1.00  0.00     0.029 A 
ATOM     63  N   UNL     1      -0.580  14.675  12.761  1.00  0.00    -0.354 N 
ATOM     64  N   UNL     1      -2.039  17.066  11.898  1.00  0.00    -0.248 NA
ATOM     65  C   UNL     1      -3.134  19.070  12.399  1.00  0.00     0.031 C 
ATOM     66  C   UNL     1      -0.105  14.447  14.918  1.00  0.00     0.029 A 
ATOM     67  C   UNL     1      -0.719  15.282  13.998  1.00  0.00     0.049 A 
ATOM     68  H   UNL     1      -0.927  15.036  11.913  1.00  0.00     0.167 HD
ATOM     69  C   UNL     1      -1.962  17.299  13.268  1.00  0.00     0.074 A 
ATOM     70  C   UNL     1      -2.628  18.561  13.515  1.00  0.00     0.031 C 
ATOM     71  C   UNL     1      -1.386  16.538  14.232  1.00  0.00     0.031 A 
BRANCH  58  72
ATOM     72  C   UNL     1       1.151  11.305  12.120  1.00  0.00    -0.014 A 
ATOM     73  C   UNL     1       2.477  11.102  11.697  1.00  0.00     0.010 A 
ATOM     74  C   UNL     1       0.509  10.297  12.864  1.00  0.00     0.010 A 
ATOM     75  C   UNL     1       3.131   9.898  11.970  1.00  0.00     0.020 A 
ATOM     76  C   UNL     1       1.170   9.102  13.163  1.00  0.00     0.020 A 
ATOM     77  C   UNL     1       2.471   8.902  12.697  1.00  0.00     0.054 A 
BRANCH  77  78
ATOM     78  S   UNL     1       3.344   7.350  13.042  1.00  0.00     0.124 S 
ATOM     79  O   UNL     1       3.337   6.703  11.732  1.00  0.00    -0.237 OA
ATOM     80  O   UNL     1       4.649   7.812  13.508  1.00  0.00    -0.237 OA
ATOM     81  O   UNL     1       2.516   6.704  14.058  1.00  0.00    -0.744 OA
ENDBRANCH  77  78
ENDBRANCH  58  72
BRANCH  59  82
ATOM     82  C   UNL     1      -3.751  19.635   9.591  1.00  0.00    -0.014 A 
ATOM     83  C   UNL     1      -3.121  20.887   9.705  1.00  0.00     0.010 A 
ATOM     84  C   UNL     1      -5.076  19.577   9.121  1.00  0.00     0.010 A 
ATOM     85  C   UNL     1      -3.806  22.058   9.366  1.00  0.00     0.020 A 
ATOM     86  C   UNL     1      -5.755  20.742   8.755  1.00  0.00     0.020 A 
ATOM     87  C   UNL     1      -5.118  21.977   8.890  1.00  0.00     0.054 A 
BRANCH  87  88
ATOM     88  S   UNL     1      -5.968  23.504   8.401  1.00  0.00     0.124 S 
ATOM     89  O   UNL     1      -6.259  24.117   9.693  1.00  0.00    -0.237 OA
ATOM     90  O   UNL     1      -4.959  24.181   7.591  1.00  0.00    -0.237 OA
ATOM     91  O   UNL     1      -7.132  23.024   7.658  1.00  0.00    -0.744 OA
ENDBRANCH  87  88
ENDBRANCH  59  82
BRANCH  71  92
ATOM     92  C   UNL     1      -1.414  17.064  15.644  1.00  0.00    -0.014 A 
ATOM     93  C   UNL     1      -2.603  17.084  16.395  1.00  0.00     0.010 A 
ATOM     94  C   UNL     1      -0.217  17.495  16.245  1.00  0.00     0.010 A 
ATOM     95  C   UNL     1      -2.599  17.555  17.711  1.00  0.00     0.020 A 
ATOM     96  C   UNL     1      -0.204  17.941  17.570  1.00  0.00     0.020 A 
ATOM     97  C   UNL     1      -1.399  17.981  18.290  1.00  0.00     0.054 A 
BRANCH  97  98
ATOM     98  S   UNL     1      -1.412  18.548  20.013  1.00  0.00     0.124 S 
ATOM     99  O   UNL     1      -2.050  19.857  19.898  1.00  0.00    -0.237 OA
ATOM    100  O   UNL     1      -2.205  17.520  20.683  1.00  0.00    -0.237 OA
ATOM    101  O   UNL     1       0.002  18.573  20.381  1.00  0.00    -0.744 OA
ENDBRANCH  97  98
ENDBRANCH  71  92
ENDBRANCH  45  46
ENDBRANCH  38  40
ENDBRANCH  37  38
ENDBRANCH  36  37
ENDBRANCH  35  36
ENDBRANCH  34  35
ENDBRANCH  33  34
ENDBRANCH  32  33
ENDBRANCH   1  32
TORSDOF 27
