REMARK SMILES CC(C)C[C@@H](CNc1nccc(C(F)(F)F)n1)C(=O)OCCOCCOC(=O)c1ccc(-c2c3nc(c(-c4ccc(S(=O)(=O)[O-])cc4)c4ccc([nH]4)c(-c4ccc(S(=O)(=O)[O-])cc4)c4nc(c(-c5ccc(S(=O)(=O)[O-])cc5)c5ccc2[nH]5)C=C4)C=C3)cc1
REMARK SMILES IDX 22 1 21 2 20 3 18 4 19 5 5 6 4 7 2 8 1 9 3 10 6 11 7 12 8 14
REMARK SMILES IDX 9 15 17 16 10 17 12 18 11 19 13 20 14 21 15 22 16 23 23 24
REMARK SMILES IDX 24 25 25 26 26 27 27 28 28 29 29 30 30 31 88 32 31 33 87 34
REMARK SMILES IDX 32 35 33 36 34 37 81 38 35 39 86 40 80 41 82 42 36 43 85 44
REMARK SMILES IDX 79 45 78 46 37 48 67 49 48 50 66 51 49 52 52 53 65 54 83 55
REMARK SMILES IDX 50 56 51 57 64 59 84 60 53 61 38 62 39 63 47 64 40 65 46 66
REMARK SMILES IDX 41 67 42 68 43 69 44 70 45 71 68 72 69 73 77 74 70 75 76 76
REMARK SMILES IDX 71 77 72 78 73 79 74 80 75 81 54 82 55 83 63 84 56 85 62 86
REMARK SMILES IDX 57 87 58 88 59 89 60 90 61 91
REMARK H PARENT 7 13 82 47 52 58
REMARK Flexibility Score: inf
ROOT
ATOM      1  C   UNL     1      -5.764   0.389   1.036  1.00  0.00     0.202 C 
ENDROOT
BRANCH   1   2
ATOM      2  C   UNL     1      -4.943  -0.009   2.267  1.00  0.00     0.261 C 
BRANCH   2   3
ATOM      3  O   UNL     1      -3.552   0.341   2.136  1.00  0.00    -0.463 OA
BRANCH   3   4
ATOM      4  C   UNL     1      -2.672  -0.694   2.202  1.00  0.00     0.310 C 
ATOM      5  O   UNL     1      -2.979  -1.875   2.325  1.00  0.00    -0.252 OA
BRANCH   4   6
ATOM      6  C   UNL     1      -1.223  -0.243   2.132  1.00  0.00     0.118 C 
BRANCH   6   7
ATOM      7  C   UNL     1      -0.950   0.938   1.177  1.00  0.00     0.020 C 
BRANCH   7   8
ATOM      8  C   UNL     1       0.548   1.196   0.898  1.00  0.00    -0.017 C 
ATOM      9  C   UNL     1       1.185   0.060   0.092  1.00  0.00     0.007 C 
ATOM     10  C   UNL     1       0.728   2.515   0.142  1.00  0.00     0.007 C 
ENDBRANCH   7   8
ENDBRANCH   6   7
BRANCH   6  11
ATOM     11  C   UNL     1      -0.711  -0.046   3.563  1.00  0.00     0.131 C 
BRANCH  11  12
ATOM     12  N   UNL     1      -1.323   1.096   4.206  1.00  0.00    -0.353 N 
ATOM     13  H   UNL     1      -1.129   2.006   3.882  1.00  0.00     0.163 HD
BRANCH  12  14
ATOM     14  C   UNL     1      -2.172   0.911   5.266  1.00  0.00     0.223 A 
ATOM     15  N   UNL     1      -3.178   1.784   5.366  1.00  0.00    -0.222 NA
ATOM     16  N   UNL     1      -1.984  -0.110   6.106  1.00  0.00    -0.209 NA
ATOM     17  C   UNL     1      -4.049   1.601   6.375  1.00  0.00     0.117 A 
ATOM     18  C   UNL     1      -2.860  -0.259   7.134  1.00  0.00     0.149 A 
ATOM     19  C   UNL     1      -3.938   0.590   7.295  1.00  0.00     0.054 A 
BRANCH  18  20
ATOM     20  C   UNL     1      -2.613  -1.383   8.122  1.00  0.00     0.433 C 
ATOM     21  F   UNL     1      -2.564  -2.613   7.531  1.00  0.00    -0.165 F 
ATOM     22  F   UNL     1      -1.435  -1.250   8.799  1.00  0.00    -0.165 F 
ATOM     23  F   UNL     1      -3.576  -1.485   9.085  1.00  0.00    -0.165 F 
ENDBRANCH  18  20
ENDBRANCH  12  14
ENDBRANCH  11  12
ENDBRANCH   6  11
ENDBRANCH   4   6
ENDBRANCH   3   4
ENDBRANCH   2   3
ENDBRANCH   1   2
BRANCH   1  24
ATOM     24  O   UNL     1      -5.447  -0.268  -0.191  1.00  0.00    -0.374 OA
BRANCH  24  25
ATOM     25  C   UNL     1      -4.227   0.099  -0.831  1.00  0.00     0.202 C 
BRANCH  25  26
ATOM     26  C   UNL     1      -4.197   1.450  -1.557  1.00  0.00     0.261 C 
BRANCH  26  27
ATOM     27  O   UNL     1      -4.472   2.568  -0.693  1.00  0.00    -0.460 OA
BRANCH  27  28
ATOM     28  C   UNL     1      -5.626   3.219  -0.974  1.00  0.00     0.338 C 
ATOM     29  O   UNL     1      -6.381   3.001  -1.915  1.00  0.00    -0.246 OA
BRANCH  28  30
ATOM     30  C   UNL     1      -5.986   4.161   0.101  1.00  0.00     0.060 A 
ATOM     31  C   UNL     1      -7.264   4.032   0.658  1.00  0.00     0.016 A 
ATOM     32  C   UNL     1      -5.154   5.217   0.481  1.00  0.00     0.016 A 
ATOM     33  C   UNL     1      -7.738   4.991   1.550  1.00  0.00     0.010 A 
ATOM     34  C   UNL     1      -5.635   6.184   1.376  1.00  0.00     0.010 A 
ATOM     35  C   UNL     1      -6.944   6.097   1.884  1.00  0.00    -0.014 A 
BRANCH  35  36
ATOM     36  C   UNL     1      -7.557   7.203   2.663  1.00  0.00     0.031 A 
ATOM     37  C   UNL     1      -8.073   8.421   1.943  1.00  0.00     0.074 A 
ATOM     38  C   UNL     1      -7.739   7.081   3.991  1.00  0.00     0.049 A 
ATOM     39  N   UNL     1      -8.726   9.450   2.423  1.00  0.00    -0.248 NA
ATOM     40  C   UNL     1      -7.830   8.487   0.493  1.00  0.00     0.031 C 
ATOM     41  C   UNL     1      -7.309   5.942   4.803  1.00  0.00     0.029 A 
ATOM     42  N   UNL     1      -8.347   7.923   4.889  1.00  0.00    -0.354 N 
ATOM     43  C   UNL     1      -8.984  10.277   1.336  1.00  0.00     0.074 A 
ATOM     44  C   UNL     1      -8.382   9.651   0.178  1.00  0.00     0.031 C 
ATOM     45  C   UNL     1      -7.673   6.154   6.079  1.00  0.00     0.029 A 
ATOM     46  C   UNL     1      -8.345   7.449   6.179  1.00  0.00     0.049 A 
ATOM     47  H   UNL     1      -8.748   8.785   4.633  1.00  0.00     0.167 HD
ATOM     48  C   UNL     1      -9.672  11.444   1.298  1.00  0.00     0.031 A 
ATOM     49  C   UNL     1      -8.825   7.996   7.313  1.00  0.00     0.031 A 
ATOM     50  C   UNL     1     -10.256  12.081   2.449  1.00  0.00     0.049 A 
ATOM     51  C   UNL     1      -9.540   9.320   7.254  1.00  0.00     0.074 A 
ATOM     52  C   UNL     1     -10.968  13.268   2.508  1.00  0.00     0.029 A 
ATOM     53  N   UNL     1     -10.195  11.589   3.743  1.00  0.00    -0.354 N 
ATOM     54  N   UNL     1      -9.793  10.074   6.211  1.00  0.00    -0.248 NA
ATOM     55  C   UNL     1     -10.047   9.856   8.524  1.00  0.00     0.031 C 
ATOM     56  C   UNL     1     -11.299  13.515   3.845  1.00  0.00     0.029 A 
ATOM     57  C   UNL     1     -10.839  12.456   4.611  1.00  0.00     0.049 A 
ATOM     58  H   UNL     1      -9.759  10.747   4.007  1.00  0.00     0.167 HD
ATOM     59  C   UNL     1     -10.502  11.167   6.699  1.00  0.00     0.074 A 
ATOM     60  C   UNL     1     -10.660  10.961   8.124  1.00  0.00     0.031 C 
ATOM     61  C   UNL     1     -10.976  12.247   6.029  1.00  0.00     0.031 A 
BRANCH  48  62
ATOM     62  C   UNL     1      -9.821  12.120  -0.039  1.00  0.00    -0.014 A 
ATOM     63  C   UNL     1     -10.703  11.611  -1.010  1.00  0.00     0.010 A 
ATOM     64  C   UNL     1      -9.117  13.307  -0.308  1.00  0.00     0.010 A 
ATOM     65  C   UNL     1     -10.858  12.264  -2.236  1.00  0.00     0.020 A 
ATOM     66  C   UNL     1      -9.286  13.975  -1.524  1.00  0.00     0.020 A 
ATOM     67  C   UNL     1     -10.147  13.442  -2.486  1.00  0.00     0.054 A 
BRANCH  67  68
ATOM     68  S   UNL     1     -10.396  14.290  -4.071  1.00  0.00     0.124 S 
ATOM     69  O   UNL     1      -9.678  13.415  -4.995  1.00  0.00    -0.237 OA
ATOM     70  O   UNL     1     -11.850  14.291  -4.209  1.00  0.00    -0.237 OA
ATOM     71  O   UNL     1      -9.792  15.603  -3.860  1.00  0.00    -0.744 OA
ENDBRANCH  67  68
ENDBRANCH  48  62
BRANCH  49  72
ATOM     72  C   UNL     1      -8.628   7.300   8.614  1.00  0.00    -0.014 A 
ATOM     73  C   UNL     1      -9.712   6.729   9.302  1.00  0.00     0.010 A 
ATOM     74  C   UNL     1      -7.341   7.223   9.176  1.00  0.00     0.010 A 
ATOM     75  C   UNL     1      -9.515   6.110  10.541  1.00  0.00     0.020 A 
ATOM     76  C   UNL     1      -7.136   6.582  10.400  1.00  0.00     0.020 A 
ATOM     77  C   UNL     1      -8.227   6.041  11.081  1.00  0.00     0.054 A 
BRANCH  77  78
ATOM     78  S   UNL     1      -7.979   5.187  12.663  1.00  0.00     0.124 S 
ATOM     79  O   UNL     1      -8.443   6.184  13.622  1.00  0.00    -0.237 OA
ATOM     80  O   UNL     1      -8.821   4.002  12.519  1.00  0.00    -0.237 OA
ATOM     81  O   UNL     1      -6.542   4.918  12.679  1.00  0.00    -0.744 OA
ENDBRANCH  77  78
ENDBRANCH  49  72
BRANCH  61  82
ATOM     82  C   UNL     1     -11.723  13.279   6.832  1.00  0.00    -0.014 A 
ATOM     83  C   UNL     1     -11.050  14.128   7.729  1.00  0.00     0.010 A 
ATOM     84  C   UNL     1     -13.116  13.409   6.679  1.00  0.00     0.010 A 
ATOM     85  C   UNL     1     -11.762  15.054   8.496  1.00  0.00     0.020 A 
ATOM     86  C   UNL     1     -13.828  14.352   7.426  1.00  0.00     0.020 A 
ATOM     87  C   UNL     1     -13.149  15.153   8.346  1.00  0.00     0.054 A 
BRANCH  87  88
ATOM     88  S   UNL     1     -14.054  16.363   9.350  1.00  0.00     0.124 S 
ATOM     89  O   UNL     1     -14.109  15.698  10.649  1.00  0.00    -0.237 OA
ATOM     90  O   UNL     1     -13.197  17.544   9.284  1.00  0.00    -0.237 OA
ATOM     91  O   UNL     1     -15.336  16.493   8.661  1.00  0.00    -0.744 OA
ENDBRANCH  87  88
ENDBRANCH  61  82
ENDBRANCH  35  36
ENDBRANCH  28  30
ENDBRANCH  27  28
ENDBRANCH  26  27
ENDBRANCH  25  26
ENDBRANCH  24  25
ENDBRANCH   1  24
TORSDOF 23
