REMARK SMILES O=C(Cn1cc(/C=C2\SC(N3CCOCC3)=[NH+]C2=O)c2ccccc21)OCCOCCOC(=O)c1ccc(-c2c3nc(c(-c4ccc(S(=O)(=O)[O-])cc4)c4ccc([nH]4)c(-c4ccc(S(=O)(=O)[O-])cc4)c4nc(c(-c5ccc(S(=O)(=O)[O-])cc5)c5ccc2[nH]5)C=C4)C=C3)cc1
REMARK SMILES IDX 30 1 29 2 28 3 27 4 26 5 2 6 1 7 3 8 4 9 5 10 25 11 6 12
REMARK SMILES IDX 20 13 24 14 21 15 23 16 22 17 7 18 8 19 9 20 18 21 10 22
REMARK SMILES IDX 17 23 19 24 11 25 12 27 16 28 13 29 15 30 14 31 31 32 32 33
REMARK SMILES IDX 33 34 34 35 35 36 36 37 94 38 37 39 93 40 38 41 39 42 40 43
REMARK SMILES IDX 87 44 41 45 92 46 86 47 88 48 42 49 91 50 85 51 84 52 43 54
REMARK SMILES IDX 73 55 54 56 72 57 55 58 58 59 71 60 89 61 56 62 57 63 70 65
REMARK SMILES IDX 90 66 59 67 44 68 45 69 53 70 46 71 52 72 47 73 48 74 49 75
REMARK SMILES IDX 50 76 51 77 74 78 75 79 83 80 76 81 82 82 77 83 78 84 79 85
REMARK SMILES IDX 80 86 81 87 60 88 61 89 69 90 62 91 68 92 63 93 64 94 65 95
REMARK SMILES IDX 66 96 67 97
REMARK H PARENT 17 26 88 53 58 64
REMARK Flexibility Score: inf
ROOT
ATOM      1  C   UNL     1       2.771  -1.345   2.443  1.00  0.00     0.202 C 
ENDROOT
BRANCH   1   2
ATOM      2  O   UNL     1       3.905  -1.657   1.644  1.00  0.00    -0.374 OA
BRANCH   2   3
ATOM      3  C   UNL     1       4.576  -0.597   0.989  1.00  0.00     0.202 C 
BRANCH   3   4
ATOM      4  C   UNL     1       3.748   0.408   0.192  1.00  0.00     0.261 C 
BRANCH   4   5
ATOM      5  O   UNL     1       2.324   0.326   0.106  1.00  0.00    -0.462 OA
BRANCH   5   6
ATOM      6  C   UNL     1       1.598  -0.531  -0.639  1.00  0.00     0.326 C 
ATOM      7  O   UNL     1       0.383  -0.358  -0.725  1.00  0.00    -0.250 OA
BRANCH   6   8
ATOM      8  C   UNL     1       2.247  -1.762  -1.203  1.00  0.00     0.244 C 
BRANCH   8   9
ATOM      9  N   UNL     1       3.313  -1.530  -2.150  1.00  0.00    -0.336 N 
ATOM     10  C   UNL     1       3.595  -0.336  -2.743  1.00  0.00     0.095 A 
ATOM     11  C   UNL     1       4.257  -2.449  -2.547  1.00  0.00     0.049 A 
ATOM     12  C   UNL     1       4.971  -0.361  -2.872  1.00  0.00     0.001 A 
ATOM     13  C   UNL     1       5.263  -1.710  -3.188  1.00  0.00     0.007 A 
ATOM     14  C   UNL     1       4.314  -3.838  -2.400  1.00  0.00     0.027 A 
ATOM     15  C   UNL     1       6.250  -2.413  -3.904  1.00  0.00     0.011 A 
ATOM     16  C   UNL     1       5.317  -4.510  -3.098  1.00  0.00     0.002 A 
ATOM     17  C   UNL     1       6.234  -3.815  -3.885  1.00  0.00     0.001 A 
BRANCH  12  18
ATOM     18  C   UNL     1       5.660   0.873  -2.941  1.00  0.00     0.034 C 
ATOM     19  C   UNL     1       6.270   1.658  -1.982  1.00  0.00     0.110 C 
ATOM     20  S   UNL     1       8.204   1.177  -0.754  1.00  0.00     0.006 SA
ATOM     21  C   UNL     1       6.585   3.445  -2.860  1.00  0.00     0.346 C 
ATOM     22  C   UNL     1       9.198   3.219  -1.450  1.00  0.00     0.319 C 
ATOM     23  N   UNL     1       8.260   4.163  -2.435  1.00  0.00    -0.200 N 
ATOM     24  O   UNL     1       5.903   3.601  -3.857  1.00  0.00    -0.240 OA
ATOM     25  N   UNL     1      10.455   3.584  -1.047  1.00  0.00    -0.251 N 
ATOM     26  H   UNL     1       8.562   5.038  -2.772  1.00  0.00     0.316 HD
ATOM     27  C   UNL     1      11.344   2.771  -0.236  1.00  0.00     0.265 C 
ATOM     28  C   UNL     1      10.742   5.020  -0.930  1.00  0.00     0.265 C 
ATOM     29  C   UNL     1      11.200   3.193   1.232  1.00  0.00     0.206 C 
ATOM     30  C   UNL     1      10.554   5.332   0.556  1.00  0.00     0.206 C 
ATOM     31  O   UNL     1      11.456   4.598   1.391  1.00  0.00    -0.373 OA
ENDBRANCH  12  18
ENDBRANCH   8   9
ENDBRANCH   6   8
ENDBRANCH   5   6
ENDBRANCH   4   5
ENDBRANCH   3   4
ENDBRANCH   2   3
ENDBRANCH   1   2
BRANCH   1  32
ATOM     32  C   UNL     1       2.933  -0.369   3.616  1.00  0.00     0.261 C 
BRANCH  32  33
ATOM     33  O   UNL     1       3.394   0.928   3.195  1.00  0.00    -0.460 OA
BRANCH  33  34
ATOM     34  C   UNL     1       4.487   1.420   3.841  1.00  0.00     0.338 C 
ATOM     35  O   UNL     1       4.978   0.985   4.869  1.00  0.00    -0.246 OA
BRANCH  34  36
ATOM     36  C   UNL     1       5.209   2.307   2.885  1.00  0.00     0.060 A 
ATOM     37  C   UNL     1       4.568   3.114   1.935  1.00  0.00     0.016 A 
ATOM     38  C   UNL     1       6.560   2.039   2.736  1.00  0.00     0.016 A 
ATOM     39  C   UNL     1       5.188   3.352   0.679  1.00  0.00     0.010 A 
ATOM     40  C   UNL     1       7.188   2.376   1.544  1.00  0.00     0.010 A 
ATOM     41  C   UNL     1       6.482   2.845   0.406  1.00  0.00    -0.014 A 
BRANCH  41  42
ATOM     42  C   UNL     1       7.289   3.157  -1.113  1.00  0.00     0.031 A 
ATOM     43  C   UNL     1       7.239   4.997  -0.675  1.00  0.00     0.074 A 
ATOM     44  C   UNL     1       8.035   2.252  -2.610  1.00  0.00     0.049 A 
ATOM     45  N   UNL     1       7.195   6.069  -1.434  1.00  0.00    -0.248 NA
ATOM     46  C   UNL     1       7.352   5.465   0.752  1.00  0.00     0.031 C 
ATOM     47  C   UNL     1       8.384   0.678  -3.190  1.00  0.00     0.029 A 
ATOM     48  N   UNL     1       8.594   2.747  -3.916  1.00  0.00    -0.354 N 
ATOM     49  C   UNL     1       7.714   7.169  -0.702  1.00  0.00     0.074 A 
ATOM     50  C   UNL     1       7.703   6.755   0.663  1.00  0.00     0.031 C 
ATOM     51  C   UNL     1       9.250   0.663  -4.219  1.00  0.00     0.029 A 
ATOM     52  C   UNL     1       9.466   1.999  -4.664  1.00  0.00     0.049 A 
ATOM     53  H   UNL     1       8.324   3.635  -4.244  1.00  0.00     0.167 HD
ATOM     54  C   UNL     1       8.237   8.285  -1.310  1.00  0.00     0.031 A 
ATOM     55  C   UNL     1      10.417   2.508  -5.487  1.00  0.00     0.031 A 
ATOM     56  C   UNL     1       7.586   8.459  -2.577  1.00  0.00     0.049 A 
ATOM     57  C   UNL     1      10.075   3.974  -5.702  1.00  0.00     0.074 A 
ATOM     58  C   UNL     1       6.268   8.691  -2.894  1.00  0.00     0.029 A 
ATOM     59  N   UNL     1       8.220   8.078  -3.732  1.00  0.00    -0.354 N 
ATOM     60  N   UNL     1       8.947   4.469  -6.178  1.00  0.00    -0.248 NA
ATOM     61  C   UNL     1      10.886   4.930  -4.969  1.00  0.00     0.031 C 
ATOM     62  C   UNL     1       6.069   8.010  -4.118  1.00  0.00     0.029 A 
ATOM     63  C   UNL     1       7.293   7.495  -4.561  1.00  0.00     0.049 A 
ATOM     64  H   UNL     1       9.175   8.202  -3.932  1.00  0.00     0.167 HD
ATOM     65  C   UNL     1       8.760   5.730  -5.581  1.00  0.00     0.074 A 
ATOM     66  C   UNL     1      10.018   5.938  -4.852  1.00  0.00     0.031 C 
ATOM     67  C   UNL     1       7.574   6.449  -5.549  1.00  0.00     0.031 A 
BRANCH  54  68
ATOM     68  C   UNL     1       9.384   9.227  -0.904  1.00  0.00    -0.014 A 
ATOM     69  C   UNL     1      10.389   8.930   0.033  1.00  0.00     0.010 A 
ATOM     70  C   UNL     1       9.636  10.376  -1.694  1.00  0.00     0.010 A 
ATOM     71  C   UNL     1      11.630   9.614   0.072  1.00  0.00     0.020 A 
ATOM     72  C   UNL     1      10.842  11.107  -1.631  1.00  0.00     0.020 A 
ATOM     73  C   UNL     1      11.855  10.696  -0.774  1.00  0.00     0.054 A 
BRANCH  73  74
ATOM     74  S   UNL     1      13.444  11.585  -0.699  1.00  0.00     0.124 S 
ATOM     75  O   UNL     1      13.541  11.929   0.718  1.00  0.00    -0.237 OA
ATOM     76  O   UNL     1      14.391  10.578  -1.168  1.00  0.00    -0.237 OA
ATOM     77  O   UNL     1      13.247  12.722  -1.596  1.00  0.00    -0.744 OA
ENDBRANCH  73  74
ENDBRANCH  54  68
BRANCH  55  78
ATOM     78  C   UNL     1      11.814   1.924  -5.479  1.00  0.00    -0.014 A 
ATOM     79  C   UNL     1      12.350   1.389  -4.276  1.00  0.00     0.010 A 
ATOM     80  C   UNL     1      12.694   2.004  -6.571  1.00  0.00     0.010 A 
ATOM     81  C   UNL     1      13.686   0.980  -4.155  1.00  0.00     0.020 A 
ATOM     82  C   UNL     1      14.049   1.601  -6.457  1.00  0.00     0.020 A 
ATOM     83  C   UNL     1      14.542   1.117  -5.241  1.00  0.00     0.054 A 
BRANCH  83  84
ATOM     84  S   UNL     1      16.307   0.742  -4.989  1.00  0.00     0.124 S 
ATOM     85  O   UNL     1      16.693   1.743  -3.998  1.00  0.00    -0.237 OA
ATOM     86  O   UNL     1      16.274  -0.635  -4.502  1.00  0.00    -0.237 OA
ATOM     87  O   UNL     1      16.894   0.916  -6.315  1.00  0.00    -0.744 OA
ENDBRANCH  83  84
ENDBRANCH  55  78
BRANCH  67  88
ATOM     88  C   UNL     1       6.315   5.997  -6.319  1.00  0.00    -0.014 A 
ATOM     89  C   UNL     1       5.751   6.630  -7.424  1.00  0.00     0.010 A 
ATOM     90  C   UNL     1       5.391   5.203  -5.647  1.00  0.00     0.010 A 
ATOM     91  C   UNL     1       4.446   6.281  -7.896  1.00  0.00     0.020 A 
ATOM     92  C   UNL     1       4.207   4.666  -6.158  1.00  0.00     0.020 A 
ATOM     93  C   UNL     1       3.713   5.244  -7.298  1.00  0.00     0.054 A 
BRANCH  93  94
ATOM     94  S   UNL     1       2.051   4.762  -7.839  1.00  0.00     0.124 S 
ATOM     95  O   UNL     1       1.195   5.573  -6.974  1.00  0.00    -0.237 OA
ATOM     96  O   UNL     1       2.034   5.129  -9.252  1.00  0.00    -0.237 OA
ATOM     97  O   UNL     1       2.001   3.324  -7.577  1.00  0.00    -0.744 OA
ENDBRANCH  93  94
ENDBRANCH  67  88
ENDBRANCH  41  42
ENDBRANCH  34  36
ENDBRANCH  33  34
ENDBRANCH  32  33
ENDBRANCH   1  32
TORSDOF 19
