REMARK SMILES O=C(OCCOCCOC(=O)c1c(-c2ccc(Cl)cc2)noc1CO[C@@H]1CCCCO1)c1ccc(-c2c3nc(c(-c4ccc(S(=O)(=O)[O-])cc4)c4ccc([nH]4)c(-c4ccc(S(=O)(=O)[O-])cc4)c4nc(c(-c5ccc(S(=O)(=O)[O-])cc5)c5ccc2[nH]5)C=C4)C=C3)cc1
REMARK SMILES IDX 6 1 5 2 4 3 3 4 2 5 1 6 32 7 33 8 91 9 34 10 90 11 35 12
REMARK SMILES IDX 36 13 37 14 84 15 38 16 89 17 83 18 85 19 39 20 88 21 82 22
REMARK SMILES IDX 81 23 40 25 70 26 51 27 69 28 52 29 55 30 68 31 86 32 53 33
REMARK SMILES IDX 54 34 67 36 87 37 56 38 41 39 42 40 50 41 43 42 49 43 44 44
REMARK SMILES IDX 45 45 46 46 47 47 48 48 71 49 72 50 80 51 73 52 79 53 74 54
REMARK SMILES IDX 75 55 76 56 77 57 78 58 57 59 58 60 66 61 59 62 65 63 60 64
REMARK SMILES IDX 61 65 62 66 63 67 64 68 7 69 8 70 9 71 10 72 11 73 12 74
REMARK SMILES IDX 13 75 23 76 21 77 22 78 14 79 15 80 20 81 16 82 19 83 17 84
REMARK SMILES IDX 18 85 24 86 25 87 26 88 27 89 31 90 28 91 30 92 29 93
REMARK H PARENT 85 24 55 35
REMARK Flexibility Score: inf
ROOT
ATOM      1  O   UNL     1       3.446   0.998   0.508  1.00  0.00    -0.374 OA
ENDROOT
BRANCH   1   2
ATOM      2  C   UNL     1       3.544   0.932  -0.905  1.00  0.00     0.202 C 
BRANCH   2   3
ATOM      3  C   UNL     1       2.990  -0.354  -1.512  1.00  0.00     0.261 C 
BRANCH   3   4
ATOM      4  O   UNL     1       1.637  -0.591  -1.073  1.00  0.00    -0.460 OA
BRANCH   4   5
ATOM      5  C   UNL     1       1.228  -1.712  -0.420  1.00  0.00     0.338 C 
ATOM      6  O   UNL     1       0.041  -2.008  -0.358  1.00  0.00    -0.246 OA
BRANCH   5   7
ATOM      7  C   UNL     1       2.237  -2.587   0.227  1.00  0.00     0.060 A 
ATOM      8  C   UNL     1       3.234  -2.052   1.038  1.00  0.00     0.016 A 
ATOM      9  C   UNL     1       2.163  -3.972   0.062  1.00  0.00     0.016 A 
ATOM     10  C   UNL     1       4.241  -2.853   1.549  1.00  0.00     0.010 A 
ATOM     11  C   UNL     1       3.112  -4.798   0.679  1.00  0.00     0.010 A 
ATOM     12  C   UNL     1       4.172  -4.240   1.413  1.00  0.00    -0.014 A 
BRANCH  12  13
ATOM     13  C   UNL     1       5.218  -5.074   2.055  1.00  0.00     0.031 A 
ATOM     14  C   UNL     1       6.096  -5.952   1.212  1.00  0.00     0.074 A 
ATOM     15  C   UNL     1       5.427  -4.975   3.384  1.00  0.00     0.049 A 
ATOM     16  N   UNL     1       6.947  -6.867   1.592  1.00  0.00    -0.248 NA
ATOM     17  C   UNL     1       5.999  -5.788  -0.248  1.00  0.00     0.031 C 
ATOM     18  C   UNL     1       4.691  -4.092   4.297  1.00  0.00     0.029 A 
ATOM     19  N   UNL     1       6.346  -5.586   4.197  1.00  0.00    -0.354 N 
ATOM     20  C   UNL     1       7.440  -7.433   0.422  1.00  0.00     0.074 A 
ATOM     21  C   UNL     1       6.809  -6.744  -0.682  1.00  0.00     0.031 C 
ATOM     22  C   UNL     1       5.240  -4.158   5.519  1.00  0.00     0.029 A 
ATOM     23  C   UNL     1       6.288  -5.169   5.507  1.00  0.00     0.049 A 
ATOM     24  H   UNL     1       6.986  -6.261   3.874  1.00  0.00     0.167 HD
ATOM     25  C   UNL     1       8.322  -8.452   0.291  1.00  0.00     0.031 A 
ATOM     26  C   UNL     1       6.971  -5.588   6.589  1.00  0.00     0.031 A 
ATOM     27  C   UNL     1       8.949  -9.108   1.406  1.00  0.00     0.049 A 
ATOM     28  C   UNL     1       7.934  -6.727   6.419  1.00  0.00     0.074 A 
ATOM     29  C   UNL     1       9.772 -10.219   1.411  1.00  0.00     0.029 A 
ATOM     30  N   UNL     1       8.841  -8.682   2.722  1.00  0.00    -0.354 N 
ATOM     31  N   UNL     1       8.273  -7.357   5.319  1.00  0.00    -0.248 NA
ATOM     32  C   UNL     1       8.573  -7.240   7.637  1.00  0.00     0.031 C 
ATOM     33  C   UNL     1      10.151 -10.473   2.736  1.00  0.00     0.029 A 
ATOM     34  C   UNL     1       9.590  -9.499   3.548  1.00  0.00     0.049 A 
ATOM     35  H   UNL     1       8.308  -7.911   3.024  1.00  0.00     0.167 HD
ATOM     36  C   UNL     1       9.148  -8.359   5.715  1.00  0.00     0.074 A 
ATOM     37  C   UNL     1       9.323  -8.218   7.149  1.00  0.00     0.031 C 
ATOM     38  C   UNL     1       9.735  -9.327   4.970  1.00  0.00     0.031 A 
BRANCH  25  39
ATOM     39  C   UNL     1       8.584  -8.952  -1.102  1.00  0.00    -0.014 A 
ATOM     40  C   UNL     1       9.417  -8.249  -1.989  1.00  0.00     0.010 A 
ATOM     41  C   UNL     1       7.960 -10.136  -1.538  1.00  0.00     0.010 A 
ATOM     42  C   UNL     1       9.584  -8.697  -3.304  1.00  0.00     0.020 A 
ATOM     43  C   UNL     1       8.139 -10.595  -2.845  1.00  0.00     0.020 A 
ATOM     44  C   UNL     1       8.932  -9.859  -3.728  1.00  0.00     0.054 A 
BRANCH  44  45
ATOM     45  S   UNL     1       9.139 -10.408  -5.445  1.00  0.00     0.124 S 
ATOM     46  O   UNL     1       8.254  -9.492  -6.160  1.00  0.00    -0.237 OA
ATOM     47  O   UNL     1      10.568 -10.212  -5.678  1.00  0.00    -0.237 OA
ATOM     48  O   UNL     1       8.702 -11.802  -5.417  1.00  0.00    -0.744 OA
ENDBRANCH  44  45
ENDBRANCH  25  39
BRANCH  26  49
ATOM     49  C   UNL     1       6.700  -4.996   7.929  1.00  0.00    -0.014 A 
ATOM     50  C   UNL     1       7.676  -4.229   8.588  1.00  0.00     0.010 A 
ATOM     51  C   UNL     1       5.455  -5.196   8.554  1.00  0.00     0.010 A 
ATOM     52  C   UNL     1       7.418  -3.687   9.853  1.00  0.00     0.020 A 
ATOM     53  C   UNL     1       5.182  -4.632   9.802  1.00  0.00     0.020 A 
ATOM     54  C   UNL     1       6.172  -3.894  10.452  1.00  0.00     0.054 A 
BRANCH  54  55
ATOM     55  S   UNL     1       5.824  -3.147  12.069  1.00  0.00     0.124 S 
ATOM     56  O   UNL     1       6.402  -4.125  12.984  1.00  0.00    -0.237 OA
ATOM     57  O   UNL     1       6.520  -1.865  11.991  1.00  0.00    -0.237 OA
ATOM     58  O   UNL     1       4.366  -3.051  12.088  1.00  0.00    -0.744 OA
ENDBRANCH  54  55
ENDBRANCH  26  49
BRANCH  38  59
ATOM     59  C   UNL     1      10.613 -10.295   5.705  1.00  0.00    -0.014 A 
ATOM     60  C   UNL     1      10.050 -11.340   6.459  1.00  0.00     0.010 A 
ATOM     61  C   UNL     1      12.010 -10.174   5.619  1.00  0.00     0.010 A 
ATOM     62  C   UNL     1      10.874 -12.235   7.142  1.00  0.00     0.020 A 
ATOM     63  C   UNL     1      12.836 -11.078   6.288  1.00  0.00     0.020 A 
ATOM     64  C   UNL     1      12.262 -12.094   7.057  1.00  0.00     0.054 A 
BRANCH  64  65
ATOM     65  S   UNL     1      13.320 -13.286   7.922  1.00  0.00     0.124 S 
ATOM     66  O   UNL     1      13.310 -12.765   9.286  1.00  0.00    -0.237 OA
ATOM     67  O   UNL     1      12.614 -14.550   7.727  1.00  0.00    -0.237 OA
ATOM     68  O   UNL     1      14.598 -13.180   7.221  1.00  0.00    -0.744 OA
ENDBRANCH  64  65
ENDBRANCH  38  59
ENDBRANCH  12  13
ENDBRANCH   5   7
ENDBRANCH   4   5
ENDBRANCH   3   4
ENDBRANCH   2   3
ENDBRANCH   1   2
BRANCH   1  69
ATOM     69  C   UNL     1       2.216   1.497   1.033  1.00  0.00     0.202 C 
BRANCH  69  70
ATOM     70  C   UNL     1       2.558   2.351   2.250  1.00  0.00     0.261 C 
BRANCH  70  71
ATOM     71  O   UNL     1       3.207   3.553   1.796  1.00  0.00    -0.459 OA
BRANCH  71  72
ATOM     72  C   UNL     1       4.549   3.466   1.550  1.00  0.00     0.344 C 
ATOM     73  O   UNL     1       5.276   2.533   1.844  1.00  0.00    -0.246 OA
BRANCH  72  74
ATOM     74  C   UNL     1       5.017   4.656   0.902  1.00  0.00     0.133 A 
ATOM     75  C   UNL     1       5.915   4.802  -0.185  1.00  0.00     0.128 A 
ATOM     76  C   UNL     1       4.726   5.945   1.288  1.00  0.00     0.177 A 
ATOM     77  N   UNL     1       6.051   6.095  -0.516  1.00  0.00    -0.079 NA
ATOM     78  O   UNL     1       5.316   6.808   0.417  1.00  0.00    -0.357 OA
BRANCH  75  79
ATOM     79  C   UNL     1       6.632   3.759  -0.899  1.00  0.00     0.005 A 
ATOM     80  C   UNL     1       6.089   3.171  -2.047  1.00  0.00     0.012 A 
ATOM     81  C   UNL     1       7.870   3.316  -0.413  1.00  0.00     0.012 A 
ATOM     82  C   UNL     1       6.766   2.126  -2.685  1.00  0.00     0.021 A 
ATOM     83  C   UNL     1       8.549   2.278  -1.056  1.00  0.00     0.021 A 
ATOM     84  C   UNL     1       7.990   1.681  -2.183  1.00  0.00     0.041 A 
ATOM     85  Cl  UNL     1       8.810   0.385  -2.961  1.00  0.00    -0.084 Cl
ENDBRANCH  75  79
BRANCH  76  86
ATOM     86  C   UNL     1       4.003   6.533   2.443  1.00  0.00     0.242 C 
BRANCH  86  87
ATOM     87  O   UNL     1       4.959   7.201   3.244  1.00  0.00    -0.345 OA
BRANCH  87  88
ATOM     88  C   UNL     1       5.422   6.602   4.452  1.00  0.00     0.250 C 
ATOM     89  C   UNL     1       5.883   5.137   4.410  1.00  0.00     0.062 C 
ATOM     90  O   UNL     1       4.621   6.945   5.581  1.00  0.00    -0.353 OA
ATOM     91  C   UNL     1       4.841   4.138   4.900  1.00  0.00     0.008 C 
ATOM     92  C   UNL     1       3.619   6.011   5.953  1.00  0.00     0.163 C 
ATOM     93  C   UNL     1       4.199   4.627   6.184  1.00  0.00     0.029 C 
ENDBRANCH  87  88
ENDBRANCH  86  87
ENDBRANCH  76  86
ENDBRANCH  72  74
ENDBRANCH  71  72
ENDBRANCH  70  71
ENDBRANCH  69  70
ENDBRANCH   1  69
TORSDOF 21
