REMARK SMILES O=C(OCCOCCOC(=O)c1ccccc1Nc1cccc(C(F)(F)F)c1)c1ccc(-c2c3nc(c(-c4ccc(S(=O)(=O)[O-])cc4)c4ccc([nH]4)c(-c4ccc(S(=O)(=O)[O-])cc4)c4nc(c(-c5ccc(S(=O)(=O)[O-])cc5)c5ccc2[nH]5)C=C4)C=C3)cc1
REMARK SMILES IDX 6 1 5 2 4 3 3 4 2 5 1 6 29 7 30 8 88 9 31 10 87 11 32 12
REMARK SMILES IDX 33 13 34 14 81 15 35 16 86 17 80 18 82 19 36 20 85 21 79 22
REMARK SMILES IDX 78 23 37 25 67 26 48 27 66 28 49 29 52 30 65 31 83 32 50 33
REMARK SMILES IDX 51 34 64 36 84 37 53 38 38 39 39 40 47 41 40 42 46 43 41 44
REMARK SMILES IDX 42 45 43 46 44 47 45 48 68 49 69 50 77 51 70 52 76 53 71 54
REMARK SMILES IDX 72 55 73 56 74 57 75 58 54 59 55 60 63 61 56 62 62 63 57 64
REMARK SMILES IDX 58 65 59 66 60 67 61 68 7 69 8 70 9 71 10 72 11 73 12 74
REMARK SMILES IDX 13 75 17 76 14 77 16 78 15 79 18 80 19 82 20 83 28 84 21 85
REMARK SMILES IDX 23 86 22 87 24 88 25 89 26 90 27 91
REMARK H PARENT 82 24 52 35 18 81
REMARK Flexibility Score: inf
ROOT
ATOM      1  O   UNL     1       4.090   1.418   0.725  1.00  0.00    -0.374 OA
ENDROOT
BRANCH   1   2
ATOM      2  C   UNL     1       4.185   1.489  -0.695  1.00  0.00     0.202 C 
BRANCH   2   3
ATOM      3  C   UNL     1       3.805   0.192  -1.413  1.00  0.00     0.261 C 
BRANCH   3   4
ATOM      4  O   UNL     1       2.449  -0.176  -1.103  1.00  0.00    -0.460 OA
BRANCH   4   5
ATOM      5  C   UNL     1       2.011  -1.169  -0.293  1.00  0.00     0.338 C 
ATOM      6  O   UNL     1       0.805  -1.412  -0.266  1.00  0.00    -0.246 OA
BRANCH   5   7
ATOM      7  C   UNL     1       2.908  -1.978   0.591  1.00  0.00     0.060 A 
ATOM      8  C   UNL     1       4.154  -1.555   1.048  1.00  0.00     0.016 A 
ATOM      9  C   UNL     1       2.420  -3.206   1.071  1.00  0.00     0.016 A 
ATOM     10  C   UNL     1       4.915  -2.319   1.910  1.00  0.00     0.010 A 
ATOM     11  C   UNL     1       3.165  -3.973   1.978  1.00  0.00     0.010 A 
ATOM     12  C   UNL     1       4.421  -3.523   2.394  1.00  0.00    -0.014 A 
BRANCH  12  13
ATOM     13  C   UNL     1       5.329  -4.290   3.261  1.00  0.00     0.031 A 
ATOM     14  C   UNL     1       6.086  -5.431   2.659  1.00  0.00     0.074 A 
ATOM     15  C   UNL     1       5.625  -3.797   4.479  1.00  0.00     0.049 A 
ATOM     16  N   UNL     1       6.997  -6.189   3.202  1.00  0.00    -0.248 NA
ATOM     17  C   UNL     1       5.803  -5.740   1.245  1.00  0.00     0.031 C 
ATOM     18  C   UNL     1       5.032  -2.587   5.064  1.00  0.00     0.029 A 
ATOM     19  N   UNL     1       6.538  -4.201   5.413  1.00  0.00    -0.354 N 
ATOM     20  C   UNL     1       7.390  -7.071   2.204  1.00  0.00     0.074 A 
ATOM     21  C   UNL     1       6.613  -6.764   1.024  1.00  0.00     0.031 C 
ATOM     22  C   UNL     1       5.628  -2.329   6.239  1.00  0.00     0.029 A 
ATOM     23  C   UNL     1       6.585  -3.390   6.524  1.00  0.00     0.049 A 
ATOM     24  H   UNL     1       7.107  -4.997   5.302  1.00  0.00     0.167 HD
ATOM     25  C   UNL     1       8.318  -8.051   2.277  1.00  0.00     0.031 A 
ATOM     26  C   UNL     1       7.302  -3.518   7.656  1.00  0.00     0.031 A 
ATOM     27  C   UNL     1       9.054  -8.341   3.477  1.00  0.00     0.049 A 
ATOM     28  C   UNL     1       8.233  -4.697   7.755  1.00  0.00     0.074 A 
ATOM     29  C   UNL     1       9.934  -9.375   3.725  1.00  0.00     0.029 A 
ATOM     30  N   UNL     1       8.991  -7.575   4.635  1.00  0.00    -0.354 N 
ATOM     31  N   UNL     1       8.521  -5.595   6.839  1.00  0.00    -0.248 NA
ATOM     32  C   UNL     1       8.923  -4.891   9.034  1.00  0.00     0.031 C 
ATOM     33  C   UNL     1      10.369  -9.261   5.050  1.00  0.00     0.029 A 
ATOM     34  C   UNL     1       9.807  -8.122   5.607  1.00  0.00     0.049 A 
ATOM     35  H   UNL     1       8.446  -6.763   4.746  1.00  0.00     0.167 HD
ATOM     36  C   UNL     1       9.431  -6.460   7.431  1.00  0.00     0.074 A 
ATOM     37  C   UNL     1       9.672  -5.952   8.769  1.00  0.00     0.031 C 
ATOM     38  C   UNL     1      10.008  -7.580   6.929  1.00  0.00     0.031 A 
BRANCH  25  39
ATOM     39  C   UNL     1       8.509  -8.908   1.058  1.00  0.00    -0.014 A 
ATOM     40  C   UNL     1       9.174  -8.422  -0.083  1.00  0.00     0.010 A 
ATOM     41  C   UNL     1       7.993 -10.216   1.045  1.00  0.00     0.010 A 
ATOM     42  C   UNL     1       9.291  -9.220  -1.226  1.00  0.00     0.020 A 
ATOM     43  C   UNL     1       8.128 -11.025  -0.087  1.00  0.00     0.020 A 
ATOM     44  C   UNL     1       8.764 -10.516  -1.221  1.00  0.00     0.054 A 
BRANCH  44  45
ATOM     45  S   UNL     1       8.941 -11.534  -2.711  1.00  0.00     0.124 S 
ATOM     46  O   UNL     1       8.005 -10.890  -3.630  1.00  0.00    -0.237 OA
ATOM     47  O   UNL     1      10.354 -11.375  -3.042  1.00  0.00    -0.237 OA
ATOM     48  O   UNL     1       8.555 -12.871  -2.267  1.00  0.00    -0.744 OA
ENDBRANCH  44  45
ENDBRANCH  25  39
BRANCH  26  49
ATOM     49  C   UNL     1       7.093  -2.584   8.800  1.00  0.00    -0.014 A 
ATOM     50  C   UNL     1       8.131  -1.778   9.298  1.00  0.00     0.010 A 
ATOM     51  C   UNL     1       5.833  -2.527   9.429  1.00  0.00     0.010 A 
ATOM     52  C   UNL     1       7.923  -0.965  10.421  1.00  0.00     0.020 A 
ATOM     53  C   UNL     1       5.611  -1.692  10.527  1.00  0.00     0.020 A 
ATOM     54  C   UNL     1       6.665  -0.932  11.031  1.00  0.00     0.054 A 
BRANCH  54  55
ATOM     55  S   UNL     1       6.412   0.124  12.485  1.00  0.00     0.124 S 
ATOM     56  O   UNL     1       7.113  -0.621  13.526  1.00  0.00    -0.237 OA
ATOM     57  O   UNL     1       7.034   1.381  12.077  1.00  0.00    -0.237 OA
ATOM     58  O   UNL     1       4.958   0.174  12.622  1.00  0.00    -0.744 OA
ENDBRANCH  54  55
ENDBRANCH  26  49
BRANCH  38  59
ATOM     59  C   UNL     1      10.965  -8.305   7.831  1.00  0.00    -0.014 A 
ATOM     60  C   UNL     1      10.504  -9.035   8.940  1.00  0.00     0.010 A 
ATOM     61  C   UNL     1      12.341  -8.280   7.541  1.00  0.00     0.010 A 
ATOM     62  C   UNL     1      11.410  -9.694   9.771  1.00  0.00     0.020 A 
ATOM     63  C   UNL     1      13.246  -8.964   8.351  1.00  0.00     0.020 A 
ATOM     64  C   UNL     1      12.775  -9.652   9.472  1.00  0.00     0.054 A 
BRANCH  64  65
ATOM     65  S   UNL     1      13.931 -10.539  10.550  1.00  0.00     0.124 S 
ATOM     66  O   UNL     1      13.985  -9.667  11.719  1.00  0.00    -0.237 OA
ATOM     67  O   UNL     1      13.261 -11.822  10.752  1.00  0.00    -0.237 OA
ATOM     68  O   UNL     1      15.159 -10.603   9.761  1.00  0.00    -0.744 OA
ENDBRANCH  64  65
ENDBRANCH  38  59
ENDBRANCH  12  13
ENDBRANCH   5   7
ENDBRANCH   4   5
ENDBRANCH   3   4
ENDBRANCH   2   3
ENDBRANCH   1   2
BRANCH   1  69
ATOM     69  C   UNL     1       2.824   1.746   1.302  1.00  0.00     0.202 C 
BRANCH  69  70
ATOM     70  C   UNL     1       3.059   2.725   2.455  1.00  0.00     0.261 C 
BRANCH  70  71
ATOM     71  O   UNL     1       3.603   3.937   1.908  1.00  0.00    -0.460 OA
BRANCH  71  72
ATOM     72  C   UNL     1       4.943   3.940   1.675  1.00  0.00     0.340 C 
ATOM     73  O   UNL     1       5.785   3.254   2.228  1.00  0.00    -0.246 OA
BRANCH  72  74
ATOM     74  C   UNL     1       5.202   4.795   0.485  1.00  0.00     0.083 A 
ATOM     75  C   UNL     1       6.230   4.371  -0.374  1.00  0.00     0.018 A 
ATOM     76  C   UNL     1       4.421   5.937   0.181  1.00  0.00     0.053 A 
ATOM     77  C   UNL     1       6.471   5.048  -1.564  1.00  0.00     0.001 A 
ATOM     78  C   UNL     1       4.707   6.615  -1.011  1.00  0.00     0.027 A 
ATOM     79  C   UNL     1       5.708   6.167  -1.882  1.00  0.00     0.002 A 
BRANCH  76  80
ATOM     80  N   UNL     1       3.451   6.391   1.096  1.00  0.00    -0.355 N 
ATOM     81  H   UNL     1       3.525   5.940   1.968  1.00  0.00     0.167 HD
BRANCH  80  82
ATOM     82  C   UNL     1       2.409   7.324   1.074  1.00  0.00     0.039 A 
ATOM     83  C   UNL     1       2.082   7.952   2.285  1.00  0.00     0.026 A 
ATOM     84  C   UNL     1       1.695   7.669  -0.072  1.00  0.00     0.039 A 
ATOM     85  C   UNL     1       1.073   8.908   2.354  1.00  0.00     0.003 A 
ATOM     86  C   UNL     1       0.661   8.620  -0.018  1.00  0.00     0.058 A 
ATOM     87  C   UNL     1       0.367   9.245   1.205  1.00  0.00     0.013 A 
BRANCH  86  88
ATOM     88  C   UNL     1      -0.118   8.986  -1.253  1.00  0.00     0.416 C 
ATOM     89  F   UNL     1      -1.464   9.011  -1.038  1.00  0.00    -0.166 F 
ATOM     90  F   UNL     1       0.204  10.225  -1.720  1.00  0.00    -0.166 F 
ATOM     91  F   UNL     1       0.074   8.134  -2.298  1.00  0.00    -0.166 F 
ENDBRANCH  86  88
ENDBRANCH  80  82
ENDBRANCH  76  80
ENDBRANCH  72  74
ENDBRANCH  71  72
ENDBRANCH  70  71
ENDBRANCH  69  70
ENDBRANCH   1  69
TORSDOF 20
