REMARK SMILES COc1ccc(-c2noc(CC(=O)OCCOCCOC(=O)c3ccc(-c4c5nc(c(-c6ccc(S(=O)(=O)[O-])cc6)c6ccc([nH]6)c(-c6ccc(S(=O)(=O)[O-])cc6)c6nc(c(-c7ccc(S(=O)(=O)[O-])cc7)c7ccc4[nH]7)C=C6)C=C5)cc3)c2-c2ccc(OC)cc2)cc1
REMARK SMILES IDX 17 1 16 2 15 3 14 4 12 5 13 6 11 7 10 8 7 9 8 10 83 11 9 12
REMARK SMILES IDX 6 13 3 14 4 15 93 16 5 17 92 18 2 19 1 20 84 21 85 22 91 23
REMARK SMILES IDX 86 24 90 25 87 26 88 27 89 28 18 29 19 30 20 31 21 32 22 33
REMARK SMILES IDX 23 34 24 35 82 36 25 37 81 38 26 39 27 40 28 41 75 42 29 43
REMARK SMILES IDX 80 44 74 45 76 46 30 47 79 48 73 49 72 50 31 52 61 53 42 54
REMARK SMILES IDX 60 55 43 56 46 57 59 58 77 59 44 60 45 61 58 63 78 64 47 65
REMARK SMILES IDX 32 66 33 67 41 68 34 69 40 70 35 71 36 72 37 73 38 74 39 75
REMARK SMILES IDX 62 76 63 77 71 78 64 79 70 80 65 81 66 82 67 83 68 84 69 85
REMARK SMILES IDX 48 86 49 87 57 88 50 89 56 90 51 91 52 92 53 93 54 94 55 95
REMARK H PARENT 76 51 46 62
REMARK Flexibility Score: inf
ROOT
ATOM      1  O   UNL     1       1.013 -11.129   6.112  1.00  0.00    -0.374 OA
ENDROOT
BRANCH   1   2
ATOM      2  C   UNL     1       0.904 -10.210   7.200  1.00  0.00     0.202 C 
BRANCH   2   3
ATOM      3  C   UNL     1       2.172  -9.431   7.564  1.00  0.00     0.261 C 
BRANCH   3   4
ATOM      4  O   UNL     1       2.634  -8.617   6.470  1.00  0.00    -0.463 OA
BRANCH   4   5
ATOM      5  C   UNL     1       3.882  -8.894   6.020  1.00  0.00     0.313 C 
ATOM      6  O   UNL     1       4.660  -9.678   6.562  1.00  0.00    -0.252 OA
BRANCH   5   7
ATOM      7  C   UNL     1       4.266  -8.217   4.731  1.00  0.00     0.201 C 
BRANCH   7   8
ATOM      8  C   UNL     1       3.291  -7.260   4.150  1.00  0.00     0.156 A 
ATOM      9  C   UNL     1       2.103  -5.651   3.178  1.00  0.00     0.122 A 
ATOM     10  N   UNL     1       1.479  -6.806   2.902  1.00  0.00    -0.079 NA
ATOM     11  C   UNL     1       3.246  -5.890   4.001  1.00  0.00     0.053 A 
ATOM     12  O   UNL     1       2.235  -7.801   3.485  1.00  0.00    -0.359 OA
BRANCH   9  13
ATOM     13  C   UNL     1       1.646  -4.385   2.614  1.00  0.00     0.005 A 
ATOM     14  C   UNL     1       0.802  -1.914   1.563  1.00  0.00     0.118 A 
ATOM     15  C   UNL     1      -0.098  -2.747   2.233  1.00  0.00     0.047 A 
ATOM     16  C   UNL     1       2.128  -2.318   1.418  1.00  0.00     0.047 A 
ATOM     17  C   UNL     1       0.314  -3.982   2.744  1.00  0.00     0.014 A 
ATOM     18  C   UNL     1       2.546  -3.547   1.940  1.00  0.00     0.014 A 
BRANCH  14  19
ATOM     19  O   UNL     1       0.280  -0.728   1.125  1.00  0.00    -0.497 OA
ATOM     20  C   UNL     1       1.008  -0.053   0.107  1.00  0.00     0.278 C 
ENDBRANCH  14  19
ENDBRANCH   9  13
BRANCH  11  21
ATOM     21  C   UNL     1       4.224  -4.973   4.543  1.00  0.00    -0.012 A 
ATOM     22  C   UNL     1       3.820  -3.942   5.395  1.00  0.00     0.013 A 
ATOM     23  C   UNL     1       5.577  -5.100   4.209  1.00  0.00     0.013 A 
ATOM     24  C   UNL     1       4.770  -3.067   5.927  1.00  0.00     0.047 A 
ATOM     25  C   UNL     1       6.525  -4.232   4.756  1.00  0.00     0.047 A 
ATOM     26  C   UNL     1       6.125  -3.217   5.625  1.00  0.00     0.118 A 
BRANCH  26  27
ATOM     27  O   UNL     1       6.955  -2.309   6.221  1.00  0.00    -0.497 OA
ATOM     28  C   UNL     1       8.348  -2.584   6.152  1.00  0.00     0.278 C 
ENDBRANCH  26  27
ENDBRANCH  11  21
ENDBRANCH   7   8
ENDBRANCH   5   7
ENDBRANCH   4   5
ENDBRANCH   3   4
ENDBRANCH   2   3
ENDBRANCH   1   2
BRANCH   1  29
ATOM     29  C   UNL     1       1.043 -10.580   4.793  1.00  0.00     0.202 C 
BRANCH  29  30
ATOM     30  C   UNL     1      -0.275 -10.020   4.244  1.00  0.00     0.261 C 
BRANCH  30  31
ATOM     31  O   UNL     1      -0.761  -8.905   5.011  1.00  0.00    -0.460 OA
BRANCH  31  32
ATOM     32  C   UNL     1      -1.997  -9.078   5.532  1.00  0.00     0.338 C 
ATOM     33  O   UNL     1      -2.759 -10.017   5.327  1.00  0.00    -0.246 OA
BRANCH  32  34
ATOM     34  C   UNL     1      -2.278  -8.064   6.563  1.00  0.00     0.060 A 
ATOM     35  C   UNL     1      -2.636  -8.533   7.832  1.00  0.00     0.016 A 
ATOM     36  C   UNL     1      -2.297  -6.695   6.282  1.00  0.00     0.016 A 
ATOM     37  C   UNL     1      -3.081  -7.642   8.804  1.00  0.00     0.010 A 
ATOM     38  C   UNL     1      -2.750  -5.800   7.262  1.00  0.00     0.010 A 
ATOM     39  C   UNL     1      -3.185  -6.274   8.513  1.00  0.00    -0.014 A 
BRANCH  39  40
ATOM     40  C   UNL     1      -3.878  -5.396   9.490  1.00  0.00     0.031 A 
ATOM     41  C   UNL     1      -5.330  -5.054   9.278  1.00  0.00     0.074 A 
ATOM     42  C   UNL     1      -3.251  -4.991  10.609  1.00  0.00     0.049 A 
ATOM     43  N   UNL     1      -6.153  -4.415  10.070  1.00  0.00    -0.248 NA
ATOM     44  C   UNL     1      -5.935  -5.495   8.011  1.00  0.00     0.031 C 
ATOM     45  C   UNL     1      -1.857  -5.280  10.948  1.00  0.00     0.029 A 
ATOM     46  N   UNL     1      -3.715  -4.268  11.680  1.00  0.00    -0.354 N 
ATOM     47  C   UNL     1      -7.374  -4.384   9.405  1.00  0.00     0.074 A 
ATOM     48  C   UNL     1      -7.173  -5.035   8.128  1.00  0.00     0.031 C 
ATOM     49  C   UNL     1      -1.583  -4.751  12.153  1.00  0.00     0.029 A 
ATOM     50  C   UNL     1      -2.774  -4.074  12.663  1.00  0.00     0.049 A 
ATOM     51  H   UNL     1      -4.634  -3.920  11.737  1.00  0.00     0.167 HD
ATOM     52  C   UNL     1      -8.557  -3.872   9.820  1.00  0.00     0.031 A 
ATOM     53  C   UNL     1      -2.862  -3.429  13.842  1.00  0.00     0.031 A 
ATOM     54  C   UNL     1      -8.758  -3.210  11.083  1.00  0.00     0.049 A 
ATOM     55  C   UNL     1      -4.175  -2.823  14.261  1.00  0.00     0.074 A 
ATOM     56  C   UNL     1      -9.925  -2.672  11.598  1.00  0.00     0.029 A 
ATOM     57  N   UNL     1      -7.766  -2.986  12.025  1.00  0.00    -0.354 N 
ATOM     58  N   UNL     1      -5.327  -2.837  13.634  1.00  0.00    -0.248 NA
ATOM     59  C   UNL     1      -4.201  -2.129  15.556  1.00  0.00     0.031 C 
ATOM     60  C   UNL     1      -9.627  -2.078  12.831  1.00  0.00     0.029 A 
ATOM     61  C   UNL     1      -8.287  -2.294  13.107  1.00  0.00     0.049 A 
ATOM     62  H   UNL     1      -6.829  -3.276  11.939  1.00  0.00     0.167 HD
ATOM     63  C   UNL     1      -6.219  -2.169  14.467  1.00  0.00     0.074 A 
ATOM     64  C   UNL     1      -5.478  -1.784  15.650  1.00  0.00     0.031 C 
ATOM     65  C   UNL     1      -7.534  -1.899  14.270  1.00  0.00     0.031 A 
BRANCH  52  66
ATOM     66  C   UNL     1      -9.729  -3.986   8.881  1.00  0.00    -0.014 A 
ATOM     67  C   UNL     1     -10.367  -5.221   8.661  1.00  0.00     0.010 A 
ATOM     68  C   UNL     1     -10.220  -2.837   8.236  1.00  0.00     0.010 A 
ATOM     69  C   UNL     1     -11.452  -5.309   7.784  1.00  0.00     0.020 A 
ATOM     70  C   UNL     1     -11.319  -2.918   7.377  1.00  0.00     0.020 A 
ATOM     71  C   UNL     1     -11.918  -4.157   7.143  1.00  0.00     0.054 A 
BRANCH  71  72
ATOM     72  S   UNL     1     -13.339  -4.295   6.023  1.00  0.00     0.124 S 
ATOM     73  O   UNL     1     -12.739  -4.931   4.853  1.00  0.00    -0.237 OA
ATOM     74  O   UNL     1     -14.268  -5.128   6.783  1.00  0.00    -0.237 OA
ATOM     75  O   UNL     1     -13.764  -2.911   5.831  1.00  0.00    -0.744 OA
ENDBRANCH  71  72
ENDBRANCH  52  66
BRANCH  53  76
ATOM     76  C   UNL     1      -1.663  -3.320  14.717  1.00  0.00    -0.014 A 
ATOM     77  C   UNL     1      -1.583  -4.036  15.924  1.00  0.00     0.010 A 
ATOM     78  C   UNL     1      -0.589  -2.495  14.337  1.00  0.00     0.010 A 
ATOM     79  C   UNL     1      -0.454  -3.919  16.741  1.00  0.00     0.020 A 
ATOM     80  C   UNL     1       0.551  -2.395  15.139  1.00  0.00     0.020 A 
ATOM     81  C   UNL     1       0.607  -3.100  16.342  1.00  0.00     0.054 A 
BRANCH  81  82
ATOM     82  S   UNL     1       2.088  -3.008  17.386  1.00  0.00     0.124 S 
ATOM     83  O   UNL     1       1.642  -2.139  18.470  1.00  0.00    -0.237 OA
ATOM     84  O   UNL     1       2.310  -4.407  17.746  1.00  0.00    -0.237 OA
ATOM     85  O   UNL     1       3.096  -2.436  16.496  1.00  0.00    -0.744 OA
ENDBRANCH  81  82
ENDBRANCH  53  76
BRANCH  65  86
ATOM     86  C   UNL     1      -8.256  -1.163  15.369  1.00  0.00    -0.014 A 
ATOM     87  C   UNL     1      -8.012   0.201  15.612  1.00  0.00     0.010 A 
ATOM     88  C   UNL     1      -9.201  -1.841  16.159  1.00  0.00     0.010 A 
ATOM     89  C   UNL     1      -8.664   0.861  16.658  1.00  0.00     0.020 A 
ATOM     90  C   UNL     1      -9.875  -1.178  17.189  1.00  0.00     0.020 A 
ATOM     91  C   UNL     1      -9.585   0.164  17.446  1.00  0.00     0.054 A 
BRANCH  91  92
ATOM     92  S   UNL     1     -10.424   1.039  18.795  1.00  0.00     0.124 S 
ATOM     93  O   UNL     1      -9.384   1.083  19.820  1.00  0.00    -0.237 OA
ATOM     94  O   UNL     1     -10.761   2.324  18.188  1.00  0.00    -0.237 OA
ATOM     95  O   UNL     1     -11.568   0.184  19.103  1.00  0.00    -0.744 OA
ENDBRANCH  91  92
ENDBRANCH  65  86
ENDBRANCH  39  40
ENDBRANCH  32  34
ENDBRANCH  31  32
ENDBRANCH  30  31
ENDBRANCH  29  30
ENDBRANCH   1  29
TORSDOF 22
