REMARK SMILES Cc1nc(NC(=O)[C@@H]2CCC[C@@H](C(=O)OCCOCCOC(=O)c3ccc(-c4c5nc(c(-c6ccc(S(=O)(=O)[O-])cc6)c6ccc([nH]6)c(-c6ccc(S(=O)(=O)[O-])cc6)c6nc(c(-c7ccc(S(=O)(=O)[O-])cc7)c7ccc4[nH]7)C=C6)C=C5)cc3)C2)ccc1Br
REMARK SMILES IDX 19 1 18 2 17 3 16 4 15 5 13 6 14 7 12 8 8 9 9 10 84 11 10 12
REMARK SMILES IDX 11 13 6 14 5 15 7 17 4 18 1 19 2 20 3 21 87 22 86 23 88 24
REMARK SMILES IDX 85 25 20 26 21 27 22 28 23 29 24 30 25 31 83 32 26 33 82 34
REMARK SMILES IDX 27 35 28 36 29 37 76 38 30 39 81 40 75 41 77 42 31 43 80 44
REMARK SMILES IDX 74 45 73 46 32 48 62 49 43 50 61 51 44 52 47 53 60 54 78 55
REMARK SMILES IDX 45 56 46 57 59 59 79 60 48 61 33 62 34 63 42 64 35 65 41 66
REMARK SMILES IDX 36 67 37 68 38 69 39 70 40 71 63 72 64 73 72 74 65 75 71 76
REMARK SMILES IDX 66 77 67 78 68 79 69 80 70 81 49 82 50 83 58 84 51 85 57 86
REMARK SMILES IDX 52 87 53 88 54 89 55 90 56 91
REMARK H PARENT 5 16 77 47 47 58
REMARK Flexibility Score: inf
ROOT
ATOM      1  C   UNL     1      -4.697  -2.045   9.365  1.00  0.00     0.202 C 
ENDROOT
BRANCH   1   2
ATOM      2  O   UNL     1      -5.863  -1.222   9.358  1.00  0.00    -0.374 OA
BRANCH   2   3
ATOM      3  C   UNL     1      -6.239  -0.607   8.129  1.00  0.00     0.202 C 
BRANCH   3   4
ATOM      4  C   UNL     1      -5.432   0.619   7.697  1.00  0.00     0.261 C 
BRANCH   4   5
ATOM      5  O   UNL     1      -4.048   0.302   7.498  1.00  0.00    -0.463 OA
BRANCH   5   6
ATOM      6  C   UNL     1      -3.187   0.765   8.441  1.00  0.00     0.309 C 
ATOM      7  O   UNL     1      -3.498   1.457   9.402  1.00  0.00    -0.252 OA
BRANCH   6   8
ATOM      8  C   UNL     1      -1.743   0.377   8.146  1.00  0.00     0.100 C 
ATOM      9  C   UNL     1      -1.821  -0.632   5.710  1.00  0.00     0.080 C 
ATOM     10  C   UNL     1      -1.414   0.777   5.265  1.00  0.00     0.013 C 
ATOM     11  C   UNL     1      -1.522  -0.834   7.225  1.00  0.00     0.028 C 
ATOM     12  C   UNL     1      -1.536   1.938   6.239  1.00  0.00     0.002 C 
ATOM     13  C   UNL     1      -1.011   1.598   7.612  1.00  0.00     0.015 C 
BRANCH   9  14
ATOM     14  C   UNL     1      -1.205  -1.850   4.947  1.00  0.00     0.228 C 
ATOM     15  N   UNL     1      -0.739  -1.883   3.671  1.00  0.00    -0.310 N 
ATOM     16  H   UNL     1      -0.389  -2.772   3.433  1.00  0.00     0.171 HD
ATOM     17  O   UNL     1      -1.116  -2.933   5.552  1.00  0.00    -0.274 OA
BRANCH  15  18
ATOM     18  C   UNL     1      -0.629  -0.987   2.615  1.00  0.00     0.132 A 
ATOM     19  C   UNL     1       1.781  -0.576  -0.125  1.00  0.00     0.068 C 
ATOM     20  C   UNL     1       0.772  -0.220   0.926  1.00  0.00     0.054 A 
ATOM     21  N   UNL     1       0.411  -1.214   1.788  1.00  0.00    -0.235 NA
ATOM     22  C   UNL     1       0.193   1.043   0.980  1.00  0.00     0.039 A 
ATOM     23  C   UNL     1      -0.984   1.177   1.699  1.00  0.00     0.021 A 
ATOM     24  Br  UNL     1       0.928   2.560   0.126  1.00  0.00    -0.049 Br
ATOM     25  C   UNL     1      -1.459   0.091   2.429  1.00  0.00     0.048 A 
ENDBRANCH  15  18
ENDBRANCH   9  14
ENDBRANCH   6   8
ENDBRANCH   5   6
ENDBRANCH   4   5
ENDBRANCH   3   4
ENDBRANCH   2   3
ENDBRANCH   1   2
BRANCH   1  26
ATOM     26  C   UNL     1      -4.789  -3.406   8.667  1.00  0.00     0.261 C 
BRANCH  26  27
ATOM     27  O   UNL     1      -4.915  -3.290   7.238  1.00  0.00    -0.460 OA
BRANCH  27  28
ATOM     28  C   UNL     1      -6.103  -3.721   6.745  1.00  0.00     0.338 C 
ATOM     29  O   UNL     1      -7.035  -4.190   7.371  1.00  0.00    -0.246 OA
BRANCH  28  30
ATOM     30  C   UNL     1      -6.212  -3.390   5.314  1.00  0.00     0.060 A 
ATOM     31  C   UNL     1      -7.261  -2.548   4.923  1.00  0.00     0.016 A 
ATOM     32  C   UNL     1      -5.405  -4.016   4.362  1.00  0.00     0.016 A 
ATOM     33  C   UNL     1      -7.549  -2.377   3.572  1.00  0.00     0.010 A 
ATOM     34  C   UNL     1      -5.709  -3.859   3.006  1.00  0.00     0.010 A 
ATOM     35  C   UNL     1      -6.810  -3.078   2.610  1.00  0.00    -0.014 A 
BRANCH  35  36
ATOM     36  C   UNL     1      -7.315  -3.140   1.219  1.00  0.00     0.031 A 
ATOM     37  C   UNL     1      -8.200  -4.292   0.822  1.00  0.00     0.074 A 
ATOM     38  C   UNL     1      -7.038  -2.163   0.339  1.00  0.00     0.049 A 
ATOM     39  N   UNL     1      -8.752  -4.545  -0.336  1.00  0.00    -0.248 NA
ATOM     40  C   UNL     1      -8.512  -5.282   1.868  1.00  0.00     0.031 C 
ATOM     41  C   UNL     1      -6.253  -0.963   0.626  1.00  0.00     0.029 A 
ATOM     42  N   UNL     1      -7.399  -2.025  -0.978  1.00  0.00    -0.354 N 
ATOM     43  C   UNL     1      -9.471  -5.722  -0.160  1.00  0.00     0.074 A 
ATOM     44  C   UNL     1      -9.275  -6.142   1.209  1.00  0.00     0.031 C 
ATOM     45  C   UNL     1      -6.192  -0.208  -0.485  1.00  0.00     0.029 A 
ATOM     46  C   UNL     1      -6.907  -0.886  -1.567  1.00  0.00     0.049 A 
ATOM     47  H   UNL     1      -7.957  -2.681  -1.455  1.00  0.00     0.167 HD
ATOM     48  C   UNL     1     -10.230  -6.390  -1.059  1.00  0.00     0.031 A 
ATOM     49  C   UNL     1      -7.011  -0.445  -2.837  1.00  0.00     0.031 A 
ATOM     50  C   UNL     1     -10.420  -5.976  -2.422  1.00  0.00     0.049 A 
ATOM     51  C   UNL     1      -7.784  -1.253  -3.844  1.00  0.00     0.074 A 
ATOM     52  C   UNL     1     -11.181  -6.586  -3.403  1.00  0.00     0.029 A 
ATOM     53  N   UNL     1      -9.843  -4.856  -2.997  1.00  0.00    -0.354 N 
ATOM     54  N   UNL     1      -8.454  -2.365  -3.663  1.00  0.00    -0.248 NA
ATOM     55  C   UNL     1      -7.815  -0.748  -5.224  1.00  0.00     0.031 C 
ATOM     56  C   UNL     1     -11.023  -5.862  -4.588  1.00  0.00     0.029 A 
ATOM     57  C   UNL     1     -10.207  -4.772  -4.329  1.00  0.00     0.049 A 
ATOM     58  H   UNL     1      -9.260  -4.215  -2.528  1.00  0.00     0.167 HD
ATOM     59  C   UNL     1      -9.003  -2.683  -4.900  1.00  0.00     0.074 A 
ATOM     60  C   UNL     1      -8.590  -1.645  -5.822  1.00  0.00     0.031 C 
ATOM     61  C   UNL     1      -9.785  -3.737  -5.237  1.00  0.00     0.031 A 
BRANCH  48  62
ATOM     62  C   UNL     1     -10.898  -7.660  -0.613  1.00  0.00    -0.014 A 
ATOM     63  C   UNL     1     -12.057  -7.628   0.180  1.00  0.00     0.010 A 
ATOM     64  C   UNL     1     -10.409  -8.897  -1.071  1.00  0.00     0.010 A 
ATOM     65  C   UNL     1     -12.716  -8.814   0.511  1.00  0.00     0.020 A 
ATOM     66  C   UNL     1     -11.076 -10.084  -0.757  1.00  0.00     0.020 A 
ATOM     67  C   UNL     1     -12.226 -10.034   0.033  1.00  0.00     0.054 A 
BRANCH  67  68
ATOM     68  S   UNL     1     -13.134 -11.551   0.440  1.00  0.00     0.124 S 
ATOM     69  O   UNL     1     -13.072 -11.561   1.900  1.00  0.00    -0.237 OA
ATOM     70  O   UNL     1     -14.452 -11.290  -0.131  1.00  0.00    -0.237 OA
ATOM     71  O   UNL     1     -12.366 -12.605  -0.218  1.00  0.00    -0.744 OA
ENDBRANCH  67  68
ENDBRANCH  48  62
BRANCH  49  72
ATOM     72  C   UNL     1      -6.353   0.830  -3.222  1.00  0.00    -0.014 A 
ATOM     73  C   UNL     1      -7.117   1.989  -3.437  1.00  0.00     0.010 A 
ATOM     74  C   UNL     1      -4.952   0.899  -3.333  1.00  0.00     0.010 A 
ATOM     75  C   UNL     1      -6.490   3.200  -3.743  1.00  0.00     0.020 A 
ATOM     76  C   UNL     1      -4.321   2.112  -3.620  1.00  0.00     0.020 A 
ATOM     77  C   UNL     1      -5.095   3.257  -3.818  1.00  0.00     0.054 A 
BRANCH  77  78
ATOM     78  S   UNL     1      -4.307   4.858  -4.142  1.00  0.00     0.124 S 
ATOM     79  O   UNL     1      -4.853   5.213  -5.448  1.00  0.00    -0.237 OA
ATOM     80  O   UNL     1      -4.779   5.662  -3.018  1.00  0.00    -0.237 OA
ATOM     81  O   UNL     1      -2.879   4.549  -4.124  1.00  0.00    -0.744 OA
ENDBRANCH  77  78
ENDBRANCH  49  72
BRANCH  61  82
ATOM     82  C   UNL     1     -10.274  -3.833  -6.656  1.00  0.00    -0.014 A 
ATOM     83  C   UNL     1      -9.429  -4.287  -7.681  1.00  0.00     0.010 A 
ATOM     84  C   UNL     1     -11.630  -3.583  -6.939  1.00  0.00     0.010 A 
ATOM     85  C   UNL     1      -9.932  -4.490  -8.969  1.00  0.00     0.020 A 
ATOM     86  C   UNL     1     -12.141  -3.804  -8.220  1.00  0.00     0.020 A 
ATOM     87  C   UNL     1     -11.287  -4.258  -9.228  1.00  0.00     0.054 A 
BRANCH  87  88
ATOM     88  S   UNL     1     -11.922  -4.594 -10.893  1.00  0.00     0.124 S 
ATOM     89  O   UNL     1     -11.144  -3.667 -11.712  1.00  0.00    -0.237 OA
ATOM     90  O   UNL     1     -11.604  -6.008 -11.071  1.00  0.00    -0.237 OA
ATOM     91  O   UNL     1     -13.347  -4.286 -10.793  1.00  0.00    -0.744 OA
ENDBRANCH  87  88
ENDBRANCH  61  82
ENDBRANCH  35  36
ENDBRANCH  28  30
ENDBRANCH  27  28
ENDBRANCH  26  27
ENDBRANCH   1  26
TORSDOF 19
