REMARK SMILES CCN1C(=O)[C@@H](CC(=O)Nc2cccc(C(=O)OCCOCCOC(=O)c3ccc(-c4c5nc(c(-c6ccc(S(=O)(=O)[O-])cc6)c6ccc([nH]6)c(-c6ccc(S(=O)(=O)[O-])cc6)c6nc(c(-c7ccc(S(=O)(=O)[O-])cc7)c7ccc4[nH]7)C=C6)C=C5)cc3)c2)S/C1=[NH+]\c1cc(Cl)c(O)c(Cl)c1
REMARK SMILES IDX 20 1 19 2 18 3 16 4 17 5 15 6 11 7 12 8 87 9 13 10 14 11
REMARK SMILES IDX 10 12 8 13 9 14 7 16 6 17 3 18 4 19 89 20 5 21 88 22 90 23
REMARK SMILES IDX 2 25 1 26 91 27 92 28 99 29 93 30 97 31 94 32 95 33 98 34
REMARK SMILES IDX 96 35 21 37 22 38 23 39 24 40 25 41 26 42 27 43 28 44 86 45
REMARK SMILES IDX 29 46 85 47 30 48 31 49 32 50 79 51 33 52 84 53 78 54 80 55
REMARK SMILES IDX 34 56 83 57 77 58 76 59 35 61 65 62 46 63 64 64 47 65 50 66
REMARK SMILES IDX 63 67 81 68 48 69 49 70 62 72 82 73 51 74 36 75 37 76 45 77
REMARK SMILES IDX 38 78 44 79 39 80 40 81 41 82 42 83 43 84 66 85 67 86 75 87
REMARK SMILES IDX 68 88 74 89 69 90 70 91 71 92 72 93 73 94 52 95 53 96 61 97
REMARK SMILES IDX 54 98 60 99 55 100 56 101 57 102 58 103 59 104
REMARK H PARENT 10 15 90 24 96 36 80 60 50 71
REMARK Flexibility Score: inf
ROOT
ATOM      1  C   UNL     1      -2.028  -3.110   4.756  1.00  0.00     0.202 C 
ENDROOT
BRANCH   1   2
ATOM      2  C   UNL     1      -0.688  -3.846   4.650  1.00  0.00     0.261 C 
BRANCH   2   3
ATOM      3  O   UNL     1      -0.693  -4.843   3.612  1.00  0.00    -0.460 OA
BRANCH   3   4
ATOM      4  C   UNL     1      -0.732  -6.129   4.039  1.00  0.00     0.338 C 
ATOM      5  O   UNL     1      -0.679  -6.511   5.202  1.00  0.00    -0.246 OA
BRANCH   4   6
ATOM      6  C   UNL     1      -0.895  -7.073   2.902  1.00  0.00     0.062 A 
ATOM      7  C   UNL     1      -0.583  -7.640   0.569  1.00  0.00     0.042 A 
ATOM      8  C   UNL     1      -0.992  -8.946   0.829  1.00  0.00     0.026 A 
ATOM      9  C   UNL     1      -0.687  -6.689   1.576  1.00  0.00     0.041 A 
ATOM     10  C   UNL     1      -1.323  -9.325   2.132  1.00  0.00     0.003 A 
ATOM     11  C   UNL     1      -1.223  -8.403   3.175  1.00  0.00     0.016 A 
BRANCH   7  12
ATOM     12  N   UNL     1      -0.067  -7.339  -0.696  1.00  0.00    -0.326 N 
ATOM     13  C   UNL     1       1.046  -6.615  -1.042  1.00  0.00     0.226 C 
ATOM     14  O   UNL     1       1.319  -6.514  -2.243  1.00  0.00    -0.275 OA
ATOM     15  H   UNL     1      -0.581  -7.701  -1.454  1.00  0.00     0.169 HD
BRANCH  13  16
ATOM     16  C   UNL     1       2.031  -6.087   0.000  1.00  0.00     0.128 C 
BRANCH  16  17
ATOM     17  C   UNL     1       1.679  -4.765   0.652  1.00  0.00     0.183 C 
ATOM     18  N   UNL     1       1.379  -2.490  -0.024  1.00  0.00    -0.190 N 
ATOM     19  C   UNL     1       0.951  -3.787  -0.229  1.00  0.00     0.324 C 
ATOM     20  C   UNL     1       2.270  -2.311   1.007  1.00  0.00     0.319 C 
ATOM     21  O   UNL     1      -0.022  -4.095  -0.911  1.00  0.00    -0.245 OA
ATOM     22  S   UNL     1       3.042  -3.844   1.377  1.00  0.00    -0.022 SA
ATOM     23  N   UNL     1       2.439  -1.187   1.619  1.00  0.00    -0.235 N 
ATOM     24  H   UNL     1       1.984  -0.394   1.255  1.00  0.00     0.313 HD
BRANCH  18  25
ATOM     25  C   UNL     1       0.695  -1.480  -0.823  1.00  0.00     0.243 C 
ATOM     26  C   UNL     1       1.107  -0.046  -0.650  1.00  0.00     0.054 C 
ENDBRANCH  18  25
BRANCH  23  27
ATOM     27  C   UNL     1       3.231  -1.016   2.770  1.00  0.00     0.128 A 
ATOM     28  C   UNL     1       2.650  -0.354   3.861  1.00  0.00     0.076 A 
ATOM     29  C   UNL     1       4.565  -1.417   2.875  1.00  0.00     0.076 A 
ATOM     30  C   UNL     1       3.361  -0.143   5.046  1.00  0.00     0.088 A 
ATOM     31  C   UNL     1       5.262  -1.252   4.075  1.00  0.00     0.088 A 
ATOM     32  Cl  UNL     1       2.580   0.690   6.341  1.00  0.00    -0.080 Cl
ATOM     33  C   UNL     1       4.667  -0.613   5.165  1.00  0.00     0.153 A 
ATOM     34  Cl  UNL     1       6.855  -1.903   4.218  1.00  0.00    -0.080 Cl
BRANCH  33  35
ATOM     35  O   UNL     1       5.351  -0.454   6.344  1.00  0.00    -0.505 OA
ATOM     36  H   UNL     1       4.941  -0.023   7.068  1.00  0.00     0.293 HD
ENDBRANCH  33  35
ENDBRANCH  23  27
ENDBRANCH  16  17
ENDBRANCH  13  16
ENDBRANCH   7  12
ENDBRANCH   4   6
ENDBRANCH   3   4
ENDBRANCH   2   3
ENDBRANCH   1   2
BRANCH   1  37
ATOM     37  O   UNL     1      -3.179  -3.896   5.063  1.00  0.00    -0.374 OA
BRANCH  37  38
ATOM     38  C   UNL     1      -3.735  -4.693   4.020  1.00  0.00     0.202 C 
BRANCH  38  39
ATOM     39  C   UNL     1      -4.573  -3.989   2.946  1.00  0.00     0.261 C 
BRANCH  39  40
ATOM     40  O   UNL     1      -3.876  -2.919   2.288  1.00  0.00    -0.460 OA
BRANCH  40  41
ATOM     41  C   UNL     1      -4.283  -1.683   2.666  1.00  0.00     0.338 C 
ATOM     42  O   UNL     1      -5.190  -1.415   3.445  1.00  0.00    -0.246 OA
BRANCH  41  43
ATOM     43  C   UNL     1      -3.383  -0.646   2.128  1.00  0.00     0.060 A 
ATOM     44  C   UNL     1      -2.879   0.302   3.028  1.00  0.00     0.016 A 
ATOM     45  C   UNL     1      -3.119  -0.535   0.763  1.00  0.00     0.016 A 
ATOM     46  C   UNL     1      -2.161   1.404   2.562  1.00  0.00     0.010 A 
ATOM     47  C   UNL     1      -2.400   0.573   0.299  1.00  0.00     0.010 A 
ATOM     48  C   UNL     1      -1.948   1.570   1.189  1.00  0.00    -0.014 A 
BRANCH  48  49
ATOM     49  C   UNL     1      -1.374   2.835   0.655  1.00  0.00     0.031 A 
ATOM     50  C   UNL     1      -2.272   3.784  -0.093  1.00  0.00     0.074 A 
ATOM     51  C   UNL     1      -0.068   3.135   0.796  1.00  0.00     0.049 A 
ATOM     52  N   UNL     1      -1.960   4.877  -0.739  1.00  0.00    -0.248 NA
ATOM     53  C   UNL     1      -3.712   3.476  -0.089  1.00  0.00     0.031 C 
ATOM     54  C   UNL     1       0.902   2.367   1.572  1.00  0.00     0.029 A 
ATOM     55  N   UNL     1       0.687   4.125   0.217  1.00  0.00    -0.354 N 
ATOM     56  C   UNL     1      -3.164   5.410  -1.181  1.00  0.00     0.074 A 
ATOM     57  C   UNL     1      -4.205   4.479  -0.801  1.00  0.00     0.031 C 
ATOM     58  C   UNL     1       2.139   2.809   1.296  1.00  0.00     0.029 A 
ATOM     59  C   UNL     1       2.041   3.926   0.363  1.00  0.00     0.049 A 
ATOM     60  H   UNL     1       0.300   4.899  -0.253  1.00  0.00     0.167 HD
ATOM     61  C   UNL     1      -3.387   6.590  -1.806  1.00  0.00     0.031 A 
ATOM     62  C   UNL     1       3.087   4.546  -0.216  1.00  0.00     0.031 A 
ATOM     63  C   UNL     1      -2.348   7.506  -2.194  1.00  0.00     0.049 A 
ATOM     64  C   UNL     1       2.835   5.758  -1.066  1.00  0.00     0.074 A 
ATOM     65  C   UNL     1      -2.473   8.755  -2.777  1.00  0.00     0.029 A 
ATOM     66  N   UNL     1      -0.990   7.265  -2.053  1.00  0.00    -0.354 N 
ATOM     67  N   UNL     1       1.689   6.290  -1.416  1.00  0.00    -0.248 NA
ATOM     68  C   UNL     1       4.015   6.489  -1.547  1.00  0.00     0.031 C 
ATOM     69  C   UNL     1      -1.188   9.243  -3.042  1.00  0.00     0.029 A 
ATOM     70  C   UNL     1      -0.264   8.324  -2.572  1.00  0.00     0.049 A 
ATOM     71  H   UNL     1      -0.599   6.459  -1.644  1.00  0.00     0.167 HD
ATOM     72  C   UNL     1       2.009   7.462  -2.092  1.00  0.00     0.074 A 
ATOM     73  C   UNL     1       3.455   7.543  -2.128  1.00  0.00     0.031 C 
ATOM     74  C   UNL     1       1.175   8.400  -2.604  1.00  0.00     0.031 A 
BRANCH  61  75
ATOM     75  C   UNL     1      -4.816   6.961  -2.096  1.00  0.00    -0.014 A 
ATOM     76  C   UNL     1      -5.692   7.320  -1.055  1.00  0.00     0.010 A 
ATOM     77  C   UNL     1      -5.278   6.998  -3.424  1.00  0.00     0.010 A 
ATOM     78  C   UNL     1      -7.015   7.672  -1.332  1.00  0.00     0.020 A 
ATOM     79  C   UNL     1      -6.594   7.374  -3.707  1.00  0.00     0.020 A 
ATOM     80  C   UNL     1      -7.459   7.694  -2.658  1.00  0.00     0.054 A 
BRANCH  80  81
ATOM     81  S   UNL     1      -9.174   8.180  -2.991  1.00  0.00     0.124 S 
ATOM     82  O   UNL     1      -9.914   7.008  -2.529  1.00  0.00    -0.237 OA
ATOM     83  O   UNL     1      -9.331   9.382  -2.177  1.00  0.00    -0.237 OA
ATOM     84  O   UNL     1      -9.198   8.401  -4.435  1.00  0.00    -0.744 OA
ENDBRANCH  80  81
ENDBRANCH  61  75
BRANCH  62  85
ATOM     85  C   UNL     1       4.466   4.036   0.004  1.00  0.00    -0.014 A 
ATOM     86  C   UNL     1       5.350   4.701   0.869  1.00  0.00     0.010 A 
ATOM     87  C   UNL     1       4.897   2.868  -0.653  1.00  0.00     0.010 A 
ATOM     88  C   UNL     1       6.648   4.219   1.060  1.00  0.00     0.020 A 
ATOM     89  C   UNL     1       6.189   2.373  -0.452  1.00  0.00     0.020 A 
ATOM     90  C   UNL     1       7.059   3.058   0.399  1.00  0.00     0.054 A 
BRANCH  90  91
ATOM     91  S   UNL     1       8.735   2.430   0.700  1.00  0.00     0.124 S 
ATOM     92  O   UNL     1       9.560   3.427   0.026  1.00  0.00    -0.237 OA
ATOM     93  O   UNL     1       8.809   2.426   2.159  1.00  0.00    -0.237 OA
ATOM     94  O   UNL     1       8.720   1.106   0.082  1.00  0.00    -0.744 OA
ENDBRANCH  90  91
ENDBRANCH  62  85
BRANCH  74  95
ATOM     95  C   UNL     1       1.801   9.634  -3.193  1.00  0.00    -0.014 A 
ATOM     96  C   UNL     1       2.472   9.601  -4.427  1.00  0.00     0.010 A 
ATOM     97  C   UNL     1       1.675  10.860  -2.512  1.00  0.00     0.010 A 
ATOM     98  C   UNL     1       3.032  10.767  -4.956  1.00  0.00     0.020 A 
ATOM     99  C   UNL     1       2.208  12.032  -3.051  1.00  0.00     0.020 A 
ATOM    100  C   UNL     1       2.897  11.975  -4.264  1.00  0.00     0.054 A 
BRANCH 100 101
ATOM    101  S   UNL     1       3.596  13.483  -4.991  1.00  0.00     0.124 S 
ATOM    102  O   UNL     1       5.024  13.303  -4.750  1.00  0.00    -0.237 OA
ATOM    103  O   UNL     1       3.177  13.389  -6.388  1.00  0.00    -0.237 OA
ATOM    104  O   UNL     1       2.965  14.559  -4.230  1.00  0.00    -0.744 OA
ENDBRANCH 100 101
ENDBRANCH  74  95
ENDBRANCH  48  49
ENDBRANCH  41  43
ENDBRANCH  40  41
ENDBRANCH  39  40
ENDBRANCH  38  39
ENDBRANCH  37  38
ENDBRANCH   1  37
TORSDOF 23
