REMARK SMILES O=C(C[C@@H]1C(=O)O[C@H]2[C@@H]3OC(=O)c4cc(O)c(O)c(O)c4-c4ccccc4C(=O)OC[C@@H]2O[C@@H](OC(=O)c2cc(O)c(O)c(O)c2)[C@@H]3OC(=O)c2cc(O)c(O)c3c2[C@H]1[C@H](O)C(=O)O3)OCCOCCOC(=O)c1ccc(-c2c3nc(c(-c4ccc(S(=O)(=O)[O-])cc4)c4ccc([nH]4)c(-c4ccc(S(=O)(=O)[O-])cc4)c4nc(c(-c5ccc(S(=O)(=O)[O-])cc5)c5ccc2[nH]5)C=C4)C=C3)cc1
REMARK SMILES IDX 1 1 2 2 3 3 4 4 5 6 6 7 7 8 8 9 9 10 32 11 47 12 33 13 34 15
REMARK SMILES IDX 10 16 11 17 12 18 13 19 14 20 21 21 15 22 19 23 17 24 22 25
REMARK SMILES IDX 23 26 27 27 24 28 26 29 25 30 28 31 29 32 30 33 31 34 16 36
REMARK SMILES IDX 20 38 18 40 48 42 49 43 50 44 51 45 52 46 58 47 53 48 57 49
REMARK SMILES IDX 59 50 55 51 64 52 60 53 62 55 63 56 54 57 56 59 61 61 35 63
REMARK SMILES IDX 36 64 37 65 38 66 39 67 46 68 40 69 44 70 42 71 41 72 45 74
REMARK SMILES IDX 43 76 65 78 66 79 67 80 68 81 69 82 70 83 71 84 72 85 73 86
REMARK SMILES IDX 74 87 75 88 133 89 76 90 132 91 77 92 78 93 79 94 126 95
REMARK SMILES IDX 80 96 131 97 125 98 127 99 81 100 130 101 124 102 123 103
REMARK SMILES IDX 82 105 112 106 93 107 111 108 94 109 97 110 110 111 128 112
REMARK SMILES IDX 95 113 96 114 109 116 129 117 98 118 83 119 84 120 92 121
REMARK SMILES IDX 85 122 91 123 86 124 87 125 88 126 89 127 90 128 113 129
REMARK SMILES IDX 114 130 122 131 115 132 121 133 116 134 117 135 118 136
REMARK SMILES IDX 119 137 120 138 99 139 100 140 108 141 101 142 107 143
REMARK SMILES IDX 102 144 103 145 104 146 105 147 106 148
REMARK H PARENT 16 37 20 39 18 41 54 58 56 60 61 62 41 73 45 75 43 77 127 104
REMARK H PARENT 97 115
REMARK Flexibility Score: 170.00
ROOT
ATOM      1  O   UNL     1       0.860   0.338   1.899  1.00  0.00    -0.252 OA
ATOM      2  C   UNL     1       1.923  -0.042   1.420  1.00  0.00     0.306 C 
ENDROOT
BRANCH   2   3
ATOM      3  C   UNL     1       2.056  -1.457   0.841  1.00  0.00     0.138 C 
BRANCH   3   4
ATOM      4  C   UNL     1       2.356  -1.425  -0.617  1.00  0.00     0.121 CG0
ATOM      5  G   UNL     1       3.800  -2.410  -0.936  1.00  0.00     0.000 G0
BRANCH   4   6
ATOM      6  C   UNL     1       0.777  -1.002  -1.517  1.00  0.00     0.310 C 
ATOM      7  O   UNL     1      -0.306  -1.161  -0.952  1.00  0.00    -0.252 OA
BRANCH   6   8
ATOM      8  O   UNL     1       0.740  -0.489  -3.035  1.00  0.00    -0.455 OA
BRANCH   8   9
ATOM      9  C   UNL     1       1.758  -0.634  -4.496  1.00  0.00     0.254 C 
ATOM     10  C   UNL     1       3.221   0.164  -4.723  1.00  0.00     0.267 C 
ATOM     11  C   UNL     1       2.179  -2.038  -4.481  1.00  0.00     0.205 CG1
ATOM     12  C   UNL     1       4.680  -0.501  -4.335  1.00  0.00     0.290 C 
ATOM     13  O   UNL     1       3.402  -2.513  -5.029  1.00  0.00    -0.329 OA
ATOM     14  G   UNL     1       2.324  -1.936  -3.042  1.00  0.00     0.000 G1
ATOM     15  C   UNL     1       4.636  -2.024  -4.491  1.00  0.00     0.357 C 
BRANCH  10  16
ATOM     16  O   UNL     1       3.234   0.894  -5.944  1.00  0.00    -0.450 OA
BRANCH  16  17
ATOM     17  C   UNL     1       2.025   1.429  -6.247  1.00  0.00     0.339 C 
ATOM     18  O   UNL     1       1.495   1.128  -7.311  1.00  0.00    -0.246 OA
BRANCH  17  19
ATOM     19  C   UNL     1       1.284   2.308  -5.260  1.00  0.00     0.075 A 
ATOM     20  C   UNL     1      -0.107   2.350  -5.513  1.00  0.00     0.066 A 
ATOM     21  C   UNL     1       1.867   3.238  -4.368  1.00  0.00     0.043 A 
ATOM     22  C   UNL     1      -0.844   3.466  -5.177  1.00  0.00     0.162 A 
ATOM     23  C   UNL     1       1.104   4.412  -4.128  1.00  0.00     0.170 A 
ATOM     24  C   UNL     1      -0.214   4.535  -4.576  1.00  0.00     0.200 A 
BRANCH  21  25
ATOM     25  C   UNL     1       3.129   3.034  -3.607  1.00  0.00     0.001 A 
ATOM     26  C   UNL     1       4.328   3.616  -4.037  1.00  0.00     0.010 A 
ATOM     27  C   UNL     1       3.178   2.322  -2.374  1.00  0.00     0.068 A 
ATOM     28  C   UNL     1       5.428   3.684  -3.177  1.00  0.00     0.001 A 
ATOM     29  C   UNL     1       4.128   2.687  -1.431  1.00  0.00     0.016 A 
ATOM     30  C   UNL     1       5.282   3.338  -1.838  1.00  0.00     0.001 A 
BRANCH  27  31
ATOM     31  C   UNL     1       2.337   1.106  -2.050  1.00  0.00     0.338 C 
ATOM     32  O   UNL     1       1.365   1.317  -1.339  1.00  0.00    -0.246 OA
BRANCH  31  33
ATOM     33  O   UNL     1       2.812  -0.252  -2.534  1.00  0.00    -0.459 OA
BRANCH  33  34
ATOM     34  C   UNL     1       2.324  -1.936  -3.042  1.00  0.00     0.269 CG1
ATOM     35  G   UNL     1       2.179  -2.038  -4.481  1.00  0.00     0.000 G1
ENDBRANCH  33  34
ENDBRANCH  31  33
ENDBRANCH  27  31
ENDBRANCH  21  25
BRANCH  22  36
ATOM     36  O   UNL     1      -2.153   3.542  -5.546  1.00  0.00    -0.504 OA
ATOM     37  H   UNL     1      -2.568   2.808  -5.954  1.00  0.00     0.293 HD
ENDBRANCH  22  36
BRANCH  23  38
ATOM     38  O   UNL     1       1.588   5.527  -3.486  1.00  0.00    -0.504 OA
ATOM     39  H   UNL     1       1.034   6.272  -3.358  1.00  0.00     0.293 HD
ENDBRANCH  23  38
BRANCH  24  40
ATOM     40  O   UNL     1      -0.903   5.712  -4.459  1.00  0.00    -0.502 OA
ATOM     41  H   UNL     1      -1.786   5.771  -4.766  1.00  0.00     0.293 HD
ENDBRANCH  24  40
ENDBRANCH  17  19
ENDBRANCH  16  17
ENDBRANCH  10  16
BRANCH  12  42
ATOM     42  O   UNL     1       5.005  -0.329  -2.831  1.00  0.00    -0.448 OA
BRANCH  42  43
ATOM     43  C   UNL     1       6.151  -0.285  -2.120  1.00  0.00     0.339 C 
ATOM     44  O   UNL     1       7.023   0.549  -2.311  1.00  0.00    -0.246 OA
BRANCH  43  45
ATOM     45  C   UNL     1       6.243  -1.301  -0.939  1.00  0.00     0.071 A 
ATOM     46  C   UNL     1       7.515  -1.304  -0.307  1.00  0.00     0.066 A 
ATOM     47  C   UNL     1       5.247  -2.220  -0.417  1.00  0.00     0.021 A 
ATOM     48  C   UNL     1       7.832  -2.222   0.697  1.00  0.00     0.162 A 
ATOM     49  C   UNL     1       5.674  -3.211   0.499  1.00  0.00     0.180 A 
ATOM     50  C   UNL     1       3.800  -2.410  -0.936  1.00  0.00     0.079 CG0
ATOM     51  C   UNL     1       6.947  -3.220   1.048  1.00  0.00     0.201 A 
ATOM     52  O   UNL     1       4.833  -4.269   0.916  1.00  0.00    -0.420 OA
ATOM     53  C   UNL     1       3.751  -3.971  -1.225  1.00  0.00     0.232 C 
ATOM     54  G   UNL     1       2.356  -1.425  -0.617  1.00  0.00     0.000 G0
ATOM     55  C   UNL     1       3.820  -4.720   0.086  1.00  0.00     0.341 C 
ATOM     56  O   UNL     1       3.123  -5.684   0.375  1.00  0.00    -0.249 OA
BRANCH  48  57
ATOM     57  O   UNL     1       9.019  -2.111   1.362  1.00  0.00    -0.504 OA
ATOM     58  H   UNL     1       9.625  -1.436   1.129  1.00  0.00     0.293 HD
ENDBRANCH  48  57
BRANCH  51  59
ATOM     59  O   UNL     1       7.346  -4.179   1.935  1.00  0.00    -0.502 OA
ATOM     60  H   UNL     1       8.213  -4.158   2.289  1.00  0.00     0.293 HD
ENDBRANCH  51  59
BRANCH  53  61
ATOM     61  O   UNL     1       2.739  -4.446  -2.100  1.00  0.00    -0.381 OA
ATOM     62  H   UNL     1       1.870  -4.319  -1.688  1.00  0.00     0.211 HD
ENDBRANCH  53  61
ENDBRANCH  43  45
ENDBRANCH  42  43
ENDBRANCH  12  42
BRANCH  15  63
ATOM     63  O   UNL     1       5.790  -2.539  -5.137  1.00  0.00    -0.428 OA
BRANCH  63  64
ATOM     64  C   UNL     1       5.692  -2.448  -6.460  1.00  0.00     0.340 C 
ATOM     65  O   UNL     1       4.716  -2.066  -7.112  1.00  0.00    -0.246 OA
BRANCH  64  66
ATOM     66  C   UNL     1       6.993  -2.677  -7.056  1.00  0.00     0.067 A 
ATOM     67  C   UNL     1       7.242  -1.893  -8.182  1.00  0.00     0.066 A 
ATOM     68  C   UNL     1       7.924  -3.611  -6.572  1.00  0.00     0.066 A 
ATOM     69  C   UNL     1       8.408  -2.085  -8.877  1.00  0.00     0.162 A 
ATOM     70  C   UNL     1       9.097  -3.784  -7.294  1.00  0.00     0.162 A 
ATOM     71  C   UNL     1       9.324  -3.036  -8.451  1.00  0.00     0.200 A 
BRANCH  69  72
ATOM     72  O   UNL     1       8.621  -1.343  -9.996  1.00  0.00    -0.504 OA
ATOM     73  H   UNL     1       7.988  -0.706 -10.264  1.00  0.00     0.293 HD
ENDBRANCH  69  72
BRANCH  70  74
ATOM     74  O   UNL     1      10.053  -4.691  -6.930  1.00  0.00    -0.504 OA
ATOM     75  H   UNL     1      10.832  -4.780  -7.442  1.00  0.00     0.293 HD
ENDBRANCH  70  74
BRANCH  71  76
ATOM     76  O   UNL     1      10.448  -3.240  -9.201  1.00  0.00    -0.502 OA
ATOM     77  H   UNL     1      10.593  -2.734  -9.976  1.00  0.00     0.293 HD
ENDBRANCH  71  76
ENDBRANCH  64  66
ENDBRANCH  63  64
ENDBRANCH  15  63
ENDBRANCH   8   9
ENDBRANCH   6   8
ENDBRANCH   4   6
ENDBRANCH   3   4
ENDBRANCH   2   3
BRANCH   2  78
ATOM     78  O   UNL     1       3.016   0.764   1.500  1.00  0.00    -0.463 OA
BRANCH  78  79
ATOM     79  C   UNL     1       4.403   0.500   1.177  1.00  0.00     0.261 C 
BRANCH  79  80
ATOM     80  C   UNL     1       5.229  -0.110   2.296  1.00  0.00     0.202 C 
BRANCH  80  81
ATOM     81  O   UNL     1       5.061  -1.459   2.717  1.00  0.00    -0.374 OA
BRANCH  81  82
ATOM     82  C   UNL     1       3.816  -1.828   3.284  1.00  0.00     0.202 C 
BRANCH  82  83
ATOM     83  C   UNL     1       3.463  -1.742   4.753  1.00  0.00     0.261 C 
BRANCH  83  84
ATOM     84  O   UNL     1       3.608  -0.410   5.217  1.00  0.00    -0.460 OA
BRANCH  84  85
ATOM     85  C   UNL     1       4.896  -0.059   5.423  1.00  0.00     0.338 C 
ATOM     86  O   UNL     1       5.858  -0.806   5.473  1.00  0.00    -0.246 OA
BRANCH  85  87
ATOM     87  C   UNL     1       4.981   1.407   5.274  1.00  0.00     0.060 A 
ATOM     88  C   UNL     1       3.900   2.227   5.601  1.00  0.00     0.016 A 
ATOM     89  C   UNL     1       6.147   1.935   4.688  1.00  0.00     0.016 A 
ATOM     90  C   UNL     1       4.050   3.596   5.493  1.00  0.00     0.010 A 
ATOM     91  C   UNL     1       6.290   3.302   4.551  1.00  0.00     0.010 A 
ATOM     92  C   UNL     1       5.281   4.121   5.061  1.00  0.00    -0.014 A 
BRANCH  92  93
ATOM     93  C   UNL     1       5.629   5.477   5.495  1.00  0.00     0.031 A 
ATOM     94  C   UNL     1       5.626   6.610   4.545  1.00  0.00     0.074 A 
ATOM     95  C   UNL     1       5.911   5.611   6.806  1.00  0.00     0.049 A 
ATOM     96  N   UNL     1       5.738   7.876   4.819  1.00  0.00    -0.248 NA
ATOM     97  C   UNL     1       5.488   6.297   3.113  1.00  0.00     0.031 C 
ATOM     98  C   UNL     1       5.963   4.498   7.766  1.00  0.00     0.029 A 
ATOM     99  N   UNL     1       6.149   6.715   7.574  1.00  0.00    -0.354 N 
ATOM    100  C   UNL     1       5.653   8.524   3.600  1.00  0.00     0.074 A 
ATOM    101  C   UNL     1       5.543   7.510   2.575  1.00  0.00     0.031 C 
ATOM    102  C   UNL     1       6.118   4.987   9.002  1.00  0.00     0.029 A 
ATOM    103  C   UNL     1       6.242   6.434   8.918  1.00  0.00     0.049 A 
ATOM    104  H   UNL     1       6.243   7.622   7.202  1.00  0.00     0.167 HD
ATOM    105  C   UNL     1       5.639   9.857   3.391  1.00  0.00     0.031 A 
ATOM    106  C   UNL     1       6.389   7.261   9.969  1.00  0.00     0.031 A 
ATOM    107  C   UNL     1       5.750  10.820   4.456  1.00  0.00     0.049 A 
ATOM    108  C   UNL     1       6.407   8.735   9.686  1.00  0.00     0.074 A 
ATOM    109  C   UNL     1       5.719  12.198   4.363  1.00  0.00     0.029 A 
ATOM    110  N   UNL     1       5.914  10.511   5.802  1.00  0.00    -0.354 N 
ATOM    111  N   UNL     1       6.241   9.348   8.537  1.00  0.00    -0.248 NA
ATOM    112  C   UNL     1       6.611   9.630  10.828  1.00  0.00     0.031 C 
ATOM    113  C   UNL     1       5.966  12.720   5.631  1.00  0.00     0.029 A 
ATOM    114  C   UNL     1       6.030  11.675   6.541  1.00  0.00     0.049 A 
ATOM    115  H   UNL     1       5.942   9.600   6.173  1.00  0.00     0.167 HD
ATOM    116  C   UNL     1       6.287  10.705   8.822  1.00  0.00     0.074 A 
ATOM    117  C   UNL     1       6.473  10.819  10.256  1.00  0.00     0.031 C 
ATOM    118  C   UNL     1       6.191  11.759   7.975  1.00  0.00     0.031 A 
BRANCH 105 119
ATOM    119  C   UNL     1       5.479  10.365   1.987  1.00  0.00    -0.014 A 
ATOM    120  C   UNL     1       6.498  11.148   1.415  1.00  0.00     0.010 A 
ATOM    121  C   UNL     1       4.258  10.218   1.304  1.00  0.00     0.010 A 
ATOM    122  C   UNL     1       6.273  11.840   0.225  1.00  0.00     0.020 A 
ATOM    123  C   UNL     1       4.043  10.880   0.093  1.00  0.00     0.020 A 
ATOM    124  C   UNL     1       5.038  11.717  -0.416  1.00  0.00     0.054 A 
BRANCH 124 125
ATOM    125  S   UNL     1       4.727  12.717  -1.895  1.00  0.00     0.124 S 
ATOM    126  O   UNL     1       4.678  14.069  -1.347  1.00  0.00    -0.237 OA
ATOM    127  O   UNL     1       5.888  12.412  -2.729  1.00  0.00    -0.237 OA
ATOM    128  O   UNL     1       3.457  12.198  -2.399  1.00  0.00    -0.744 OA
ENDBRANCH 124 125
ENDBRANCH 105 119
BRANCH 106 129
ATOM    129  C   UNL     1       6.462   6.703  11.349  1.00  0.00    -0.014 A 
ATOM    130  C   UNL     1       7.490   5.807  11.704  1.00  0.00     0.010 A 
ATOM    131  C   UNL     1       5.470   7.001  12.300  1.00  0.00     0.010 A 
ATOM    132  C   UNL     1       7.497   5.184  12.953  1.00  0.00     0.020 A 
ATOM    133  C   UNL     1       5.499   6.415  13.570  1.00  0.00     0.020 A 
ATOM    134  C   UNL     1       6.497   5.488  13.878  1.00  0.00     0.054 A 
BRANCH 134 135
ATOM    135  S   UNL     1       6.515   4.640  15.480  1.00  0.00     0.124 S 
ATOM    136  O   UNL     1       6.157   3.275  15.101  1.00  0.00    -0.237 OA
ATOM    137  O   UNL     1       7.894   4.830  15.921  1.00  0.00    -0.237 OA
ATOM    138  O   UNL     1       5.509   5.356  16.260  1.00  0.00    -0.744 OA
ENDBRANCH 134 135
ENDBRANCH 106 129
BRANCH 118 139
ATOM    139  C   UNL     1       6.263  13.147   8.561  1.00  0.00    -0.014 A 
ATOM    140  C   UNL     1       5.168  14.018   8.404  1.00  0.00     0.010 A 
ATOM    141  C   UNL     1       7.459  13.641   9.109  1.00  0.00     0.010 A 
ATOM    142  C   UNL     1       5.289  15.372   8.718  1.00  0.00     0.020 A 
ATOM    143  C   UNL     1       7.568  14.985   9.472  1.00  0.00     0.020 A 
ATOM    144  C   UNL     1       6.495  15.848   9.239  1.00  0.00     0.054 A 
BRANCH 144 145
ATOM    145  S   UNL     1       6.656  17.622   9.566  1.00  0.00     0.124 S 
ATOM    146  O   UNL     1       6.686  18.182   8.218  1.00  0.00    -0.237 OA
ATOM    147  O   UNL     1       5.454  17.913  10.343  1.00  0.00    -0.237 OA
ATOM    148  O   UNL     1       7.910  17.723  10.310  1.00  0.00    -0.744 OA
ENDBRANCH 144 145
ENDBRANCH 118 139
ENDBRANCH  92  93
ENDBRANCH  85  87
ENDBRANCH  84  85
ENDBRANCH  83  84
ENDBRANCH  82  83
ENDBRANCH  81  82
ENDBRANCH  80  81
ENDBRANCH  79  80
ENDBRANCH  78  79
ENDBRANCH   2  78
TORSDOF 30
