REMARK SMILES Cc1ccc([C@@H](CC(=O)OCCOCCOC(=O)c2ccc(-c3c4nc(c(-c5ccc(S(=O)(=O)[O-])cc5)c5ccc([nH]5)c(-c5ccc(S(=O)(=O)[O-])cc5)c5nc(c(-c6ccc(S(=O)(=O)[O-])cc6)c6ccc3[nH]6)C=C5)C=C4)cc2)NC(=O)c2ccc(OC(F)F)cc2)cc1
REMARK SMILES IDX 12 1 11 2 10 3 8 4 9 5 7 6 6 7 5 8 1 9 2 10 3 11 93 12 4 13
REMARK SMILES IDX 92 14 79 15 80 16 81 18 82 19 83 20 91 21 84 22 90 23 85 24
REMARK SMILES IDX 86 25 87 26 88 27 89 28 13 29 14 30 15 31 16 32 17 33 18 34
REMARK SMILES IDX 19 35 20 36 78 37 21 38 77 39 22 40 23 41 24 42 71 43 25 44
REMARK SMILES IDX 76 45 70 46 72 47 26 48 75 49 69 50 68 51 27 53 57 54 38 55
REMARK SMILES IDX 56 56 39 57 42 58 55 59 73 60 40 61 41 62 54 64 74 65 43 66
REMARK SMILES IDX 28 67 29 68 37 69 30 70 36 71 31 72 32 73 33 74 34 75 35 76
REMARK SMILES IDX 58 77 59 78 67 79 60 80 66 81 61 82 62 83 63 84 64 85 65 86
REMARK SMILES IDX 44 87 45 88 53 89 46 90 52 91 47 92 48 93 49 94 50 95 51 96
REMARK H PARENT 79 17 72 52 42 63
REMARK Flexibility Score: inf
ROOT
ATOM      1  C   UNL     1      -2.371  -2.784   1.094  1.00  0.00     0.202 C 
ENDROOT
BRANCH   1   2
ATOM      2  C   UNL     1      -1.648  -2.365  -0.159  1.00  0.00     0.261 C 
BRANCH   2   3
ATOM      3  O   UNL     1      -2.043  -1.088  -0.688  1.00  0.00    -0.463 OA
BRANCH   3   4
ATOM      4  C   UNL     1      -3.309  -0.798  -1.071  1.00  0.00     0.308 C 
ATOM      5  O   UNL     1      -4.153  -1.565  -1.478  1.00  0.00    -0.252 OA
BRANCH   4   6
ATOM      6  C   UNL     1      -3.501   0.690  -0.950  1.00  0.00     0.152 C 
BRANCH   6   7
ATOM      7  C   UNL     1      -3.193   1.188   0.484  1.00  0.00     0.123 C 
BRANCH   7   8
ATOM      8  C   UNL     1      -1.667   1.331   0.698  1.00  0.00    -0.025 A 
ATOM      9  C   UNL     1       2.677   1.274   0.656  1.00  0.00     0.044 C 
ATOM     10  C   UNL     1       1.181   1.352   0.721  1.00  0.00    -0.051 A 
ATOM     11  C   UNL     1       0.472   0.486   1.548  1.00  0.00     0.004 A 
ATOM     12  C   UNL     1       0.465   2.239  -0.087  1.00  0.00     0.004 A 
ATOM     13  C   UNL     1      -0.924   0.506   1.564  1.00  0.00     0.006 A 
ATOM     14  C   UNL     1      -0.938   2.227  -0.101  1.00  0.00     0.006 A 
ENDBRANCH   7   8
BRANCH   7  15
ATOM     15  N   UNL     1      -3.825   0.383   1.545  1.00  0.00    -0.345 N 
ATOM     16  C   UNL     1      -5.034   0.434   2.170  1.00  0.00     0.251 C 
ATOM     17  H   UNL     1      -3.250  -0.347   1.872  1.00  0.00     0.164 HD
ATOM     18  O   UNL     1      -5.207  -0.143   3.240  1.00  0.00    -0.269 OA
BRANCH  16  19
ATOM     19  C   UNL     1      -6.147   1.166   1.568  1.00  0.00     0.040 A 
ATOM     20  C   UNL     1      -6.812   2.130   2.321  1.00  0.00     0.017 A 
ATOM     21  C   UNL     1      -6.604   0.820   0.299  1.00  0.00     0.017 A 
ATOM     22  C   UNL     1      -7.873   2.828   1.747  1.00  0.00     0.047 A 
ATOM     23  C   UNL     1      -7.636   1.548  -0.288  1.00  0.00     0.047 A 
ATOM     24  C   UNL     1      -8.264   2.571   0.426  1.00  0.00     0.126 A 
BRANCH  24  25
ATOM     25  O   UNL     1      -9.278   3.360  -0.036  1.00  0.00    -0.435 OA
BRANCH  25  26
ATOM     26  C   UNL     1      -9.532   3.343  -1.436  1.00  0.00     0.542 C 
ATOM     27  F   UNL     1      -8.398   3.633  -2.118  1.00  0.00    -0.167 F 
ATOM     28  F   UNL     1      -9.967   2.119  -1.816  1.00  0.00    -0.167 F 
ENDBRANCH  25  26
ENDBRANCH  24  25
ENDBRANCH  16  19
ENDBRANCH   7  15
ENDBRANCH   6   7
ENDBRANCH   4   6
ENDBRANCH   3   4
ENDBRANCH   2   3
ENDBRANCH   1   2
BRANCH   1  29
ATOM     29  O   UNL     1      -3.708  -3.101   0.740  1.00  0.00    -0.374 OA
BRANCH  29  30
ATOM     30  C   UNL     1      -4.616  -3.342   1.799  1.00  0.00     0.202 C 
BRANCH  30  31
ATOM     31  C   UNL     1      -4.092  -4.239   2.929  1.00  0.00     0.261 C 
BRANCH  31  32
ATOM     32  O   UNL     1      -4.029  -5.632   2.546  1.00  0.00    -0.460 OA
BRANCH  32  33
ATOM     33  C   UNL     1      -2.809  -6.096   2.141  1.00  0.00     0.338 C 
ATOM     34  O   UNL     1      -1.919  -6.424   2.905  1.00  0.00    -0.246 OA
BRANCH  33  35
ATOM     35  C   UNL     1      -2.732  -6.115   0.652  1.00  0.00     0.060 A 
ATOM     36  C   UNL     1      -1.497  -6.125  -0.024  1.00  0.00     0.016 A 
ATOM     37  C   UNL     1      -3.904  -5.853  -0.048  1.00  0.00     0.016 A 
ATOM     38  C   UNL     1      -1.434  -5.746  -1.376  1.00  0.00     0.010 A 
ATOM     39  C   UNL     1      -3.810  -5.308  -1.305  1.00  0.00     0.010 A 
ATOM     40  C   UNL     1      -2.587  -5.270  -1.993  1.00  0.00    -0.014 A 
BRANCH  40  41
ATOM     41  C   UNL     1      -2.732  -4.757  -3.355  1.00  0.00     0.031 A 
ATOM     42  C   UNL     1      -3.554  -5.573  -4.277  1.00  0.00     0.074 A 
ATOM     43  C   UNL     1      -2.462  -3.466  -3.663  1.00  0.00     0.049 A 
ATOM     44  N   UNL     1      -3.641  -5.370  -5.545  1.00  0.00    -0.248 NA
ATOM     45  C   UNL     1      -4.340  -6.729  -3.836  1.00  0.00     0.031 C 
ATOM     46  C   UNL     1      -3.114  -2.623  -4.665  1.00  0.00     0.029 A 
ATOM     47  N   UNL     1      -1.458  -2.638  -3.165  1.00  0.00    -0.354 N 
ATOM     48  C   UNL     1      -4.744  -6.067  -5.978  1.00  0.00     0.074 A 
ATOM     49  C   UNL     1      -5.065  -6.991  -4.922  1.00  0.00     0.031 C 
ATOM     50  C   UNL     1      -2.367  -1.523  -4.875  1.00  0.00     0.029 A 
ATOM     51  C   UNL     1      -1.119  -1.712  -4.155  1.00  0.00     0.049 A 
ATOM     52  H   UNL     1      -1.056  -2.696  -2.268  1.00  0.00     0.167 HD
ATOM     53  C   UNL     1      -5.392  -5.651  -7.099  1.00  0.00     0.031 A 
ATOM     54  C   UNL     1       0.148  -1.653  -4.647  1.00  0.00     0.031 A 
ATOM     55  C   UNL     1      -4.724  -4.490  -7.699  1.00  0.00     0.049 A 
ATOM     56  C   UNL     1       0.149  -1.928  -6.121  1.00  0.00     0.074 A 
ATOM     57  C   UNL     1      -5.019  -3.136  -7.722  1.00  0.00     0.029 A 
ATOM     58  N   UNL     1      -3.389  -4.594  -8.082  1.00  0.00    -0.354 N 
ATOM     59  N   UNL     1      -0.873  -2.434  -6.751  1.00  0.00    -0.248 NA
ATOM     60  C   UNL     1       1.272  -1.667  -7.004  1.00  0.00     0.031 C 
ATOM     61  C   UNL     1      -3.849  -2.434  -8.132  1.00  0.00     0.029 A 
ATOM     62  C   UNL     1      -2.848  -3.357  -8.387  1.00  0.00     0.049 A 
ATOM     63  H   UNL     1      -2.892  -5.443  -8.131  1.00  0.00     0.167 HD
ATOM     64  C   UNL     1      -0.575  -2.627  -8.064  1.00  0.00     0.074 A 
ATOM     65  C   UNL     1       0.777  -2.098  -8.178  1.00  0.00     0.031 C 
ATOM     66  C   UNL     1      -1.470  -3.254  -8.887  1.00  0.00     0.031 A 
BRANCH  53  67
ATOM     67  C   UNL     1      -6.786  -6.120  -7.455  1.00  0.00    -0.014 A 
ATOM     68  C   UNL     1      -7.626  -5.287  -8.218  1.00  0.00     0.010 A 
ATOM     69  C   UNL     1      -7.338  -7.357  -7.060  1.00  0.00     0.010 A 
ATOM     70  C   UNL     1      -8.951  -5.638  -8.518  1.00  0.00     0.020 A 
ATOM     71  C   UNL     1      -8.675  -7.703  -7.310  1.00  0.00     0.020 A 
ATOM     72  C   UNL     1      -9.473  -6.842  -8.051  1.00  0.00     0.054 A 
BRANCH  72  73
ATOM     73  S   UNL     1     -11.178  -7.286  -8.467  1.00  0.00     0.124 S 
ATOM     74  O   UNL     1     -11.933  -6.127  -7.996  1.00  0.00    -0.237 OA
ATOM     75  O   UNL     1     -11.110  -7.447  -9.916  1.00  0.00    -0.237 OA
ATOM     76  O   UNL     1     -11.410  -8.518  -7.715  1.00  0.00    -0.744 OA
ENDBRANCH  72  73
ENDBRANCH  53  67
BRANCH  54  77
ATOM     77  C   UNL     1       1.182  -2.091  -3.651  1.00  0.00    -0.014 A 
ATOM     78  C   UNL     1       1.438  -1.234  -2.559  1.00  0.00     0.010 A 
ATOM     79  C   UNL     1       1.491  -3.458  -3.511  1.00  0.00     0.010 A 
ATOM     80  C   UNL     1       1.824  -1.758  -1.317  1.00  0.00     0.020 A 
ATOM     81  C   UNL     1       1.878  -3.980  -2.262  1.00  0.00     0.020 A 
ATOM     82  C   UNL     1       1.987  -3.133  -1.158  1.00  0.00     0.054 A 
BRANCH  82  83
ATOM     83  S   UNL     1       2.150  -3.800   0.536  1.00  0.00     0.124 S 
ATOM     84  O   UNL     1       3.481  -3.342   0.920  1.00  0.00    -0.237 OA
ATOM     85  O   UNL     1       1.051  -3.163   1.262  1.00  0.00    -0.237 OA
ATOM     86  O   UNL     1       1.998  -5.239   0.349  1.00  0.00    -0.744 OA
ENDBRANCH  82  83
ENDBRANCH  54  77
BRANCH  66  87
ATOM     87  C   UNL     1      -1.149  -3.850 -10.241  1.00  0.00    -0.014 A 
ATOM     88  C   UNL     1       0.083  -3.729 -10.892  1.00  0.00     0.010 A 
ATOM     89  C   UNL     1      -2.120  -4.654 -10.890  1.00  0.00     0.010 A 
ATOM     90  C   UNL     1       0.343  -4.370 -12.106  1.00  0.00     0.020 A 
ATOM     91  C   UNL     1      -1.864  -5.332 -12.084  1.00  0.00     0.020 A 
ATOM     92  C   UNL     1      -0.629  -5.174 -12.690  1.00  0.00     0.054 A 
BRANCH  92  93
ATOM     93  S   UNL     1      -0.240  -5.992 -14.247  1.00  0.00     0.124 S 
ATOM     94  O   UNL     1      -0.053  -4.856 -15.146  1.00  0.00    -0.237 OA
ATOM     95  O   UNL     1       0.974  -6.734 -13.913  1.00  0.00    -0.237 OA
ATOM     96  O   UNL     1      -1.417  -6.814 -14.516  1.00  0.00    -0.744 OA
ENDBRANCH  92  93
ENDBRANCH  66  87
ENDBRANCH  40  41
ENDBRANCH  33  35
ENDBRANCH  32  33
ENDBRANCH  31  32
ENDBRANCH  30  31
ENDBRANCH  29  30
ENDBRANCH   1  29
TORSDOF 23
