REMARK SMILES O=C(CNC(=O)C(CC1=c2ccccc2=NC1)N1C(=O)N=C2C=CC=C[C@H]2C1=O)OCCOCCOC(=O)c1ccc(-c2c3nc(c(-c4ccc(S(=O)(=O)[O-])cc4)c4ccc([nH]4)c(-c4ccc(S(=O)(=O)[O-])cc4)c4nc(c(-c5ccc(S(=O)(=O)[O-])cc5)c5ccc2[nH]5)C=C4)C=C3)cc1
REMARK SMILES IDX 32 1 31 2 30 3 2 4 1 5 3 6 4 7 5 8 6 10 7 11 8 12 9 13 10 14
REMARK SMILES IDX 17 15 11 16 15 17 16 18 12 19 14 20 13 21 18 22 19 23 28 24
REMARK SMILES IDX 21 25 20 26 27 27 29 28 22 29 26 30 23 31 25 32 24 33 33 34
REMARK SMILES IDX 34 35 35 36 36 37 37 38 38 39 39 40 40 41 98 42 41 43 97 44
REMARK SMILES IDX 42 45 43 46 44 47 91 48 45 49 96 50 90 51 92 52 46 53 95 54
REMARK SMILES IDX 89 55 88 56 47 58 77 59 58 60 76 61 59 62 62 63 75 64 93 65
REMARK SMILES IDX 60 66 61 67 74 69 94 70 63 71 48 72 49 73 57 74 50 75 56 76
REMARK SMILES IDX 51 77 52 78 53 79 54 80 55 81 78 82 79 83 87 84 80 85 86 86
REMARK SMILES IDX 81 87 82 88 83 89 84 90 85 91 64 92 65 93 73 94 66 95 72 96
REMARK SMILES IDX 67 97 68 98 69 99 70 100 71 101
REMARK H PARENT 4 9 92 57 62 68
REMARK Flexibility Score: inf
ROOT
ATOM      1  C   UNL     1       4.348  -0.607   0.880  1.00  0.00     0.202 C 
ENDROOT
BRANCH   1   2
ATOM      2  C   UNL     1       3.822  -0.856   2.265  1.00  0.00     0.261 C 
BRANCH   2   3
ATOM      3  O   UNL     1       2.592  -0.216   2.574  1.00  0.00    -0.462 OA
BRANCH   3   4
ATOM      4  C   UNL     1       2.131   0.914   2.005  1.00  0.00     0.325 C 
ATOM      5  O   UNL     1       0.906   1.052   1.929  1.00  0.00    -0.250 OA
BRANCH   4   6
ATOM      6  C   UNL     1       3.068   2.105   1.571  1.00  0.00     0.238 C 
BRANCH   6   7
ATOM      7  N   UNL     1       4.561   2.220   1.527  1.00  0.00    -0.343 N 
ATOM      8  C   UNL     1       5.536   2.444   0.584  1.00  0.00     0.244 C 
ATOM      9  H   UNL     1       4.952   2.102   2.423  1.00  0.00     0.164 HD
ATOM     10  O   UNL     1       6.502   3.054   1.095  1.00  0.00    -0.273 OA
BRANCH   8  11
ATOM     11  C   UNL     1       5.736   1.977  -0.989  1.00  0.00     0.188 C 
BRANCH  11  12
ATOM     12  C   UNL     1       5.749   0.411  -1.404  1.00  0.00     0.069 C 
BRANCH  12  13
ATOM     13  C   UNL     1       4.447  -0.177  -1.877  1.00  0.00    -0.037 C 
ATOM     14  C   UNL     1       3.602  -1.598  -1.730  1.00  0.00     0.001 A 
ATOM     15  C   UNL     1       3.153   1.283  -2.423  1.00  0.00     0.174 C 
ATOM     16  C   UNL     1       3.683  -2.905  -1.125  1.00  0.00     0.010 A 
ATOM     17  C   UNL     1       1.732  -1.258  -2.306  1.00  0.00     0.065 A 
ATOM     18  N   UNL     1       1.439   0.265  -2.620  1.00  0.00    -0.280 NA
ATOM     19  C   UNL     1       2.595  -3.694  -1.016  1.00  0.00     0.001 A 
ATOM     20  C   UNL     1       0.778  -2.342  -2.114  1.00  0.00     0.028 A 
ATOM     21  C   UNL     1       1.235  -3.431  -1.481  1.00  0.00     0.002 A 
ENDBRANCH  12  13
ENDBRANCH  11  12
BRANCH  11  22
ATOM     22  N   UNL     1       5.911   2.946  -2.165  1.00  0.00    -0.249 N 
ATOM     23  C   UNL     1       6.917   2.615  -3.038  1.00  0.00     0.351 C 
ATOM     24  C   UNL     1       5.067   3.929  -2.668  1.00  0.00     0.244 C 
ATOM     25  N   UNL     1       7.663   3.656  -3.499  1.00  0.00    -0.197 NA
ATOM     26  O   UNL     1       6.969   1.538  -3.614  1.00  0.00    -0.246 OA
ATOM     27  C   UNL     1       5.574   4.713  -3.991  1.00  0.00     0.151 C 
ATOM     28  O   UNL     1       3.984   4.213  -2.152  1.00  0.00    -0.273 OA
ATOM     29  C   UNL     1       6.925   4.151  -4.434  1.00  0.00     0.062 C 
ATOM     30  C   UNL     1       4.655   4.854  -5.187  1.00  0.00    -0.007 C 
ATOM     31  C   UNL     1       7.217   3.742  -5.827  1.00  0.00     0.025 C 
ATOM     32  C   UNL     1       4.984   4.466  -6.433  1.00  0.00    -0.003 C 
ATOM     33  C   UNL     1       6.234   3.815  -6.726  1.00  0.00     0.002 C 
ENDBRANCH  11  22
ENDBRANCH   8  11
ENDBRANCH   6   7
ENDBRANCH   4   6
ENDBRANCH   3   4
ENDBRANCH   2   3
ENDBRANCH   1   2
BRANCH   1  34
ATOM     34  O   UNL     1       3.626   0.328   0.046  1.00  0.00    -0.374 OA
BRANCH  34  35
ATOM     35  C   UNL     1       2.631  -0.025  -1.126  1.00  0.00     0.202 C 
BRANCH  35  36
ATOM     36  C   UNL     1       3.141  -0.407  -3.291  1.00  0.00     0.261 C 
BRANCH  36  37
ATOM     37  O   UNL     1       3.558  -1.818  -3.922  1.00  0.00    -0.460 OA
BRANCH  37  38
ATOM     38  C   UNL     1       4.876  -2.043  -4.244  1.00  0.00     0.338 C 
ATOM     39  O   UNL     1       5.703  -1.217  -4.585  1.00  0.00    -0.246 OA
BRANCH  38  40
ATOM     40  C   UNL     1       5.218  -3.399  -3.741  1.00  0.00     0.060 A 
ATOM     41  C   UNL     1       4.288  -4.431  -3.870  1.00  0.00     0.016 A 
ATOM     42  C   UNL     1       6.356  -3.570  -2.926  1.00  0.00     0.016 A 
ATOM     43  C   UNL     1       4.468  -5.613  -3.155  1.00  0.00     0.010 A 
ATOM     44  C   UNL     1       6.559  -4.780  -2.243  1.00  0.00     0.010 A 
ATOM     45  C   UNL     1       5.621  -5.816  -2.365  1.00  0.00    -0.014 A 
BRANCH  45  46
ATOM     46  C   UNL     1       5.951  -7.213  -1.981  1.00  0.00     0.031 A 
ATOM     47  C   UNL     1       5.854  -7.763  -0.590  1.00  0.00     0.074 A 
ATOM     48  C   UNL     1       6.299  -8.014  -3.009  1.00  0.00     0.049 A 
ATOM     49  N   UNL     1       5.974  -9.009  -0.204  1.00  0.00    -0.248 NA
ATOM     50  C   UNL     1       5.602  -6.819   0.507  1.00  0.00     0.031 C 
ATOM     51  C   UNL     1       6.431  -7.557  -4.397  1.00  0.00     0.029 A 
ATOM     52  N   UNL     1       6.550  -9.357  -3.075  1.00  0.00    -0.354 N 
ATOM     53  C   UNL     1       5.806  -9.010   1.175  1.00  0.00     0.074 A 
ATOM     54  C   UNL     1       5.609  -7.627   1.565  1.00  0.00     0.031 C 
ATOM     55  C   UNL     1       6.646  -8.611  -5.187  1.00  0.00     0.029 A 
ATOM     56  C   UNL     1       6.761  -9.804  -4.359  1.00  0.00     0.049 A 
ATOM     57  H   UNL     1       6.577  -9.944  -2.285  1.00  0.00     0.167 HD
ATOM     58  C   UNL     1       5.810 -10.072   2.020  1.00  0.00     0.031 A 
ATOM     59  C   UNL     1       7.020 -11.035  -4.836  1.00  0.00     0.031 A 
ATOM     60  C   UNL     1       6.029 -11.440   1.595  1.00  0.00     0.049 A 
ATOM     61  C   UNL     1       7.051 -12.181  -3.875  1.00  0.00     0.074 A 
ATOM     62  C   UNL     1       6.010 -12.589   2.369  1.00  0.00     0.029 A 
ATOM     63  N   UNL     1       6.313 -11.848   0.297  1.00  0.00    -0.354 N 
ATOM     64  N   UNL     1       6.811 -12.172  -2.586  1.00  0.00    -0.248 NA
ATOM     65  C   UNL     1       7.373 -13.501  -4.425  1.00  0.00     0.031 C 
ATOM     66  C   UNL     1       6.376 -13.669   1.564  1.00  0.00     0.029 A 
ATOM     67  C   UNL     1       6.519 -13.220   0.262  1.00  0.00     0.049 A 
ATOM     68  H   UNL     1       6.361 -11.250  -0.484  1.00  0.00     0.167 HD
ATOM     69  C   UNL     1       6.944 -13.490  -2.169  1.00  0.00     0.074 A 
ATOM     70  C   UNL     1       7.250 -14.271  -3.351  1.00  0.00     0.031 C 
ATOM     71  C   UNL     1       6.832 -13.997  -0.917  1.00  0.00     0.031 A 
BRANCH  58  72
ATOM     72  C   UNL     1       5.563  -9.841   3.497  1.00  0.00    -0.014 A 
ATOM     73  C   UNL     1       6.544 -10.206   4.442  1.00  0.00     0.010 A 
ATOM     74  C   UNL     1       4.302  -9.429   3.965  1.00  0.00     0.010 A 
ATOM     75  C   UNL     1       6.258 -10.208   5.812  1.00  0.00     0.020 A 
ATOM     76  C   UNL     1       4.022  -9.394   5.337  1.00  0.00     0.020 A 
ATOM     77  C   UNL     1       4.994  -9.809   6.250  1.00  0.00     0.054 A 
BRANCH  77  78
ATOM     78  S   UNL     1       4.625  -9.864   8.028  1.00  0.00     0.124 S 
ATOM     79  O   UNL     1       4.577 -11.298   8.291  1.00  0.00    -0.237 OA
ATOM     80  O   UNL     1       5.762  -9.152   8.607  1.00  0.00    -0.237 OA
ATOM     81  O   UNL     1       3.345  -9.165   8.133  1.00  0.00    -0.744 OA
ENDBRANCH  77  78
ENDBRANCH  58  72
BRANCH  59  82
ATOM     82  C   UNL     1       7.220 -11.204  -6.302  1.00  0.00    -0.014 A 
ATOM     83  C   UNL     1       8.286 -10.547  -6.950  1.00  0.00     0.010 A 
ATOM     84  C   UNL     1       6.271 -11.892  -7.076  1.00  0.00     0.010 A 
ATOM     85  C   UNL     1       8.348 -10.498  -8.343  1.00  0.00     0.020 A 
ATOM     86  C   UNL     1       6.358 -11.886  -8.471  1.00  0.00     0.020 A 
ATOM     87  C   UNL     1       7.373 -11.156  -9.095  1.00  0.00     0.054 A 
BRANCH  87  88
ATOM     88  S   UNL     1       7.428 -11.004 -10.900  1.00  0.00     0.124 S 
ATOM     89  O   UNL     1       7.041  -9.609 -11.094  1.00  0.00    -0.237 OA
ATOM     90  O   UNL     1       8.822 -11.319 -11.201  1.00  0.00    -0.237 OA
ATOM     91  O   UNL     1       6.454 -11.991 -11.358  1.00  0.00    -0.744 OA
ENDBRANCH  87  88
ENDBRANCH  59  82
BRANCH  71  92
ATOM     92  C   UNL     1       7.058 -15.479  -0.733  1.00  0.00    -0.014 A 
ATOM     93  C   UNL     1       6.016 -16.295  -0.253  1.00  0.00     0.010 A 
ATOM     94  C   UNL     1       8.336 -16.040  -0.908  1.00  0.00     0.010 A 
ATOM     95  C   UNL     1       6.260 -17.623   0.103  1.00  0.00     0.020 A 
ATOM     96  C   UNL     1       8.574 -17.381  -0.593  1.00  0.00     0.020 A 
ATOM     97  C   UNL     1       7.542 -18.154  -0.058  1.00  0.00     0.054 A 
BRANCH  97  98
ATOM     98  S   UNL     1       7.853 -19.859   0.475  1.00  0.00     0.124 S 
ATOM     99  O   UNL     1       7.780 -19.744   1.929  1.00  0.00    -0.237 OA
ATOM    100  O   UNL     1       6.758 -20.594  -0.154  1.00  0.00    -0.237 OA
ATOM    101  O   UNL     1       9.180 -20.152  -0.061  1.00  0.00    -0.744 OA
ENDBRANCH  97  98
ENDBRANCH  71  92
ENDBRANCH  45  46
ENDBRANCH  38  40
ENDBRANCH  37  38
ENDBRANCH  36  37
ENDBRANCH  35  36
ENDBRANCH  34  35
ENDBRANCH   1  34
TORSDOF 22
