REMARK SMILES CC(C)[C@@H]([NH3+])C(=O)N[C@@H](Cc1ccccc1)C(=O)OCCOCCOC(=O)c1ccc(-c2c3nc(c(-c4ccc(S(=O)(=O)[O-])cc4)c4ccc([nH]4)c(-c4ccc(S(=O)(=O)[O-])cc4)c4nc(c(-c5ccc(S(=O)(=O)[O-])cc5)c5ccc2[nH]5)C=C4)C=C3)cc1
REMARK SMILES IDX 22 1 21 2 20 3 19 4 17 5 18 6 9 7 8 8 6 9 7 10 4 12 2 13
REMARK SMILES IDX 1 14 3 15 5 16 10 20 11 21 12 22 16 23 13 24 15 25 14 26
REMARK SMILES IDX 23 27 24 28 25 29 26 30 27 31 28 32 29 33 87 34 30 35 86 36
REMARK SMILES IDX 31 37 32 38 33 39 80 40 34 41 85 42 79 43 81 44 35 45 84 46
REMARK SMILES IDX 78 47 77 48 36 50 66 51 47 52 65 53 48 54 51 55 64 56 82 57
REMARK SMILES IDX 49 58 50 59 63 61 83 62 52 63 37 64 38 65 46 66 39 67 45 68
REMARK SMILES IDX 40 69 41 70 42 71 43 72 44 73 67 74 68 75 76 76 69 77 75 78
REMARK SMILES IDX 70 79 71 80 72 81 73 82 74 83 53 84 54 85 62 86 55 87 61 88
REMARK SMILES IDX 56 89 57 90 58 91 59 92 60 93
REMARK H PARENT 8 11 5 17 5 18 5 19 81 49 51 60
REMARK Flexibility Score: inf
ROOT
ATOM      1  O   UNL     1      -3.355   4.622   3.186  1.00  0.00    -0.374 OA
ENDROOT
BRANCH   1   2
ATOM      2  C   UNL     1      -3.060   6.001   2.959  1.00  0.00     0.202 C 
BRANCH   2   3
ATOM      3  C   UNL     1      -1.620   6.341   2.571  1.00  0.00     0.261 C 
BRANCH   3   4
ATOM      4  O   UNL     1      -1.244   5.666   1.363  1.00  0.00    -0.462 OA
BRANCH   4   5
ATOM      5  C   UNL     1      -0.005   5.104   1.379  1.00  0.00     0.329 C 
ATOM      6  O   UNL     1       0.846   5.298   2.242  1.00  0.00    -0.250 OA
BRANCH   5   7
ATOM      7  C   UNL     1       0.246   4.204   0.163  1.00  0.00     0.196 C 
BRANCH   7   8
ATOM      8  N   UNL     1      -0.925   3.859  -0.658  1.00  0.00    -0.337 N 
ATOM      9  C   UNL     1      -1.319   2.666  -1.183  1.00  0.00     0.279 C 
ATOM     10  O   UNL     1      -2.257   2.677  -1.987  1.00  0.00    -0.268 OA
ATOM     11  H   UNL     1      -1.523   4.615  -0.860  1.00  0.00     0.164 HD
BRANCH   9  12
ATOM     12  C   UNL     1      -0.734   1.305  -0.704  1.00  0.00     0.273 C 
BRANCH  12  13
ATOM     13  C   UNL     1       0.775   1.064  -0.947  1.00  0.00     0.051 C 
ATOM     14  C   UNL     1       1.261  -0.258  -0.331  1.00  0.00     0.014 C 
ATOM     15  C   UNL     1       1.098   1.063  -2.444  1.00  0.00     0.014 C 
ENDBRANCH  12  13
BRANCH  12  16
ATOM     16  N   UNL     1      -1.136   1.134   0.712  1.00  0.00    -0.347 N 
ATOM     17  H   UNL     1      -0.723   1.877   1.276  1.00  0.00     0.345 HD
ATOM     18  H   UNL     1      -0.810   0.229   1.051  1.00  0.00     0.345 HD
ATOM     19  H   UNL     1      -2.153   1.178   0.785  1.00  0.00     0.345 HD
ENDBRANCH  12  16
ENDBRANCH   9  12
ENDBRANCH   7   8
BRANCH   7  20
ATOM     20  C   UNL     1       1.332   4.856  -0.718  1.00  0.00     0.072 C 
BRANCH  20  21
ATOM     21  C   UNL     1       0.992   6.274  -1.137  1.00  0.00    -0.045 A 
ATOM     22  C   UNL     1       1.598   7.358  -0.487  1.00  0.00     0.004 A 
ATOM     23  C   UNL     1       0.022   6.531  -2.117  1.00  0.00     0.004 A 
ATOM     24  C   UNL     1       1.222   8.668  -0.788  1.00  0.00     0.000 A 
ATOM     25  C   UNL     1      -0.368   7.841  -2.401  1.00  0.00     0.000 A 
ATOM     26  C   UNL     1       0.230   8.909  -1.735  1.00  0.00     0.000 A 
ENDBRANCH  20  21
ENDBRANCH   7  20
ENDBRANCH   5   7
ENDBRANCH   4   5
ENDBRANCH   3   4
ENDBRANCH   2   3
ENDBRANCH   1   2
BRANCH   1  27
ATOM     27  C   UNL     1      -3.338   3.747   2.058  1.00  0.00     0.202 C 
BRANCH  27  28
ATOM     28  C   UNL     1      -4.463   3.898   1.023  1.00  0.00     0.261 C 
BRANCH  28  29
ATOM     29  O   UNL     1      -4.498   5.191   0.393  1.00  0.00    -0.460 OA
BRANCH  29  30
ATOM     30  C   UNL     1      -5.623   5.909   0.637  1.00  0.00     0.338 C 
ATOM     31  O   UNL     1      -6.597   5.560   1.290  1.00  0.00    -0.246 OA
BRANCH  30  32
ATOM     32  C   UNL     1      -5.467   7.286   0.140  1.00  0.00     0.060 A 
ATOM     33  C   UNL     1      -5.499   8.327   1.077  1.00  0.00     0.016 A 
ATOM     34  C   UNL     1      -5.393   7.562  -1.226  1.00  0.00     0.016 A 
ATOM     35  C   UNL     1      -5.476   9.653   0.649  1.00  0.00     0.010 A 
ATOM     36  C   UNL     1      -5.386   8.894  -1.654  1.00  0.00     0.010 A 
ATOM     37  C   UNL     1      -5.449   9.945  -0.721  1.00  0.00    -0.014 A 
BRANCH  37  38
ATOM     38  C   UNL     1      -5.582  11.350  -1.176  1.00  0.00     0.031 A 
ATOM     39  C   UNL     1      -6.928  11.866  -1.604  1.00  0.00     0.074 A 
ATOM     40  C   UNL     1      -4.511  12.163  -1.188  1.00  0.00     0.049 A 
ATOM     41  N   UNL     1      -7.252  13.046  -2.066  1.00  0.00    -0.248 NA
ATOM     42  C   UNL     1      -8.059  10.930  -1.494  1.00  0.00     0.031 C 
ATOM     43  C   UNL     1      -3.164  11.794  -0.750  1.00  0.00     0.029 A 
ATOM     44  N   UNL     1      -4.389  13.470  -1.589  1.00  0.00    -0.354 N 
ATOM     45  C   UNL     1      -8.620  12.996  -2.307  1.00  0.00     0.074 A 
ATOM     46  C   UNL     1      -9.062  11.662  -1.959  1.00  0.00     0.031 C 
ATOM     47  C   UNL     1      -2.349  12.850  -0.916  1.00  0.00     0.029 A 
ATOM     48  C   UNL     1      -3.106  13.953  -1.505  1.00  0.00     0.049 A 
ATOM     49  H   UNL     1      -5.148  14.009  -1.907  1.00  0.00     0.167 HD
ATOM     50  C   UNL     1      -9.434  13.973  -2.774  1.00  0.00     0.031 A 
ATOM     51  C   UNL     1      -2.593  15.141  -1.884  1.00  0.00     0.031 A 
ATOM     52  C   UNL     1      -8.989  15.292  -3.140  1.00  0.00     0.049 A 
ATOM     53  C   UNL     1      -3.501  16.178  -2.489  1.00  0.00     0.074 A 
ATOM     54  C   UNL     1      -9.741  16.356  -3.609  1.00  0.00     0.029 A 
ATOM     55  N   UNL     1      -7.672  15.724  -3.093  1.00  0.00    -0.354 N 
ATOM     56  N   UNL     1      -4.797  16.125  -2.687  1.00  0.00    -0.248 NA
ATOM     57  C   UNL     1      -2.876  17.436  -2.923  1.00  0.00     0.031 C 
ATOM     58  C   UNL     1      -8.870  17.412  -3.899  1.00  0.00     0.029 A 
ATOM     59  C   UNL     1      -7.584  17.025  -3.559  1.00  0.00     0.049 A 
ATOM     60  H   UNL     1      -6.912  15.185  -2.775  1.00  0.00     0.167 HD
ATOM     61  C   UNL     1      -5.144  17.345  -3.257  1.00  0.00     0.074 A 
ATOM     62  C   UNL     1      -3.926  18.124  -3.353  1.00  0.00     0.031 C 
ATOM     63  C   UNL     1      -6.362  17.782  -3.664  1.00  0.00     0.031 A 
BRANCH  50  64
ATOM     64  C   UNL     1     -10.890  13.636  -2.955  1.00  0.00    -0.014 A 
ATOM     65  C   UNL     1     -11.748  13.494  -1.850  1.00  0.00     0.010 A 
ATOM     66  C   UNL     1     -11.416  13.498  -4.253  1.00  0.00     0.010 A 
ATOM     67  C   UNL     1     -13.098  13.183  -2.038  1.00  0.00     0.020 A 
ATOM     68  C   UNL     1     -12.770  13.209  -4.446  1.00  0.00     0.020 A 
ATOM     69  C   UNL     1     -13.599  13.038  -3.336  1.00  0.00     0.054 A 
BRANCH  69  70
ATOM     70  S   UNL     1     -15.358  12.651  -3.553  1.00  0.00     0.124 S 
ATOM     71  O   UNL     1     -15.409  11.246  -3.155  1.00  0.00    -0.237 OA
ATOM     72  O   UNL     1     -16.008  13.586  -2.638  1.00  0.00    -0.237 OA
ATOM     73  O   UNL     1     -15.597  12.905  -4.971  1.00  0.00    -0.744 OA
ENDBRANCH  69  70
ENDBRANCH  50  64
BRANCH  51  74
ATOM     74  C   UNL     1      -1.135  15.397  -1.738  1.00  0.00    -0.014 A 
ATOM     75  C   UNL     1      -0.658  16.313  -0.786  1.00  0.00     0.010 A 
ATOM     76  C   UNL     1      -0.213  14.712  -2.552  1.00  0.00     0.010 A 
ATOM     77  C   UNL     1       0.715  16.547  -0.656  1.00  0.00     0.020 A 
ATOM     78  C   UNL     1       1.160  14.924  -2.408  1.00  0.00     0.020 A 
ATOM     79  C   UNL     1       1.615  15.848  -1.466  1.00  0.00     0.054 A 
BRANCH  79  80
ATOM     80  S   UNL     1       3.394  16.118  -1.237  1.00  0.00     0.124 S 
ATOM     81  O   UNL     1       3.588  17.418  -1.871  1.00  0.00    -0.237 OA
ATOM     82  O   UNL     1       3.533  16.095   0.217  1.00  0.00    -0.237 OA
ATOM     83  O   UNL     1       4.002  14.984  -1.930  1.00  0.00    -0.744 OA
ENDBRANCH  79  80
ENDBRANCH  51  74
BRANCH  63  84
ATOM     84  C   UNL     1      -6.442  19.169  -4.244  1.00  0.00    -0.014 A 
ATOM     85  C   UNL     1      -5.953  19.443  -5.534  1.00  0.00     0.010 A 
ATOM     86  C   UNL     1      -7.063  20.198  -3.514  1.00  0.00     0.010 A 
ATOM     87  C   UNL     1      -6.061  20.728  -6.072  1.00  0.00     0.020 A 
ATOM     88  C   UNL     1      -7.196  21.478  -4.058  1.00  0.00     0.020 A 
ATOM     89  C   UNL     1      -6.682  21.738  -5.330  1.00  0.00     0.054 A 
BRANCH  89  90
ATOM     90  S   UNL     1      -6.851  23.387  -6.069  1.00  0.00     0.124 S 
ATOM     91  O   UNL     1      -5.491  23.907  -5.968  1.00  0.00    -0.237 OA
ATOM     92  O   UNL     1      -7.310  23.087  -7.423  1.00  0.00    -0.237 OA
ATOM     93  O   UNL     1      -7.837  24.048  -5.217  1.00  0.00    -0.744 OA
ENDBRANCH  89  90
ENDBRANCH  63  84
ENDBRANCH  37  38
ENDBRANCH  30  32
ENDBRANCH  29  30
ENDBRANCH  28  29
ENDBRANCH  27  28
ENDBRANCH   1  27
TORSDOF 23
