REMARK SMILES O=C(OCCOCCOC(=O)c1cc(-c2ccc(N3C(=O)[C@@H]4CC=CC[C@H]4C3=O)cc2)nc2c(Cl)cccc12)c1ccc(-c2c3nc(c(-c4ccc(S(=O)(=O)[O-])cc4)c4ccc([nH]4)c(-c4ccc(S(=O)(=O)[O-])cc4)c4nc(c(-c5ccc(S(=O)(=O)[O-])cc5)c5ccc2[nH]5)C=C4)C=C3)cc1
REMARK SMILES IDX 5 1 4 2 3 3 2 4 1 5 40 6 41 7 99 8 42 9 98 10 43 11 44 12
REMARK SMILES IDX 45 13 92 14 46 15 97 16 91 17 93 18 47 19 96 20 90 21 89 22
REMARK SMILES IDX 48 24 78 25 59 26 77 27 60 28 63 29 76 30 94 31 61 32 62 33
REMARK SMILES IDX 75 35 95 36 64 37 49 38 50 39 58 40 51 41 57 42 52 43 53 44
REMARK SMILES IDX 54 45 55 46 56 47 79 48 80 49 88 50 81 51 87 52 82 53 83 54
REMARK SMILES IDX 84 55 85 56 86 57 65 58 66 59 74 60 67 61 73 62 68 63 69 64
REMARK SMILES IDX 70 65 71 66 72 67 6 68 7 69 8 70 9 71 10 72 11 73 12 74
REMARK SMILES IDX 13 75 39 76 14 77 33 78 38 79 32 80 34 81 37 82 35 83 36 84
REMARK SMILES IDX 15 85 16 86 31 87 17 88 30 89 18 90 19 91 20 92 28 93 21 94
REMARK SMILES IDX 22 95 27 96 29 97 23 98 26 99 24 100 25 101
REMARK H PARENT 93 23 63 34
REMARK Flexibility Score: inf
ROOT
ATOM      1  C   UNL     1       4.367  -0.130  -1.572  1.00  0.00     0.202 C 
ENDROOT
BRANCH   1   2
ATOM      2  C   UNL     1       4.013  -1.327  -0.685  1.00  0.00     0.261 C 
BRANCH   2   3
ATOM      3  O   UNL     1       2.634  -1.261  -0.286  1.00  0.00    -0.460 OA
BRANCH   3   4
ATOM      4  C   UNL     1       2.120  -0.863   0.900  1.00  0.00     0.338 C 
ATOM      5  O   UNL     1       0.900  -0.914   1.054  1.00  0.00    -0.246 OA
BRANCH   4   6
ATOM      6  C   UNL     1       2.946  -0.359   2.041  1.00  0.00     0.060 A 
ATOM      7  C   UNL     1       4.188   0.263   1.913  1.00  0.00     0.016 A 
ATOM      8  C   UNL     1       2.382  -0.438   3.326  1.00  0.00     0.016 A 
ATOM      9  C   UNL     1       4.876   0.754   3.007  1.00  0.00     0.010 A 
ATOM     10  C   UNL     1       3.056   0.078   4.439  1.00  0.00     0.010 A 
ATOM     11  C   UNL     1       4.313   0.665   4.274  1.00  0.00    -0.014 A 
BRANCH  11  12
ATOM     12  C   UNL     1       5.156   1.090   5.400  1.00  0.00     0.031 A 
ATOM     13  C   UNL     1       5.878   0.030   6.172  1.00  0.00     0.074 A 
ATOM     14  C   UNL     1       5.407   2.400   5.573  1.00  0.00     0.049 A 
ATOM     15  N   UNL     1       6.705   0.157   7.171  1.00  0.00    -0.248 NA
ATOM     16  C   UNL     1       5.656  -1.363   5.742  1.00  0.00     0.031 C 
ATOM     17  C   UNL     1       4.861   3.479   4.742  1.00  0.00     0.029 A 
ATOM     18  N   UNL     1       6.222   3.045   6.460  1.00  0.00    -0.354 N 
ATOM     19  C   UNL     1       7.080  -1.137   7.509  1.00  0.00     0.074 A 
ATOM     20  C   UNL     1       6.395  -2.035   6.610  1.00  0.00     0.031 C 
ATOM     21  C   UNL     1       5.390   4.648   5.138  1.00  0.00     0.029 A 
ATOM     22  C   UNL     1       6.250   4.409   6.290  1.00  0.00     0.049 A 
ATOM     23  H   UNL     1       6.740   2.578   7.155  1.00  0.00     0.167 HD
ATOM     24  C   UNL     1       7.914  -1.529   8.499  1.00  0.00     0.031 A 
ATOM     25  C   UNL     1       6.884   5.353   7.011  1.00  0.00     0.031 A 
ATOM     26  C   UNL     1       8.556  -0.602   9.388  1.00  0.00     0.049 A 
ATOM     27  C   UNL     1       7.708   4.891   8.182  1.00  0.00     0.074 A 
ATOM     28  C   UNL     1       9.348  -0.862  10.489  1.00  0.00     0.029 A 
ATOM     29  N   UNL     1       8.470   0.780   9.268  1.00  0.00    -0.354 N 
ATOM     30  N   UNL     1       7.985   3.663   8.559  1.00  0.00    -0.248 NA
ATOM     31  C   UNL     1       8.289   5.933   9.035  1.00  0.00     0.031 C 
ATOM     32  C   UNL     1       9.700   0.365  11.064  1.00  0.00     0.029 A 
ATOM     33  C   UNL     1       9.178   1.389  10.286  1.00  0.00     0.049 A 
ATOM     34  H   UNL     1       7.977   1.256   8.560  1.00  0.00     0.167 HD
ATOM     35  C   UNL     1       8.786   3.783   9.686  1.00  0.00     0.074 A 
ATOM     36  C   UNL     1       8.965   5.205   9.915  1.00  0.00     0.031 C 
ATOM     37  C   UNL     1       9.324   2.813  10.468  1.00  0.00     0.031 A 
BRANCH  24  38
ATOM     38  C   UNL     1       8.066  -3.010   8.712  1.00  0.00    -0.014 A 
ATOM     39  C   UNL     1       8.780  -3.820   7.810  1.00  0.00     0.010 A 
ATOM     40  C   UNL     1       7.426  -3.612   9.811  1.00  0.00     0.010 A 
ATOM     41  C   UNL     1       8.803  -5.209   7.973  1.00  0.00     0.020 A 
ATOM     42  C   UNL     1       7.468  -4.997   9.992  1.00  0.00     0.020 A 
ATOM     43  C   UNL     1       8.137  -5.789   9.057  1.00  0.00     0.054 A 
BRANCH  43  44
ATOM     44  S   UNL     1       8.155  -7.595   9.231  1.00  0.00     0.124 S 
ATOM     45  O   UNL     1       7.239  -8.008   8.171  1.00  0.00    -0.237 OA
ATOM     46  O   UNL     1       9.561  -7.925   9.010  1.00  0.00    -0.237 OA
ATOM     47  O   UNL     1       7.673  -7.817  10.592  1.00  0.00    -0.744 OA
ENDBRANCH  43  44
ENDBRANCH  24  38
BRANCH  25  48
ATOM     48  C   UNL     1       6.712   6.798   6.689  1.00  0.00    -0.014 A 
ATOM     49  C   UNL     1       7.797   7.586   6.268  1.00  0.00     0.010 A 
ATOM     50  C   UNL     1       5.444   7.400   6.807  1.00  0.00     0.010 A 
ATOM     51  C   UNL     1       7.621   8.948   5.990  1.00  0.00     0.020 A 
ATOM     52  C   UNL     1       5.257   8.751   6.501  1.00  0.00     0.020 A 
ATOM     53  C   UNL     1       6.352   9.521   6.108  1.00  0.00     0.054 A 
BRANCH  53  54
ATOM     54  S   UNL     1       6.138  11.280   5.713  1.00  0.00     0.124 S 
ATOM     55  O   UNL     1       6.771  11.927   6.858  1.00  0.00    -0.237 OA
ATOM     56  O   UNL     1       6.846  11.408   4.442  1.00  0.00    -0.237 OA
ATOM     57  O   UNL     1       4.688  11.438   5.627  1.00  0.00    -0.744 OA
ENDBRANCH  53  54
ENDBRANCH  25  48
BRANCH  37  58
ATOM     58  C   UNL     1      10.180   3.269  11.615  1.00  0.00    -0.014 A 
ATOM     59  C   UNL     1       9.611   3.837  12.766  1.00  0.00     0.010 A 
ATOM     60  C   UNL     1      11.571   3.067  11.555  1.00  0.00     0.010 A 
ATOM     61  C   UNL     1      10.425   4.226  13.831  1.00  0.00     0.020 A 
ATOM     62  C   UNL     1      12.384   3.429  12.629  1.00  0.00     0.020 A 
ATOM     63  C   UNL     1      11.806   4.019  13.755  1.00  0.00     0.054 A 
BRANCH  63  64
ATOM     64  S   UNL     1      12.838   4.486  15.169  1.00  0.00     0.124 S 
ATOM     65  O   UNL     1      12.882   5.940  15.044  1.00  0.00    -0.237 OA
ATOM     66  O   UNL     1      12.075   3.975  16.306  1.00  0.00    -0.237 OA
ATOM     67  O   UNL     1      14.102   3.799  14.917  1.00  0.00    -0.744 OA
ENDBRANCH  63  64
ENDBRANCH  37  58
ENDBRANCH  11  12
ENDBRANCH   4   6
ENDBRANCH   3   4
ENDBRANCH   2   3
ENDBRANCH   1   2
BRANCH   1  68
ATOM     68  O   UNL     1       4.207   1.139  -0.942  1.00  0.00    -0.374 OA
BRANCH  68  69
ATOM     69  C   UNL     1       2.905   1.729  -1.034  1.00  0.00     0.202 C 
BRANCH  69  70
ATOM     70  C   UNL     1       3.030   3.088  -1.716  1.00  0.00     0.261 C 
BRANCH  70  71
ATOM     71  O   UNL     1       3.536   2.860  -3.040  1.00  0.00    -0.460 OA
BRANCH  71  72
ATOM     72  C   UNL     1       4.883   2.922  -3.184  1.00  0.00     0.338 C 
ATOM     73  O   UNL     1       5.702   3.375  -2.405  1.00  0.00    -0.246 OA
BRANCH  72  74
ATOM     74  C   UNL     1       5.234   2.127  -4.379  1.00  0.00     0.071 A 
ATOM     75  C   UNL     1       6.209   1.144  -4.194  1.00  0.00     0.045 A 
ATOM     76  C   UNL     1       4.567   2.280  -5.613  1.00  0.00     0.016 A 
ATOM     77  C   UNL     1       6.444   0.263  -5.226  1.00  0.00     0.072 A 
ATOM     78  C   UNL     1       4.894   1.355  -6.623  1.00  0.00     0.090 A 
ATOM     79  C   UNL     1       3.616   3.303  -5.877  1.00  0.00     0.011 A 
ATOM     80  N   UNL     1       5.801   0.366  -6.411  1.00  0.00    -0.246 NA
ATOM     81  C   UNL     1       4.240   1.494  -7.857  1.00  0.00     0.067 A 
ATOM     82  C   UNL     1       2.975   3.403  -7.105  1.00  0.00     0.002 A 
ATOM     83  Cl  UNL     1       4.590   0.413  -9.169  1.00  0.00    -0.082 Cl
ATOM     84  C   UNL     1       3.290   2.495  -8.100  1.00  0.00     0.023 A 
BRANCH  77  85
ATOM     85  C   UNL     1       7.403  -0.841  -5.115  1.00  0.00     0.000 A 
ATOM     86  C   UNL     1       7.034  -2.101  -4.620  1.00  0.00     0.012 A 
ATOM     87  C   UNL     1       8.728  -0.668  -5.529  1.00  0.00     0.012 A 
ATOM     88  C   UNL     1       7.959  -3.160  -4.562  1.00  0.00     0.027 A 
ATOM     89  C   UNL     1       9.658  -1.712  -5.437  1.00  0.00     0.027 A 
ATOM     90  C   UNL     1       9.289  -2.979  -4.964  1.00  0.00     0.052 A 
BRANCH  90  91
ATOM     91  N   UNL     1      10.236  -4.039  -4.920  1.00  0.00    -0.250 N 
ATOM     92  C   UNL     1       9.931  -5.384  -5.104  1.00  0.00     0.238 C 
ATOM     93  C   UNL     1      11.604  -3.864  -4.739  1.00  0.00     0.238 C 
ATOM     94  O   UNL     1       8.848  -5.942  -5.179  1.00  0.00    -0.274 OA
ATOM     95  C   UNL     1      11.249  -6.057  -5.384  1.00  0.00     0.096 C 
ATOM     96  C   UNL     1      12.167  -5.237  -4.502  1.00  0.00     0.096 C 
ATOM     97  O   UNL     1      12.264  -2.839  -4.677  1.00  0.00    -0.274 OA
ATOM     98  C   UNL     1      11.417  -7.539  -5.112  1.00  0.00     0.041 C 
ATOM     99  C   UNL     1      13.622  -5.489  -4.847  1.00  0.00     0.041 C 
ATOM    100  C   UNL     1      12.890  -7.890  -5.073  1.00  0.00    -0.030 C 
ATOM    101  C   UNL     1      13.873  -6.973  -4.982  1.00  0.00    -0.030 C 
ENDBRANCH  90  91
ENDBRANCH  77  85
ENDBRANCH  72  74
ENDBRANCH  71  72
ENDBRANCH  70  71
ENDBRANCH  69  70
ENDBRANCH  68  69
ENDBRANCH   1  68
TORSDOF 19
