REMARK SMILES C[C@@](NC(=O)c1cc(Br)c[nH]1)(C(=O)OCCOCCOC(=O)c1ccc(-c2c3nc(c(-c4ccc(S(=O)(=O)[O-])cc4)c4ccc([nH]4)c(-c4ccc(S(=O)(=O)[O-])cc4)c4nc(c(-c5ccc(S(=O)(=O)[O-])cc5)c5ccc2[nH]5)C=C4)C=C3)cc1)C(F)(F)F
REMARK SMILES IDX 18 1 17 2 16 3 15 4 14 5 12 6 13 7 2 8 1 9 3 10 4 11 5 13
REMARK SMILES IDX 6 14 7 15 11 16 8 17 10 18 9 20 83 21 84 22 85 23 86 24
REMARK SMILES IDX 19 25 20 26 21 27 22 28 23 29 24 30 82 31 25 32 81 33 26 34
REMARK SMILES IDX 27 35 28 36 75 37 29 38 80 39 74 40 76 41 30 42 79 43 73 44
REMARK SMILES IDX 72 45 31 47 61 48 42 49 60 50 43 51 46 52 59 53 77 54 44 55
REMARK SMILES IDX 45 56 58 58 78 59 47 60 32 61 33 62 41 63 34 64 40 65 35 66
REMARK SMILES IDX 36 67 37 68 38 69 39 70 62 71 63 72 71 73 64 74 70 75 65 76
REMARK SMILES IDX 66 77 67 78 68 79 69 80 48 81 49 82 57 83 50 84 56 85 51 86
REMARK SMILES IDX 52 87 53 88 54 89 55 90
REMARK H PARENT 3 12 11 19 76 46 46 57
REMARK Flexibility Score: inf
ROOT
ATOM      1  C   UNL     1      -1.777  -1.217   1.987  1.00  0.00     0.202 C 
ENDROOT
BRANCH   1   2
ATOM      2  O   UNL     1      -2.820  -0.269   2.235  1.00  0.00    -0.374 OA
BRANCH   2   3
ATOM      3  C   UNL     1      -3.676   0.070   1.152  1.00  0.00     0.202 C 
BRANCH   3   4
ATOM      4  C   UNL     1      -3.114   1.029   0.100  1.00  0.00     0.261 C 
BRANCH   4   5
ATOM      5  O   UNL     1      -1.691   0.987  -0.053  1.00  0.00    -0.461 OA
BRANCH   5   6
ATOM      6  C   UNL     1      -0.986   1.898   0.679  1.00  0.00     0.341 C 
ATOM      7  O   UNL     1      -1.483   2.661   1.501  1.00  0.00    -0.249 OA
BRANCH   6   8
ATOM      8  C   UNL     1       0.477   1.963   0.241  1.00  0.00     0.231 C 
ATOM      9  C   UNL     1       0.887   0.813  -0.698  1.00  0.00     0.058 C 
BRANCH   8  10
ATOM     10  N   UNL     1       0.831   3.272  -0.408  1.00  0.00    -0.328 N 
ATOM     11  C   UNL     1       0.264   3.737  -1.570  1.00  0.00     0.268 C 
ATOM     12  H   UNL     1       1.514   3.832   0.027  1.00  0.00     0.165 HD
ATOM     13  O   UNL     1       1.004   3.965  -2.522  1.00  0.00    -0.268 OA
BRANCH  11  14
ATOM     14  C   UNL     1      -1.154   3.995  -1.569  1.00  0.00     0.105 A 
ATOM     15  C   UNL     1      -2.065   3.858  -2.607  1.00  0.00     0.049 A 
ATOM     16  N   UNL     1      -1.849   4.543  -0.507  1.00  0.00    -0.356 N 
ATOM     17  C   UNL     1      -3.325   4.255  -2.117  1.00  0.00     0.036 A 
ATOM     18  C   UNL     1      -3.176   4.678  -0.824  1.00  0.00     0.098 A 
ATOM     19  H   UNL     1      -1.448   4.800   0.354  1.00  0.00     0.166 HD
ATOM     20  Br  UNL     1      -4.917   4.184  -3.096  1.00  0.00    -0.049 Br
ENDBRANCH  11  14
ENDBRANCH   8  10
BRANCH   8  21
ATOM     21  C   UNL     1       1.235   1.786   1.570  1.00  0.00     0.422 C 
ATOM     22  F   UNL     1       0.934   0.622   2.189  1.00  0.00    -0.168 F 
ATOM     23  F   UNL     1       2.577   1.768   1.339  1.00  0.00    -0.168 F 
ATOM     24  F   UNL     1       1.022   2.793   2.444  1.00  0.00    -0.168 F 
ENDBRANCH   8  21
ENDBRANCH   6   8
ENDBRANCH   5   6
ENDBRANCH   4   5
ENDBRANCH   3   4
ENDBRANCH   2   3
ENDBRANCH   1   2
BRANCH   1  25
ATOM     25  C   UNL     1      -2.201  -2.566   1.403  1.00  0.00     0.261 C 
BRANCH  25  26
ATOM     26  O   UNL     1      -2.396  -2.460  -0.024  1.00  0.00    -0.460 OA
BRANCH  26  27
ATOM     27  C   UNL     1      -3.547  -3.004  -0.482  1.00  0.00     0.338 C 
ATOM     28  O   UNL     1      -4.398  -3.582   0.184  1.00  0.00    -0.246 OA
BRANCH  27  29
ATOM     29  C   UNL     1      -3.748  -2.687  -1.905  1.00  0.00     0.060 A 
ATOM     30  C   UNL     1      -4.979  -2.133  -2.280  1.00  0.00     0.016 A 
ATOM     31  C   UNL     1      -2.812  -3.058  -2.873  1.00  0.00     0.016 A 
ATOM     32  C   UNL     1      -5.307  -2.013  -3.630  1.00  0.00     0.010 A 
ATOM     33  C   UNL     1      -3.148  -2.948  -4.227  1.00  0.00     0.010 A 
ATOM     34  C   UNL     1      -4.415  -2.470  -4.608  1.00  0.00    -0.014 A 
BRANCH  34  35
ATOM     35  C   UNL     1      -4.878  -2.620  -6.009  1.00  0.00     0.031 A 
ATOM     36  C   UNL     1      -5.433  -3.948  -6.451  1.00  0.00     0.074 A 
ATOM     37  C   UNL     1      -4.821  -1.593  -6.873  1.00  0.00     0.049 A 
ATOM     38  N   UNL     1      -5.873  -4.311  -7.628  1.00  0.00    -0.248 NA
ATOM     39  C   UNL     1      -5.501  -5.006  -5.429  1.00  0.00     0.031 C 
ATOM     40  C   UNL     1      -4.337  -0.249  -6.562  1.00  0.00     0.029 A 
ATOM     41  N   UNL     1      -5.166  -1.531  -8.200  1.00  0.00    -0.354 N 
ATOM     42  C   UNL     1      -6.266  -5.637  -7.492  1.00  0.00     0.074 A 
ATOM     43  C   UNL     1      -5.996  -6.021  -6.123  1.00  0.00     0.031 C 
ATOM     44  C   UNL     1      -4.396   0.501  -7.676  1.00  0.00     0.029 A 
ATOM     45  C   UNL     1      -4.902  -0.314  -8.780  1.00  0.00     0.049 A 
ATOM     46  H   UNL     1      -5.565  -2.286  -8.689  1.00  0.00     0.167 HD
ATOM     47  C   UNL     1      -6.803  -6.464  -8.420  1.00  0.00     0.031 A 
ATOM     48  C   UNL     1      -5.032   0.089 -10.059  1.00  0.00     0.031 A 
ATOM     49  C   UNL     1      -7.057  -6.095  -9.786  1.00  0.00     0.049 A 
ATOM     50  C   UNL     1      -5.574  -0.864 -11.090  1.00  0.00     0.074 A 
ATOM     51  C   UNL     1      -7.616  -6.859 -10.795  1.00  0.00     0.029 A 
ATOM     52  N   UNL     1      -6.755  -4.861 -10.337  1.00  0.00    -0.354 N 
ATOM     53  N   UNL     1      -5.974  -2.103 -10.936  1.00  0.00    -0.248 NA
ATOM     54  C   UNL     1      -5.686  -0.361 -12.467  1.00  0.00     0.031 C 
ATOM     55  C   UNL     1      -7.615  -6.097 -11.970  1.00  0.00     0.029 A 
ATOM     56  C   UNL     1      -7.091  -4.848 -11.680  1.00  0.00     0.049 A 
ATOM     57  H   UNL     1      -6.360  -4.104  -9.846  1.00  0.00     0.167 HD
ATOM     58  C   UNL     1      -6.399  -2.523 -12.192  1.00  0.00     0.074 A 
ATOM     59  C   UNL     1      -6.216  -1.404 -13.093  1.00  0.00     0.031 C 
ATOM     60  C   UNL     1      -6.899  -3.727 -12.564  1.00  0.00     0.031 A 
BRANCH  47  61
ATOM     61  C   UNL     1      -7.118  -7.867  -7.984  1.00  0.00    -0.014 A 
ATOM     62  C   UNL     1      -8.244  -8.143  -7.189  1.00  0.00     0.010 A 
ATOM     63  C   UNL     1      -6.276  -8.923  -8.377  1.00  0.00     0.010 A 
ATOM     64  C   UNL     1      -8.499  -9.447  -6.756  1.00  0.00     0.020 A 
ATOM     65  C   UNL     1      -6.538 -10.231  -7.960  1.00  0.00     0.020 A 
ATOM     66  C   UNL     1      -7.637 -10.481  -7.134  1.00  0.00     0.054 A 
BRANCH  66  67
ATOM     67  S   UNL     1      -7.978 -12.165  -6.553  1.00  0.00     0.124 S 
ATOM     68  O   UNL     1      -7.472 -12.117  -5.183  1.00  0.00    -0.237 OA
ATOM     69  O   UNL     1      -9.429 -12.267  -6.682  1.00  0.00    -0.237 OA
ATOM     70  O   UNL     1      -7.214 -13.007  -7.470  1.00  0.00    -0.744 OA
ENDBRANCH  66  67
ENDBRANCH  47  61
BRANCH  48  71
ATOM     71  C   UNL     1      -4.610   1.462 -10.440  1.00  0.00    -0.014 A 
ATOM     72  C   UNL     1      -5.563   2.459 -10.701  1.00  0.00     0.010 A 
ATOM     73  C   UNL     1      -3.242   1.778 -10.523  1.00  0.00     0.010 A 
ATOM     74  C   UNL     1      -5.155   3.752 -11.044  1.00  0.00     0.020 A 
ATOM     75  C   UNL     1      -2.831   3.073 -10.847  1.00  0.00     0.020 A 
ATOM     76  C   UNL     1      -3.791   4.051 -11.114  1.00  0.00     0.054 A 
BRANCH  76  77
ATOM     77  S   UNL     1      -3.279   5.750 -11.495  1.00  0.00     0.124 S 
ATOM     78  O   UNL     1      -3.426   5.792 -12.946  1.00  0.00    -0.237 OA
ATOM     79  O   UNL     1      -4.237   6.551 -10.737  1.00  0.00    -0.237 OA
ATOM     80  O   UNL     1      -1.904   5.807 -11.001  1.00  0.00    -0.744 OA
ENDBRANCH  76  77
ENDBRANCH  48  71
BRANCH  60  81
ATOM     81  C   UNL     1      -7.301  -3.899 -14.002  1.00  0.00    -0.014 A 
ATOM     82  C   UNL     1      -6.336  -4.121 -14.999  1.00  0.00     0.010 A 
ATOM     83  C   UNL     1      -8.665  -3.911 -14.348  1.00  0.00     0.010 A 
ATOM     84  C   UNL     1      -6.728  -4.338 -16.324  1.00  0.00     0.020 A 
ATOM     85  C   UNL     1      -9.060  -4.144 -15.668  1.00  0.00     0.020 A 
ATOM     86  C   UNL     1      -8.088  -4.347 -16.650  1.00  0.00     0.054 A 
BRANCH  86  87
ATOM     87  S   UNL     1      -8.580  -4.692 -18.362  1.00  0.00     0.124 S 
ATOM     88  O   UNL     1      -8.363  -3.400 -19.006  1.00  0.00    -0.237 OA
ATOM     89  O   UNL     1      -7.658  -5.755 -18.758  1.00  0.00    -0.237 OA
ATOM     90  O   UNL     1      -9.977  -5.104 -18.242  1.00  0.00    -0.744 OA
ENDBRANCH  86  87
ENDBRANCH  60  81
ENDBRANCH  34  35
ENDBRANCH  27  29
ENDBRANCH  26  27
ENDBRANCH  25  26
ENDBRANCH   1  25
TORSDOF 20
