REMARK SMILES Cc1ccc(N2CC[C@H]([NH+]3CCOCC3)[C@H](CCC(=O)OCCOCCOC(=O)c3ccc(-c4c5nc(c(-c6ccc(S(=O)(=O)[O-])cc6)c6ccc([nH]6)c(-c6ccc(S(=O)(=O)[O-])cc6)c6nc(c(-c7ccc(S(=O)(=O)[O-])cc7)c7ccc4[nH]7)C=C6)C=C5)cc3)C2)nc1
REMARK SMILES IDX 24 1 23 2 22 3 21 4 19 5 20 6 18 7 17 8 16 9 6 10 7 11 90 12
REMARK SMILES IDX 8 13 9 14 5 15 1 16 2 17 3 18 92 19 4 20 91 21 10 22 11 23
REMARK SMILES IDX 15 24 12 26 14 27 13 28 25 29 26 30 27 31 28 32 29 33 30 34
REMARK SMILES IDX 31 35 89 36 32 37 88 38 33 39 34 40 35 41 82 42 36 43 87 44
REMARK SMILES IDX 81 45 83 46 37 47 86 48 80 49 79 50 38 52 68 53 49 54 67 55
REMARK SMILES IDX 50 56 53 57 66 58 84 59 51 60 52 61 65 63 85 64 54 65 39 66
REMARK SMILES IDX 40 67 48 68 41 69 47 70 42 71 43 72 44 73 45 74 46 75 69 76
REMARK SMILES IDX 70 77 78 78 71 79 77 80 72 81 73 82 74 83 75 84 76 85 55 86
REMARK SMILES IDX 56 87 64 88 57 89 63 90 58 91 59 92 60 93 61 94 62 95
REMARK H PARENT 10 25 83 51 53 62
REMARK Flexibility Score: inf
ROOT
ATOM      1  O   UNL     1      -5.615   0.168  -7.229  1.00  0.00    -0.374 OA
ENDROOT
BRANCH   1   2
ATOM      2  C   UNL     1      -6.750   0.242  -6.361  1.00  0.00     0.202 C 
BRANCH   2   3
ATOM      3  C   UNL     1      -7.000  -0.951  -5.436  1.00  0.00     0.261 C 
BRANCH   3   4
ATOM      4  O   UNL     1      -5.922  -1.087  -4.496  1.00  0.00    -0.463 OA
BRANCH   4   5
ATOM      5  C   UNL     1      -5.460  -2.346  -4.310  1.00  0.00     0.305 C 
ATOM      6  O   UNL     1      -5.952  -3.358  -4.799  1.00  0.00    -0.252 OA
BRANCH   5   7
ATOM      7  C   UNL     1      -4.143  -2.378  -3.567  1.00  0.00     0.123 C 
BRANCH   7   8
ATOM      8  C   UNL     1      -3.842  -1.383  -2.446  1.00  0.00     0.023 C 
BRANCH   8   9
ATOM      9  C   UNL     1      -4.928  -0.651  -1.609  1.00  0.00     0.067 C 
ATOM     10  N   UNL     1      -3.361   0.319   0.088  1.00  0.00    -0.356 N 
ATOM     11  C   UNL     1      -3.943  -0.412   1.197  1.00  0.00     0.124 C 
ATOM     12  C   UNL     1      -4.240   0.643  -1.033  1.00  0.00     0.127 C 
ATOM     13  C   UNL     1      -4.613  -1.694   0.714  1.00  0.00     0.087 C 
ATOM     14  C   UNL     1      -5.634  -1.374  -0.391  1.00  0.00     0.190 C 
BRANCH  10  15
ATOM     15  C   UNL     1      -1.991   0.214  -0.065  1.00  0.00     0.128 A 
ATOM     16  C   UNL     1       2.268  -0.113  -0.064  1.00  0.00     0.046 C 
ATOM     17  C   UNL     1       0.782   0.042  -0.090  1.00  0.00    -0.033 A 
ATOM     18  C   UNL     1       0.164   1.258  -0.365  1.00  0.00     0.009 A 
ATOM     19  C   UNL     1      -0.049  -1.042   0.153  1.00  0.00     0.117 A 
ATOM     20  C   UNL     1      -1.231   1.340  -0.366  1.00  0.00     0.047 A 
ATOM     21  N   UNL     1      -1.399  -0.975   0.187  1.00  0.00    -0.239 NA
ENDBRANCH  10  15
BRANCH  14  22
ATOM     22  N   UNL     1      -6.664  -2.403  -0.657  1.00  0.00    -0.328 N 
ATOM     23  C   UNL     1      -7.508  -2.755   0.514  1.00  0.00     0.291 C 
ATOM     24  C   UNL     1      -6.331  -3.644  -1.344  1.00  0.00     0.291 C 
ATOM     25  H   UNL     1      -7.164  -1.851  -1.353  1.00  0.00     0.348 HD
ATOM     26  C   UNL     1      -7.047  -3.982   1.344  1.00  0.00     0.221 C 
ATOM     27  C   UNL     1      -5.767  -4.756  -0.467  1.00  0.00     0.221 C 
ATOM     28  O   UNL     1      -6.716  -5.118   0.537  1.00  0.00    -0.370 OA
ENDBRANCH  14  22
ENDBRANCH   8   9
ENDBRANCH   7   8
ENDBRANCH   5   7
ENDBRANCH   4   5
ENDBRANCH   3   4
ENDBRANCH   2   3
ENDBRANCH   1   2
BRANCH   1  29
ATOM     29  C   UNL     1      -4.326   0.019  -6.644  1.00  0.00     0.202 C 
BRANCH  29  30
ATOM     30  C   UNL     1      -3.720   1.218  -5.894  1.00  0.00     0.261 C 
BRANCH  30  31
ATOM     31  O   UNL     1      -4.621   1.898  -5.010  1.00  0.00    -0.460 OA
BRANCH  31  32
ATOM     32  C   UNL     1      -5.031   3.107  -5.470  1.00  0.00     0.338 C 
ATOM     33  O   UNL     1      -4.663   3.664  -6.502  1.00  0.00    -0.246 OA
BRANCH  32  34
ATOM     34  C   UNL     1      -6.112   3.660  -4.640  1.00  0.00     0.060 A 
ATOM     35  C   UNL     1      -7.322   3.951  -5.279  1.00  0.00     0.016 A 
ATOM     36  C   UNL     1      -5.910   4.021  -3.307  1.00  0.00     0.016 A 
ATOM     37  C   UNL     1      -8.317   4.654  -4.605  1.00  0.00     0.010 A 
ATOM     38  C   UNL     1      -6.908   4.734  -2.629  1.00  0.00     0.010 A 
ATOM     39  C   UNL     1      -8.099   5.090  -3.290  1.00  0.00    -0.014 A 
BRANCH  39  40
ATOM     40  C   UNL     1      -9.076   6.027  -2.682  1.00  0.00     0.031 A 
ATOM     41  C   UNL     1      -8.802   7.507  -2.716  1.00  0.00     0.074 A 
ATOM     42  C   UNL     1     -10.237   5.570  -2.176  1.00  0.00     0.049 A 
ATOM     43  N   UNL     1      -9.563   8.498  -2.327  1.00  0.00    -0.248 NA
ATOM     44  C   UNL     1      -7.502   7.927  -3.265  1.00  0.00     0.031 C 
ATOM     45  C   UNL     1     -10.635   4.165  -2.112  1.00  0.00     0.029 A 
ATOM     46  N   UNL     1     -11.300   6.247  -1.633  1.00  0.00    -0.354 N 
ATOM     47  C   UNL     1      -8.839   9.657  -2.585  1.00  0.00     0.074 A 
ATOM     48  C   UNL     1      -7.566   9.245  -3.136  1.00  0.00     0.031 C 
ATOM     49  C   UNL     1     -11.859   4.084  -1.562  1.00  0.00     0.029 A 
ATOM     50  C   UNL     1     -12.323   5.428  -1.222  1.00  0.00     0.049 A 
ATOM     51  H   UNL     1     -11.327   7.228  -1.546  1.00  0.00     0.167 HD
ATOM     52  C   UNL     1      -9.203  10.947  -2.390  1.00  0.00     0.031 A 
ATOM     53  C   UNL     1     -13.498   5.724  -0.633  1.00  0.00     0.031 A 
ATOM     54  C   UNL     1     -10.464  11.360  -1.834  1.00  0.00     0.049 A 
ATOM     55  C   UNL     1     -13.860   7.163  -0.381  1.00  0.00     0.074 A 
ATOM     56  C   UNL     1     -10.933  12.646  -1.625  1.00  0.00     0.029 A 
ATOM     57  N   UNL     1     -11.453  10.498  -1.388  1.00  0.00    -0.354 N 
ATOM     58  N   UNL     1     -13.180   8.247  -0.673  1.00  0.00    -0.248 NA
ATOM     59  C   UNL     1     -15.152   7.418   0.271  1.00  0.00     0.031 C 
ATOM     60  C   UNL     1     -12.184  12.560  -1.004  1.00  0.00     0.029 A 
ATOM     61  C   UNL     1     -12.516  11.221  -0.875  1.00  0.00     0.049 A 
ATOM     62  H   UNL     1     -11.406   9.515  -1.430  1.00  0.00     0.167 HD
ATOM     63  C   UNL     1     -13.970   9.312  -0.254  1.00  0.00     0.074 A 
ATOM     64  C   UNL     1     -15.185   8.744   0.293  1.00  0.00     0.031 C 
ATOM     65  C   UNL     1     -13.713  10.643  -0.318  1.00  0.00     0.031 A 
BRANCH  52  66
ATOM     66  C   UNL     1      -8.205  12.013  -2.757  1.00  0.00    -0.014 A 
ATOM     67  C   UNL     1      -7.945  12.335  -4.101  1.00  0.00     0.010 A 
ATOM     68  C   UNL     1      -7.548  12.730  -1.740  1.00  0.00     0.010 A 
ATOM     69  C   UNL     1      -7.020  13.333  -4.422  1.00  0.00     0.020 A 
ATOM     70  C   UNL     1      -6.638  13.742  -2.057  1.00  0.00     0.020 A 
ATOM     71  C   UNL     1      -6.368  14.027  -3.397  1.00  0.00     0.054 A 
BRANCH  71  72
ATOM     72  S   UNL     1      -5.186  15.331  -3.838  1.00  0.00     0.124 S 
ATOM     73  O   UNL     1      -4.034  14.552  -4.287  1.00  0.00    -0.237 OA
ATOM     74  O   UNL     1      -5.893  16.066  -4.885  1.00  0.00    -0.237 OA
ATOM     75  O   UNL     1      -4.995  16.062  -2.589  1.00  0.00    -0.744 OA
ENDBRANCH  71  72
ENDBRANCH  52  66
BRANCH  53  76
ATOM     76  C   UNL     1     -14.417   4.627  -0.226  1.00  0.00    -0.014 A 
ATOM     77  C   UNL     1     -15.622   4.401  -0.913  1.00  0.00     0.010 A 
ATOM     78  C   UNL     1     -14.078   3.795   0.857  1.00  0.00     0.010 A 
ATOM     79  C   UNL     1     -16.477   3.368  -0.516  1.00  0.00     0.020 A 
ATOM     80  C   UNL     1     -14.918   2.748   1.240  1.00  0.00     0.020 A 
ATOM     81  C   UNL     1     -16.119   2.547   0.557  1.00  0.00     0.054 A 
BRANCH  81  82
ATOM     82  S   UNL     1     -17.212   1.175   1.020  1.00  0.00     0.124 S 
ATOM     83  O   UNL     1     -18.273   1.864   1.746  1.00  0.00    -0.237 OA
ATOM     84  O   UNL     1     -17.589   0.618  -0.277  1.00  0.00    -0.237 OA
ATOM     85  O   UNL     1     -16.352   0.315   1.831  1.00  0.00    -0.744 OA
ENDBRANCH  81  82
ENDBRANCH  53  76
BRANCH  65  86
ATOM     86  C   UNL     1     -14.769  11.576   0.209  1.00  0.00    -0.014 A 
ATOM     87  C   UNL     1     -14.989  11.714   1.591  1.00  0.00     0.010 A 
ATOM     88  C   UNL     1     -15.527  12.352  -0.687  1.00  0.00     0.010 A 
ATOM     89  C   UNL     1     -15.974  12.585   2.067  1.00  0.00     0.020 A 
ATOM     90  C   UNL     1     -16.495  13.241  -0.214  1.00  0.00     0.020 A 
ATOM     91  C   UNL     1     -16.725  13.339   1.160  1.00  0.00     0.054 A 
BRANCH  91  92
ATOM     92  S   UNL     1     -17.979  14.483   1.800  1.00  0.00     0.124 S 
ATOM     93  O   UNL     1     -19.069  13.575   2.145  1.00  0.00    -0.237 OA
ATOM     94  O   UNL     1     -17.299  15.109   2.931  1.00  0.00    -0.237 OA
ATOM     95  O   UNL     1     -18.242  15.373   0.671  1.00  0.00    -0.744 OA
ENDBRANCH  91  92
ENDBRANCH  65  86
ENDBRANCH  39  40
ENDBRANCH  32  34
ENDBRANCH  31  32
ENDBRANCH  30  31
ENDBRANCH  29  30
ENDBRANCH   1  29
TORSDOF 21
