REMARK SMILES NC(=O)C[C@@H](CC(=O)OCCOCCOC(=O)c1ccc(-c2c3nc(c(-c4ccc(S(=O)(=O)[O-])cc4)c4ccc([nH]4)c(-c4ccc(S(=O)(=O)[O-])cc4)c4nc(c(-c5ccc(S(=O)(=O)[O-])cc5)c5ccc2[nH]5)C=C4)C=C3)cc1)c1cccc(Br)c1
REMARK SMILES IDX 12 1 11 2 10 3 9 4 7 5 8 6 6 7 5 8 4 9 2 10 1 11 3 14 78 15
REMARK SMILES IDX 79 16 84 17 80 18 82 19 81 20 83 21 13 22 14 23 15 24 16 25
REMARK SMILES IDX 17 26 18 27 19 28 77 29 20 30 76 31 21 32 22 33 23 34 70 35
REMARK SMILES IDX 24 36 75 37 69 38 71 39 25 40 74 41 68 42 67 43 26 45 56 46
REMARK SMILES IDX 37 47 55 48 38 49 41 50 54 51 72 52 39 53 40 54 53 56 73 57
REMARK SMILES IDX 42 58 27 59 28 60 36 61 29 62 35 63 30 64 31 65 32 66 33 67
REMARK SMILES IDX 34 68 57 69 58 70 66 71 59 72 65 73 60 74 61 75 62 76 63 77
REMARK SMILES IDX 64 78 43 79 44 80 52 81 45 82 51 83 46 84 47 85 48 86 49 87
REMARK SMILES IDX 50 88
REMARK H PARENT 1 12 1 13 71 44 41 55
REMARK Flexibility Score: inf
ROOT
ATOM      1  O   UNL     1       6.124   2.345   1.461  1.00  0.00    -0.374 OA
ENDROOT
BRANCH   1   2
ATOM      2  C   UNL     1       5.242   2.907   0.490  1.00  0.00     0.202 C 
BRANCH   2   3
ATOM      3  C   UNL     1       4.279   1.919  -0.174  1.00  0.00     0.261 C 
BRANCH   3   4
ATOM      4  O   UNL     1       3.387   1.272   0.758  1.00  0.00    -0.463 OA
BRANCH   4   5
ATOM      5  C   UNL     1       3.562  -0.064   0.901  1.00  0.00     0.306 C 
ATOM      6  O   UNL     1       4.415  -0.720   0.309  1.00  0.00    -0.252 OA
BRANCH   5   7
ATOM      7  C   UNL     1       2.574  -0.746   1.821  1.00  0.00     0.131 C 
BRANCH   7   8
ATOM      8  C   UNL     1       1.589   0.040   2.721  1.00  0.00     0.039 C 
BRANCH   8   9
ATOM      9  C   UNL     1       0.667   1.004   1.944  1.00  0.00     0.108 C 
BRANCH   9  10
ATOM     10  C   UNL     1      -0.059   0.281   0.835  1.00  0.00     0.218 C 
ATOM     11  N   UNL     1       0.400   0.524  -0.422  1.00  0.00    -0.370 N 
ATOM     12  H   UNL     1      -0.026   0.087  -1.195  1.00  0.00     0.159 HD
ATOM     13  H   UNL     1       1.158   1.137  -0.559  1.00  0.00     0.159 HD
ATOM     14  O   UNL     1      -0.959  -0.524   1.044  1.00  0.00    -0.275 OA
ENDBRANCH   9  10
ENDBRANCH   8   9
BRANCH   8  15
ATOM     15  C   UNL     1       2.187   0.597   4.020  1.00  0.00    -0.043 A 
ATOM     16  C   UNL     1       2.956  -0.240   4.853  1.00  0.00     0.004 A 
ATOM     17  C   UNL     1       1.879   1.879   4.509  1.00  0.00     0.019 A 
ATOM     18  C   UNL     1       3.414   0.186   6.104  1.00  0.00     0.001 A 
ATOM     19  C   UNL     1       2.321   2.295   5.771  1.00  0.00     0.018 A 
ATOM     20  C   UNL     1       3.091   1.456   6.568  1.00  0.00     0.016 A 
ATOM     21  Br  UNL     1       1.846   4.008   6.417  1.00  0.00    -0.051 Br
ENDBRANCH   8  15
ENDBRANCH   7   8
ENDBRANCH   5   7
ENDBRANCH   4   5
ENDBRANCH   3   4
ENDBRANCH   2   3
ENDBRANCH   1   2
BRANCH   1  22
ATOM     22  C   UNL     1       5.581   2.085   2.759  1.00  0.00     0.202 C 
BRANCH  22  23
ATOM     23  C   UNL     1       5.190   3.333   3.553  1.00  0.00     0.261 C 
BRANCH  23  24
ATOM     24  O   UNL     1       3.993   3.923   3.014  1.00  0.00    -0.460 OA
BRANCH  24  25
ATOM     25  C   UNL     1       3.890   5.250   3.252  1.00  0.00     0.338 C 
ATOM     26  O   UNL     1       4.586   5.920   4.000  1.00  0.00    -0.246 OA
BRANCH  25  27
ATOM     27  C   UNL     1       2.914   5.838   2.321  1.00  0.00     0.060 A 
ATOM     28  C   UNL     1       3.407   6.541   1.215  1.00  0.00     0.016 A 
ATOM     29  C   UNL     1       1.545   5.800   2.586  1.00  0.00     0.016 A 
ATOM     30  C   UNL     1       2.529   7.248   0.394  1.00  0.00     0.010 A 
ATOM     31  C   UNL     1       0.665   6.509   1.757  1.00  0.00     0.010 A 
ATOM     32  C   UNL     1       1.155   7.265   0.677  1.00  0.00    -0.014 A 
BRANCH  32  33
ATOM     33  C   UNL     1       0.254   8.153  -0.100  1.00  0.00     0.031 A 
ATOM     34  C   UNL     1      -0.149   9.489   0.464  1.00  0.00     0.074 A 
ATOM     35  C   UNL     1      -0.177   7.789  -1.322  1.00  0.00     0.049 A 
ATOM     36  N   UNL     1      -0.899  10.419  -0.071  1.00  0.00    -0.248 NA
ATOM     37  C   UNL     1       0.362   9.823   1.803  1.00  0.00     0.031 C 
ATOM     38  C   UNL     1       0.158   6.536  -1.996  1.00  0.00     0.029 A 
ATOM     39  N   UNL     1      -0.993   8.444  -2.211  1.00  0.00    -0.354 N 
ATOM     40  C   UNL     1      -0.943  11.452   0.857  1.00  0.00     0.074 A 
ATOM     41  C   UNL     1      -0.172  11.020   2.004  1.00  0.00     0.031 C 
ATOM     42  C   UNL     1      -0.455   6.508  -3.192  1.00  0.00     0.029 A 
ATOM     43  C   UNL     1      -1.241   7.730  -3.358  1.00  0.00     0.049 A 
ATOM     44  H   UNL     1      -1.365   9.339  -2.042  1.00  0.00     0.167 HD
ATOM     45  C   UNL     1      -1.558  12.656   0.762  1.00  0.00     0.031 A 
ATOM     46  C   UNL     1      -2.024   8.017  -4.417  1.00  0.00     0.031 A 
ATOM     47  C   UNL     1      -2.349  13.083  -0.362  1.00  0.00     0.049 A 
ATOM     48  C   UNL     1      -2.767   9.323  -4.465  1.00  0.00     0.074 A 
ATOM     49  C   UNL     1      -2.993  14.294  -0.552  1.00  0.00     0.029 A 
ATOM     50  N   UNL     1      -2.619  12.308  -1.479  1.00  0.00    -0.354 N 
ATOM     51  N   UNL     1      -2.761  10.306  -3.596  1.00  0.00    -0.248 NA
ATOM     52  C   UNL     1      -3.620   9.561  -5.640  1.00  0.00     0.031 C 
ATOM     53  C   UNL     1      -3.695  14.232  -1.761  1.00  0.00     0.029 A 
ATOM     54  C   UNL     1      -3.449  13.000  -2.346  1.00  0.00     0.049 A 
ATOM     55  H   UNL     1      -2.273  11.400  -1.633  1.00  0.00     0.167 HD
ATOM     56  C   UNL     1      -3.602  11.281  -4.122  1.00  0.00     0.074 A 
ATOM     57  C   UNL     1      -4.085  10.779  -5.393  1.00  0.00     0.031 C 
ATOM     58  C   UNL     1      -3.943  12.484  -3.598  1.00  0.00     0.031 A 
BRANCH  45  59
ATOM     59  C   UNL     1      -1.415  13.594   1.930  1.00  0.00    -0.014 A 
ATOM     60  C   UNL     1      -0.205  14.270   2.170  1.00  0.00     0.010 A 
ATOM     61  C   UNL     1      -2.510  13.823   2.783  1.00  0.00     0.010 A 
ATOM     62  C   UNL     1      -0.079  15.125   3.267  1.00  0.00     0.020 A 
ATOM     63  C   UNL     1      -2.393  14.694   3.870  1.00  0.00     0.020 A 
ATOM     64  C   UNL     1      -1.172  15.325   4.117  1.00  0.00     0.054 A 
BRANCH  64  65
ATOM     65  S   UNL     1      -0.984  16.441   5.534  1.00  0.00     0.124 S 
ATOM     66  O   UNL     1      -0.211  15.619   6.462  1.00  0.00    -0.237 OA
ATOM     67  O   UNL     1      -0.270  17.578   4.958  1.00  0.00    -0.237 OA
ATOM     68  O   UNL     1      -2.359  16.716   5.943  1.00  0.00    -0.744 OA
ENDBRANCH  64  65
ENDBRANCH  45  59
BRANCH  46  69
ATOM     69  C   UNL     1      -2.163   7.021  -5.512  1.00  0.00    -0.014 A 
ATOM     70  C   UNL     1      -1.542   7.227  -6.755  1.00  0.00     0.010 A 
ATOM     71  C   UNL     1      -2.898   5.841  -5.297  1.00  0.00     0.010 A 
ATOM     72  C   UNL     1      -1.650   6.267  -7.764  1.00  0.00     0.020 A 
ATOM     73  C   UNL     1      -2.991   4.870  -6.296  1.00  0.00     0.020 A 
ATOM     74  C   UNL     1      -2.369   5.091  -7.526  1.00  0.00     0.054 A 
BRANCH  74  75
ATOM     75  S   UNL     1      -2.422   3.815  -8.815  1.00  0.00     0.124 S 
ATOM     76  O   UNL     1      -3.420   4.352  -9.734  1.00  0.00    -0.237 OA
ATOM     77  O   UNL     1      -1.046   3.804  -9.308  1.00  0.00    -0.237 OA
ATOM     78  O   UNL     1      -2.820   2.613  -8.085  1.00  0.00    -0.744 OA
ENDBRANCH  74  75
ENDBRANCH  46  69
BRANCH  58  79
ATOM     79  C   UNL     1      -4.888  13.345  -4.393  1.00  0.00    -0.014 A 
ATOM     80  C   UNL     1      -6.261  13.046  -4.447  1.00  0.00     0.010 A 
ATOM     81  C   UNL     1      -4.409  14.494  -5.047  1.00  0.00     0.010 A 
ATOM     82  C   UNL     1      -7.135  13.870  -5.162  1.00  0.00     0.020 A 
ATOM     83  C   UNL     1      -5.284  15.332  -5.745  1.00  0.00     0.020 A 
ATOM     84  C   UNL     1      -6.641  15.007  -5.808  1.00  0.00     0.054 A 
BRANCH  84  85
ATOM     85  S   UNL     1      -7.801  16.087  -6.691  1.00  0.00     0.124 S 
ATOM     86  O   UNL     1      -8.049  15.331  -7.915  1.00  0.00    -0.237 OA
ATOM     87  O   UNL     1      -8.929  16.174  -5.766  1.00  0.00    -0.237 OA
ATOM     88  O   UNL     1      -7.052  17.329  -6.866  1.00  0.00    -0.744 OA
ENDBRANCH  84  85
ENDBRANCH  58  79
ENDBRANCH  32  33
ENDBRANCH  25  27
ENDBRANCH  24  25
ENDBRANCH  23  24
ENDBRANCH  22  23
ENDBRANCH   1  22
TORSDOF 21
