REMARK SMILES CC(C)CN(C(=O)COCC(=O)OCCOCCOC(=O)c1ccc(-c2c3nc(c(-c4ccc(S(=O)(=O)[O-])cc4)c4ccc([nH]4)c(-c4ccc(S(=O)(=O)[O-])cc4)c4nc(c(-c5ccc(S(=O)(=O)[O-])cc5)c5ccc2[nH]5)C=C4)C=C3)cc1)C1CCCC1
REMARK SMILES IDX 14 1 13 2 11 3 12 4 10 5 9 6 8 7 6 8 7 9 5 10 4 11 2 12 1 13
REMARK SMILES IDX 3 14 82 15 83 16 86 17 84 18 85 19 15 20 16 21 17 22 18 23
REMARK SMILES IDX 19 24 20 25 21 26 22 27 23 28 81 29 24 30 80 31 25 32 26 33
REMARK SMILES IDX 27 34 74 35 28 36 79 37 73 38 75 39 29 40 78 41 72 42 71 43
REMARK SMILES IDX 30 45 60 46 41 47 59 48 42 49 45 50 58 51 76 52 43 53 44 54
REMARK SMILES IDX 57 56 77 57 46 58 31 59 32 60 40 61 33 62 39 63 34 64 35 65
REMARK SMILES IDX 36 66 37 67 38 68 61 69 62 70 70 71 63 72 69 73 64 74 65 75
REMARK SMILES IDX 66 76 67 77 68 78 47 79 48 80 56 81 49 82 55 83 50 84 51 85
REMARK SMILES IDX 52 86 53 87 54 88
REMARK H PARENT 75 44 45 55
REMARK Flexibility Score: inf
ROOT
ATOM      1  C   UNL     1      -1.998  -6.639   4.265  1.00  0.00     0.261 C 
ENDROOT
BRANCH   1   2
ATOM      2  O   UNL     1      -1.527  -5.286   4.069  1.00  0.00    -0.462 OA
BRANCH   2   3
ATOM      3  C   UNL     1      -0.514  -5.137   3.173  1.00  0.00     0.332 C 
ATOM      4  O   UNL     1       0.002  -6.051   2.536  1.00  0.00    -0.250 OA
BRANCH   3   5
ATOM      5  C   UNL     1       0.005  -3.690   3.079  1.00  0.00     0.283 C 
BRANCH   5   6
ATOM      6  O   UNL     1      -0.699  -2.534   3.498  1.00  0.00    -0.360 OA
BRANCH   6   7
ATOM      7  C   UNL     1      -1.892  -2.268   2.784  1.00  0.00     0.261 C 
BRANCH   7   8
ATOM      8  C   UNL     1      -1.847  -2.307   1.237  1.00  0.00     0.248 C 
ATOM      9  O   UNL     1      -2.237  -3.341   0.689  1.00  0.00    -0.272 OA
BRANCH   8  10
ATOM     10  N   UNL     1      -1.355  -1.211   0.520  1.00  0.00    -0.337 N 
BRANCH  10  11
ATOM     11  C   UNL     1      -0.759  -0.043   1.201  1.00  0.00     0.122 C 
BRANCH  11  12
ATOM     12  C   UNL     1       0.766  -0.130   1.429  1.00  0.00     0.002 C 
ATOM     13  C   UNL     1       1.583   0.265   0.195  1.00  0.00     0.009 C 
ATOM     14  C   UNL     1       1.161   0.795   2.587  1.00  0.00     0.009 C 
ENDBRANCH  11  12
ENDBRANCH  10  11
BRANCH  10  15
ATOM     15  C   UNL     1      -1.217  -1.279  -0.954  1.00  0.00     0.085 C 
ATOM     16  C   UNL     1      -2.028  -2.317  -1.744  1.00  0.00     0.025 C 
ATOM     17  C   UNL     1      -1.635   0.013  -1.676  1.00  0.00     0.025 C 
ATOM     18  C   UNL     1      -1.850  -1.882  -3.192  1.00  0.00     0.002 C 
ATOM     19  C   UNL     1      -1.807  -0.361  -3.147  1.00  0.00     0.002 C 
ENDBRANCH  10  15
ENDBRANCH   8  10
ENDBRANCH   7   8
ENDBRANCH   6   7
ENDBRANCH   5   6
ENDBRANCH   3   5
ENDBRANCH   2   3
ENDBRANCH   1   2
BRANCH   1  20
ATOM     20  C   UNL     1      -3.517  -6.748   4.095  1.00  0.00     0.202 C 
BRANCH  20  21
ATOM     21  O   UNL     1      -3.995  -6.714   2.747  1.00  0.00    -0.374 OA
BRANCH  21  22
ATOM     22  C   UNL     1      -3.968  -5.439   2.108  1.00  0.00     0.202 C 
BRANCH  22  23
ATOM     23  C   UNL     1      -5.169  -4.531   2.403  1.00  0.00     0.261 C 
BRANCH  23  24
ATOM     24  O   UNL     1      -5.288  -4.237   3.809  1.00  0.00    -0.460 OA
BRANCH  24  25
ATOM     25  C   UNL     1      -6.367  -4.800   4.408  1.00  0.00     0.338 C 
ATOM     26  O   UNL     1      -7.298  -5.368   3.863  1.00  0.00    -0.246 OA
BRANCH  25  27
ATOM     27  C   UNL     1      -6.201  -4.801   5.876  1.00  0.00     0.060 A 
ATOM     28  C   UNL     1      -6.352  -6.031   6.529  1.00  0.00     0.016 A 
ATOM     29  C   UNL     1      -5.986  -3.633   6.611  1.00  0.00     0.016 A 
ATOM     30  C   UNL     1      -6.352  -6.089   7.921  1.00  0.00     0.010 A 
ATOM     31  C   UNL     1      -5.992  -3.693   8.012  1.00  0.00     0.010 A 
ATOM     32  C   UNL     1      -6.218  -4.915   8.673  1.00  0.00    -0.014 A 
BRANCH  32  33
ATOM     33  C   UNL     1      -6.485  -4.965  10.134  1.00  0.00     0.031 A 
ATOM     34  C   UNL     1      -7.843  -4.553  10.641  1.00  0.00     0.074 A 
ATOM     35  C   UNL     1      -5.563  -5.439  10.992  1.00  0.00     0.049 A 
ATOM     36  N   UNL     1      -8.308  -4.563  11.864  1.00  0.00    -0.248 NA
ATOM     37  C   UNL     1      -8.805  -4.075   9.635  1.00  0.00     0.031 C 
ATOM     38  C   UNL     1      -4.230  -5.915  10.624  1.00  0.00     0.029 A 
ATOM     39  N   UNL     1      -5.618  -5.609  12.354  1.00  0.00    -0.354 N 
ATOM     40  C   UNL     1      -9.613  -4.093  11.776  1.00  0.00     0.074 A 
ATOM     41  C   UNL     1      -9.856  -3.777  10.385  1.00  0.00     0.031 C 
ATOM     42  C   UNL     1      -3.594  -6.327  11.735  1.00  0.00     0.029 A 
ATOM     43  C   UNL     1      -4.462  -6.120  12.893  1.00  0.00     0.049 A 
ATOM     44  H   UNL     1      -6.410  -5.386  12.893  1.00  0.00     0.167 HD
ATOM     45  C   UNL     1     -10.532  -3.945  12.760  1.00  0.00     0.031 A 
ATOM     46  C   UNL     1      -4.135  -6.382  14.175  1.00  0.00     0.031 A 
ATOM     47  C   UNL     1     -10.291  -4.247  14.146  1.00  0.00     0.049 A 
ATOM     48  C   UNL     1      -5.149  -6.140  15.263  1.00  0.00     0.074 A 
ATOM     49  C   UNL     1     -11.164  -4.137  15.215  1.00  0.00     0.029 A 
ATOM     50  N   UNL     1      -9.089  -4.712  14.657  1.00  0.00    -0.354 N 
ATOM     51  N   UNL     1      -6.385  -5.714  15.158  1.00  0.00    -0.248 NA
ATOM     52  C   UNL     1      -4.724  -6.422  16.642  1.00  0.00     0.031 C 
ATOM     53  C   UNL     1     -10.473  -4.486  16.380  1.00  0.00     0.029 A 
ATOM     54  C   UNL     1      -9.188  -4.868  16.029  1.00  0.00     0.049 A 
ATOM     55  H   UNL     1      -8.285  -4.903  14.123  1.00  0.00     0.167 HD
ATOM     56  C   UNL     1      -6.893  -5.702  16.454  1.00  0.00     0.074 A 
ATOM     57  C   UNL     1      -5.835  -6.174  17.323  1.00  0.00     0.031 C 
ATOM     58  C   UNL     1      -8.126  -5.335  16.884  1.00  0.00     0.031 A 
BRANCH  45  59
ATOM     59  C   UNL     1     -11.880  -3.397  12.373  1.00  0.00    -0.014 A 
ATOM     60  C   UNL     1     -12.805  -4.177  11.654  1.00  0.00     0.010 A 
ATOM     61  C   UNL     1     -12.239  -2.094  12.761  1.00  0.00     0.010 A 
ATOM     62  C   UNL     1     -14.049  -3.649  11.298  1.00  0.00     0.020 A 
ATOM     63  C   UNL     1     -13.492  -1.571  12.429  1.00  0.00     0.020 A 
ATOM     64  C   UNL     1     -14.382  -2.347  11.684  1.00  0.00     0.054 A 
BRANCH  64  65
ATOM     65  S   UNL     1     -16.009  -1.690  11.223  1.00  0.00     0.124 S 
ATOM     66  O   UNL     1     -15.838  -1.438   9.794  1.00  0.00    -0.237 OA
ATOM     67  O   UNL     1     -16.908  -2.790  11.563  1.00  0.00    -0.237 OA
ATOM     68  O   UNL     1     -16.149  -0.496  12.053  1.00  0.00    -0.744 OA
ENDBRANCH  64  65
ENDBRANCH  45  59
BRANCH  46  69
ATOM     69  C   UNL     1      -2.775  -6.890  14.505  1.00  0.00    -0.014 A 
ATOM     70  C   UNL     1      -2.586  -8.209  14.954  1.00  0.00     0.010 A 
ATOM     71  C   UNL     1      -1.657  -6.046  14.372  1.00  0.00     0.010 A 
ATOM     72  C   UNL     1      -1.305  -8.670  15.275  1.00  0.00     0.020 A 
ATOM     73  C   UNL     1      -0.373  -6.511  14.668  1.00  0.00     0.020 A 
ATOM     74  C   UNL     1      -0.206  -7.818  15.128  1.00  0.00     0.054 A 
BRANCH  74  75
ATOM     75  S   UNL     1       1.454  -8.452  15.497  1.00  0.00     0.124 S 
ATOM     76  O   UNL     1       1.453  -8.473  16.956  1.00  0.00    -0.237 OA
ATOM     77  O   UNL     1       1.445  -9.759  14.845  1.00  0.00    -0.237 OA
ATOM     78  O   UNL     1       2.340  -7.465  14.884  1.00  0.00    -0.744 OA
ENDBRANCH  74  75
ENDBRANCH  46  69
BRANCH  58  79
ATOM     79  C   UNL     1      -8.415  -5.456  18.357  1.00  0.00    -0.014 A 
ATOM     80  C   UNL     1      -7.861  -4.556  19.285  1.00  0.00     0.010 A 
ATOM     81  C   UNL     1      -9.300  -6.452  18.812  1.00  0.00     0.010 A 
ATOM     82  C   UNL     1      -8.164  -4.668  20.645  1.00  0.00     0.020 A 
ATOM     83  C   UNL     1      -9.625  -6.550  20.167  1.00  0.00     0.020 A 
ATOM     84  C   UNL     1      -9.043  -5.666  21.078  1.00  0.00     0.054 A 
BRANCH  84  85
ATOM     85  S   UNL     1      -9.455  -5.764  22.842  1.00  0.00     0.124 S 
ATOM     86  O   UNL     1      -8.242  -6.351  23.405  1.00  0.00    -0.237 OA
ATOM     87  O   UNL     1      -9.699  -4.368  23.195  1.00  0.00    -0.237 OA
ATOM     88  O   UNL     1     -10.636  -6.624  22.875  1.00  0.00    -0.744 OA
ENDBRANCH  84  85
ENDBRANCH  58  79
ENDBRANCH  32  33
ENDBRANCH  25  27
ENDBRANCH  24  25
ENDBRANCH  23  24
ENDBRANCH  22  23
ENDBRANCH  21  22
ENDBRANCH  20  21
ENDBRANCH   1  20
TORSDOF 24
