REMARK SMILES C[C@H](NC(=O)[C@@H](C)Oc1ccc(Cl)cc1Br)C(=O)OCCOCCOC(=O)c1ccc(-c2c3nc(c(-c4ccc(S(=O)(=O)[O-])cc4)c4ccc([nH]4)c(-c4ccc(S(=O)(=O)[O-])cc4)c4nc(c(-c5ccc(S(=O)(=O)[O-])cc5)c5ccc2[nH]5)C=C4)C=C3)cc1
REMARK SMILES IDX 21 1 20 2 19 3 17 4 18 5 2 6 1 7 3 8 4 9 5 11 6 12 7 13 8 14
REMARK SMILES IDX 9 15 10 16 15 17 11 18 14 19 16 20 12 21 13 22 22 23 23 24
REMARK SMILES IDX 24 25 25 26 26 27 27 28 28 29 29 30 87 31 30 32 86 33 31 34
REMARK SMILES IDX 32 35 33 36 80 37 34 38 85 39 79 40 81 41 35 42 84 43 78 44
REMARK SMILES IDX 77 45 36 47 66 48 47 49 65 50 48 51 51 52 64 53 82 54 49 55
REMARK SMILES IDX 50 56 63 58 83 59 52 60 37 61 38 62 46 63 39 64 45 65 40 66
REMARK SMILES IDX 41 67 42 68 43 69 44 70 67 71 68 72 76 73 69 74 75 75 70 76
REMARK SMILES IDX 71 77 72 78 73 79 74 80 53 81 54 82 62 83 55 84 61 85 56 86
REMARK SMILES IDX 57 87 58 88 59 89 60 90
REMARK H PARENT 3 10 81 46 51 57
REMARK Flexibility Score: inf
ROOT
ATOM      1  C   UNL     1      -3.473   0.451   0.738  1.00  0.00     0.202 C 
ENDROOT
BRANCH   1   2
ATOM      2  C   UNL     1      -2.697  -0.054   1.962  1.00  0.00     0.261 C 
BRANCH   2   3
ATOM      3  O   UNL     1      -1.281  -0.114   1.634  1.00  0.00    -0.462 OA
BRANCH   3   4
ATOM      4  C   UNL     1      -0.580  -1.140   2.194  1.00  0.00     0.328 C 
ATOM      5  O   UNL     1      -1.026  -1.885   3.060  1.00  0.00    -0.250 OA
BRANCH   4   6
ATOM      6  C   UNL     1       0.830  -1.346   1.561  1.00  0.00     0.189 C 
ATOM      7  C   UNL     1       1.839  -1.400   2.703  1.00  0.00     0.043 C 
BRANCH   6   8
ATOM      8  N   UNL     1       1.261  -0.349   0.563  1.00  0.00    -0.340 N 
ATOM      9  C   UNL     1       1.632  -0.399  -0.748  1.00  0.00     0.261 C 
ATOM     10  H   UNL     1       1.286   0.564   0.928  1.00  0.00     0.164 HD
ATOM     11  O   UNL     1       1.934   0.698  -1.242  1.00  0.00    -0.271 OA
BRANCH   9  12
ATOM     12  C   UNL     1       1.697  -1.677  -1.663  1.00  0.00     0.258 C 
ATOM     13  C   UNL     1       2.395  -2.902  -1.077  1.00  0.00     0.064 C 
BRANCH  12  14
ATOM     14  O   UNL     1       0.612  -2.036  -2.539  1.00  0.00    -0.480 OA
BRANCH  14  15
ATOM     15  C   UNL     1      -0.445  -2.697  -1.988  1.00  0.00     0.134 A 
ATOM     16  C   UNL     1      -1.055  -2.201  -0.856  1.00  0.00     0.049 A 
ATOM     17  C   UNL     1      -1.005  -3.832  -2.582  1.00  0.00     0.061 A 
ATOM     18  C   UNL     1      -2.062  -2.907  -0.201  1.00  0.00     0.024 A 
ATOM     19  C   UNL     1      -2.094  -4.492  -1.986  1.00  0.00     0.040 A 
ATOM     20  Br  UNL     1      -0.339  -4.520  -4.215  1.00  0.00    -0.047 Br
ATOM     21  C   UNL     1      -2.600  -4.037  -0.776  1.00  0.00     0.042 A 
ATOM     22  Cl  UNL     1      -3.930  -4.809  -0.013  1.00  0.00    -0.084 Cl
ENDBRANCH  14  15
ENDBRANCH  12  14
ENDBRANCH   9  12
ENDBRANCH   6   8
ENDBRANCH   4   6
ENDBRANCH   3   4
ENDBRANCH   2   3
ENDBRANCH   1   2
BRANCH   1  23
ATOM     23  O   UNL     1      -3.304  -0.457  -0.344  1.00  0.00    -0.374 OA
BRANCH  23  24
ATOM     24  C   UNL     1      -3.579   0.003  -1.670  1.00  0.00     0.202 C 
BRANCH  24  25
ATOM     25  C   UNL     1      -2.506   0.963  -2.222  1.00  0.00     0.261 C 
BRANCH  25  26
ATOM     26  O   UNL     1      -2.571   2.245  -1.585  1.00  0.00    -0.460 OA
BRANCH  26  27
ATOM     27  C   UNL     1      -3.738   2.888  -1.809  1.00  0.00     0.338 C 
ATOM     28  O   UNL     1      -4.530   2.676  -2.716  1.00  0.00    -0.246 OA
BRANCH  27  29
ATOM     29  C   UNL     1      -4.077   3.618  -0.582  1.00  0.00     0.060 A 
ATOM     30  C   UNL     1      -5.310   3.315   0.009  1.00  0.00     0.016 A 
ATOM     31  C   UNL     1      -3.197   4.533   0.001  1.00  0.00     0.016 A 
ATOM     32  C   UNL     1      -5.719   4.016   1.130  1.00  0.00     0.010 A 
ATOM     33  C   UNL     1      -3.613   5.246   1.123  1.00  0.00     0.010 A 
ATOM     34  C   UNL     1      -4.902   5.034   1.639  1.00  0.00    -0.014 A 
BRANCH  34  35
ATOM     35  C   UNL     1      -5.536   6.027   2.527  1.00  0.00     0.031 A 
ATOM     36  C   UNL     1      -6.055   7.292   1.899  1.00  0.00     0.074 A 
ATOM     37  C   UNL     1      -5.763   5.732   3.817  1.00  0.00     0.049 A 
ATOM     38  N   UNL     1      -6.733   8.267   2.442  1.00  0.00    -0.248 NA
ATOM     39  C   UNL     1      -5.783   7.479   0.461  1.00  0.00     0.031 C 
ATOM     40  C   UNL     1      -5.347   4.499   4.487  1.00  0.00     0.029 A 
ATOM     41  N   UNL     1      -6.424   6.438   4.784  1.00  0.00    -0.354 N 
ATOM     42  C   UNL     1      -6.975   9.172   1.414  1.00  0.00     0.074 A 
ATOM     43  C   UNL     1      -6.336   8.658   0.227  1.00  0.00     0.031 C 
ATOM     44  C   UNL     1      -5.771   4.534   5.761  1.00  0.00     0.029 A 
ATOM     45  C   UNL     1      -6.459   5.800   5.999  1.00  0.00     0.049 A 
ATOM     46  H   UNL     1      -6.834   7.319   4.625  1.00  0.00     0.167 HD
ATOM     47  C   UNL     1      -7.683  10.324   1.458  1.00  0.00     0.031 A 
ATOM     48  C   UNL     1      -6.978   6.208   7.172  1.00  0.00     0.031 A 
ATOM     49  C   UNL     1      -8.295  10.826   2.659  1.00  0.00     0.049 A 
ATOM     50  C   UNL     1      -7.693   7.532   7.213  1.00  0.00     0.074 A 
ATOM     51  C   UNL     1      -9.016  11.992   2.837  1.00  0.00     0.029 A 
ATOM     52  N   UNL     1      -8.255  10.184   3.889  1.00  0.00    -0.354 N 
ATOM     53  N   UNL     1      -7.913   8.382   6.234  1.00  0.00    -0.248 NA
ATOM     54  C   UNL     1      -8.245   7.945   8.508  1.00  0.00     0.031 C 
ATOM     55  C   UNL     1      -9.360  12.084   4.190  1.00  0.00     0.029 A 
ATOM     56  C   UNL     1      -8.916  10.941   4.839  1.00  0.00     0.049 A 
ATOM     57  H   UNL     1      -7.819   9.318   4.060  1.00  0.00     0.167 HD
ATOM     58  C   UNL     1      -8.642   9.424   6.795  1.00  0.00     0.074 A 
ATOM     59  C   UNL     1      -8.857   9.076   8.186  1.00  0.00     0.031 C 
ATOM     60  C   UNL     1      -9.091  10.570   6.221  1.00  0.00     0.031 A 
BRANCH  47  61
ATOM     61  C   UNL     1      -7.801  11.124   0.188  1.00  0.00    -0.014 A 
ATOM     62  C   UNL     1      -8.582  10.671  -0.892  1.00  0.00     0.010 A 
ATOM     63  C   UNL     1      -7.153  12.368   0.084  1.00  0.00     0.010 A 
ATOM     64  C   UNL     1      -8.696  11.437  -2.056  1.00  0.00     0.020 A 
ATOM     65  C   UNL     1      -7.287  13.150  -1.067  1.00  0.00     0.020 A 
ATOM     66  C   UNL     1      -8.052  12.675  -2.134  1.00  0.00     0.054 A 
BRANCH  66  67
ATOM     67  S   UNL     1      -8.262  13.672  -3.635  1.00  0.00     0.124 S 
ATOM     68  O   UNL     1      -7.510  12.900  -4.620  1.00  0.00    -0.237 OA
ATOM     69  O   UNL     1      -9.712  13.676  -3.813  1.00  0.00    -0.237 OA
ATOM     70  O   UNL     1      -7.678  14.963  -3.280  1.00  0.00    -0.744 OA
ENDBRANCH  66  67
ENDBRANCH  47  61
BRANCH  48  71
ATOM     71  C   UNL     1      -6.799   5.379   8.396  1.00  0.00    -0.014 A 
ATOM     72  C   UNL     1      -7.894   4.791   9.052  1.00  0.00     0.010 A 
ATOM     73  C   UNL     1      -5.506   5.178   8.916  1.00  0.00     0.010 A 
ATOM     74  C   UNL     1      -7.701   4.044  10.219  1.00  0.00     0.020 A 
ATOM     75  C   UNL     1      -5.305   4.404  10.060  1.00  0.00     0.020 A 
ATOM     76  C   UNL     1      -6.407   3.855  10.715  1.00  0.00     0.054 A 
BRANCH  76  77
ATOM     77  S   UNL     1      -6.176   2.859  12.213  1.00  0.00     0.124 S 
ATOM     78  O   UNL     1      -6.698   3.744  13.249  1.00  0.00    -0.237 OA
ATOM     79  O   UNL     1      -6.978   1.672  11.928  1.00  0.00    -0.237 OA
ATOM     80  O   UNL     1      -4.732   2.632  12.252  1.00  0.00    -0.744 OA
ENDBRANCH  76  77
ENDBRANCH  48  71
BRANCH  60  81
ATOM     81  C   UNL     1      -9.868  11.509   7.105  1.00  0.00    -0.014 A 
ATOM     82  C   UNL     1      -9.243  12.206   8.154  1.00  0.00     0.010 A 
ATOM     83  C   UNL     1     -11.243  11.699   6.876  1.00  0.00     0.010 A 
ATOM     84  C   UNL     1      -9.993  13.025   9.000  1.00  0.00     0.020 A 
ATOM     85  C   UNL     1     -11.989  12.547   7.696  1.00  0.00     0.020 A 
ATOM     86  C   UNL     1     -11.363  13.184   8.770  1.00  0.00     0.054 A 
BRANCH  86  87
ATOM     87  S   UNL     1     -12.315  14.245   9.888  1.00  0.00     0.124 S 
ATOM     88  O   UNL     1     -12.384  13.427  11.095  1.00  0.00    -0.237 OA
ATOM     89  O   UNL     1     -11.480  15.440   9.984  1.00  0.00    -0.237 OA
ATOM     90  O   UNL     1     -13.585  14.434   9.189  1.00  0.00    -0.744 OA
ENDBRANCH  86  87
ENDBRANCH  60  81
ENDBRANCH  34  35
ENDBRANCH  27  29
ENDBRANCH  26  27
ENDBRANCH  25  26
ENDBRANCH  24  25
ENDBRANCH  23  24
ENDBRANCH   1  23
TORSDOF 21
