REMARK SMILES C=CCOC(=O)N[C@H](Cc1ccccc1)C(=O)OCCOCCOC(=O)c1ccc(-c2c3nc(c(-c4ccc(S(=O)(=O)[O-])cc4)c4ccc([nH]4)c(-c4ccc(S(=O)(=O)[O-])cc4)c4nc(c(-c5ccc(S(=O)(=O)[O-])cc5)c5ccc2[nH]5)C=C4)C=C3)cc1
REMARK SMILES IDX 20 1 19 2 18 3 16 4 17 5 8 6 7 7 5 8 6 9 4 11 3 12 2 13 1 14
REMARK SMILES IDX 9 15 10 16 11 17 15 18 12 19 14 20 13 21 21 22 22 23 23 24
REMARK SMILES IDX 24 25 25 26 26 27 27 28 28 29 86 30 29 31 85 32 30 33 31 34
REMARK SMILES IDX 32 35 79 36 33 37 84 38 78 39 80 40 34 41 83 42 77 43 76 44
REMARK SMILES IDX 35 46 65 47 46 48 64 49 47 50 50 51 63 52 81 53 48 54 49 55
REMARK SMILES IDX 62 57 82 58 51 59 36 60 37 61 45 62 38 63 44 64 39 65 40 66
REMARK SMILES IDX 41 67 42 68 43 69 66 70 67 71 75 72 68 73 74 74 69 75 70 76
REMARK SMILES IDX 71 77 72 78 73 79 52 80 53 81 61 82 54 83 60 84 55 85 56 86
REMARK SMILES IDX 57 87 58 88 59 89
REMARK H PARENT 7 10 80 45 50 56
REMARK Flexibility Score: inf
ROOT
ATOM      1  C   UNL     1      -0.414  -3.676   7.460  1.00  0.00     0.202 C 
ENDROOT
BRANCH   1   2
ATOM      2  C   UNL     1      -1.871  -3.833   7.006  1.00  0.00     0.261 C 
BRANCH   2   3
ATOM      3  O   UNL     1      -2.054  -3.544   5.604  1.00  0.00    -0.462 OA
BRANCH   3   4
ATOM      4  C   UNL     1      -3.002  -2.614   5.318  1.00  0.00     0.329 C 
ATOM      5  O   UNL     1      -3.732  -2.088   6.157  1.00  0.00    -0.250 OA
BRANCH   4   6
ATOM      6  C   UNL     1      -3.149  -2.279   3.825  1.00  0.00     0.199 C 
BRANCH   6   7
ATOM      7  N   UNL     1      -4.486  -2.751   3.432  1.00  0.00    -0.308 N 
ATOM      8  C   UNL     1      -4.885  -3.901   2.827  1.00  0.00     0.408 C 
ATOM      9  O   UNL     1      -6.075  -4.093   2.591  1.00  0.00    -0.225 OA
ATOM     10  H   UNL     1      -5.217  -2.127   3.643  1.00  0.00     0.168 HD
BRANCH   8  11
ATOM     11  O   UNL     1      -3.874  -4.711   2.449  1.00  0.00    -0.445 OA
BRANCH  11  12
ATOM     12  C   UNL     1      -4.174  -5.570   1.342  1.00  0.00     0.262 C 
BRANCH  12  13
ATOM     13  C   UNL     1      -4.609  -6.918   1.812  1.00  0.00     0.006 C 
ATOM     14  C   UNL     1      -5.817  -7.436   1.556  1.00  0.00     0.007 C 
ENDBRANCH  12  13
ENDBRANCH  11  12
ENDBRANCH   8  11
ENDBRANCH   6   7
BRANCH   6  15
ATOM     15  C   UNL     1      -1.975  -2.605   2.880  1.00  0.00     0.072 C 
BRANCH  15  16
ATOM     16  C   UNL     1      -1.287  -1.432   2.188  1.00  0.00    -0.045 A 
ATOM     17  C   UNL     1      -1.255  -1.378   0.785  1.00  0.00     0.004 A 
ATOM     18  C   UNL     1      -0.546  -0.481   2.899  1.00  0.00     0.004 A 
ATOM     19  C   UNL     1      -0.435  -0.462   0.120  1.00  0.00     0.000 A 
ATOM     20  C   UNL     1       0.305   0.408   2.236  1.00  0.00     0.000 A 
ATOM     21  C   UNL     1       0.373   0.407   0.847  1.00  0.00     0.000 A 
ENDBRANCH  15  16
ENDBRANCH   6  15
ENDBRANCH   4   6
ENDBRANCH   3   4
ENDBRANCH   2   3
ENDBRANCH   1   2
BRANCH   1  22
ATOM     22  O   UNL     1       0.197  -2.391   7.337  1.00  0.00    -0.374 OA
BRANCH  22  23
ATOM     23  C   UNL     1       0.390  -1.875   6.028  1.00  0.00     0.202 C 
BRANCH  23  24
ATOM     24  C   UNL     1       1.504  -2.463   5.150  1.00  0.00     0.261 C 
BRANCH  24  25
ATOM     25  O   UNL     1       1.502  -3.890   5.091  1.00  0.00    -0.460 OA
BRANCH  25  26
ATOM     26  C   UNL     1       2.457  -4.461   5.865  1.00  0.00     0.338 C 
ATOM     27  O   UNL     1       3.306  -3.897   6.533  1.00  0.00    -0.246 OA
BRANCH  26  28
ATOM     28  C   UNL     1       2.216  -5.909   5.936  1.00  0.00     0.060 A 
ATOM     29  C   UNL     1       2.122  -6.478   7.211  1.00  0.00     0.016 A 
ATOM     30  C   UNL     1       2.132  -6.695   4.785  1.00  0.00     0.016 A 
ATOM     31  C   UNL     1       1.998  -7.854   7.342  1.00  0.00     0.010 A 
ATOM     32  C   UNL     1       2.012  -8.078   4.919  1.00  0.00     0.010 A 
ATOM     33  C   UNL     1       1.985  -8.662   6.197  1.00  0.00    -0.014 A 
BRANCH  33  34
ATOM     34  C   UNL     1       2.093 -10.127   6.356  1.00  0.00     0.031 A 
ATOM     35  C   UNL     1       3.430 -10.781   6.144  1.00  0.00     0.074 A 
ATOM     36  C   UNL     1       1.021 -10.844   6.734  1.00  0.00     0.049 A 
ATOM     37  N   UNL     1       3.759 -12.040   6.253  1.00  0.00    -0.248 NA
ATOM     38  C   UNL     1       4.544  -9.898   5.758  1.00  0.00     0.031 C 
ATOM     39  C   UNL     1      -0.309 -10.295   7.001  1.00  0.00     0.029 A 
ATOM     40  N   UNL     1       0.885 -12.187   6.967  1.00  0.00    -0.354 N 
ATOM     41  C   UNL     1       5.113 -12.103   5.943  1.00  0.00     0.074 A 
ATOM     42  C   UNL     1       5.536 -10.762   5.607  1.00  0.00     0.031 C 
ATOM     43  C   UNL     1      -1.128 -11.296   7.367  1.00  0.00     0.029 A 
ATOM     44  C   UNL     1      -0.389 -12.555   7.327  1.00  0.00     0.049 A 
ATOM     45  H   UNL     1       1.628 -12.827   6.885  1.00  0.00     0.167 HD
ATOM     46  C   UNL     1       5.928 -13.183   5.946  1.00  0.00     0.031 A 
ATOM     47  C   UNL     1      -0.900 -13.775   7.580  1.00  0.00     0.031 A 
ATOM     48  C   UNL     1       5.486 -14.513   6.270  1.00  0.00     0.049 A 
ATOM     49  C   UNL     1       0.013 -14.970   7.515  1.00  0.00     0.074 A 
ATOM     50  C   UNL     1       6.228 -15.680   6.320  1.00  0.00     0.029 A 
ATOM     51  N   UNL     1       4.179 -14.854   6.590  1.00  0.00    -0.354 N 
ATOM     52  N   UNL     1       1.299 -15.011   7.251  1.00  0.00    -0.248 NA
ATOM     53  C   UNL     1      -0.588 -16.280   7.794  1.00  0.00     0.031 C 
ATOM     54  C   UNL     1       5.357 -16.735   6.608  1.00  0.00     0.029 A 
ATOM     55  C   UNL     1       4.086 -16.218   6.809  1.00  0.00     0.049 A 
ATOM     56  H   UNL     1       3.429 -14.220   6.652  1.00  0.00     0.167 HD
ATOM     57  C   UNL     1       1.665 -16.348   7.358  1.00  0.00     0.074 A 
ATOM     58  C   UNL     1       0.469 -17.078   7.728  1.00  0.00     0.031 C 
ATOM     59  C   UNL     1       2.881 -16.922   7.172  1.00  0.00     0.031 A 
BRANCH  46  60
ATOM     60  C   UNL     1       7.368 -12.974   5.553  1.00  0.00    -0.014 A 
ATOM     61  C   UNL     1       8.259 -12.266   6.381  1.00  0.00     0.010 A 
ATOM     62  C   UNL     1       7.846 -13.525   4.350  1.00  0.00     0.010 A 
ATOM     63  C   UNL     1       9.590 -12.081   5.994  1.00  0.00     0.020 A 
ATOM     64  C   UNL     1       9.183 -13.368   3.974  1.00  0.00     0.020 A 
ATOM     65  C   UNL     1      10.043 -12.633   4.792  1.00  0.00     0.054 A 
BRANCH  65  66
ATOM     66  S   UNL     1      11.781 -12.399   4.329  1.00  0.00     0.124 S 
ATOM     67  O   UNL     1      11.816 -10.978   3.993  1.00  0.00    -0.237 OA
ATOM     68  O   UNL     1      12.491 -12.773   5.550  1.00  0.00    -0.237 OA
ATOM     69  O   UNL     1      11.966 -13.309   3.201  1.00  0.00    -0.744 OA
ENDBRANCH  65  66
ENDBRANCH  46  60
BRANCH  47  70
ATOM     70  C   UNL     1      -2.345 -13.921   7.906  1.00  0.00    -0.014 A 
ATOM     71  C   UNL     1      -2.760 -14.313   9.190  1.00  0.00     0.010 A 
ATOM     72  C   UNL     1      -3.320 -13.652   6.926  1.00  0.00     0.010 A 
ATOM     73  C   UNL     1      -4.120 -14.449   9.484  1.00  0.00     0.020 A 
ATOM     74  C   UNL     1      -4.681 -13.758   7.224  1.00  0.00     0.020 A 
ATOM     75  C   UNL     1      -5.072 -14.167   8.500  1.00  0.00     0.054 A 
BRANCH  75  76
ATOM     76  S   UNL     1      -6.832 -14.303   8.920  1.00  0.00     0.124 S 
ATOM     77  O   UNL     1      -7.009 -15.748   9.022  1.00  0.00    -0.237 OA
ATOM     78  O   UNL     1      -6.913 -13.564  10.177  1.00  0.00    -0.237 OA
ATOM     79  O   UNL     1      -7.504 -13.668   7.788  1.00  0.00    -0.744 OA
ENDBRANCH  75  76
ENDBRANCH  47  70
BRANCH  59  80
ATOM     80  C   UNL     1       2.985 -18.407   7.397  1.00  0.00    -0.014 A 
ATOM     81  C   UNL     1       2.409 -19.325   6.502  1.00  0.00     0.010 A 
ATOM     82  C   UNL     1       3.722 -18.888   8.496  1.00  0.00     0.010 A 
ATOM     83  C   UNL     1       2.539 -20.699   6.721  1.00  0.00     0.020 A 
ATOM     84  C   UNL     1       3.881 -20.260   8.699  1.00  0.00     0.020 A 
ATOM     85  C   UNL     1       3.275 -21.157   7.818  1.00  0.00     0.054 A 
BRANCH  85  86
ATOM     86  S   UNL     1       3.464 -22.945   8.055  1.00  0.00     0.124 S 
ATOM     87  O   UNL     1       2.127 -23.336   8.494  1.00  0.00    -0.237 OA
ATOM     88  O   UNL     1       3.847 -23.405   6.723  1.00  0.00    -0.237 OA
ATOM     89  O   UNL     1       4.510 -23.053   9.070  1.00  0.00    -0.744 OA
ENDBRANCH  85  86
ENDBRANCH  59  80
ENDBRANCH  33  34
ENDBRANCH  26  28
ENDBRANCH  25  26
ENDBRANCH  24  25
ENDBRANCH  23  24
ENDBRANCH  22  23
ENDBRANCH   1  22
TORSDOF 23
