REMARK SMILES C[C@H](NC(=O)c1ccc(C(C)(C)C)cc1)C(=O)N[C@@H](C(=O)OCCOCCOC(=O)c1ccc(-c2c3nc(c(-c4ccc(S(=O)(=O)[O-])cc4)c4ccc([nH]4)c(-c4ccc(S(=O)(=O)[O-])cc4)c4nc(c(-c5ccc(S(=O)(=O)[O-])cc5)c5ccc2[nH]5)C=C4)C=C3)cc1)[C@H](C)O
REMARK SMILES IDX 24 1 23 2 22 3 20 4 21 5 19 6 18 7 16 8 17 9 2 11 1 12 3 13
REMARK SMILES IDX 4 14 5 16 6 17 7 18 15 19 8 20 14 21 9 22 10 23 11 24 12 25
REMARK SMILES IDX 13 26 91 27 92 28 93 29 25 31 26 32 27 33 28 34 29 35 30 36
REMARK SMILES IDX 31 37 32 38 90 39 33 40 89 41 34 42 35 43 36 44 83 45 37 46
REMARK SMILES IDX 88 47 82 48 84 49 38 50 87 51 81 52 80 53 39 55 69 56 50 57
REMARK SMILES IDX 68 58 51 59 54 60 67 61 85 62 52 63 53 64 66 66 86 67 55 68
REMARK SMILES IDX 40 69 41 70 49 71 42 72 48 73 43 74 44 75 45 76 46 77 47 78
REMARK SMILES IDX 70 79 71 80 79 81 72 82 78 83 73 84 74 85 75 86 76 87 77 88
REMARK SMILES IDX 56 89 57 90 65 91 58 92 64 93 59 94 60 95 61 96 62 97 63 98
REMARK H PARENT 18 10 3 15 93 30 84 54 54 65
REMARK Flexibility Score: inf
ROOT
ATOM      1  C   UNL     1       2.481   6.043  -2.844  1.00  0.00     0.202 C 
ENDROOT
BRANCH   1   2
ATOM      2  C   UNL     1       1.010   6.476  -2.855  1.00  0.00     0.261 C 
BRANCH   2   3
ATOM      3  O   UNL     1       0.218   5.627  -2.006  1.00  0.00    -0.462 OA
BRANCH   3   4
ATOM      4  C   UNL     1      -0.798   4.961  -2.616  1.00  0.00     0.331 C 
ATOM      5  O   UNL     1      -1.204   5.168  -3.757  1.00  0.00    -0.250 OA
BRANCH   4   6
ATOM      6  C   UNL     1      -1.335   3.803  -1.763  1.00  0.00     0.221 C 
BRANCH   6   7
ATOM      7  N   UNL     1      -0.688   3.637  -0.445  1.00  0.00    -0.339 N 
ATOM      8  C   UNL     1      -1.187   3.867   0.807  1.00  0.00     0.243 C 
ATOM      9  O   UNL     1      -0.539   3.477   1.779  1.00  0.00    -0.273 OA
ATOM     10  H   UNL     1       0.241   3.312  -0.472  1.00  0.00     0.164 HD
BRANCH   8  11
ATOM     11  C   UNL     1      -2.558   4.549   0.975  1.00  0.00     0.168 C 
ATOM     12  C   UNL     1      -3.669   3.596   0.529  1.00  0.00     0.041 C 
BRANCH  11  13
ATOM     13  N   UNL     1      -2.417   5.846   0.297  1.00  0.00    -0.341 N 
ATOM     14  C   UNL     1      -3.284   6.763  -0.216  1.00  0.00     0.251 C 
ATOM     15  H   UNL     1      -1.476   6.114   0.188  1.00  0.00     0.164 HD
ATOM     16  O   UNL     1      -2.842   7.768  -0.762  1.00  0.00    -0.269 OA
BRANCH  14  17
ATOM     17  C   UNL     1      -4.728   6.504  -0.230  1.00  0.00     0.039 A 
ATOM     18  C   UNL     1      -5.379   6.555  -1.461  1.00  0.00     0.014 A 
ATOM     19  C   UNL     1      -5.432   6.192   0.928  1.00  0.00     0.014 A 
ATOM     20  C   UNL     1      -6.722   6.194  -1.544  1.00  0.00     0.005 A 
ATOM     21  C   UNL     1      -6.775   5.816   0.836  1.00  0.00     0.005 A 
ATOM     22  C   UNL     1      -7.437   5.771  -0.406  1.00  0.00    -0.043 A 
BRANCH  22  23
ATOM     23  C   UNL     1      -8.893   5.297  -0.549  1.00  0.00    -0.013 C 
ATOM     24  C   UNL     1      -9.782   6.509  -0.886  1.00  0.00     0.016 C 
ATOM     25  C   UNL     1      -9.005   4.248  -1.681  1.00  0.00     0.016 C 
ATOM     26  C   UNL     1      -9.453   4.631   0.727  1.00  0.00     0.016 C 
ENDBRANCH  22  23
ENDBRANCH  14  17
ENDBRANCH  11  13
ENDBRANCH   8  11
ENDBRANCH   6   7
BRANCH   6  27
ATOM     27  C   UNL     1      -1.329   2.489  -2.607  1.00  0.00     0.145 C 
ATOM     28  C   UNL     1      -1.183   1.210  -1.786  1.00  0.00     0.041 C 
BRANCH  27  29
ATOM     29  O   UNL     1      -0.278   2.449  -3.577  1.00  0.00    -0.391 OA
ATOM     30  H   UNL     1       0.579   2.423  -3.124  1.00  0.00     0.211 HD
ENDBRANCH  27  29
ENDBRANCH   6  27
ENDBRANCH   4   6
ENDBRANCH   3   4
ENDBRANCH   2   3
ENDBRANCH   1   2
BRANCH   1  31
ATOM     31  O   UNL     1       2.769   4.743  -3.365  1.00  0.00    -0.374 OA
BRANCH  31  32
ATOM     32  C   UNL     1       2.438   3.617  -2.553  1.00  0.00     0.202 C 
BRANCH  32  33
ATOM     33  C   UNL     1       3.350   3.304  -1.363  1.00  0.00     0.261 C 
BRANCH  33  34
ATOM     34  O   UNL     1       3.374   4.371  -0.400  1.00  0.00    -0.460 OA
BRANCH  34  35
ATOM     35  C   UNL     1       4.574   4.991  -0.297  1.00  0.00     0.338 C 
ATOM     36  O   UNL     1       5.615   4.672  -0.858  1.00  0.00    -0.246 OA
BRANCH  35  37
ATOM     37  C   UNL     1       4.455   6.252   0.456  1.00  0.00     0.060 A 
ATOM     38  C   UNL     1       4.960   7.403  -0.161  1.00  0.00     0.016 A 
ATOM     39  C   UNL     1       3.970   6.301   1.765  1.00  0.00     0.016 A 
ATOM     40  C   UNL     1       5.055   8.591   0.555  1.00  0.00     0.010 A 
ATOM     41  C   UNL     1       4.073   7.499   2.486  1.00  0.00     0.010 A 
ATOM     42  C   UNL     1       4.660   8.634   1.898  1.00  0.00    -0.014 A 
BRANCH  42  43
ATOM     43  C   UNL     1       5.022   9.829   2.701  1.00  0.00     0.031 A 
ATOM     44  C   UNL     1       6.262   9.790   3.555  1.00  0.00     0.074 A 
ATOM     45  C   UNL     1       4.312  10.967   2.594  1.00  0.00     0.049 A 
ATOM     46  N   UNL     1       6.822  10.749   4.247  1.00  0.00    -0.248 NA
ATOM     47  C   UNL     1       6.970   8.501   3.634  1.00  0.00     0.031 C 
ATOM     48  C   UNL     1       3.115  11.141   1.772  1.00  0.00     0.029 A 
ATOM     49  N   UNL     1       4.510  12.197   3.168  1.00  0.00    -0.354 N 
ATOM     50  C   UNL     1       7.946  10.184   4.838  1.00  0.00     0.074 A 
ATOM     51  C   UNL     1       7.971   8.790   4.453  1.00  0.00     0.031 C 
ATOM     52  C   UNL     1       2.690  12.411   1.886  1.00  0.00     0.029 A 
ATOM     53  C   UNL     1       3.573  13.133   2.801  1.00  0.00     0.049 A 
ATOM     54  H   UNL     1       5.253  12.391   3.784  1.00  0.00     0.167 HD
ATOM     55  C   UNL     1       8.880  10.774   5.623  1.00  0.00     0.031 A 
ATOM     56  C   UNL     1       3.441  14.425   3.160  1.00  0.00     0.031 A 
ATOM     57  C   UNL     1       8.848  12.157   6.019  1.00  0.00     0.049 A 
ATOM     58  C   UNL     1       4.465  15.045   4.074  1.00  0.00     0.074 A 
ATOM     59  C   UNL     1       9.753  12.849   6.806  1.00  0.00     0.029 A 
ATOM     60  N   UNL     1       7.857  13.059   5.663  1.00  0.00    -0.354 N 
ATOM     61  N   UNL     1       5.537  14.503   4.601  1.00  0.00    -0.248 NA
ATOM     62  C   UNL     1       4.268  16.458   4.428  1.00  0.00     0.031 C 
ATOM     63  C   UNL     1       9.283  14.157   6.965  1.00  0.00     0.029 A 
ATOM     64  C   UNL     1       8.116  14.295   6.231  1.00  0.00     0.049 A 
ATOM     65  H   UNL     1       7.084  12.851   5.090  1.00  0.00     0.167 HD
ATOM     66  C   UNL     1       6.157  15.516   5.326  1.00  0.00     0.074 A 
ATOM     67  C   UNL     1       5.347  16.706   5.158  1.00  0.00     0.031 C 
ATOM     68  C   UNL     1       7.296  15.468   6.061  1.00  0.00     0.031 A 
BRANCH  55  69
ATOM     69  C   UNL     1      10.003   9.909   6.131  1.00  0.00    -0.014 A 
ATOM     70  C   UNL     1      11.028   9.468   5.274  1.00  0.00     0.010 A 
ATOM     71  C   UNL     1      10.050   9.556   7.492  1.00  0.00     0.010 A 
ATOM     72  C   UNL     1      12.058   8.658   5.761  1.00  0.00     0.020 A 
ATOM     73  C   UNL     1      11.092   8.766   7.987  1.00  0.00     0.020 A 
ATOM     74  C   UNL     1      12.080   8.308   7.114  1.00  0.00     0.054 A 
BRANCH  74  75
ATOM     75  S   UNL     1      13.436   7.269   7.725  1.00  0.00     0.124 S 
ATOM     76  O   UNL     1      13.071   5.957   7.197  1.00  0.00    -0.237 OA
ATOM     77  O   UNL     1      14.613   7.885   7.118  1.00  0.00    -0.237 OA
ATOM     78  O   UNL     1      13.347   7.401   9.178  1.00  0.00    -0.744 OA
ENDBRANCH  74  75
ENDBRANCH  55  69
BRANCH  56  79
ATOM     79  C   UNL     1       2.293  15.222   2.650  1.00  0.00    -0.014 A 
ATOM     80  C   UNL     1       2.487  16.246   1.708  1.00  0.00     0.010 A 
ATOM     81  C   UNL     1       0.990  14.951   3.107  1.00  0.00     0.010 A 
ATOM     82  C   UNL     1       1.402  16.996   1.243  1.00  0.00     0.020 A 
ATOM     83  C   UNL     1      -0.100  15.681   2.627  1.00  0.00     0.020 A 
ATOM     84  C   UNL     1       0.114  16.707   1.706  1.00  0.00     0.054 A 
BRANCH  84  85
ATOM     85  S   UNL     1      -1.287  17.657   1.052  1.00  0.00     0.124 S 
ATOM     86  O   UNL     1      -1.145  18.929   1.755  1.00  0.00    -0.237 OA
ATOM     87  O   UNL     1      -1.007  17.692  -0.381  1.00  0.00    -0.237 OA
ATOM     88  O   UNL     1      -2.449  16.857   1.433  1.00  0.00    -0.744 OA
ENDBRANCH  84  85
ENDBRANCH  56  79
BRANCH  68  89
ATOM     89  C   UNL     1       7.752  16.746   6.713  1.00  0.00    -0.014 A 
ATOM     90  C   UNL     1       7.078  17.279   7.826  1.00  0.00     0.010 A 
ATOM     91  C   UNL     1       8.895  17.405   6.223  1.00  0.00     0.010 A 
ATOM     92  C   UNL     1       7.513  18.472   8.411  1.00  0.00     0.020 A 
ATOM     93  C   UNL     1       9.348  18.584   6.821  1.00  0.00     0.020 A 
ATOM     94  C   UNL     1       8.643  19.120   7.900  1.00  0.00     0.054 A 
BRANCH  94  95
ATOM     95  S   UNL     1       9.203  20.656   8.687  1.00  0.00     0.124 S 
ATOM     96  O   UNL     1       8.239  21.627   8.175  1.00  0.00    -0.237 OA
ATOM     97  O   UNL     1       9.090  20.350  10.111  1.00  0.00    -0.237 OA
ATOM     98  O   UNL     1      10.570  20.817   8.197  1.00  0.00    -0.744 OA
ENDBRANCH  94  95
ENDBRANCH  68  89
ENDBRANCH  42  43
ENDBRANCH  35  37
ENDBRANCH  34  35
ENDBRANCH  33  34
ENDBRANCH  32  33
ENDBRANCH  31  32
ENDBRANCH   1  31
TORSDOF 24
