REMARK SMILES O=C(OCCOCCOC(=O)c1cc2c(c(S(=O)(=O)Nc3cc(C(F)(F)F)ccc3-n3cccn3)c1)CCC2)c1ccc(-c2c3nc(c(-c4ccc(S(=O)(=O)[O-])cc4)c4ccc([nH]4)c(-c4ccc(S(=O)(=O)[O-])cc4)c4nc(c(-c5ccc(S(=O)(=O)[O-])cc5)c5ccc2[nH]5)C=C4)C=C3)cc1
REMARK SMILES IDX 7 1 6 2 5 3 4 4 3 5 2 6 1 7 40 8 41 9 99 10 42 11 98 12
REMARK SMILES IDX 43 13 44 14 45 15 92 16 46 17 97 18 91 19 93 20 47 21 96 22
REMARK SMILES IDX 90 23 89 24 48 26 78 27 59 28 77 29 60 30 63 31 76 32 94 33
REMARK SMILES IDX 61 34 62 35 75 37 95 38 64 39 49 40 50 41 58 42 51 43 57 44
REMARK SMILES IDX 52 45 53 46 54 47 55 48 56 49 79 50 80 51 88 52 81 53 87 54
REMARK SMILES IDX 82 55 83 56 84 57 85 58 86 59 65 60 66 61 74 62 67 63 73 64
REMARK SMILES IDX 68 65 69 66 70 67 71 68 72 69 8 70 9 71 10 72 11 73 12 74
REMARK SMILES IDX 13 75 36 76 14 77 16 78 15 79 39 80 37 81 38 82 17 83 18 84
REMARK SMILES IDX 19 85 20 86 21 88 22 89 30 90 23 91 29 92 28 93 31 94 32 95
REMARK SMILES IDX 35 96 33 97 34 98 24 99 25 100 26 101 27 102
REMARK H PARENT 93 25 63 36 20 87
REMARK Flexibility Score: inf
ROOT
ATOM      1  C   UNL     1       3.151  -1.764   0.912  1.00  0.00     0.202 C 
ENDROOT
BRANCH   1   2
ATOM      2  O   UNL     1       4.306  -1.272   0.215  1.00  0.00    -0.374 OA
BRANCH   2   3
ATOM      3  C   UNL     1       4.875  -0.060   0.704  1.00  0.00     0.202 C 
BRANCH   3   4
ATOM      4  C   UNL     1       4.552   1.240  -0.031  1.00  0.00     0.261 C 
BRANCH   4   5
ATOM      5  O   UNL     1       3.154   1.571   0.054  1.00  0.00    -0.460 OA
BRANCH   5   6
ATOM      6  C   UNL     1       2.142   0.850  -0.477  1.00  0.00     0.338 C 
ATOM      7  O   UNL     1       1.072   0.765   0.122  1.00  0.00    -0.246 OA
BRANCH   6   8
ATOM      8  C   UNL     1       2.230   0.358  -1.874  1.00  0.00     0.060 A 
ATOM      9  C   UNL     1       3.409   0.104  -2.572  1.00  0.00     0.016 A 
ATOM     10  C   UNL     1       1.002   0.258  -2.544  1.00  0.00     0.016 A 
ATOM     11  C   UNL     1       3.395   0.083  -3.949  1.00  0.00     0.010 A 
ATOM     12  C   UNL     1       0.971   0.141  -3.917  1.00  0.00     0.010 A 
ATOM     13  C   UNL     1       2.173   0.173  -4.611  1.00  0.00    -0.014 A 
BRANCH  13  14
ATOM     14  C   UNL     1       2.195   0.152  -6.059  1.00  0.00     0.031 A 
ATOM     15  C   UNL     1       2.808  -1.087  -6.609  1.00  0.00     0.074 A 
ATOM     16  C   UNL     1       1.626   1.128  -6.792  1.00  0.00     0.049 A 
ATOM     17  N   UNL     1       3.884  -1.194  -7.314  1.00  0.00    -0.248 NA
ATOM     18  C   UNL     1       2.260  -2.378  -6.152  1.00  0.00     0.031 C 
ATOM     19  C   UNL     1       0.797   2.248  -6.336  1.00  0.00     0.029 A 
ATOM     20  N   UNL     1       1.579   1.258  -8.140  1.00  0.00    -0.354 N 
ATOM     21  C   UNL     1       4.032  -2.553  -7.572  1.00  0.00     0.074 A 
ATOM     22  C   UNL     1       3.120  -3.239  -6.694  1.00  0.00     0.031 C 
ATOM     23  C   UNL     1       0.117   2.757  -7.391  1.00  0.00     0.029 A 
ATOM     24  C   UNL     1       0.579   2.104  -8.604  1.00  0.00     0.049 A 
ATOM     25  H   UNL     1       2.203   0.790  -8.742  1.00  0.00     0.167 HD
ATOM     26  C   UNL     1       4.716  -3.003  -8.659  1.00  0.00     0.031 A 
ATOM     27  C   UNL     1       0.126   2.192  -9.882  1.00  0.00     0.031 A 
ATOM     28  C   UNL     1       5.584  -1.991  -9.198  1.00  0.00     0.049 A 
ATOM     29  C   UNL     1       1.177   1.599 -10.751  1.00  0.00     0.074 A 
ATOM     30  C   UNL     1       6.673  -1.302  -8.703  1.00  0.00     0.029 A 
ATOM     31  N   UNL     1       5.108  -1.245 -10.251  1.00  0.00    -0.354 N 
ATOM     32  N   UNL     1       2.365   2.121 -10.886  1.00  0.00    -0.248 NA
ATOM     33  C   UNL     1       1.085   0.176 -11.049  1.00  0.00     0.031 C 
ATOM     34  C   UNL     1       6.491   0.039  -9.150  1.00  0.00     0.029 A 
ATOM     35  C   UNL     1       5.360   0.075  -9.970  1.00  0.00     0.049 A 
ATOM     36  H   UNL     1       4.667  -1.595 -11.059  1.00  0.00     0.167 HD
ATOM     37  C   UNL     1       3.237   1.041 -10.853  1.00  0.00     0.074 A 
ATOM     38  C   UNL     1       2.385  -0.137 -11.026  1.00  0.00     0.031 C 
ATOM     39  C   UNL     1       4.520   1.175 -10.401  1.00  0.00     0.031 A 
BRANCH  26  40
ATOM     40  C   UNL     1       4.284  -4.217  -9.437  1.00  0.00    -0.014 A 
ATOM     41  C   UNL     1       5.080  -4.680 -10.501  1.00  0.00     0.010 A 
ATOM     42  C   UNL     1       2.986  -4.763  -9.324  1.00  0.00     0.010 A 
ATOM     43  C   UNL     1       4.586  -5.614 -11.424  1.00  0.00     0.020 A 
ATOM     44  C   UNL     1       2.498  -5.721 -10.212  1.00  0.00     0.020 A 
ATOM     45  C   UNL     1       3.294  -6.123 -11.274  1.00  0.00     0.054 A 
BRANCH  45  46
ATOM     46  S   UNL     1       2.641  -7.277 -12.504  1.00  0.00     0.124 S 
ATOM     47  O   UNL     1       2.582  -6.443 -13.700  1.00  0.00    -0.237 OA
ATOM     48  O   UNL     1       3.656  -8.326 -12.511  1.00  0.00    -0.237 OA
ATOM     49  O   UNL     1       1.348  -7.673 -11.951  1.00  0.00    -0.744 OA
ENDBRANCH  45  46
ENDBRANCH  26  40
BRANCH  27  50
ATOM     50  C   UNL     1      -1.283   2.369 -10.331  1.00  0.00    -0.014 A 
ATOM     51  C   UNL     1      -1.597   2.664 -11.672  1.00  0.00     0.010 A 
ATOM     52  C   UNL     1      -2.343   1.963  -9.492  1.00  0.00     0.010 A 
ATOM     53  C   UNL     1      -2.906   2.503 -12.166  1.00  0.00     0.020 A 
ATOM     54  C   UNL     1      -3.648   1.804  -9.975  1.00  0.00     0.020 A 
ATOM     55  C   UNL     1      -3.921   2.052 -11.317  1.00  0.00     0.054 A 
BRANCH  55  56
ATOM     56  S   UNL     1      -5.566   1.672 -11.998  1.00  0.00     0.124 S 
ATOM     57  O   UNL     1      -6.085   2.998 -12.318  1.00  0.00    -0.237 OA
ATOM     58  O   UNL     1      -5.248   0.824 -13.143  1.00  0.00    -0.237 OA
ATOM     59  O   UNL     1      -6.245   0.990 -10.897  1.00  0.00    -0.744 OA
ENDBRANCH  55  56
ENDBRANCH  27  50
BRANCH  39  60
ATOM     60  C   UNL     1       5.049   2.570 -10.135  1.00  0.00    -0.014 A 
ATOM     61  C   UNL     1       4.514   3.453  -9.173  1.00  0.00     0.010 A 
ATOM     62  C   UNL     1       6.239   2.939 -10.785  1.00  0.00     0.010 A 
ATOM     63  C   UNL     1       5.140   4.682  -8.897  1.00  0.00     0.020 A 
ATOM     64  C   UNL     1       6.875   4.149 -10.502  1.00  0.00     0.020 A 
ATOM     65  C   UNL     1       6.318   5.023  -9.569  1.00  0.00     0.054 A 
BRANCH  65  66
ATOM     66  S   UNL     1       7.143   6.598  -9.201  1.00  0.00     0.124 S 
ATOM     67  O   UNL     1       6.202   7.581  -9.729  1.00  0.00    -0.237 OA
ATOM     68  O   UNL     1       7.272   6.568  -7.746  1.00  0.00    -0.237 OA
ATOM     69  O   UNL     1       8.410   6.505  -9.927  1.00  0.00    -0.744 OA
ENDBRANCH  65  66
ENDBRANCH  39  60
ENDBRANCH  13  14
ENDBRANCH   6   8
ENDBRANCH   5   6
ENDBRANCH   4   5
ENDBRANCH   3   4
ENDBRANCH   2   3
ENDBRANCH   1   2
BRANCH   1  70
ATOM     70  C   UNL     1       3.346  -2.348   2.320  1.00  0.00     0.261 C 
BRANCH  70  71
ATOM     71  O   UNL     1       3.603  -1.321   3.299  1.00  0.00    -0.460 OA
BRANCH  71  72
ATOM     72  C   UNL     1       4.895  -1.109   3.650  1.00  0.00     0.338 C 
ATOM     73  O   UNL     1       5.873  -1.768   3.328  1.00  0.00    -0.246 OA
BRANCH  72  74
ATOM     74  C   UNL     1       4.969   0.205   4.326  1.00  0.00     0.061 A 
ATOM     75  C   UNL     1       4.124   0.442   5.402  1.00  0.00     0.019 A 
ATOM     76  C   UNL     1       5.852   1.212   3.853  1.00  0.00     0.038 A 
ATOM     77  C   UNL     1       4.181   1.689   5.982  1.00  0.00    -0.043 A 
ATOM     78  C   UNL     1       5.868   2.507   4.421  1.00  0.00     0.092 A 
ATOM     79  C   UNL     1       4.983   2.737   5.466  1.00  0.00    -0.024 A 
ATOM     80  C   UNL     1       3.448   2.117   7.219  1.00  0.00     0.036 C 
ATOM     81  C   UNL     1       4.638   3.967   6.240  1.00  0.00     0.037 C 
ATOM     82  C   UNL     1       4.298   3.329   7.592  1.00  0.00     0.010 C 
BRANCH  78  83
ATOM     83  S   UNL     1       6.829   3.777   3.609  1.00  0.00     0.262 S 
ATOM     84  O   UNL     1       7.589   3.117   2.563  1.00  0.00    -0.201 OA
ATOM     85  O   UNL     1       5.909   4.838   3.260  1.00  0.00    -0.201 OA
BRANCH  83  86
ATOM     86  N   UNL     1       8.031   4.530   4.572  1.00  0.00    -0.277 N 
ATOM     87  H   UNL     1       8.834   4.882   4.124  1.00  0.00     0.180 HD
BRANCH  86  88
ATOM     88  C   UNL     1       7.930   4.676   5.995  1.00  0.00     0.075 A 
ATOM     89  C   UNL     1       7.489   5.907   6.518  1.00  0.00     0.042 A 
ATOM     90  C   UNL     1       8.141   3.599   6.868  1.00  0.00     0.089 A 
ATOM     91  C   UNL     1       7.153   6.034   7.884  1.00  0.00     0.058 A 
ATOM     92  C   UNL     1       7.844   3.729   8.232  1.00  0.00     0.031 A 
ATOM     93  C   UNL     1       7.353   4.938   8.735  1.00  0.00     0.015 A 
BRANCH  90  94
ATOM     94  N   UNL     1       8.584   2.346   6.387  1.00  0.00    -0.239 N 
ATOM     95  C   UNL     1       9.455   2.096   5.352  1.00  0.00     0.115 A 
ATOM     96  N   UNL     1       8.031   1.199   6.856  1.00  0.00    -0.177 NA
ATOM     97  C   UNL     1       9.283   0.781   4.998  1.00  0.00     0.042 A 
ATOM     98  C   UNL     1       8.362   0.288   5.936  1.00  0.00     0.135 A 
ENDBRANCH  90  94
BRANCH  91  99
ATOM     99  C   UNL     1       6.484   7.292   8.394  1.00  0.00     0.416 C 
ATOM    100  F   UNL     1       7.335   8.348   8.479  1.00  0.00    -0.166 F 
ATOM    101  F   UNL     1       5.459   7.694   7.591  1.00  0.00    -0.166 F 
ATOM    102  F   UNL     1       5.939   7.147   9.635  1.00  0.00    -0.166 F 
ENDBRANCH  91  99
ENDBRANCH  86  88
ENDBRANCH  83  86
ENDBRANCH  78  83
ENDBRANCH  72  74
ENDBRANCH  71  72
ENDBRANCH  70  71
ENDBRANCH   1  70
TORSDOF 22
