REMARK SMILES CN(Cc1ncc(C(=O)OCCOCCOC(=O)c2ccc(-c3c4nc(c(-c5ccc(S(=O)(=O)[O-])cc5)c5ccc([nH]5)c(-c5ccc(S(=O)(=O)[O-])cc5)c5nc(c(-c6ccc(S(=O)(=O)[O-])cc6)c6ccc3[nH]6)C=C5)C=C4)cc2)cn1)S(=O)(=O)c1ccc(Cl)cc1
REMARK SMILES IDX 12 1 11 2 10 3 8 4 9 5 7 6 4 7 5 8 80 9 6 10 79 11 3 12 2 13
REMARK SMILES IDX 1 14 81 15 82 16 83 17 84 18 85 19 90 20 86 21 89 22 87 23
REMARK SMILES IDX 88 24 13 25 14 26 15 27 16 28 17 29 18 30 19 31 20 32 78 33
REMARK SMILES IDX 21 34 77 35 22 36 23 37 24 38 71 39 25 40 76 41 70 42 72 43
REMARK SMILES IDX 26 44 75 45 69 46 68 47 27 49 57 50 38 51 56 52 39 53 42 54
REMARK SMILES IDX 55 55 73 56 40 57 41 58 54 60 74 61 43 62 28 63 29 64 37 65
REMARK SMILES IDX 30 66 36 67 31 68 32 69 33 70 34 71 35 72 58 73 59 74 67 75
REMARK SMILES IDX 60 76 66 77 61 78 62 79 63 80 64 81 65 82 44 83 45 84 53 85
REMARK SMILES IDX 46 86 52 87 47 88 48 89 49 90 50 91 51 92
REMARK H PARENT 72 48 42 59
REMARK Flexibility Score: inf
ROOT
ATOM      1  C   UNL     1      -2.165  -2.816   6.871  1.00  0.00     0.202 C 
ENDROOT
BRANCH   1   2
ATOM      2  C   UNL     1      -3.292  -3.060   5.864  1.00  0.00     0.261 C 
BRANCH   2   3
ATOM      3  O   UNL     1      -2.927  -2.566   4.562  1.00  0.00    -0.460 OA
BRANCH   3   4
ATOM      4  C   UNL     1      -3.607  -1.473   4.147  1.00  0.00     0.341 C 
ATOM      5  O   UNL     1      -4.585  -0.969   4.674  1.00  0.00    -0.246 OA
BRANCH   4   6
ATOM      6  C   UNL     1      -2.913  -0.839   3.021  1.00  0.00     0.096 A 
ATOM      7  C   UNL     1      -1.594   0.507   1.064  1.00  0.00     0.143 A 
ATOM      8  N   UNL     1      -1.395  -0.827   1.158  1.00  0.00    -0.239 NA
ATOM      9  N   UNL     1      -2.434   1.209   1.854  1.00  0.00    -0.239 NA
ATOM     10  C   UNL     1      -2.058  -1.473   2.150  1.00  0.00     0.130 A 
ATOM     11  C   UNL     1      -3.067   0.514   2.824  1.00  0.00     0.130 A 
BRANCH   7  12
ATOM     12  C   UNL     1      -0.829   1.286   0.003  1.00  0.00     0.179 C 
BRANCH  12  13
ATOM     13  N   UNL     1       0.656   1.420   0.158  1.00  0.00    -0.193 NA
ATOM     14  C   UNL     1       1.355   0.145  -0.141  1.00  0.00     0.125 C 
BRANCH  13  15
ATOM     15  S   UNL     1       1.227   2.167   1.579  1.00  0.00     0.243 S 
ATOM     16  O   UNL     1       0.635   1.525   2.732  1.00  0.00    -0.207 OA
ATOM     17  O   UNL     1       2.669   2.264   1.462  1.00  0.00    -0.207 OA
BRANCH  15  18
ATOM     18  C   UNL     1       0.598   3.834   1.490  1.00  0.00     0.082 A 
ATOM     19  C   UNL     1       1.405   4.852   0.967  1.00  0.00     0.023 A 
ATOM     20  C   UNL     1      -0.642   4.143   2.059  1.00  0.00     0.023 A 
ATOM     21  C   UNL     1       0.955   6.176   0.990  1.00  0.00     0.022 A 
ATOM     22  C   UNL     1      -1.097   5.463   2.061  1.00  0.00     0.022 A 
ATOM     23  C   UNL     1      -0.296   6.474   1.531  1.00  0.00     0.041 A 
ATOM     24  Cl  UNL     1      -0.847   8.104   1.564  1.00  0.00    -0.084 Cl
ENDBRANCH  15  18
ENDBRANCH  13  15
ENDBRANCH  12  13
ENDBRANCH   7  12
ENDBRANCH   4   6
ENDBRANCH   3   4
ENDBRANCH   2   3
ENDBRANCH   1   2
BRANCH   1  25
ATOM     25  O   UNL     1      -1.861  -1.442   7.117  1.00  0.00    -0.374 OA
BRANCH  25  26
ATOM     26  C   UNL     1      -0.923  -0.827   6.227  1.00  0.00     0.202 C 
BRANCH  26  27
ATOM     27  C   UNL     1       0.556  -1.112   6.514  1.00  0.00     0.261 C 
BRANCH  27  28
ATOM     28  O   UNL     1       0.903  -2.472   6.192  1.00  0.00    -0.460 OA
BRANCH  28  29
ATOM     29  C   UNL     1       1.161  -3.268   7.258  1.00  0.00     0.338 C 
ATOM     30  O   UNL     1       1.204  -2.937   8.431  1.00  0.00    -0.246 OA
BRANCH  29  31
ATOM     31  C   UNL     1       1.199  -4.680   6.826  1.00  0.00     0.060 A 
ATOM     32  C   UNL     1       0.431  -5.598   7.554  1.00  0.00     0.016 A 
ATOM     33  C   UNL     1       1.997  -5.110   5.764  1.00  0.00     0.016 A 
ATOM     34  C   UNL     1       0.493  -6.957   7.250  1.00  0.00     0.010 A 
ATOM     35  C   UNL     1       2.063  -6.476   5.465  1.00  0.00     0.010 A 
ATOM     36  C   UNL     1       1.335  -7.409   6.226  1.00  0.00    -0.014 A 
BRANCH  36  37
ATOM     37  C   UNL     1       1.543  -8.865   6.033  1.00  0.00     0.031 A 
ATOM     38  C   UNL     1       2.781  -9.510   6.595  1.00  0.00     0.074 A 
ATOM     39  C   UNL     1       0.630  -9.609   5.384  1.00  0.00     0.049 A 
ATOM     40  N   UNL     1       3.170 -10.757   6.522  1.00  0.00    -0.248 NA
ATOM     41  C   UNL     1       3.701  -8.633   7.338  1.00  0.00     0.031 C 
ATOM     42  C   UNL     1      -0.628  -9.110   4.828  1.00  0.00     0.029 A 
ATOM     43  N   UNL     1       0.624 -10.947   5.079  1.00  0.00    -0.354 N 
ATOM     44  C   UNL     1       4.381 -10.815   7.201  1.00  0.00     0.074 A 
ATOM     45  C   UNL     1       4.676  -9.473   7.656  1.00  0.00     0.031 C 
ATOM     46  C   UNL     1      -1.281 -10.129   4.243  1.00  0.00     0.029 A 
ATOM     47  C   UNL     1      -0.474 -11.343   4.354  1.00  0.00     0.049 A 
ATOM     48  H   UNL     1       1.340 -11.565   5.354  1.00  0.00     0.167 HD
ATOM     49  C   UNL     1       5.175 -11.889   7.430  1.00  0.00     0.031 A 
ATOM     50  C   UNL     1      -0.785 -12.542   3.823  1.00  0.00     0.031 A 
ATOM     51  C   UNL     1       4.888 -13.220   6.964  1.00  0.00     0.049 A 
ATOM     52  C   UNL     1       0.148 -13.706   4.028  1.00  0.00     0.074 A 
ATOM     53  C   UNL     1       5.622 -14.377   7.160  1.00  0.00     0.029 A 
ATOM     54  N   UNL     1       3.785 -13.571   6.201  1.00  0.00    -0.354 N 
ATOM     55  N   UNL     1       1.277 -13.750   4.695  1.00  0.00    -0.248 NA
ATOM     56  C   UNL     1      -0.239 -14.984   3.413  1.00  0.00     0.031 C 
ATOM     57  C   UNL     1       4.992 -15.417   6.468  1.00  0.00     0.029 A 
ATOM     58  C   UNL     1       3.833 -14.920   5.893  1.00  0.00     0.049 A 
ATOM     59  H   UNL     1       3.072 -12.953   5.921  1.00  0.00     0.167 HD
ATOM     60  C   UNL     1       1.722 -15.065   4.600  1.00  0.00     0.074 A 
ATOM     61  C   UNL     1       0.735 -15.786   3.824  1.00  0.00     0.031 C 
ATOM     62  C   UNL     1       2.846 -15.625   5.113  1.00  0.00     0.031 A 
BRANCH  49  63
ATOM     63  C   UNL     1       6.452 -11.658   8.193  1.00  0.00    -0.014 A 
ATOM     64  C   UNL     1       6.439 -11.386   9.573  1.00  0.00     0.010 A 
ATOM     65  C   UNL     1       7.687 -11.751   7.525  1.00  0.00     0.010 A 
ATOM     66  C   UNL     1       7.636 -11.173  10.263  1.00  0.00     0.020 A 
ATOM     67  C   UNL     1       8.887 -11.564   8.217  1.00  0.00     0.020 A 
ATOM     68  C   UNL     1       8.852 -11.259   9.579  1.00  0.00     0.054 A 
BRANCH  68  69
ATOM     69  S   UNL     1      10.391 -10.996  10.503  1.00  0.00     0.124 S 
ATOM     70  O   UNL     1      10.370  -9.552  10.719  1.00  0.00    -0.237 OA
ATOM     71  O   UNL     1      10.192 -11.813  11.697  1.00  0.00    -0.237 OA
ATOM     72  O   UNL     1      11.429 -11.474   9.592  1.00  0.00    -0.744 OA
ENDBRANCH  68  69
ENDBRANCH  49  63
BRANCH  50  73
ATOM     73  C   UNL     1      -2.032 -12.697   3.025  1.00  0.00    -0.014 A 
ATOM     74  C   UNL     1      -3.113 -13.447   3.519  1.00  0.00     0.010 A 
ATOM     75  C   UNL     1      -2.143 -12.087   1.762  1.00  0.00     0.010 A 
ATOM     76  C   UNL     1      -4.279 -13.592   2.761  1.00  0.00     0.020 A 
ATOM     77  C   UNL     1      -3.316 -12.207   1.013  1.00  0.00     0.020 A 
ATOM     78  C   UNL     1      -4.374 -12.968   1.513  1.00  0.00     0.054 A 
BRANCH  78  79
ATOM     79  S   UNL     1      -5.919 -13.117   0.573  1.00  0.00     0.124 S 
ATOM     80  O   UNL     1      -5.844 -14.488   0.081  1.00  0.00    -0.237 OA
ATOM     81  O   UNL     1      -6.934 -12.863   1.592  1.00  0.00    -0.237 OA
ATOM     82  O   UNL     1      -5.798 -12.077  -0.447  1.00  0.00    -0.744 OA
ENDBRANCH  78  79
ENDBRANCH  50  73
BRANCH  62  83
ATOM     83  C   UNL     1       3.058 -17.097   4.878  1.00  0.00    -0.014 A 
ATOM     84  C   UNL     1       3.422 -17.589   3.612  1.00  0.00     0.010 A 
ATOM     85  C   UNL     1       2.944 -17.996   5.955  1.00  0.00     0.010 A 
ATOM     86  C   UNL     1       3.637 -18.957   3.421  1.00  0.00     0.020 A 
ATOM     87  C   UNL     1       3.185 -19.360   5.774  1.00  0.00     0.020 A 
ATOM     88  C   UNL     1       3.516 -19.834   4.504  1.00  0.00     0.054 A 
BRANCH  88  89
ATOM     89  S   UNL     1       3.840 -21.599   4.239  1.00  0.00     0.124 S 
ATOM     90  O   UNL     1       2.640 -22.025   3.524  1.00  0.00    -0.237 OA
ATOM     91  O   UNL     1       5.070 -21.586   3.452  1.00  0.00    -0.237 OA
ATOM     92  O   UNL     1       3.980 -22.132   5.593  1.00  0.00    -0.744 OA
ENDBRANCH  88  89
ENDBRANCH  62  83
ENDBRANCH  36  37
ENDBRANCH  29  31
ENDBRANCH  28  29
ENDBRANCH  27  28
ENDBRANCH  26  27
ENDBRANCH  25  26
ENDBRANCH   1  25
TORSDOF 21
