REMARK SMILES O=C(OCCOCCOC(=O)[C@@H]1[C@H](C(=O)Nc2ccc(Cn3cncn3)cc2)[C@@H]2C=C[C@H]1CC2)c1ccc(-c2c3nc(c(-c4ccc(S(=O)(=O)[O-])cc4)c4ccc([nH]4)c(-c4ccc(S(=O)(=O)[O-])cc4)c4nc(c(-c5ccc(S(=O)(=O)[O-])cc5)c5ccc2[nH]5)C=C4)C=C3)cc1
REMARK SMILES IDX 7 1 6 2 5 3 4 4 3 5 2 6 1 7 35 8 36 9 94 10 37 11 93 12
REMARK SMILES IDX 38 13 39 14 40 15 87 16 41 17 92 18 86 19 88 20 42 21 91 22
REMARK SMILES IDX 85 23 84 24 43 26 73 27 54 28 72 29 55 30 58 31 71 32 89 33
REMARK SMILES IDX 56 34 57 35 70 37 90 38 59 39 44 40 45 41 53 42 46 43 52 44
REMARK SMILES IDX 47 45 48 46 49 47 50 48 51 49 74 50 75 51 83 52 76 53 82 54
REMARK SMILES IDX 77 55 78 56 79 57 80 58 81 59 60 60 61 61 69 62 62 63 68 64
REMARK SMILES IDX 63 65 64 66 65 67 66 68 67 69 8 70 9 71 10 72 11 73 12 74
REMARK SMILES IDX 13 75 32 76 29 77 31 78 33 79 30 80 34 81 14 82 15 83 16 84
REMARK SMILES IDX 17 86 18 87 28 88 19 89 27 90 20 91 21 92 22 93 23 94 26 95
REMARK SMILES IDX 24 96 25 97
REMARK H PARENT 88 25 58 36 16 85
REMARK Flexibility Score: inf
ROOT
ATOM      1  C   UNL     1       3.848  -2.228   0.991  1.00  0.00     0.202 C 
ENDROOT
BRANCH   1   2
ATOM      2  O   UNL     1       4.768  -1.446   0.213  1.00  0.00    -0.374 OA
BRANCH   2   3
ATOM      3  C   UNL     1       5.134  -0.185   0.768  1.00  0.00     0.202 C 
BRANCH   3   4
ATOM      4  C   UNL     1       4.677   1.018  -0.047  1.00  0.00     0.261 C 
BRANCH   4   5
ATOM      5  O   UNL     1       3.244   1.169  -0.012  1.00  0.00    -0.460 OA
BRANCH   5   6
ATOM      6  C   UNL     1       2.415   0.180  -0.451  1.00  0.00     0.338 C 
ATOM      7  O   UNL     1       1.531  -0.314   0.212  1.00  0.00    -0.246 OA
BRANCH   6   8
ATOM      8  C   UNL     1       2.367   0.054  -1.902  1.00  0.00     0.060 A 
ATOM      9  C   UNL     1       3.502  -0.103  -2.681  1.00  0.00     0.016 A 
ATOM     10  C   UNL     1       1.089   0.143  -2.466  1.00  0.00     0.016 A 
ATOM     11  C   UNL     1       3.386   0.064  -4.036  1.00  0.00     0.010 A 
ATOM     12  C   UNL     1       0.958   0.227  -3.831  1.00  0.00     0.010 A 
ATOM     13  C   UNL     1       2.118   0.258  -4.597  1.00  0.00    -0.014 A 
BRANCH  13  14
ATOM     14  C   UNL     1       2.080   0.332  -6.039  1.00  0.00     0.031 A 
ATOM     15  C   UNL     1       2.653  -0.857  -6.719  1.00  0.00     0.074 A 
ATOM     16  C   UNL     1       1.510   1.338  -6.714  1.00  0.00     0.049 A 
ATOM     17  N   UNL     1       3.675  -0.913  -7.507  1.00  0.00    -0.248 NA
ATOM     18  C   UNL     1       2.094  -2.166  -6.343  1.00  0.00     0.031 C 
ATOM     19  C   UNL     1       0.637   2.398  -6.208  1.00  0.00     0.029 A 
ATOM     20  N   UNL     1       1.503   1.528  -8.057  1.00  0.00    -0.354 N 
ATOM     21  C   UNL     1       3.799  -2.252  -7.859  1.00  0.00     0.074 A 
ATOM     22  C   UNL     1       2.894  -2.991  -7.015  1.00  0.00     0.031 C 
ATOM     23  C   UNL     1      -0.014   2.953  -7.254  1.00  0.00     0.029 A 
ATOM     24  C   UNL     1       0.507   2.382  -8.487  1.00  0.00     0.049 A 
ATOM     25  H   UNL     1       2.146   1.098  -8.666  1.00  0.00     0.167 HD
ATOM     26  C   UNL     1       4.500  -2.664  -8.948  1.00  0.00     0.031 A 
ATOM     27  C   UNL     1       0.073   2.506  -9.761  1.00  0.00     0.031 A 
ATOM     28  C   UNL     1       5.407  -1.665  -9.436  1.00  0.00     0.049 A 
ATOM     29  C   UNL     1       1.134   1.972 -10.656  1.00  0.00     0.074 A 
ATOM     30  C   UNL     1       6.516  -1.030  -8.912  1.00  0.00     0.029 A 
ATOM     31  N   UNL     1       5.006  -0.903 -10.508  1.00  0.00    -0.354 N 
ATOM     32  N   UNL     1       2.311   2.518 -10.792  1.00  0.00    -0.248 NA
ATOM     33  C   UNL     1       1.042   0.592 -11.111  1.00  0.00     0.031 C 
ATOM     34  C   UNL     1       6.453   0.304  -9.408  1.00  0.00     0.029 A 
ATOM     35  C   UNL     1       5.322   0.403 -10.223  1.00  0.00     0.049 A 
ATOM     36  H   UNL     1       4.572  -1.233 -11.328  1.00  0.00     0.167 HD
ATOM     37  C   UNL     1       3.191   1.458 -10.966  1.00  0.00     0.074 A 
ATOM     38  C   UNL     1       2.339   0.314 -11.277  1.00  0.00     0.031 C 
ATOM     39  C   UNL     1       4.499   1.545 -10.579  1.00  0.00     0.031 A 
BRANCH  26  40
ATOM     40  C   UNL     1       4.095  -3.874  -9.742  1.00  0.00    -0.014 A 
ATOM     41  C   UNL     1       4.957  -4.397 -10.721  1.00  0.00     0.010 A 
ATOM     42  C   UNL     1       2.771  -4.368  -9.715  1.00  0.00     0.010 A 
ATOM     43  C   UNL     1       4.502  -5.349 -11.646  1.00  0.00     0.020 A 
ATOM     44  C   UNL     1       2.323  -5.347 -10.598  1.00  0.00     0.020 A 
ATOM     45  C   UNL     1       3.183  -5.807 -11.583  1.00  0.00     0.054 A 
BRANCH  45  46
ATOM     46  S   UNL     1       2.570  -6.952 -12.842  1.00  0.00     0.124 S 
ATOM     47  O   UNL     1       2.501  -6.092 -14.019  1.00  0.00    -0.237 OA
ATOM     48  O   UNL     1       3.607  -7.979 -12.865  1.00  0.00    -0.237 OA
ATOM     49  O   UNL     1       1.282  -7.389 -12.308  1.00  0.00    -0.744 OA
ENDBRANCH  45  46
ENDBRANCH  26  40
BRANCH  27  50
ATOM     50  C   UNL     1      -1.331   2.713 -10.177  1.00  0.00    -0.014 A 
ATOM     51  C   UNL     1      -1.647   3.096 -11.489  1.00  0.00     0.010 A 
ATOM     52  C   UNL     1      -2.389   2.298  -9.337  1.00  0.00     0.010 A 
ATOM     53  C   UNL     1      -2.969   3.027 -11.957  1.00  0.00     0.020 A 
ATOM     54  C   UNL     1      -3.708   2.241  -9.789  1.00  0.00     0.020 A 
ATOM     55  C   UNL     1      -3.989   2.587 -11.107  1.00  0.00     0.054 A 
BRANCH  55  56
ATOM     56  S   UNL     1      -5.662   2.352 -11.767  1.00  0.00     0.124 S 
ATOM     57  O   UNL     1      -6.106   3.726 -11.979  1.00  0.00    -0.237 OA
ATOM     58  O   UNL     1      -5.418   1.571 -12.976  1.00  0.00    -0.237 OA
ATOM     59  O   UNL     1      -6.357   1.633 -10.699  1.00  0.00    -0.744 OA
ENDBRANCH  55  56
ENDBRANCH  27  50
BRANCH  39  60
ATOM     60  C   UNL     1       5.045   2.910 -10.210  1.00  0.00    -0.014 A 
ATOM     61  C   UNL     1       4.520   3.684  -9.155  1.00  0.00     0.010 A 
ATOM     62  C   UNL     1       6.218   3.359 -10.843  1.00  0.00     0.010 A 
ATOM     63  C   UNL     1       5.130   4.886  -8.768  1.00  0.00     0.020 A 
ATOM     64  C   UNL     1       6.843   4.548 -10.449  1.00  0.00     0.020 A 
ATOM     65  C   UNL     1       6.290   5.311  -9.419  1.00  0.00     0.054 A 
BRANCH  65  66
ATOM     66  S   UNL     1       7.107   6.836  -8.868  1.00  0.00     0.124 S 
ATOM     67  O   UNL     1       6.192   7.873  -9.334  1.00  0.00    -0.237 OA
ATOM     68  O   UNL     1       7.178   6.664  -7.419  1.00  0.00    -0.237 OA
ATOM     69  O   UNL     1       8.402   6.802  -9.549  1.00  0.00    -0.744 OA
ENDBRANCH  65  66
ENDBRANCH  39  60
ENDBRANCH  13  14
ENDBRANCH   6   8
ENDBRANCH   5   6
ENDBRANCH   4   5
ENDBRANCH   3   4
ENDBRANCH   2   3
ENDBRANCH   1   2
BRANCH   1  70
ATOM     70  C   UNL     1       4.370  -2.774   2.320  1.00  0.00     0.261 C 
BRANCH  70  71
ATOM     71  O   UNL     1       4.167  -1.809   3.381  1.00  0.00    -0.463 OA
BRANCH  71  72
ATOM     72  C   UNL     1       5.244  -1.108   3.786  1.00  0.00     0.310 C 
ATOM     73  O   UNL     1       6.370  -1.240   3.316  1.00  0.00    -0.252 OA
BRANCH  72  74
ATOM     74  C   UNL     1       4.961  -0.077   4.854  1.00  0.00     0.119 C 
ATOM     75  C   UNL     1       3.813  -0.238   5.871  1.00  0.00     0.100 C 
ATOM     76  C   UNL     1       5.106   1.427   4.430  1.00  0.00     0.026 C 
ATOM     77  C   UNL     1       3.455   1.166   6.442  1.00  0.00     0.025 C 
ATOM     78  C   UNL     1       3.782   2.157   4.291  1.00  0.00    -0.027 C 
ATOM     79  C   UNL     1       5.709   2.148   5.660  1.00  0.00     0.009 C 
ATOM     80  C   UNL     1       2.943   2.041   5.336  1.00  0.00    -0.027 C 
ATOM     81  C   UNL     1       4.787   1.870   6.892  1.00  0.00     0.009 C 
BRANCH  75  82
ATOM     82  C   UNL     1       2.688  -1.280   5.677  1.00  0.00     0.228 C 
ATOM     83  O   UNL     1       2.838  -2.374   6.252  1.00  0.00    -0.274 OA
ATOM     84  N   UNL     1       1.490  -1.136   5.051  1.00  0.00    -0.326 N 
ATOM     85  H   UNL     1       0.846  -1.829   5.322  1.00  0.00     0.169 HD
BRANCH  84  86
ATOM     86  C   UNL     1       0.944  -0.247   4.117  1.00  0.00     0.041 A 
ATOM     87  C   UNL     1      -0.444  -0.070   4.081  1.00  0.00     0.026 A 
ATOM     88  C   UNL     1       1.695   0.425   3.179  1.00  0.00     0.026 A 
ATOM     89  C   UNL     1      -1.033   0.885   3.230  1.00  0.00     0.008 A 
ATOM     90  C   UNL     1       1.127   1.423   2.379  1.00  0.00     0.008 A 
ATOM     91  C   UNL     1      -0.241   1.675   2.393  1.00  0.00    -0.026 A 
BRANCH  91  92
ATOM     92  C   UNL     1      -0.789   2.773   1.518  1.00  0.00     0.181 C 
BRANCH  92  93
ATOM     93  N   UNL     1      -1.237   2.321   0.213  1.00  0.00    -0.249 N 
ATOM     94  C   UNL     1      -2.329   1.558  -0.068  1.00  0.00     0.220 A 
ATOM     95  N   UNL     1      -0.735   2.865  -0.916  1.00  0.00    -0.160 NA
ATOM     96  N   UNL     1      -2.543   1.550  -1.363  1.00  0.00    -0.224 NA
ATOM     97  C   UNL     1      -1.554   2.359  -1.843  1.00  0.00     0.246 A 
ENDBRANCH  92  93
ENDBRANCH  91  92
ENDBRANCH  84  86
ENDBRANCH  75  82
ENDBRANCH  72  74
ENDBRANCH  71  72
ENDBRANCH  70  71
ENDBRANCH   1  70
TORSDOF 21
