REMARK SMILES Cc1ccc(C)c([C@@H](O)[C@@H](C)[C@@H](C)C(=O)OCCOCCOC(=O)c2ccc(-c3c4nc(c(-c5ccc(S(=O)(=O)[O-])cc5)c5ccc([nH]5)c(-c5ccc(S(=O)(=O)[O-])cc5)c5nc(c(-c6ccc(S(=O)(=O)[O-])cc6)c6ccc3[nH]6)C=C5)C=C4)cc2)c1
REMARK SMILES IDX 19 1 18 2 17 3 16 4 14 5 15 6 12 7 13 8 10 9 11 10 8 11 7 12
REMARK SMILES IDX 1 13 2 14 3 15 85 16 4 17 5 18 6 19 9 20 20 22 21 23 22 24
REMARK SMILES IDX 23 25 24 26 25 27 26 28 84 29 27 30 83 31 28 32 29 33 30 34
REMARK SMILES IDX 77 35 31 36 82 37 76 38 78 39 32 40 81 41 75 42 74 43 33 45
REMARK SMILES IDX 63 46 44 47 62 48 45 49 48 50 61 51 79 52 46 53 47 54 60 56
REMARK SMILES IDX 80 57 49 58 34 59 35 60 43 61 36 62 42 63 37 64 38 65 39 66
REMARK SMILES IDX 40 67 41 68 64 69 65 70 73 71 66 72 72 73 67 74 68 75 69 76
REMARK SMILES IDX 70 77 71 78 50 79 51 80 59 81 52 82 58 83 53 84 54 85 55 86
REMARK SMILES IDX 56 87 57 88
REMARK H PARENT 9 21 78 44 48 55
REMARK Flexibility Score: inf
ROOT
ATOM      1  O   UNL     1      -3.764   2.292   4.444  1.00  0.00    -0.374 OA
ENDROOT
BRANCH   1   2
ATOM      2  C   UNL     1      -4.232   1.123   3.799  1.00  0.00     0.202 C 
BRANCH   2   3
ATOM      3  C   UNL     1      -5.253   1.539   2.720  1.00  0.00     0.261 C 
BRANCH   3   4
ATOM      4  O   UNL     1      -4.638   1.752   1.433  1.00  0.00    -0.463 OA
BRANCH   4   5
ATOM      5  C   UNL     1      -3.788   2.812   1.366  1.00  0.00     0.309 C 
ATOM      6  O   UNL     1      -3.500   3.534   2.293  1.00  0.00    -0.252 OA
BRANCH   5   7
ATOM      7  C   UNL     1      -3.040   2.882   0.044  1.00  0.00     0.102 C 
ATOM      8  C   UNL     1      -4.020   2.806  -1.120  1.00  0.00     0.020 C 
BRANCH   7   9
ATOM      9  C   UNL     1      -1.924   1.837   0.161  1.00  0.00     0.033 C 
ATOM     10  C   UNL     1      -1.031   2.148   1.393  1.00  0.00     0.011 C 
BRANCH   9  11
ATOM     11  C   UNL     1      -1.038   1.640  -1.085  1.00  0.00     0.148 C 
BRANCH  11  12
ATOM     12  C   UNL     1      -0.264   0.341  -0.911  1.00  0.00    -0.016 A 
ATOM     13  C   UNL     1       3.351  -0.475  -0.016  1.00  0.00     0.044 C 
ATOM     14  C   UNL     1       1.887  -0.636  -0.287  1.00  0.00    -0.051 A 
ATOM     15  C   UNL     1       1.261  -1.871  -0.113  1.00  0.00     0.004 A 
ATOM     16  C   UNL     1       1.126   0.453  -0.713  1.00  0.00     0.010 A 
ATOM     17  C   UNL     1      -0.105  -2.013  -0.357  1.00  0.00     0.004 A 
ATOM     18  C   UNL     1      -0.885  -0.924  -0.770  1.00  0.00    -0.045 A 
ATOM     19  C   UNL     1      -2.368  -1.164  -0.930  1.00  0.00     0.045 C 
ENDBRANCH  11  12
BRANCH  11  20
ATOM     20  O   UNL     1      -1.754   1.556  -2.303  1.00  0.00    -0.388 OA
ATOM     21  H   UNL     1      -2.338   0.782  -2.282  1.00  0.00     0.211 HD
ENDBRANCH  11  20
ENDBRANCH   9  11
ENDBRANCH   7   9
ENDBRANCH   5   7
ENDBRANCH   4   5
ENDBRANCH   3   4
ENDBRANCH   2   3
ENDBRANCH   1   2
BRANCH   1  22
ATOM     22  C   UNL     1      -2.468   2.297   5.010  1.00  0.00     0.202 C 
BRANCH  22  23
ATOM     23  C   UNL     1      -2.524   2.014   6.513  1.00  0.00     0.261 C 
BRANCH  23  24
ATOM     24  O   UNL     1      -3.300   2.948   7.302  1.00  0.00    -0.460 OA
BRANCH  24  25
ATOM     25  C   UNL     1      -4.617   3.078   6.976  1.00  0.00     0.338 C 
ATOM     26  O   UNL     1      -5.499   2.331   7.367  1.00  0.00    -0.246 OA
BRANCH  25  27
ATOM     27  C   UNL     1      -4.806   4.231   6.050  1.00  0.00     0.060 A 
ATOM     28  C   UNL     1      -5.923   4.256   5.205  1.00  0.00     0.016 A 
ATOM     29  C   UNL     1      -3.745   5.122   5.841  1.00  0.00     0.016 A 
ATOM     30  C   UNL     1      -5.921   5.099   4.090  1.00  0.00     0.010 A 
ATOM     31  C   UNL     1      -3.710   5.894   4.691  1.00  0.00     0.010 A 
ATOM     32  C   UNL     1      -4.794   5.885   3.806  1.00  0.00    -0.014 A 
BRANCH  32  33
ATOM     33  C   UNL     1      -4.888   7.000   2.854  1.00  0.00     0.031 A 
ATOM     34  C   UNL     1      -5.596   8.126   3.461  1.00  0.00     0.074 A 
ATOM     35  C   UNL     1      -4.349   7.167   1.631  1.00  0.00     0.049 A 
ATOM     36  N   UNL     1      -6.813   8.453   3.195  1.00  0.00    -0.248 NA
ATOM     37  C   UNL     1      -4.988   8.832   4.597  1.00  0.00     0.031 C 
ATOM     38  C   UNL     1      -3.596   6.185   0.899  1.00  0.00     0.029 A 
ATOM     39  N   UNL     1      -4.300   8.245   0.785  1.00  0.00    -0.354 N 
ATOM     40  C   UNL     1      -7.022   9.591   3.936  1.00  0.00     0.074 A 
ATOM     41  C   UNL     1      -5.997   9.625   4.954  1.00  0.00     0.031 C 
ATOM     42  C   UNL     1      -2.948   6.719  -0.148  1.00  0.00     0.029 A 
ATOM     43  C   UNL     1      -3.387   8.091  -0.257  1.00  0.00     0.049 A 
ATOM     44  H   UNL     1      -4.856   9.049   0.902  1.00  0.00     0.167 HD
ATOM     45  C   UNL     1      -7.753  10.609   3.422  1.00  0.00     0.031 A 
ATOM     46  C   UNL     1      -3.064   8.926  -1.268  1.00  0.00     0.031 A 
ATOM     47  C   UNL     1      -8.517  10.226   2.265  1.00  0.00     0.049 A 
ATOM     48  C   UNL     1      -4.268   9.732  -1.538  1.00  0.00     0.074 A 
ATOM     49  C   UNL     1      -9.540   9.332   2.029  1.00  0.00     0.029 A 
ATOM     50  N   UNL     1      -7.954  10.530   1.047  1.00  0.00    -0.354 N 
ATOM     51  N   UNL     1      -5.363   9.225  -2.038  1.00  0.00    -0.248 NA
ATOM     52  C   UNL     1      -4.413  11.039  -0.915  1.00  0.00     0.031 C 
ATOM     53  C   UNL     1      -9.423   8.940   0.666  1.00  0.00     0.029 A 
ATOM     54  C   UNL     1      -8.341   9.614   0.097  1.00  0.00     0.049 A 
ATOM     55  H   UNL     1      -7.357  11.294   0.879  1.00  0.00     0.167 HD
ATOM     56  C   UNL     1      -6.378   9.917  -1.402  1.00  0.00     0.074 A 
ATOM     57  C   UNL     1      -5.746  11.114  -0.867  1.00  0.00     0.031 C 
ATOM     58  C   UNL     1      -7.564   9.318  -1.097  1.00  0.00     0.031 A 
BRANCH  45  59
ATOM     59  C   UNL     1      -7.379  12.024   3.722  1.00  0.00    -0.014 A 
ATOM     60  C   UNL     1      -8.336  13.036   3.597  1.00  0.00     0.010 A 
ATOM     61  C   UNL     1      -6.034  12.403   3.940  1.00  0.00     0.010 A 
ATOM     62  C   UNL     1      -7.963  14.378   3.725  1.00  0.00     0.020 A 
ATOM     63  C   UNL     1      -5.662  13.728   4.124  1.00  0.00     0.020 A 
ATOM     64  C   UNL     1      -6.631  14.712   3.997  1.00  0.00     0.054 A 
BRANCH  64  65
ATOM     65  S   UNL     1      -6.159  16.448   4.148  1.00  0.00     0.124 S 
ATOM     66  O   UNL     1      -6.236  16.898   2.762  1.00  0.00    -0.237 OA
ATOM     67  O   UNL     1      -7.183  16.973   5.046  1.00  0.00    -0.237 OA
ATOM     68  O   UNL     1      -4.814  16.387   4.715  1.00  0.00    -0.744 OA
ENDBRANCH  64  65
ENDBRANCH  45  59
BRANCH  46  69
ATOM     69  C   UNL     1      -1.754   9.068  -1.950  1.00  0.00    -0.014 A 
ATOM     70  C   UNL     1      -1.614   9.839  -3.116  1.00  0.00     0.010 A 
ATOM     71  C   UNL     1      -0.572   8.654  -1.295  1.00  0.00     0.010 A 
ATOM     72  C   UNL     1      -0.347  10.265  -3.552  1.00  0.00     0.020 A 
ATOM     73  C   UNL     1       0.695   9.063  -1.730  1.00  0.00     0.020 A 
ATOM     74  C   UNL     1       0.797   9.900  -2.836  1.00  0.00     0.054 A 
BRANCH  74  75
ATOM     75  S   UNL     1       2.396  10.655  -3.259  1.00  0.00     0.124 S 
ATOM     76  O   UNL     1       2.736   9.987  -4.511  1.00  0.00    -0.237 OA
ATOM     77  O   UNL     1       2.057  12.072  -3.369  1.00  0.00    -0.237 OA
ATOM     78  O   UNL     1       3.249  10.315  -2.121  1.00  0.00    -0.744 OA
ENDBRANCH  74  75
ENDBRANCH  46  69
BRANCH  58  79
ATOM     79  C   UNL     1      -8.014   8.146  -1.937  1.00  0.00    -0.014 A 
ATOM     80  C   UNL     1      -7.378   6.891  -1.958  1.00  0.00     0.010 A 
ATOM     81  C   UNL     1      -9.230   8.294  -2.632  1.00  0.00     0.010 A 
ATOM     82  C   UNL     1      -7.952   5.812  -2.652  1.00  0.00     0.020 A 
ATOM     83  C   UNL     1      -9.813   7.222  -3.311  1.00  0.00     0.020 A 
ATOM     84  C   UNL     1      -9.172   5.983  -3.318  1.00  0.00     0.054 A 
BRANCH  84  85
ATOM     85  S   UNL     1      -9.964   4.562  -4.127  1.00  0.00     0.124 S 
ATOM     86  O   UNL     1      -9.122   4.357  -5.302  1.00  0.00    -0.237 OA
ATOM     87  O   UNL     1      -9.886   3.520  -3.106  1.00  0.00    -0.237 OA
ATOM     88  O   UNL     1     -11.319   5.035  -4.413  1.00  0.00    -0.744 OA
ENDBRANCH  84  85
ENDBRANCH  58  79
ENDBRANCH  32  33
ENDBRANCH  25  27
ENDBRANCH  24  25
ENDBRANCH  23  24
ENDBRANCH  22  23
ENDBRANCH   1  22
TORSDOF 21
