REMARK SMILES Cc1ccc(S(=O)(=O)n2cc(C(=O)C(=O)NCC(=O)OCCOCCOC(=O)c3ccc(-c4c5nc(c(-c6ccc(S(=O)(=O)[O-])cc6)c6ccc([nH]6)c(-c6ccc(S(=O)(=O)[O-])cc6)c6nc(c(-c7ccc(S(=O)(=O)[O-])cc7)c7ccc4[nH]7)C=C6)C=C5)cc3)c3ccccc32)cc1
REMARK SMILES IDX 22 1 21 2 20 3 18 4 19 5 17 6 16 7 14 8 15 9 12 11 13 12
REMARK SMILES IDX 11 13 9 14 10 15 94 16 89 17 93 18 90 19 92 20 91 21 6 22
REMARK SMILES IDX 7 23 8 24 5 25 1 26 2 27 3 28 96 29 4 30 95 31 23 32 24 33
REMARK SMILES IDX 25 34 26 35 27 36 28 37 29 38 30 39 88 40 31 41 87 42 32 43
REMARK SMILES IDX 33 44 34 45 81 46 35 47 86 48 80 49 82 50 36 51 85 52 79 53
REMARK SMILES IDX 78 54 37 56 67 57 48 58 66 59 49 60 52 61 65 62 83 63 50 64
REMARK SMILES IDX 51 65 64 67 84 68 53 69 38 70 39 71 47 72 40 73 46 74 41 75
REMARK SMILES IDX 42 76 43 77 44 78 45 79 68 80 69 81 77 82 70 83 76 84 71 85
REMARK SMILES IDX 72 86 73 87 74 88 75 89 54 90 55 91 63 92 56 93 62 94 57 95
REMARK SMILES IDX 58 96 59 97 60 98 61 99
REMARK H PARENT 16 10 82 55 52 66
REMARK Flexibility Score: inf
ROOT
ATOM      1  C   UNL     1     -10.123   4.311   3.390  1.00  0.00     0.202 C 
ENDROOT
BRANCH   1   2
ATOM      2  C   UNL     1      -9.780   4.832   2.022  1.00  0.00     0.261 C 
BRANCH   2   3
ATOM      3  O   UNL     1      -8.437   5.348   1.995  1.00  0.00    -0.462 OA
BRANCH   3   4
ATOM      4  C   UNL     1      -8.156   6.522   2.635  1.00  0.00     0.325 C 
ATOM      5  O   UNL     1      -8.836   7.537   2.637  1.00  0.00    -0.250 OA
BRANCH   4   6
ATOM      6  C   UNL     1      -6.818   6.426   3.353  1.00  0.00     0.239 C 
BRANCH   6   7
ATOM      7  N   UNL     1      -6.509   5.038   3.687  1.00  0.00    -0.338 N 
ATOM      8  C   UNL     1      -6.109   4.037   2.828  1.00  0.00     0.292 C 
ATOM      9  O   UNL     1      -6.103   2.883   3.244  1.00  0.00    -0.265 OA
ATOM     10  H   UNL     1      -6.596   4.789   4.636  1.00  0.00     0.164 HD
BRANCH   8  11
ATOM     11  C   UNL     1      -5.673   4.383   1.375  1.00  0.00     0.252 C 
ATOM     12  O   UNL     1      -5.798   5.537   0.977  1.00  0.00    -0.283 OA
BRANCH  11  13
ATOM     13  C   UNL     1      -5.034   3.386   0.512  1.00  0.00     0.054 A 
ATOM     14  N   UNL     1      -4.140   1.499  -0.262  1.00  0.00    -0.240 N 
ATOM     15  C   UNL     1      -4.837   2.045   0.780  1.00  0.00     0.117 A 
ATOM     16  C   UNL     1      -3.873   2.438  -1.235  1.00  0.00     0.065 A 
ATOM     17  C   UNL     1      -4.439   3.635  -0.775  1.00  0.00     0.012 A 
ATOM     18  C   UNL     1      -3.163   2.375  -2.448  1.00  0.00     0.028 A 
ATOM     19  C   UNL     1      -4.303   4.794  -1.570  1.00  0.00     0.011 A 
ATOM     20  C   UNL     1      -3.019   3.549  -3.194  1.00  0.00     0.002 A 
ATOM     21  C   UNL     1      -3.586   4.742  -2.767  1.00  0.00     0.001 A 
BRANCH  14  22
ATOM     22  S   UNL     1      -3.529  -0.086  -0.230  1.00  0.00     0.268 S 
ATOM     23  O   UNL     1      -3.790  -0.631  -1.555  1.00  0.00    -0.201 OA
ATOM     24  O   UNL     1      -4.043  -0.704   0.971  1.00  0.00    -0.201 OA
BRANCH  22  25
ATOM     25  C   UNL     1      -1.766   0.010  -0.044  1.00  0.00     0.088 A 
ATOM     26  C   UNL     1       2.530  -0.028   0.033  1.00  0.00     0.044 C 
ATOM     27  C   UNL     1       1.031  -0.009   0.042  1.00  0.00    -0.051 A 
ATOM     28  C   UNL     1       0.321  -1.212  -0.043  1.00  0.00     0.005 A 
ATOM     29  C   UNL     1       0.326   1.199   0.127  1.00  0.00     0.005 A 
ATOM     30  C   UNL     1      -1.073  -1.204  -0.090  1.00  0.00     0.022 A 
ATOM     31  C   UNL     1      -1.071   1.212   0.099  1.00  0.00     0.022 A 
ENDBRANCH  22  25
ENDBRANCH  14  22
ENDBRANCH  11  13
ENDBRANCH   8  11
ENDBRANCH   6   7
ENDBRANCH   4   6
ENDBRANCH   3   4
ENDBRANCH   2   3
ENDBRANCH   1   2
BRANCH   1  32
ATOM     32  O   UNL     1     -10.100   5.445   4.257  1.00  0.00    -0.374 OA
BRANCH  32  33
ATOM     33  C   UNL     1     -10.298   5.194   5.631  1.00  0.00     0.202 C 
BRANCH  33  34
ATOM     34  C   UNL     1     -11.535   4.348   5.960  1.00  0.00     0.261 C 
BRANCH  34  35
ATOM     35  O   UNL     1     -12.755   5.110   5.825  1.00  0.00    -0.460 OA
BRANCH  35  36
ATOM     36  C   UNL     1     -13.520   4.841   4.724  1.00  0.00     0.338 C 
ATOM     37  O   UNL     1     -14.312   3.918   4.661  1.00  0.00    -0.246 OA
BRANCH  36  38
ATOM     38  C   UNL     1     -13.287   5.866   3.667  1.00  0.00     0.060 A 
ATOM     39  C   UNL     1     -13.631   5.642   2.322  1.00  0.00     0.016 A 
ATOM     40  C   UNL     1     -12.549   6.992   4.008  1.00  0.00     0.016 A 
ATOM     41  C   UNL     1     -13.112   6.471   1.308  1.00  0.00     0.010 A 
ATOM     42  C   UNL     1     -11.947   7.721   3.009  1.00  0.00     0.010 A 
ATOM     43  C   UNL     1     -12.210   7.473   1.651  1.00  0.00    -0.014 A 
BRANCH  43  44
ATOM     44  C   UNL     1     -11.448   8.353   0.756  1.00  0.00     0.031 A 
ATOM     45  C   UNL     1     -11.684   9.815   0.913  1.00  0.00     0.074 A 
ATOM     46  C   UNL     1     -10.324   7.919   0.126  1.00  0.00     0.049 A 
ATOM     47  N   UNL     1     -11.083  10.718   0.228  1.00  0.00    -0.248 NA
ATOM     48  C   UNL     1     -12.635  10.395   1.868  1.00  0.00     0.031 C 
ATOM     49  C   UNL     1      -9.124   8.697  -0.204  1.00  0.00     0.029 A 
ATOM     50  N   UNL     1      -9.989   6.647  -0.353  1.00  0.00    -0.354 N 
ATOM     51  C   UNL     1     -11.274  11.927   0.855  1.00  0.00     0.074 A 
ATOM     52  C   UNL     1     -12.317  11.693   1.818  1.00  0.00     0.031 C 
ATOM     53  C   UNL     1      -8.347   7.998  -1.052  1.00  0.00     0.029 A 
ATOM     54  C   UNL     1      -9.092   6.808  -1.421  1.00  0.00     0.049 A 
ATOM     55  H   UNL     1     -10.324   5.790  -0.002  1.00  0.00     0.167 HD
ATOM     56  C   UNL     1     -10.424  12.944   0.546  1.00  0.00     0.031 A 
ATOM     57  C   UNL     1      -9.419   6.393  -2.675  1.00  0.00     0.031 A 
ATOM     58  C   UNL     1      -9.524  12.546  -0.541  1.00  0.00     0.049 A 
ATOM     59  C   UNL     1      -9.487   7.595  -3.575  1.00  0.00     0.074 A 
ATOM     60  C   UNL     1      -8.192  12.172  -0.590  1.00  0.00     0.029 A 
ATOM     61  N   UNL     1     -10.086  12.159  -1.753  1.00  0.00    -0.354 N 
ATOM     62  N   UNL     1      -9.679   8.802  -3.118  1.00  0.00    -0.248 NA
ATOM     63  C   UNL     1      -9.248   7.575  -5.012  1.00  0.00     0.031 C 
ATOM     64  C   UNL     1      -7.978  11.502  -1.829  1.00  0.00     0.029 A 
ATOM     65  C   UNL     1      -9.168  11.498  -2.541  1.00  0.00     0.049 A 
ATOM     66  H   UNL     1     -11.019  12.335  -2.014  1.00  0.00     0.167 HD
ATOM     67  C   UNL     1      -9.504   9.708  -4.117  1.00  0.00     0.074 A 
ATOM     68  C   UNL     1      -9.278   8.890  -5.298  1.00  0.00     0.031 C 
ATOM     69  C   UNL     1      -9.539  11.050  -3.882  1.00  0.00     0.031 A 
BRANCH  56  70
ATOM     70  C   UNL     1     -10.265  14.239   1.309  1.00  0.00    -0.014 A 
ATOM     71  C   UNL     1      -9.149  15.056   1.028  1.00  0.00     0.010 A 
ATOM     72  C   UNL     1     -11.134  14.707   2.314  1.00  0.00     0.010 A 
ATOM     73  C   UNL     1      -8.902  16.253   1.715  1.00  0.00     0.020 A 
ATOM     74  C   UNL     1     -10.899  15.904   3.014  1.00  0.00     0.020 A 
ATOM     75  C   UNL     1      -9.781  16.671   2.708  1.00  0.00     0.054 A 
BRANCH  75  76
ATOM     76  S   UNL     1      -9.450  18.228   3.570  1.00  0.00     0.124 S 
ATOM     77  O   UNL     1      -8.148  17.977   4.182  1.00  0.00    -0.237 OA
ATOM     78  O   UNL     1      -9.456  19.199   2.479  1.00  0.00    -0.237 OA
ATOM     79  O   UNL     1     -10.561  18.349   4.512  1.00  0.00    -0.744 OA
ENDBRANCH  75  76
ENDBRANCH  56  70
BRANCH  57  80
ATOM     80  C   UNL     1     -10.293   5.174  -2.652  1.00  0.00    -0.014 A 
ATOM     81  C   UNL     1      -9.675   3.962  -2.251  1.00  0.00     0.010 A 
ATOM     82  C   UNL     1     -11.682   5.304  -2.468  1.00  0.00     0.010 A 
ATOM     83  C   UNL     1     -10.381   3.005  -1.507  1.00  0.00     0.020 A 
ATOM     84  C   UNL     1     -12.391   4.343  -1.724  1.00  0.00     0.020 A 
ATOM     85  C   UNL     1     -11.720   3.236  -1.193  1.00  0.00     0.054 A 
BRANCH  85  86
ATOM     86  S   UNL     1     -12.494   2.214   0.107  1.00  0.00     0.124 S 
ATOM     87  O   UNL     1     -12.633   0.921  -0.552  1.00  0.00    -0.237 OA
ATOM     88  O   UNL     1     -11.505   2.266   1.184  1.00  0.00    -0.237 OA
ATOM     89  O   UNL     1     -13.743   2.913   0.394  1.00  0.00    -0.744 OA
ENDBRANCH  85  86
ENDBRANCH  57  80
BRANCH  69  90
ATOM     90  C   UNL     1      -9.887  12.084  -4.920  1.00  0.00    -0.014 A 
ATOM     91  C   UNL     1     -10.363  11.767  -6.199  1.00  0.00     0.010 A 
ATOM     92  C   UNL     1      -9.896  13.453  -4.555  1.00  0.00     0.010 A 
ATOM     93  C   UNL     1     -10.748  12.763  -7.097  1.00  0.00     0.020 A 
ATOM     94  C   UNL     1     -10.346  14.451  -5.417  1.00  0.00     0.020 A 
ATOM     95  C   UNL     1     -10.735  14.098  -6.701  1.00  0.00     0.054 A 
BRANCH  95  96
ATOM     96  S   UNL     1     -11.257  15.357  -7.880  1.00  0.00     0.124 S 
ATOM     97  O   UNL     1     -10.097  15.432  -8.764  1.00  0.00    -0.237 OA
ATOM     98  O   UNL     1     -12.457  14.766  -8.469  1.00  0.00    -0.237 OA
ATOM     99  O   UNL     1     -11.492  16.536  -7.052  1.00  0.00    -0.744 OA
ENDBRANCH  95  96
ENDBRANCH  69  90
ENDBRANCH  43  44
ENDBRANCH  36  38
ENDBRANCH  35  36
ENDBRANCH  34  35
ENDBRANCH  33  34
ENDBRANCH  32  33
ENDBRANCH   1  32
TORSDOF 22
