REMARK SMILES O=C(OCCOCCOC(=O)C1CC[NH+]([C@H]2CC(=O)N(c3ccc4c(c3)OCCO4)C2=O)CC1)c1ccc(-c2c3nc(c(-c4ccc(S(=O)(=O)[O-])cc4)c4ccc([nH]4)c(-c4ccc(S(=O)(=O)[O-])cc4)c4nc(c(-c5ccc(S(=O)(=O)[O-])cc5)c5ccc2[nH]5)C=C4)C=C3)cc1
REMARK SMILES IDX 5 1 4 2 3 3 2 4 1 5 35 6 36 7 94 8 37 9 93 10 38 11 39 12
REMARK SMILES IDX 40 13 87 14 41 15 92 16 86 17 88 18 42 19 91 20 85 21 84 22
REMARK SMILES IDX 43 24 73 25 54 26 72 27 55 28 58 29 71 30 89 31 56 32 57 33
REMARK SMILES IDX 70 35 90 36 59 37 44 38 45 39 53 40 46 41 52 42 47 43 48 44
REMARK SMILES IDX 49 45 50 46 51 47 74 48 75 49 83 50 76 51 82 52 77 53 78 54
REMARK SMILES IDX 79 55 80 56 81 57 60 58 61 59 69 60 62 61 68 62 63 63 64 64
REMARK SMILES IDX 65 65 66 66 67 67 6 68 7 69 8 70 9 71 10 72 11 73 12 74
REMARK SMILES IDX 13 75 34 76 14 77 33 78 15 79 16 81 17 82 31 83 18 84 20 85
REMARK SMILES IDX 32 86 19 87 21 88 22 89 26 90 23 91 25 92 24 93 27 94 30 95
REMARK SMILES IDX 28 96 29 97
REMARK H PARENT 88 23 58 34 15 80
REMARK Flexibility Score: inf
ROOT
ATOM      1  C   UNL     1      -1.605  -5.024  -3.988  1.00  0.00     0.202 C 
ENDROOT
BRANCH   1   2
ATOM      2  C   UNL     1      -1.266  -6.079  -5.050  1.00  0.00     0.261 C 
BRANCH   2   3
ATOM      3  O   UNL     1      -1.363  -5.516  -6.383  1.00  0.00    -0.460 OA
BRANCH   3   4
ATOM      4  C   UNL     1      -2.263  -5.846  -7.351  1.00  0.00     0.338 C 
ATOM      5  O   UNL     1      -2.137  -5.425  -8.495  1.00  0.00    -0.246 OA
BRANCH   4   6
ATOM      6  C   UNL     1      -3.394  -6.740  -7.017  1.00  0.00     0.060 A 
ATOM      7  C   UNL     1      -4.040  -6.615  -5.801  1.00  0.00     0.016 A 
ATOM      8  C   UNL     1      -3.832  -7.724  -7.902  1.00  0.00     0.016 A 
ATOM      9  C   UNL     1      -4.866  -7.593  -5.321  1.00  0.00     0.010 A 
ATOM     10  C   UNL     1      -4.831  -8.621  -7.495  1.00  0.00     0.010 A 
ATOM     11  C   UNL     1      -5.308  -8.589  -6.174  1.00  0.00    -0.014 A 
BRANCH  11  12
ATOM     12  C   UNL     1      -6.180  -9.615  -5.569  1.00  0.00     0.031 A 
ATOM     13  C   UNL     1      -5.674 -11.022  -5.495  1.00  0.00     0.074 A 
ATOM     14  C   UNL     1      -7.295  -9.226  -4.915  1.00  0.00     0.049 A 
ATOM     15  N   UNL     1      -6.289 -12.092  -5.076  1.00  0.00    -0.248 NA
ATOM     16  C   UNL     1      -4.293 -11.263  -5.954  1.00  0.00     0.031 C 
ATOM     17  C   UNL     1      -7.767  -7.837  -4.790  1.00  0.00     0.029 A 
ATOM     18  N   UNL     1      -8.184  -9.934  -4.155  1.00  0.00    -0.354 N 
ATOM     19  C   UNL     1      -5.410 -13.142  -5.309  1.00  0.00     0.074 A 
ATOM     20  C   UNL     1      -4.205 -12.582  -5.872  1.00  0.00     0.031 C 
ATOM     21  C   UNL     1      -8.779  -7.788  -3.913  1.00  0.00     0.029 A 
ATOM     22  C   UNL     1      -9.130  -9.147  -3.537  1.00  0.00     0.049 A 
ATOM     23  H   UNL     1      -8.150 -10.913  -4.058  1.00  0.00     0.167 HD
ATOM     24  C   UNL     1      -5.622 -14.459  -5.094  1.00  0.00     0.031 A 
ATOM     25  C   UNL     1     -10.195  -9.497  -2.792  1.00  0.00     0.031 A 
ATOM     26  C   UNL     1      -6.830 -14.958  -4.498  1.00  0.00     0.049 A 
ATOM     27  C   UNL     1     -10.442 -10.967  -2.620  1.00  0.00     0.074 A 
ATOM     28  C   UNL     1      -7.229 -16.266  -4.301  1.00  0.00     0.029 A 
ATOM     29  N   UNL     1      -7.833 -14.146  -3.979  1.00  0.00    -0.354 N 
ATOM     30  N   UNL     1      -9.685 -11.974  -2.993  1.00  0.00    -0.248 NA
ATOM     31  C   UNL     1     -11.699 -11.355  -1.975  1.00  0.00     0.031 C 
ATOM     32  C   UNL     1      -8.492 -16.242  -3.697  1.00  0.00     0.029 A 
ATOM     33  C   UNL     1      -8.855 -14.921  -3.469  1.00  0.00     0.049 A 
ATOM     34  H   UNL     1      -7.816 -13.162  -3.976  1.00  0.00     0.167 HD
ATOM     35  C   UNL     1     -10.375 -13.120  -2.630  1.00  0.00     0.074 A 
ATOM     36  C   UNL     1     -11.595 -12.677  -1.979  1.00  0.00     0.031 C 
ATOM     37  C   UNL     1     -10.045 -14.421  -2.826  1.00  0.00     0.031 A 
BRANCH  24  38
ATOM     38  C   UNL     1      -4.588 -15.412  -5.625  1.00  0.00    -0.014 A 
ATOM     39  C   UNL     1      -3.323 -15.560  -5.028  1.00  0.00     0.010 A 
ATOM     40  C   UNL     1      -4.875 -16.132  -6.801  1.00  0.00     0.010 A 
ATOM     41  C   UNL     1      -2.349 -16.367  -5.627  1.00  0.00     0.020 A 
ATOM     42  C   UNL     1      -3.914 -16.958  -7.388  1.00  0.00     0.020 A 
ATOM     43  C   UNL     1      -2.647 -17.051  -6.810  1.00  0.00     0.054 A 
BRANCH  43  44
ATOM     44  S   UNL     1      -1.361 -18.069  -7.585  1.00  0.00     0.124 S 
ATOM     45  O   UNL     1      -0.490 -17.055  -8.175  1.00  0.00    -0.237 OA
ATOM     46  O   UNL     1      -0.798 -18.796  -6.450  1.00  0.00    -0.237 OA
ATOM     47  O   UNL     1      -2.098 -18.890  -8.543  1.00  0.00    -0.744 OA
ENDBRANCH  43  44
ENDBRANCH  24  38
BRANCH  25  48
ATOM     48  C   UNL     1     -11.135  -8.464  -2.269  1.00  0.00    -0.014 A 
ATOM     49  C   UNL     1     -11.322  -8.283  -0.887  1.00  0.00     0.010 A 
ATOM     50  C   UNL     1     -11.847  -7.635  -3.159  1.00  0.00     0.010 A 
ATOM     51  C   UNL     1     -12.206  -7.307  -0.410  1.00  0.00     0.020 A 
ATOM     52  C   UNL     1     -12.703  -6.636  -2.688  1.00  0.00     0.020 A 
ATOM     53  C   UNL     1     -12.890  -6.488  -1.314  1.00  0.00     0.054 A 
BRANCH  53  54
ATOM     54  S   UNL     1     -14.001  -5.201  -0.679  1.00  0.00     0.124 S 
ATOM     55  O   UNL     1     -15.159  -5.983  -0.255  1.00  0.00    -0.237 OA
ATOM     56  O   UNL     1     -13.214  -4.602   0.395  1.00  0.00    -0.237 OA
ATOM     57  O   UNL     1     -14.220  -4.337  -1.837  1.00  0.00    -0.744 OA
ENDBRANCH  53  54
ENDBRANCH  25  48
BRANCH  37  58
ATOM     58  C   UNL     1     -11.005 -15.437  -2.287  1.00  0.00    -0.014 A 
ATOM     59  C   UNL     1     -12.222 -15.702  -2.938  1.00  0.00     0.010 A 
ATOM     60  C   UNL     1     -10.656 -16.164  -1.136  1.00  0.00     0.010 A 
ATOM     61  C   UNL     1     -13.093 -16.661  -2.424  1.00  0.00     0.020 A 
ATOM     62  C   UNL     1     -11.513 -17.142  -0.635  1.00  0.00     0.020 A 
ATOM     63  C   UNL     1     -12.733 -17.373  -1.274  1.00  0.00     0.054 A 
BRANCH  63  64
ATOM     64  S   UNL     1     -13.860 -18.646  -0.647  1.00  0.00     0.124 S 
ATOM     65  O   UNL     1     -14.884 -17.843   0.014  1.00  0.00    -0.237 OA
ATOM     66  O   UNL     1     -14.285 -19.329  -1.867  1.00  0.00    -0.237 OA
ATOM     67  O   UNL     1     -13.018 -19.442   0.243  1.00  0.00    -0.744 OA
ENDBRANCH  63  64
ENDBRANCH  37  58
ENDBRANCH  11  12
ENDBRANCH   4   6
ENDBRANCH   3   4
ENDBRANCH   2   3
ENDBRANCH   1   2
BRANCH   1  68
ATOM     68  O   UNL     1      -2.906  -4.450  -4.030  1.00  0.00    -0.374 OA
BRANCH  68  69
ATOM     69  C   UNL     1      -3.066  -3.366  -4.955  1.00  0.00     0.202 C 
BRANCH  69  70
ATOM     70  C   UNL     1      -3.277  -2.072  -4.185  1.00  0.00     0.261 C 
BRANCH  70  71
ATOM     71  O   UNL     1      -2.016  -1.700  -3.608  1.00  0.00    -0.463 OA
BRANCH  71  72
ATOM     72  C   UNL     1      -1.767  -2.168  -2.360  1.00  0.00     0.309 C 
ATOM     73  O   UNL     1      -2.589  -2.694  -1.621  1.00  0.00    -0.252 OA
BRANCH  72  74
ATOM     74  C   UNL     1      -0.307  -1.997  -1.972  1.00  0.00     0.110 C 
ATOM     75  C   UNL     1       0.507  -1.101  -2.921  1.00  0.00     0.077 C 
ATOM     76  C   UNL     1       0.331  -3.368  -1.644  1.00  0.00     0.077 C 
ATOM     77  C   UNL     1       1.350  -1.881  -3.920  1.00  0.00     0.263 C 
ATOM     78  C   UNL     1       1.380  -3.905  -2.627  1.00  0.00     0.263 C 
ATOM     79  N   UNL     1       2.194  -2.896  -3.289  1.00  0.00    -0.324 N 
ATOM     80  H   UNL     1       2.684  -3.399  -4.030  1.00  0.00     0.348 HD
BRANCH  79  81
ATOM     81  C   UNL     1       3.359  -2.371  -2.549  1.00  0.00     0.284 C 
ATOM     82  C   UNL     1       3.159  -1.906  -1.116  1.00  0.00     0.176 C 
ATOM     83  C   UNL     1       4.423  -3.457  -2.367  1.00  0.00     0.292 C 
ATOM     84  C   UNL     1       3.522  -3.103  -0.300  1.00  0.00     0.240 C 
ATOM     85  N   UNL     1       4.355  -3.889  -1.057  1.00  0.00    -0.245 N 
ATOM     86  O   UNL     1       5.155  -3.869  -3.258  1.00  0.00    -0.267 OA
ATOM     87  O   UNL     1       3.196  -3.230   0.873  1.00  0.00    -0.274 OA
BRANCH  85  88
ATOM     88  C   UNL     1       5.145  -4.912  -0.497  1.00  0.00     0.056 A 
ATOM     89  C   UNL     1       6.516  -4.960  -0.775  1.00  0.00     0.031 A 
ATOM     90  C   UNL     1       4.598  -5.816   0.425  1.00  0.00     0.077 A 
ATOM     91  C   UNL     1       7.343  -5.844  -0.080  1.00  0.00     0.052 A 
ATOM     92  C   UNL     1       5.419  -6.733   1.079  1.00  0.00     0.163 A 
ATOM     93  C   UNL     1       6.795  -6.733   0.840  1.00  0.00     0.161 A 
ATOM     94  O   UNL     1       4.803  -7.603   1.940  1.00  0.00    -0.486 OA
ATOM     95  O   UNL     1       7.670  -7.566   1.486  1.00  0.00    -0.486 OA
ATOM     96  C   UNL     1       5.740  -8.241   2.812  1.00  0.00     0.271 C 
ATOM     97  C   UNL     1       6.988  -8.683   2.063  1.00  0.00     0.271 C 
ENDBRANCH  85  88
ENDBRANCH  79  81
ENDBRANCH  72  74
ENDBRANCH  71  72
ENDBRANCH  70  71
ENDBRANCH  69  70
ENDBRANCH  68  69
ENDBRANCH   1  68
TORSDOF 19
