REMARK SMILES NS(=O)(=O)c1ccc(-n2nc(C(=O)OCCOCCOC(=O)c3ccc(-c4c5nc(c(-c6ccc(S(=O)(=O)[O-])cc6)c6ccc([nH]6)c(-c6ccc(S(=O)(=O)[O-])cc6)c6nc(c(-c7ccc(S(=O)(=O)[O-])cc7)c7ccc4[nH]7)C=C6)C=C5)cc3)c(Cl)c2-c2ccc(Cl)cc2)cc1
REMARK SMILES IDX 17 1 16 2 15 3 14 4 12 5 13 6 11 7 9 8 10 9 85 10 83 11
REMARK SMILES IDX 84 12 8 13 5 14 6 15 94 16 7 17 93 18 2 19 3 20 4 21 1 22
REMARK SMILES IDX 86 25 87 26 92 27 88 28 91 29 89 30 90 31 18 32 19 33 20 34
REMARK SMILES IDX 21 35 22 36 23 37 24 38 82 39 25 40 81 41 26 42 27 43 28 44
REMARK SMILES IDX 75 45 29 46 80 47 74 48 76 49 30 50 79 51 73 52 72 53 31 55
REMARK SMILES IDX 61 56 42 57 60 58 43 59 46 60 59 61 77 62 44 63 45 64 58 66
REMARK SMILES IDX 78 67 47 68 32 69 33 70 41 71 34 72 40 73 35 74 36 75 37 76
REMARK SMILES IDX 38 77 39 78 62 79 63 80 71 81 64 82 70 83 65 84 66 85 67 86
REMARK SMILES IDX 68 87 69 88 48 89 49 90 57 91 50 92 56 93 51 94 52 95 53 96
REMARK SMILES IDX 54 97 55 98
REMARK H PARENT 1 23 1 24 76 54 46 65
REMARK Flexibility Score: inf
ROOT
ATOM      1  O   UNL     1       3.529   4.173 -12.148  1.00  0.00    -0.374 OA
ENDROOT
BRANCH   1   2
ATOM      2  C   UNL     1       3.566   5.589 -11.976  1.00  0.00     0.202 C 
BRANCH   2   3
ATOM      3  C   UNL     1       2.470   6.216 -11.120  1.00  0.00     0.261 C 
BRANCH   3   4
ATOM      4  O   UNL     1       2.643   5.894  -9.732  1.00  0.00    -0.458 OA
BRANCH   4   5
ATOM      5  C   UNL     1       1.734   5.043  -9.173  1.00  0.00     0.360 C 
ATOM      6  O   UNL     1       0.779   4.566  -9.775  1.00  0.00    -0.244 OA
BRANCH   5   7
ATOM      7  C   UNL     1       2.051   4.731  -7.774  1.00  0.00     0.190 A 
ATOM      8  N   UNL     1       1.961   3.721  -5.880  1.00  0.00    -0.231 N 
ATOM      9  N   UNL     1       1.716   3.554  -7.205  1.00  0.00    -0.159 NA
ATOM     10  C   UNL     1       2.529   4.956  -5.604  1.00  0.00     0.094 A 
ATOM     11  C   UNL     1       2.703   5.560  -6.837  1.00  0.00     0.102 A 
ATOM     12  Cl  UNL     1       3.460   7.060  -7.138  1.00  0.00    -0.079 Cl
BRANCH   8  13
ATOM     13  C   UNL     1       1.566   2.709  -4.966  1.00  0.00     0.065 A 
ATOM     14  C   UNL     1       0.884   0.727  -3.130  1.00  0.00     0.082 A 
ATOM     15  C   UNL     1       1.598   0.385  -4.283  1.00  0.00     0.024 A 
ATOM     16  C   UNL     1       0.486   2.049  -2.903  1.00  0.00     0.024 A 
ATOM     17  C   UNL     1       1.913   1.374  -5.222  1.00  0.00     0.030 A 
ATOM     18  C   UNL     1       0.844   3.046  -3.813  1.00  0.00     0.030 A 
BRANCH  14  19
ATOM     19  S   UNL     1       0.461  -0.510  -1.938  1.00  0.00     0.238 S 
ATOM     20  O   UNL     1       1.174  -1.735  -2.240  1.00  0.00    -0.207 OA
ATOM     21  O   UNL     1      -0.962  -0.476  -1.721  1.00  0.00    -0.207 OA
BRANCH  19  22
ATOM     22  N   UNL     1       1.168   0.077  -0.532  1.00  0.00    -0.225 NA
ATOM     23  H   UNL     1       0.984  -0.569   0.236  1.00  0.00     0.137 HD
ATOM     24  H   UNL     1       0.774   0.991  -0.309  1.00  0.00     0.137 HD
ENDBRANCH  19  22
ENDBRANCH  14  19
ENDBRANCH   8  13
BRANCH  10  25
ATOM     25  C   UNL     1       2.913   5.485  -4.298  1.00  0.00     0.002 A 
ATOM     26  C   UNL     1       2.456   6.762  -3.937  1.00  0.00     0.012 A 
ATOM     27  C   UNL     1       3.803   4.813  -3.453  1.00  0.00     0.012 A 
ATOM     28  C   UNL     1       2.916   7.383  -2.778  1.00  0.00     0.021 A 
ATOM     29  C   UNL     1       4.252   5.429  -2.280  1.00  0.00     0.021 A 
ATOM     30  C   UNL     1       3.819   6.716  -1.957  1.00  0.00     0.041 A 
ATOM     31  Cl  UNL     1       4.412   7.498  -0.547  1.00  0.00    -0.084 Cl
ENDBRANCH  10  25
ENDBRANCH   5   7
ENDBRANCH   4   5
ENDBRANCH   3   4
ENDBRANCH   2   3
ENDBRANCH   1   2
BRANCH   1  32
ATOM     32  C   UNL     1       3.818   3.313 -11.051  1.00  0.00     0.202 C 
BRANCH  32  33
ATOM     33  C   UNL     1       5.261   3.201 -10.580  1.00  0.00     0.261 C 
BRANCH  33  34
ATOM     34  O   UNL     1       5.801   4.459 -10.214  1.00  0.00    -0.460 OA
BRANCH  34  35
ATOM     35  C   UNL     1       6.565   5.030 -11.177  1.00  0.00     0.338 C 
ATOM     36  O   UNL     1       6.629   4.713 -12.351  1.00  0.00    -0.246 OA
BRANCH  35  37
ATOM     37  C   UNL     1       7.445   6.012 -10.535  1.00  0.00     0.060 A 
ATOM     38  C   UNL     1       8.512   6.461 -11.315  1.00  0.00     0.016 A 
ATOM     39  C   UNL     1       7.424   6.150  -9.140  1.00  0.00     0.016 A 
ATOM     40  C   UNL     1       9.688   6.761 -10.674  1.00  0.00     0.010 A 
ATOM     41  C   UNL     1       8.602   6.436  -8.503  1.00  0.00     0.010 A 
ATOM     42  C   UNL     1       9.739   6.618  -9.284  1.00  0.00    -0.014 A 
BRANCH  42  43
ATOM     43  C   UNL     1      11.021   6.732  -8.633  1.00  0.00     0.031 A 
ATOM     44  C   UNL     1      11.450   8.137  -8.528  1.00  0.00     0.074 A 
ATOM     45  C   UNL     1      11.656   5.673  -8.099  1.00  0.00     0.049 A 
ATOM     46  N   UNL     1      12.309   8.751  -9.271  1.00  0.00    -0.248 NA
ATOM     47  C   UNL     1      10.640   9.023  -7.674  1.00  0.00     0.031 C 
ATOM     48  C   UNL     1      11.165   4.300  -7.934  1.00  0.00     0.029 A 
ATOM     49  N   UNL     1      12.866   5.634  -7.488  1.00  0.00    -0.354 N 
ATOM     50  C   UNL     1      12.334  10.048  -8.779  1.00  0.00     0.074 A 
ATOM     51  C   UNL     1      11.118  10.216  -8.026  1.00  0.00     0.031 C 
ATOM     52  C   UNL     1      11.966   3.640  -7.063  1.00  0.00     0.029 A 
ATOM     53  C   UNL     1      13.097   4.491  -6.732  1.00  0.00     0.049 A 
ATOM     54  H   UNL     1      13.528   6.358  -7.572  1.00  0.00     0.167 HD
ATOM     55  C   UNL     1      13.503  10.740  -8.701  1.00  0.00     0.031 A 
ATOM     56  C   UNL     1      14.121   4.305  -5.859  1.00  0.00     0.031 A 
ATOM     57  C   UNL     1      14.531  10.131  -9.508  1.00  0.00     0.049 A 
ATOM     58  C   UNL     1      15.181   5.271  -6.241  1.00  0.00     0.074 A 
ATOM     59  C   UNL     1      14.717   9.886 -10.852  1.00  0.00     0.029 A 
ATOM     60  N   UNL     1      15.394   9.300  -8.834  1.00  0.00    -0.354 N 
ATOM     61  N   UNL     1      15.812   5.224  -7.382  1.00  0.00    -0.248 NA
ATOM     62  C   UNL     1      15.235   6.553  -5.556  1.00  0.00     0.031 C 
ATOM     63  C   UNL     1      15.415   8.643 -10.917  1.00  0.00     0.029 A 
ATOM     64  C   UNL     1      15.674   8.209  -9.614  1.00  0.00     0.049 A 
ATOM     65  H   UNL     1      15.754   9.462  -7.932  1.00  0.00     0.167 HD
ATOM     66  C   UNL     1      15.965   6.550  -7.760  1.00  0.00     0.074 A 
ATOM     67  C   UNL     1      15.711   7.318  -6.543  1.00  0.00     0.031 C 
ATOM     68  C   UNL     1      16.000   6.899  -9.081  1.00  0.00     0.031 A 
BRANCH  55  69
ATOM     69  C   UNL     1      13.840  11.613  -7.510  1.00  0.00    -0.014 A 
ATOM     70  C   UNL     1      15.068  12.300  -7.505  1.00  0.00     0.010 A 
ATOM     71  C   UNL     1      13.143  11.549  -6.282  1.00  0.00     0.010 A 
ATOM     72  C   UNL     1      15.599  12.827  -6.320  1.00  0.00     0.020 A 
ATOM     73  C   UNL     1      13.640  12.106  -5.107  1.00  0.00     0.020 A 
ATOM     74  C   UNL     1      14.884  12.712  -5.126  1.00  0.00     0.054 A 
BRANCH  74  75
ATOM     75  S   UNL     1      15.623  13.290  -3.582  1.00  0.00     0.124 S 
ATOM     76  O   UNL     1      16.758  12.385  -3.438  1.00  0.00    -0.237 OA
ATOM     77  O   UNL     1      15.950  14.677  -3.901  1.00  0.00    -0.237 OA
ATOM     78  O   UNL     1      14.551  13.116  -2.605  1.00  0.00    -0.744 OA
ENDBRANCH  74  75
ENDBRANCH  55  69
BRANCH  56  79
ATOM     79  C   UNL     1      14.076   3.657  -4.521  1.00  0.00    -0.014 A 
ATOM     80  C   UNL     1      15.258   3.332  -3.825  1.00  0.00     0.010 A 
ATOM     81  C   UNL     1      12.867   3.637  -3.795  1.00  0.00     0.010 A 
ATOM     82  C   UNL     1      15.237   3.056  -2.445  1.00  0.00     0.020 A 
ATOM     83  C   UNL     1      12.838   3.362  -2.421  1.00  0.00     0.020 A 
ATOM     84  C   UNL     1      14.027   3.093  -1.746  1.00  0.00     0.054 A 
BRANCH  84  85
ATOM     85  S   UNL     1      14.025   2.902   0.064  1.00  0.00     0.124 S 
ATOM     86  O   UNL     1      14.370   1.493   0.228  1.00  0.00    -0.237 OA
ATOM     87  O   UNL     1      15.046   3.856   0.487  1.00  0.00    -0.237 OA
ATOM     88  O   UNL     1      12.657   3.252   0.445  1.00  0.00    -0.744 OA
ENDBRANCH  84  85
ENDBRANCH  56  79
BRANCH  68  89
ATOM     89  C   UNL     1      16.205   5.795 -10.096  1.00  0.00    -0.014 A 
ATOM     90  C   UNL     1      15.252   4.794 -10.376  1.00  0.00     0.010 A 
ATOM     91  C   UNL     1      17.356   5.866 -10.898  1.00  0.00     0.010 A 
ATOM     92  C   UNL     1      15.456   3.885 -11.428  1.00  0.00     0.020 A 
ATOM     93  C   UNL     1      17.557   4.975 -11.954  1.00  0.00     0.020 A 
ATOM     94  C   UNL     1      16.609   3.985 -12.214  1.00  0.00     0.054 A 
BRANCH  94  95
ATOM     95  S   UNL     1      16.843   2.853 -13.615  1.00  0.00     0.124 S 
ATOM     96  O   UNL     1      17.068   1.570 -12.954  1.00  0.00    -0.237 OA
ATOM     97  O   UNL     1      15.583   2.974 -14.345  1.00  0.00    -0.237 OA
ATOM     98  O   UNL     1      18.007   3.400 -14.313  1.00  0.00    -0.744 OA
ENDBRANCH  94  95
ENDBRANCH  68  89
ENDBRANCH  42  43
ENDBRANCH  35  37
ENDBRANCH  34  35
ENDBRANCH  33  34
ENDBRANCH  32  33
ENDBRANCH   1  32
TORSDOF 21
