REMARK SMILES Cc1ccccc1/C=C1\SC(=O)N(CC(=O)Nc2ccccc2C(=O)OCCOCCOC(=O)c2ccc(-c3c4nc(c(-c5ccc(S(=O)(=O)[O-])cc5)c5ccc([nH]5)c(-c5ccc(S(=O)(=O)[O-])cc5)c5nc(c(-c6ccc(S(=O)(=O)[O-])cc6)c6ccc3[nH]6)C=C5)C=C4)cc2)C1=O
REMARK SMILES IDX 28 1 27 2 26 3 24 4 25 5 23 6 18 7 19 8 20 9 22 10 21 11
REMARK SMILES IDX 17 12 15 13 16 14 14 16 13 17 8 18 9 19 10 20 95 21 11 22
REMARK SMILES IDX 96 23 12 24 7 25 1 26 2 27 3 28 4 29 6 30 5 31 29 32 30 33
REMARK SMILES IDX 31 34 32 35 33 36 34 37 35 38 36 39 94 40 37 41 93 42 38 43
REMARK SMILES IDX 39 44 40 45 87 46 41 47 92 48 86 49 88 50 42 51 91 52 85 53
REMARK SMILES IDX 84 54 43 56 73 57 54 58 72 59 55 60 58 61 71 62 89 63 56 64
REMARK SMILES IDX 57 65 70 67 90 68 59 69 44 70 45 71 53 72 46 73 52 74 47 75
REMARK SMILES IDX 48 76 49 77 50 78 51 79 74 80 75 81 83 82 76 83 82 84 77 85
REMARK SMILES IDX 78 86 79 87 80 88 81 89 60 90 61 91 69 92 62 93 68 94 63 95
REMARK SMILES IDX 64 96 65 97 66 98 67 99
REMARK H PARENT 17 15 88 55 58 66
REMARK Flexibility Score: inf
ROOT
ATOM      1  C   UNL     1       5.532   2.796  -2.125  1.00  0.00     0.202 C 
ENDROOT
BRANCH   1   2
ATOM      2  C   UNL     1       4.093   2.111  -2.341  1.00  0.00     0.261 C 
BRANCH   2   3
ATOM      3  O   UNL     1       2.378   2.851  -3.157  1.00  0.00    -0.460 OA
BRANCH   3   4
ATOM      4  C   UNL     1       1.578   3.931  -3.799  1.00  0.00     0.340 C 
ATOM      5  O   UNL     1       0.856   4.687  -3.166  1.00  0.00    -0.246 OA
BRANCH   4   6
ATOM      6  C   UNL     1       1.755   4.336  -5.194  1.00  0.00     0.083 A 
ATOM      7  C   UNL     1       2.090   5.679  -5.475  1.00  0.00     0.055 A 
ATOM      8  C   UNL     1       2.138   6.116  -6.794  1.00  0.00     0.027 A 
ATOM      9  C   UNL     1       1.936   5.196  -7.820  1.00  0.00     0.002 A 
ATOM     10  C   UNL     1       1.426   3.453  -6.213  1.00  0.00     0.018 A 
ATOM     11  C   UNL     1       1.571   3.876  -7.531  1.00  0.00     0.001 A 
BRANCH   7  12
ATOM     12  N   UNL     1       2.452   6.612  -4.491  1.00  0.00    -0.324 N 
ATOM     13  C   UNL     1       3.417   6.436  -3.534  1.00  0.00     0.244 C 
ATOM     14  O   UNL     1       3.681   7.368  -2.767  1.00  0.00    -0.273 OA
ATOM     15  H   UNL     1       1.969   7.470  -4.488  1.00  0.00     0.170 HD
BRANCH  13  16
ATOM     16  C   UNL     1       4.335   5.208  -3.629  1.00  0.00     0.230 C 
BRANCH  16  17
ATOM     17  N   UNL     1       3.828   3.897  -3.244  1.00  0.00    -0.259 N 
ATOM     18  C   UNL     1       1.431   1.224  -0.542  1.00  0.00     0.029 C 
ATOM     19  C   UNL     1       2.171   1.857  -1.541  1.00  0.00     0.083 C 
ATOM     20  S   UNL     1       2.477   0.860  -3.532  1.00  0.00    -0.022 SA
ATOM     21  C   UNL     1       2.945   3.712  -1.681  1.00  0.00     0.268 C 
ATOM     22  C   UNL     1       3.777   2.558  -4.375  1.00  0.00     0.294 C 
ATOM     23  O   UNL     1       2.609   4.789  -1.175  1.00  0.00    -0.268 OA
ATOM     24  O   UNL     1       4.282   2.465  -5.487  1.00  0.00    -0.261 OA
BRANCH  18  25
ATOM     25  C   UNL     1       0.565   0.168   0.154  1.00  0.00    -0.021 A 
ATOM     26  C   UNL     1       2.463  -1.244   1.043  1.00  0.00     0.045 C 
ATOM     27  C   UNL     1       1.013  -0.996   0.782  1.00  0.00    -0.044 A 
ATOM     28  C   UNL     1       0.081  -1.948   1.291  1.00  0.00     0.004 A 
ATOM     29  C   UNL     1      -1.291  -1.703   1.324  1.00  0.00     0.000 A 
ATOM     30  C   UNL     1      -0.812   0.477   0.433  1.00  0.00     0.008 A 
ATOM     31  C   UNL     1      -1.734  -0.443   0.976  1.00  0.00     0.001 A 
ENDBRANCH  18  25
ENDBRANCH  16  17
ENDBRANCH  13  16
ENDBRANCH   7  12
ENDBRANCH   4   6
ENDBRANCH   3   4
ENDBRANCH   2   3
ENDBRANCH   1   2
BRANCH   1  32
ATOM     32  O   UNL     1       5.394   3.871  -1.204  1.00  0.00    -0.374 OA
BRANCH  32  33
ATOM     33  C   UNL     1       6.569   4.584  -0.903  1.00  0.00     0.202 C 
BRANCH  33  34
ATOM     34  C   UNL     1       7.524   3.678  -0.153  1.00  0.00     0.261 C 
BRANCH  34  35
ATOM     35  O   UNL     1       7.027   3.422   1.201  1.00  0.00    -0.460 OA
BRANCH  35  36
ATOM     36  C   UNL     1       6.095   2.459   1.493  1.00  0.00     0.338 C 
ATOM     37  O   UNL     1       6.402   1.308   1.773  1.00  0.00    -0.246 OA
BRANCH  36  38
ATOM     38  C   UNL     1       4.680   2.969   1.673  1.00  0.00     0.060 A 
ATOM     39  C   UNL     1       3.603   2.128   1.973  1.00  0.00     0.016 A 
ATOM     40  C   UNL     1       4.350   4.295   1.512  1.00  0.00     0.016 A 
ATOM     41  C   UNL     1       2.240   2.569   1.858  1.00  0.00     0.010 A 
ATOM     42  C   UNL     1       3.012   4.659   1.231  1.00  0.00     0.010 A 
ATOM     43  C   UNL     1       1.916   3.757   1.179  1.00  0.00    -0.014 A 
BRANCH  43  44
ATOM     44  C   UNL     1       0.510   4.123   0.299  1.00  0.00     0.031 A 
ATOM     45  C   UNL     1      -0.177   5.198   1.039  1.00  0.00     0.074 A 
ATOM     46  C   UNL     1      -0.246   3.680  -0.847  1.00  0.00     0.049 A 
ATOM     47  N   UNL     1      -1.335   5.043   1.611  1.00  0.00    -0.248 NA
ATOM     48  C   UNL     1       0.525   6.426   1.444  1.00  0.00     0.031 C 
ATOM     49  C   UNL     1      -1.309   4.405  -1.582  1.00  0.00     0.029 A 
ATOM     50  N   UNL     1      -0.195   2.550  -1.757  1.00  0.00    -0.354 N 
ATOM     51  C   UNL     1      -1.598   6.306   2.087  1.00  0.00     0.074 A 
ATOM     52  C   UNL     1      -0.304   6.846   2.394  1.00  0.00     0.031 C 
ATOM     53  C   UNL     1      -1.832   3.671  -2.609  1.00  0.00     0.029 A 
ATOM     54  C   UNL     1      -1.245   2.325  -2.642  1.00  0.00     0.049 A 
ATOM     55  H   UNL     1       0.580   1.943  -1.748  1.00  0.00     0.167 HD
ATOM     56  C   UNL     1      -2.649   7.026   1.589  1.00  0.00     0.031 A 
ATOM     57  C   UNL     1      -1.797   1.100  -3.002  1.00  0.00     0.031 A 
ATOM     58  C   UNL     1      -3.428   6.267   0.597  1.00  0.00     0.049 A 
ATOM     59  C   UNL     1      -3.145   1.151  -2.270  1.00  0.00     0.074 A 
ATOM     60  C   UNL     1      -3.714   6.491  -0.741  1.00  0.00     0.029 A 
ATOM     61  N   UNL     1      -3.812   4.951   0.848  1.00  0.00    -0.354 N 
ATOM     62  N   UNL     1      -3.397   2.127  -1.442  1.00  0.00    -0.248 NA
ATOM     63  C   UNL     1      -4.282   0.236  -2.338  1.00  0.00     0.031 C 
ATOM     64  C   UNL     1      -4.338   5.329  -1.268  1.00  0.00     0.029 A 
ATOM     65  C   UNL     1      -4.404   4.379  -0.262  1.00  0.00     0.049 A 
ATOM     66  H   UNL     1      -3.679   4.488   1.707  1.00  0.00     0.167 HD
ATOM     67  C   UNL     1      -4.649   2.078  -0.957  1.00  0.00     0.074 A 
ATOM     68  C   UNL     1      -5.163   0.832  -1.499  1.00  0.00     0.031 C 
ATOM     69  C   UNL     1      -5.092   3.091  -0.160  1.00  0.00     0.031 A 
BRANCH  56  70
ATOM     70  C   UNL     1      -2.746   8.547   1.729  1.00  0.00    -0.014 A 
ATOM     71  C   UNL     1      -3.725   9.241   0.996  1.00  0.00     0.010 A 
ATOM     72  C   UNL     1      -1.940   9.353   2.565  1.00  0.00     0.010 A 
ATOM     73  C   UNL     1      -3.869  10.634   1.061  1.00  0.00     0.020 A 
ATOM     74  C   UNL     1      -2.048  10.750   2.624  1.00  0.00     0.020 A 
ATOM     75  C   UNL     1      -3.030  11.382   1.881  1.00  0.00     0.054 A 
BRANCH  75  76
ATOM     76  S   UNL     1      -3.303  13.160   2.037  1.00  0.00     0.124 S 
ATOM     77  O   UNL     1      -3.130  13.628   0.664  1.00  0.00    -0.237 OA
ATOM     78  O   UNL     1      -4.667  13.218   2.557  1.00  0.00    -0.237 OA
ATOM     79  O   UNL     1      -2.267  13.593   2.972  1.00  0.00    -0.744 OA
ENDBRANCH  75  76
ENDBRANCH  56  70
BRANCH  57  80
ATOM     80  C   UNL     1      -0.980  -0.217  -3.274  1.00  0.00    -0.014 A 
ATOM     81  C   UNL     1      -0.320  -0.541  -4.491  1.00  0.00     0.010 A 
ATOM     82  C   UNL     1      -0.652  -1.112  -2.256  1.00  0.00     0.010 A 
ATOM     83  C   UNL     1       0.801  -1.460  -4.562  1.00  0.00     0.020 A 
ATOM     84  C   UNL     1       0.517  -1.934  -2.265  1.00  0.00     0.020 A 
ATOM     85  C   UNL     1       1.307  -2.032  -3.393  1.00  0.00     0.054 A 
BRANCH  85  86
ATOM     86  S   UNL     1       3.130  -2.431  -3.173  1.00  0.00     0.124 S 
ATOM     87  O   UNL     1       3.149  -3.888  -3.126  1.00  0.00    -0.237 OA
ATOM     88  O   UNL     1       3.771  -1.847  -4.352  1.00  0.00    -0.237 OA
ATOM     89  O   UNL     1       3.485  -1.770  -1.915  1.00  0.00    -0.744 OA
ENDBRANCH  85  86
ENDBRANCH  57  80
BRANCH  69  90
ATOM     90  C   UNL     1      -6.306   3.047   0.704  1.00  0.00    -0.014 A 
ATOM     91  C   UNL     1      -6.928   1.862   1.098  1.00  0.00     0.010 A 
ATOM     92  C   UNL     1      -6.785   4.262   1.256  1.00  0.00     0.010 A 
ATOM     93  C   UNL     1      -8.057   1.900   1.916  1.00  0.00     0.020 A 
ATOM     94  C   UNL     1      -7.863   4.306   2.124  1.00  0.00     0.020 A 
ATOM     95  C   UNL     1      -8.525   3.123   2.405  1.00  0.00     0.054 A 
BRANCH  95  96
ATOM     96  S   UNL     1     -10.025   3.155   3.398  1.00  0.00     0.124 S 
ATOM     97  O   UNL     1     -11.054   2.976   2.377  1.00  0.00    -0.237 OA
ATOM     98  O   UNL     1      -9.832   2.024   4.303  1.00  0.00    -0.237 OA
ATOM     99  O   UNL     1      -9.996   4.469   4.035  1.00  0.00    -0.744 OA
ENDBRANCH  95  96
ENDBRANCH  69  90
ENDBRANCH  43  44
ENDBRANCH  36  38
ENDBRANCH  35  36
ENDBRANCH  34  35
ENDBRANCH  33  34
ENDBRANCH  32  33
ENDBRANCH   1  32
TORSDOF 21
