REMARK SMILES COc1ccc(C2=NO[C@](C)(C(=O)OCCOCCOC(=O)c3ccc(-c4c5nc(c(-c6ccc(S(=O)(=O)[O-])cc6)c6ccc([nH]6)c(-c6ccc(S(=O)(=O)[O-])cc6)c6nc(c(-c7ccc(S(=O)(=O)[O-])cc7)c7ccc4[nH]7)C=C6)C=C5)cc3)C2)c(OC)c1OC
REMARK SMILES IDX 18 1 17 2 16 3 15 4 14 5 12 6 13 7 10 8 7 9 8 10 83 11 9 12
REMARK SMILES IDX 11 13 6 14 3 15 4 16 87 17 5 18 84 19 2 20 1 21 88 22 89 23
REMARK SMILES IDX 85 24 86 25 19 26 20 27 21 28 22 29 23 30 24 31 82 32 25 33
REMARK SMILES IDX 81 34 26 35 27 36 28 37 75 38 29 39 80 40 74 41 76 42 30 43
REMARK SMILES IDX 79 44 73 45 72 46 31 48 61 49 42 50 60 51 43 52 46 53 59 54
REMARK SMILES IDX 77 55 44 56 45 57 58 59 78 60 47 61 32 62 33 63 41 64 34 65
REMARK SMILES IDX 40 66 35 67 36 68 37 69 38 70 39 71 62 72 63 73 71 74 64 75
REMARK SMILES IDX 70 76 65 77 66 78 67 79 68 80 69 81 48 82 49 83 57 84 50 85
REMARK SMILES IDX 56 86 51 87 52 88 53 89 54 90 55 91
REMARK H PARENT 76 47 46 58
REMARK Flexibility Score: inf
ROOT
ATOM      1  C   UNL     1       3.734   9.442   2.520  1.00  0.00     0.202 C 
ENDROOT
BRANCH   1   2
ATOM      2  O   UNL     1       3.472  10.782   2.935  1.00  0.00    -0.374 OA
BRANCH   2   3
ATOM      3  C   UNL     1       2.136  11.120   3.301  1.00  0.00     0.202 C 
BRANCH   3   4
ATOM      4  C   UNL     1       1.135  11.328   2.162  1.00  0.00     0.261 C 
BRANCH   4   5
ATOM      5  O   UNL     1       0.895  10.123   1.410  1.00  0.00    -0.460 OA
BRANCH   5   6
ATOM      6  C   UNL     1       1.435  10.106   0.157  1.00  0.00     0.353 C 
ATOM      7  O   UNL     1       2.016  11.060  -0.352  1.00  0.00    -0.247 OA
BRANCH   6   8
ATOM      8  C   UNL     1       1.204   8.777  -0.562  1.00  0.00     0.236 C 
ATOM      9  C   UNL     1       1.712   6.554  -0.519  1.00  0.00     0.096 C 
ATOM     10  N   UNL     1       2.577   7.078  -1.327  1.00  0.00    -0.089 NA
ATOM     11  C   UNL     1       0.934   7.545   0.289  1.00  0.00     0.124 C 
ATOM     12  O   UNL     1       2.458   8.481  -1.211  1.00  0.00    -0.377 OA
ATOM     13  C   UNL     1       0.139   9.000  -1.635  1.00  0.00     0.073 C 
BRANCH   9  14
ATOM     14  C   UNL     1       1.478   5.092  -0.444  1.00  0.00     0.046 A 
ATOM     15  C   UNL     1       0.986   2.361  -0.724  1.00  0.00     0.164 A 
ATOM     16  C   UNL     1      -0.073   3.274  -0.777  1.00  0.00     0.051 A 
ATOM     17  C   UNL     1       2.312   2.797  -0.520  1.00  0.00     0.203 A 
ATOM     18  C   UNL     1       0.170   4.638  -0.640  1.00  0.00     0.018 A 
ATOM     19  C   UNL     1       2.559   4.182  -0.355  1.00  0.00     0.173 A 
BRANCH  15  20
ATOM     20  O   UNL     1       0.718   1.045  -1.009  1.00  0.00    -0.493 OA
ATOM     21  C   UNL     1      -0.111   0.433  -0.019  1.00  0.00     0.278 C 
ENDBRANCH  15  20
BRANCH  17  22
ATOM     22  O   UNL     1       3.401   1.964  -0.559  1.00  0.00    -0.490 OA
ATOM     23  C   UNL     1       3.252   0.615  -0.139  1.00  0.00     0.278 C 
ENDBRANCH  17  22
BRANCH  19  24
ATOM     24  O   UNL     1       3.764   4.777  -0.071  1.00  0.00    -0.492 OA
ATOM     25  C   UNL     1       4.947   4.001   0.020  1.00  0.00     0.278 C 
ENDBRANCH  19  24
ENDBRANCH   9  14
ENDBRANCH   6   8
ENDBRANCH   5   6
ENDBRANCH   4   5
ENDBRANCH   3   4
ENDBRANCH   2   3
ENDBRANCH   1   2
BRANCH   1  26
ATOM     26  C   UNL     1       3.768   8.368   3.616  1.00  0.00     0.261 C 
BRANCH  26  27
ATOM     27  O   UNL     1       2.485   8.168   4.237  1.00  0.00    -0.460 OA
BRANCH  27  28
ATOM     28  C   UNL     1       2.407   8.588   5.523  1.00  0.00     0.338 C 
ATOM     29  O   UNL     1       3.311   9.065   6.199  1.00  0.00    -0.246 OA
BRANCH  28  30
ATOM     30  C   UNL     1       1.008   8.563   5.991  1.00  0.00     0.060 A 
ATOM     31  C   UNL     1       0.504   9.720   6.600  1.00  0.00     0.016 A 
ATOM     32  C   UNL     1       0.233   7.404   5.922  1.00  0.00     0.016 A 
ATOM     33  C   UNL     1      -0.756   9.707   7.196  1.00  0.00     0.010 A 
ATOM     34  C   UNL     1      -1.028   7.389   6.530  1.00  0.00     0.010 A 
ATOM     35  C   UNL     1      -1.510   8.526   7.204  1.00  0.00    -0.014 A 
BRANCH  35  36
ATOM     36  C   UNL     1      -2.713   8.422   8.067  1.00  0.00     0.031 A 
ATOM     37  C   UNL     1      -2.583   7.741   9.404  1.00  0.00     0.074 A 
ATOM     38  C   UNL     1      -3.896   8.932   7.681  1.00  0.00     0.049 A 
ATOM     39  N   UNL     1      -3.510   7.445  10.277  1.00  0.00    -0.248 NA
ATOM     40  C   UNL     1      -1.224   7.339   9.810  1.00  0.00     0.031 C 
ATOM     41  C   UNL     1      -4.139   9.667   6.440  1.00  0.00     0.029 A 
ATOM     42  N   UNL     1      -5.123   8.898   8.296  1.00  0.00    -0.354 N 
ATOM     43  C   UNL     1      -2.853   6.817  11.328  1.00  0.00     0.074 A 
ATOM     44  C   UNL     1      -1.452   6.751  10.975  1.00  0.00     0.031 C 
ATOM     45  C   UNL     1      -5.442   9.998   6.377  1.00  0.00     0.029 A 
ATOM     46  C   UNL     1      -6.130   9.467   7.553  1.00  0.00     0.049 A 
ATOM     47  H   UNL     1      -5.268   8.503   9.187  1.00  0.00     0.167 HD
ATOM     48  C   UNL     1      -3.368   6.341  12.486  1.00  0.00     0.031 A 
ATOM     49  C   UNL     1      -7.457   9.526   7.781  1.00  0.00     0.031 A 
ATOM     50  C   UNL     1      -4.761   6.402  12.834  1.00  0.00     0.049 A 
ATOM     51  C   UNL     1      -8.019   8.918   9.042  1.00  0.00     0.074 A 
ATOM     52  C   UNL     1      -5.383   5.932  13.978  1.00  0.00     0.029 A 
ATOM     53  N   UNL     1      -5.748   6.971  12.046  1.00  0.00    -0.354 N 
ATOM     54  N   UNL     1      -7.385   8.316  10.020  1.00  0.00    -0.248 NA
ATOM     55  C   UNL     1      -9.475   9.003   9.232  1.00  0.00     0.031 C 
ATOM     56  C   UNL     1      -6.754   6.181  13.863  1.00  0.00     0.029 A 
ATOM     57  C   UNL     1      -6.976   6.857  12.673  1.00  0.00     0.049 A 
ATOM     58  H   UNL     1      -5.598   7.395  11.170  1.00  0.00     0.167 HD
ATOM     59  C   UNL     1      -8.360   7.989  10.958  1.00  0.00     0.074 A 
ATOM     60  C   UNL     1      -9.623   8.460  10.434  1.00  0.00     0.031 C 
ATOM     61  C   UNL     1      -8.220   7.357  12.149  1.00  0.00     0.031 A 
BRANCH  48  62
ATOM     62  C   UNL     1      -2.421   5.692  13.459  1.00  0.00    -0.014 A 
ATOM     63  C   UNL     1      -1.525   6.462  14.221  1.00  0.00     0.010 A 
ATOM     64  C   UNL     1      -2.474   4.301  13.660  1.00  0.00     0.010 A 
ATOM     65  C   UNL     1      -0.683   5.849  15.152  1.00  0.00     0.020 A 
ATOM     66  C   UNL     1      -1.650   3.687  14.607  1.00  0.00     0.020 A 
ATOM     67  C   UNL     1      -0.751   4.465  15.340  1.00  0.00     0.054 A 
BRANCH  67  68
ATOM     68  S   UNL     1       0.321   3.702  16.589  1.00  0.00     0.124 S 
ATOM     69  O   UNL     1       1.630   3.773  15.944  1.00  0.00    -0.237 OA
ATOM     70  O   UNL     1       0.141   4.578  17.744  1.00  0.00    -0.237 OA
ATOM     71  O   UNL     1      -0.226   2.356  16.739  1.00  0.00    -0.744 OA
ENDBRANCH  67  68
ENDBRANCH  48  62
BRANCH  49  72
ATOM     72  C   UNL     1      -8.365  10.148   6.778  1.00  0.00    -0.014 A 
ATOM     73  C   UNL     1      -9.048  11.343   7.065  1.00  0.00     0.010 A 
ATOM     74  C   UNL     1      -8.582   9.519   5.538  1.00  0.00     0.010 A 
ATOM     75  C   UNL     1      -9.957  11.878   6.147  1.00  0.00     0.020 A 
ATOM     76  C   UNL     1      -9.468  10.066   4.606  1.00  0.00     0.020 A 
ATOM     77  C   UNL     1     -10.165  11.232   4.925  1.00  0.00     0.054 A 
BRANCH  77  78
ATOM     78  S   UNL     1     -11.338  11.947   3.740  1.00  0.00     0.124 S 
ATOM     79  O   UNL     1     -12.623  11.580   4.328  1.00  0.00    -0.237 OA
ATOM     80  O   UNL     1     -11.004  13.369   3.781  1.00  0.00    -0.237 OA
ATOM     81  O   UNL     1     -11.006  11.274   2.486  1.00  0.00    -0.744 OA
ENDBRANCH  77  78
ENDBRANCH  49  72
BRANCH  61  82
ATOM     82  C   UNL     1      -9.447   7.195  13.007  1.00  0.00    -0.014 A 
ATOM     83  C   UNL     1     -10.439   6.250  12.697  1.00  0.00     0.010 A 
ATOM     84  C   UNL     1      -9.561   7.948  14.191  1.00  0.00     0.010 A 
ATOM     85  C   UNL     1     -11.536   6.076  13.546  1.00  0.00     0.020 A 
ATOM     86  C   UNL     1     -10.642   7.759  15.054  1.00  0.00     0.020 A 
ATOM     87  C   UNL     1     -11.629   6.830  14.721  1.00  0.00     0.054 A 
BRANCH  87  88
ATOM     88  S   UNL     1     -13.028   6.540  15.839  1.00  0.00     0.124 S 
ATOM     89  O   UNL     1     -14.126   7.185  15.125  1.00  0.00    -0.237 OA
ATOM     90  O   UNL     1     -13.090   5.082  15.903  1.00  0.00    -0.237 OA
ATOM     91  O   UNL     1     -12.622   7.195  17.080  1.00  0.00    -0.744 OA
ENDBRANCH  87  88
ENDBRANCH  61  82
ENDBRANCH  35  36
ENDBRANCH  28  30
ENDBRANCH  27  28
ENDBRANCH  26  27
ENDBRANCH   1  26
TORSDOF 21
