REMARK SMILES CCC[C@H](c1ccccc1)[C@@](C)(O)C(=O)OCCOCCOC(=O)c1ccc(-c2c3nc(c(-c4ccc(S(=O)(=O)[O-])cc4)c4ccc([nH]4)c(-c4ccc(S(=O)(=O)[O-])cc4)c4nc(c(-c5ccc(S(=O)(=O)[O-])cc5)c5ccc2[nH]5)C=C4)C=C3)cc1
REMARK SMILES IDX 19 1 18 2 17 3 16 4 14 5 15 6 11 7 12 8 4 9 3 10 2 11 1 12
REMARK SMILES IDX 5 13 6 14 10 15 7 16 9 17 8 18 13 19 20 21 21 22 22 23 23 24
REMARK SMILES IDX 24 25 25 26 26 27 84 28 27 29 83 30 28 31 29 32 30 33 77 34
REMARK SMILES IDX 31 35 82 36 76 37 78 38 32 39 81 40 75 41 74 42 33 44 63 45
REMARK SMILES IDX 44 46 62 47 45 48 48 49 61 50 79 51 46 52 47 53 60 55 80 56
REMARK SMILES IDX 49 57 34 58 35 59 43 60 36 61 42 62 37 63 38 64 39 65 40 66
REMARK SMILES IDX 41 67 64 68 65 69 73 70 66 71 72 72 67 73 68 74 69 75 70 76
REMARK SMILES IDX 71 77 50 78 51 79 59 80 52 81 58 82 53 83 54 84 55 85 56 86
REMARK SMILES IDX 57 87
REMARK H PARENT 13 20 78 43 48 54
REMARK Flexibility Score: inf
ROOT
ATOM      1  O   UNL     1      -1.731  -7.471   0.225  1.00  0.00    -0.374 OA
ENDROOT
BRANCH   1   2
ATOM      2  C   UNL     1      -0.597  -7.947   0.965  1.00  0.00     0.202 C 
BRANCH   2   3
ATOM      3  C   UNL     1       0.765  -7.377   0.559  1.00  0.00     0.261 C 
BRANCH   3   4
ATOM      4  O   UNL     1       1.218  -6.315   1.431  1.00  0.00    -0.461 OA
BRANCH   4   5
ATOM      5  C   UNL     1       0.943  -5.065   0.978  1.00  0.00     0.338 C 
ATOM      6  O   UNL     1       0.191  -4.861   0.031  1.00  0.00    -0.249 OA
BRANCH   5   7
ATOM      7  C   UNL     1       1.728  -3.951   1.723  1.00  0.00     0.165 C 
ATOM      8  C   UNL     1       3.248  -4.157   1.577  1.00  0.00     0.055 C 
BRANCH   7   9
ATOM      9  C   UNL     1       1.274  -2.538   1.181  1.00  0.00     0.062 C 
BRANCH   9  10
ATOM     10  C   UNL     1      -0.115  -2.015   1.736  1.00  0.00     0.012 C 
BRANCH  10  11
ATOM     11  C   UNL     1      -1.333  -2.932   1.935  1.00  0.00    -0.003 C 
ATOM     12  C   UNL     1      -1.391  -3.722   3.242  1.00  0.00     0.004 C 
ENDBRANCH  10  11
ENDBRANCH   9  10
BRANCH   9  13
ATOM     13  C   UNL     1       1.528  -2.219  -0.319  1.00  0.00    -0.041 A 
ATOM     14  C   UNL     1       2.020  -3.151  -1.254  1.00  0.00     0.004 A 
ATOM     15  C   UNL     1       1.342  -0.909  -0.796  1.00  0.00     0.004 A 
ATOM     16  C   UNL     1       2.284  -2.818  -2.585  1.00  0.00     0.000 A 
ATOM     17  C   UNL     1       1.599  -0.570  -2.132  1.00  0.00     0.000 A 
ATOM     18  C   UNL     1       2.070  -1.525  -3.027  1.00  0.00     0.000 A 
ENDBRANCH   9  13
ENDBRANCH   7   9
BRANCH   7  19
ATOM     19  O   UNL     1       1.536  -4.018   3.143  1.00  0.00    -0.378 OA
ATOM     20  H   UNL     1       2.040  -3.308   3.571  1.00  0.00     0.212 HD
ENDBRANCH   7  19
ENDBRANCH   5   7
ENDBRANCH   4   5
ENDBRANCH   3   4
ENDBRANCH   2   3
ENDBRANCH   1   2
BRANCH   1  21
ATOM     21  C   UNL     1      -2.368  -6.315   0.767  1.00  0.00     0.202 C 
BRANCH  21  22
ATOM     22  C   UNL     1      -3.429  -6.579   1.843  1.00  0.00     0.261 C 
BRANCH  22  23
ATOM     23  O   UNL     1      -2.883  -7.388   2.896  1.00  0.00    -0.460 OA
BRANCH  23  24
ATOM     24  C   UNL     1      -3.333  -8.666   2.868  1.00  0.00     0.338 C 
ATOM     25  O   UNL     1      -4.327  -9.079   2.306  1.00  0.00    -0.246 OA
BRANCH  24  26
ATOM     26  C   UNL     1      -2.310  -9.572   3.424  1.00  0.00     0.060 A 
ATOM     27  C   UNL     1      -1.969 -10.661   2.616  1.00  0.00     0.016 A 
ATOM     28  C   UNL     1      -1.734  -9.412   4.687  1.00  0.00     0.016 A 
ATOM     29  C   UNL     1      -1.140 -11.655   3.109  1.00  0.00     0.010 A 
ATOM     30  C   UNL     1      -0.899 -10.422   5.187  1.00  0.00     0.010 A 
ATOM     31  C   UNL     1      -0.659 -11.578   4.422  1.00  0.00    -0.014 A 
BRANCH  31  32
ATOM     32  C   UNL     1      -0.113 -12.827   5.007  1.00  0.00     0.031 A 
ATOM     33  C   UNL     1      -1.016 -13.670   5.871  1.00  0.00     0.074 A 
ATOM     34  C   UNL     1       1.086 -13.294   4.615  1.00  0.00     0.049 A 
ATOM     35  N   UNL     1      -0.836 -14.886   6.316  1.00  0.00    -0.248 NA
ATOM     36  C   UNL     1      -2.300 -13.070   6.271  1.00  0.00     0.031 C 
ATOM     37  C   UNL     1       2.016 -12.593   3.730  1.00  0.00     0.029 A 
ATOM     38  N   UNL     1       1.704 -14.491   4.875  1.00  0.00    -0.354 N 
ATOM     39  C   UNL     1      -1.982 -15.197   7.041  1.00  0.00     0.074 A 
ATOM     40  C   UNL     1      -2.833 -14.030   7.011  1.00  0.00     0.031 C 
ATOM     41  C   UNL     1       3.074 -13.387   3.493  1.00  0.00     0.029 A 
ATOM     42  C   UNL     1       2.909 -14.638   4.230  1.00  0.00     0.049 A 
ATOM     43  H   UNL     1       1.322 -15.179   5.466  1.00  0.00     0.167 HD
ATOM     44  C   UNL     1      -2.303 -16.356   7.665  1.00  0.00     0.031 A 
ATOM     45  C   UNL     1       3.780 -15.666   4.232  1.00  0.00     0.031 A 
ATOM     46  C   UNL     1      -1.446 -17.511   7.701  1.00  0.00     0.049 A 
ATOM     47  C   UNL     1       3.433 -16.917   4.995  1.00  0.00     0.074 A 
ATOM     48  C   UNL     1      -1.677 -18.734   8.306  1.00  0.00     0.029 A 
ATOM     49  N   UNL     1      -0.192 -17.585   7.114  1.00  0.00    -0.354 N 
ATOM     50  N   UNL     1       2.338 -17.201   5.661  1.00  0.00    -0.248 NA
ATOM     51  C   UNL     1       4.434 -17.992   4.995  1.00  0.00     0.031 C 
ATOM     52  C   UNL     1      -0.533 -19.523   8.143  1.00  0.00     0.029 A 
ATOM     53  C   UNL     1       0.380 -18.820   7.373  1.00  0.00     0.049 A 
ATOM     54  H   UNL     1       0.230 -16.866   6.591  1.00  0.00     0.167 HD
ATOM     55  C   UNL     1       2.510 -18.495   6.142  1.00  0.00     0.074 A 
ATOM     56  C   UNL     1       3.803 -18.945   5.667  1.00  0.00     0.031 C 
ATOM     57  C   UNL     1       1.677 -19.244   6.907  1.00  0.00     0.031 A 
BRANCH  44  58
ATOM     58  C   UNL     1      -3.618 -16.411   8.400  1.00  0.00    -0.014 A 
ATOM     59  C   UNL     1      -4.846 -16.431   7.713  1.00  0.00     0.010 A 
ATOM     60  C   UNL     1      -3.622 -16.478   9.805  1.00  0.00     0.010 A 
ATOM     61  C   UNL     1      -6.052 -16.480   8.420  1.00  0.00     0.020 A 
ATOM     62  C   UNL     1      -4.823 -16.557  10.514  1.00  0.00     0.020 A 
ATOM     63  C   UNL     1      -6.032 -16.542   9.817  1.00  0.00     0.054 A 
BRANCH  63  64
ATOM     64  S   UNL     1      -7.610 -16.631  10.709  1.00  0.00     0.124 S 
ATOM     65  O   UNL     1      -8.142 -15.284  10.517  1.00  0.00    -0.237 OA
ATOM     66  O   UNL     1      -8.319 -17.693  10.001  1.00  0.00    -0.237 OA
ATOM     67  O   UNL     1      -7.217 -16.953  12.079  1.00  0.00    -0.744 OA
ENDBRANCH  63  64
ENDBRANCH  44  58
BRANCH  45  68
ATOM     68  C   UNL     1       5.074 -15.545   3.502  1.00  0.00    -0.014 A 
ATOM     69  C   UNL     1       5.356 -16.337   2.377  1.00  0.00     0.010 A 
ATOM     70  C   UNL     1       6.037 -14.617   3.942  1.00  0.00     0.010 A 
ATOM     71  C   UNL     1       6.583 -16.214   1.714  1.00  0.00     0.020 A 
ATOM     72  C   UNL     1       7.249 -14.469   3.265  1.00  0.00     0.020 A 
ATOM     73  C   UNL     1       7.520 -15.277   2.161  1.00  0.00     0.054 A 
BRANCH  73  74
ATOM     74  S   UNL     1       9.081 -15.094   1.255  1.00  0.00     0.124 S 
ATOM     75  O   UNL     1       9.789 -16.317   1.619  1.00  0.00    -0.237 OA
ATOM     76  O   UNL     1       8.632 -15.010  -0.132  1.00  0.00    -0.237 OA
ATOM     77  O   UNL     1       9.647 -13.859   1.794  1.00  0.00    -0.744 OA
ENDBRANCH  73  74
ENDBRANCH  45  68
BRANCH  57  78
ATOM     78  C   UNL     1       2.132 -20.637   7.261  1.00  0.00    -0.014 A 
ATOM     79  C   UNL     1       3.204 -20.854   8.145  1.00  0.00     0.010 A 
ATOM     80  C   UNL     1       1.458 -21.747   6.718  1.00  0.00     0.010 A 
ATOM     81  C   UNL     1       3.628 -22.153   8.437  1.00  0.00     0.020 A 
ATOM     82  C   UNL     1       1.857 -23.048   7.035  1.00  0.00     0.020 A 
ATOM     83  C   UNL     1       2.954 -23.242   7.875  1.00  0.00     0.054 A 
BRANCH  83  84
ATOM     84  S   UNL     1       3.519 -24.918   8.277  1.00  0.00     0.124 S 
ATOM     85  O   UNL     1       4.761 -25.010   7.515  1.00  0.00    -0.237 OA
ATOM     86  O   UNL     1       3.674 -24.866   9.728  1.00  0.00    -0.237 OA
ATOM     87  O   UNL     1       2.433 -25.773   7.802  1.00  0.00    -0.744 OA
ENDBRANCH  83  84
ENDBRANCH  57  78
ENDBRANCH  31  32
ENDBRANCH  24  26
ENDBRANCH  23  24
ENDBRANCH  22  23
ENDBRANCH  21  22
ENDBRANCH   1  21
TORSDOF 22
