REMARK SMILES C[C@@H](C(=O)OCCOCCOC(=O)c1ccc(-c2c3nc(c(-c4ccc(S(=O)(=O)[O-])cc4)c4ccc([nH]4)c(-c4ccc(S(=O)(=O)[O-])cc4)c4nc(c(-c5ccc(S(=O)(=O)[O-])cc5)c5ccc2[nH]5)C=C4)C=C3)cc1)c1ccc(O[C@H]2CCCC2=O)cc1F
REMARK SMILES IDX 8 1 7 2 6 3 5 4 3 5 4 6 2 7 1 8 74 9 75 10 86 11 76 12 85 13
REMARK SMILES IDX 87 14 77 15 78 16 79 17 80 18 83 19 81 20 82 21 84 22 9 23
REMARK SMILES IDX 10 24 11 25 12 26 13 27 14 28 15 29 73 30 16 31 72 32 17 33
REMARK SMILES IDX 18 34 19 35 66 36 20 37 71 38 65 39 67 40 21 41 70 42 64 43
REMARK SMILES IDX 63 44 22 46 52 47 33 48 51 49 34 50 37 51 50 52 68 53 35 54
REMARK SMILES IDX 36 55 49 57 69 58 38 59 23 60 24 61 32 62 25 63 31 64 26 65
REMARK SMILES IDX 27 66 28 67 29 68 30 69 53 70 54 71 62 72 55 73 61 74 56 75
REMARK SMILES IDX 57 76 58 77 59 78 60 79 39 80 40 81 48 82 41 83 47 84 42 85
REMARK SMILES IDX 43 86 44 87 45 88 46 89
REMARK H PARENT 67 45 37 56
REMARK Flexibility Score: inf
ROOT
ATOM      1  O   UNL     1       0.690   2.627  -3.791  1.00  0.00    -0.374 OA
ENDROOT
BRANCH   1   2
ATOM      2  C   UNL     1       1.991   3.125  -3.479  1.00  0.00     0.202 C 
BRANCH   2   3
ATOM      3  C   UNL     1       2.193   3.659  -2.058  1.00  0.00     0.261 C 
BRANCH   3   4
ATOM      4  O   UNL     1       1.864   2.664  -1.076  1.00  0.00    -0.463 OA
BRANCH   4   5
ATOM      5  C   UNL     1       0.960   3.041  -0.131  1.00  0.00     0.313 C 
ATOM      6  O   UNL     1       0.568   4.194   0.015  1.00  0.00    -0.252 OA
BRANCH   5   7
ATOM      7  C   UNL     1       0.450   1.864   0.722  1.00  0.00     0.129 C 
ATOM      8  C   UNL     1       1.318   0.607   0.560  1.00  0.00     0.025 C 
BRANCH   7   9
ATOM      9  C   UNL     1      -1.065   1.660   0.590  1.00  0.00     0.002 A 
ATOM     10  C   UNL     1      -1.925   2.752   0.799  1.00  0.00     0.011 A 
ATOM     11  C   UNL     1      -1.684   0.430   0.330  1.00  0.00     0.130 A 
ATOM     12  C   UNL     1      -3.315   2.615   0.723  1.00  0.00     0.047 A 
ATOM     13  C   UNL     1      -3.080   0.283   0.279  1.00  0.00     0.086 A 
ATOM     14  F   UNL     1      -0.957  -0.676   0.122  1.00  0.00    -0.207 F 
ATOM     15  C   UNL     1      -3.907   1.379   0.472  1.00  0.00     0.123 A 
BRANCH  15  16
ATOM     16  O   UNL     1      -5.266   1.418   0.447  1.00  0.00    -0.483 OA
BRANCH  16  17
ATOM     17  C   UNL     1      -6.059   0.275   0.267  1.00  0.00     0.239 C 
ATOM     18  C   UNL     1      -6.151  -0.197  -1.191  1.00  0.00     0.054 C 
ATOM     19  C   UNL     1      -5.909  -1.020   1.061  1.00  0.00     0.173 C 
ATOM     20  C   UNL     1      -5.874  -1.699  -1.193  1.00  0.00     0.012 C 
ATOM     21  C   UNL     1      -6.195  -2.218   0.201  1.00  0.00     0.080 C 
ATOM     22  O   UNL     1      -5.667  -1.089   2.259  1.00  0.00    -0.296 OA
ENDBRANCH  16  17
ENDBRANCH  15  16
ENDBRANCH   7   9
ENDBRANCH   5   7
ENDBRANCH   4   5
ENDBRANCH   3   4
ENDBRANCH   2   3
ENDBRANCH   1   2
BRANCH   1  23
ATOM     23  C   UNL     1       0.326   1.350  -3.261  1.00  0.00     0.202 C 
BRANCH  23  24
ATOM     24  C   UNL     1       1.019   0.121  -3.864  1.00  0.00     0.261 C 
BRANCH  24  25
ATOM     25  O   UNL     1       2.430   0.076  -3.574  1.00  0.00    -0.460 OA
BRANCH  25  26
ATOM     26  C   UNL     1       3.234   0.139  -4.663  1.00  0.00     0.338 C 
ATOM     27  O   UNL     1       2.885   0.158  -5.836  1.00  0.00    -0.246 OA
BRANCH  26  28
ATOM     28  C   UNL     1       4.634   0.372  -4.260  1.00  0.00     0.060 A 
ATOM     29  C   UNL     1       5.289   1.481  -4.812  1.00  0.00     0.016 A 
ATOM     30  C   UNL     1       5.324  -0.522  -3.439  1.00  0.00     0.016 A 
ATOM     31  C   UNL     1       6.650   1.674  -4.586  1.00  0.00     0.010 A 
ATOM     32  C   UNL     1       6.695  -0.331  -3.221  1.00  0.00     0.010 A 
ATOM     33  C   UNL     1       7.371   0.746  -3.823  1.00  0.00    -0.014 A 
BRANCH  33  34
ATOM     34  C   UNL     1       8.853   0.830  -3.784  1.00  0.00     0.031 A 
ATOM     35  C   UNL     1       9.659  -0.050  -4.702  1.00  0.00     0.074 A 
ATOM     36  C   UNL     1       9.474   1.708  -2.976  1.00  0.00     0.049 A 
ATOM     37  N   UNL     1      10.958  -0.141  -4.831  1.00  0.00    -0.248 NA
ATOM     38  C   UNL     1       8.900  -0.942  -5.594  1.00  0.00     0.031 C 
ATOM     39  C   UNL     1       8.806   2.646  -2.074  1.00  0.00     0.029 A 
ATOM     40  N   UNL     1      10.811   1.952  -2.786  1.00  0.00    -0.354 N 
ATOM     41  C   UNL     1      11.173  -1.100  -5.815  1.00  0.00     0.074 A 
ATOM     42  C   UNL     1       9.873  -1.582  -6.228  1.00  0.00     0.031 C 
ATOM     43  C   UNL     1       9.739   3.358  -1.418  1.00  0.00     0.029 A 
ATOM     44  C   UNL     1      11.067   2.908  -1.833  1.00  0.00     0.049 A 
ATOM     45  H   UNL     1      11.520   1.485  -3.285  1.00  0.00     0.167 HD
ATOM     46  C   UNL     1      12.346  -1.536  -6.334  1.00  0.00     0.031 A 
ATOM     47  C   UNL     1      12.237   3.358  -1.338  1.00  0.00     0.031 A 
ATOM     48  C   UNL     1      13.640  -1.070  -5.912  1.00  0.00     0.049 A 
ATOM     49  C   UNL     1      13.531   2.807  -1.878  1.00  0.00     0.074 A 
ATOM     50  C   UNL     1      14.887  -1.450  -6.380  1.00  0.00     0.029 A 
ATOM     51  N   UNL     1      13.857  -0.128  -4.918  1.00  0.00    -0.354 N 
ATOM     52  N   UNL     1      13.716   1.913  -2.821  1.00  0.00    -0.248 NA
ATOM     53  C   UNL     1      14.773   3.332  -1.294  1.00  0.00     0.031 C 
ATOM     54  C   UNL     1      15.858  -0.773  -5.634  1.00  0.00     0.029 A 
ATOM     55  C   UNL     1      15.216   0.070  -4.742  1.00  0.00     0.049 A 
ATOM     56  H   UNL     1      13.149   0.333  -4.413  1.00  0.00     0.167 HD
ATOM     57  C   UNL     1      15.095   1.787  -2.958  1.00  0.00     0.074 A 
ATOM     58  C   UNL     1      15.695   2.705  -2.011  1.00  0.00     0.031 C 
ATOM     59  C   UNL     1      15.800   0.985  -3.794  1.00  0.00     0.031 A 
BRANCH  46  60
ATOM     60  C   UNL     1      12.280  -2.597  -7.399  1.00  0.00    -0.014 A 
ATOM     61  C   UNL     1      11.835  -2.296  -8.699  1.00  0.00     0.010 A 
ATOM     62  C   UNL     1      12.695  -3.908  -7.104  1.00  0.00     0.010 A 
ATOM     63  C   UNL     1      11.770  -3.295  -9.674  1.00  0.00     0.020 A 
ATOM     64  C   UNL     1      12.656  -4.905  -8.083  1.00  0.00     0.020 A 
ATOM     65  C   UNL     1      12.176  -4.596  -9.357  1.00  0.00     0.054 A 
BRANCH  65  66
ATOM     66  S   UNL     1      12.095  -5.871 -10.644  1.00  0.00     0.124 S 
ATOM     67  O   UNL     1      10.659  -6.125 -10.726  1.00  0.00    -0.237 OA
ATOM     68  O   UNL     1      12.680  -5.199 -11.802  1.00  0.00    -0.237 OA
ATOM     69  O   UNL     1      12.891  -6.967 -10.097  1.00  0.00    -0.744 OA
ENDBRANCH  65  66
ENDBRANCH  46  60
BRANCH  47  70
ATOM     70  C   UNL     1      12.239   4.373  -0.249  1.00  0.00    -0.014 A 
ATOM     71  C   UNL     1      12.663   5.690  -0.492  1.00  0.00     0.010 A 
ATOM     72  C   UNL     1      11.808   4.019   1.043  1.00  0.00     0.010 A 
ATOM     73  C   UNL     1      12.668   6.633   0.541  1.00  0.00     0.020 A 
ATOM     74  C   UNL     1      11.787   4.965   2.071  1.00  0.00     0.020 A 
ATOM     75  C   UNL     1      12.228   6.265   1.815  1.00  0.00     0.054 A 
BRANCH  75  76
ATOM     76  S   UNL     1      12.187   7.518   3.127  1.00  0.00     0.124 S 
ATOM     77  O   UNL     1      13.599   7.641   3.473  1.00  0.00    -0.237 OA
ATOM     78  O   UNL     1      11.598   8.669   2.447  1.00  0.00    -0.237 OA
ATOM     79  O   UNL     1      11.341   6.911   4.152  1.00  0.00    -0.744 OA
ENDBRANCH  75  76
ENDBRANCH  47  70
BRANCH  59  80
ATOM     80  C   UNL     1      17.302   1.082  -3.749  1.00  0.00    -0.014 A 
ATOM     81  C   UNL     1      18.036   0.546  -2.677  1.00  0.00     0.010 A 
ATOM     82  C   UNL     1      17.992   1.669  -4.827  1.00  0.00     0.010 A 
ATOM     83  C   UNL     1      19.432   0.621  -2.669  1.00  0.00     0.020 A 
ATOM     84  C   UNL     1      19.388   1.723  -4.834  1.00  0.00     0.020 A 
ATOM     85  C   UNL     1      20.099   1.210  -3.748  1.00  0.00     0.054 A 
BRANCH  85  86
ATOM     86  S   UNL     1      21.913   1.256  -3.736  1.00  0.00     0.124 S 
ATOM     87  O   UNL     1      22.183   2.318  -2.771  1.00  0.00    -0.237 OA
ATOM     88  O   UNL     1      22.267  -0.093  -3.302  1.00  0.00    -0.237 OA
ATOM     89  O   UNL     1      22.261   1.569  -5.120  1.00  0.00    -0.744 OA
ENDBRANCH  85  86
ENDBRANCH  59  80
ENDBRANCH  33  34
ENDBRANCH  26  28
ENDBRANCH  25  26
ENDBRANCH  24  25
ENDBRANCH  23  24
ENDBRANCH   1  23
TORSDOF 20
