REMARK SMILES O=C(OCCOCCOC(=O)c1nc(NC[C@H]2c3ccccc3CSc3ccccc32)c2ccccc2n1)c1ccc(-c2c3nc(c(-c4ccc(S(=O)(=O)[O-])cc4)c4ccc([nH]4)c(-c4ccc(S(=O)(=O)[O-])cc4)c4nc(c(-c5ccc(S(=O)(=O)[O-])cc5)c5ccc2[nH]5)C=C4)C=C3)cc1
REMARK SMILES IDX 6 1 5 2 4 3 3 4 2 5 1 6 39 7 40 8 98 9 41 10 97 11 42 12
REMARK SMILES IDX 43 13 44 14 91 15 45 16 96 17 90 18 92 19 46 20 95 21 89 22
REMARK SMILES IDX 88 23 47 25 77 26 58 27 76 28 59 29 62 30 75 31 93 32 60 33
REMARK SMILES IDX 61 34 74 36 94 37 63 38 48 39 49 40 57 41 50 42 56 43 51 44
REMARK SMILES IDX 52 45 53 46 54 47 55 48 78 49 79 50 87 51 80 52 86 53 81 54
REMARK SMILES IDX 82 55 83 56 84 57 85 58 64 59 65 60 73 61 66 62 72 63 67 64
REMARK SMILES IDX 68 65 69 66 70 67 71 68 7 69 8 70 9 71 10 72 11 73 12 74
REMARK SMILES IDX 13 75 38 76 14 77 37 78 32 79 36 80 33 81 35 82 34 83 15 84
REMARK SMILES IDX 16 86 17 87 18 88 31 89 19 90 23 91 26 92 30 93 20 94 22 95
REMARK SMILES IDX 24 96 25 97 27 98 29 99 21 100 28 101
REMARK H PARENT 92 24 62 35 15 85
REMARK Flexibility Score: inf
ROOT
ATOM      1  O   UNL     1       3.763   1.461  -0.716  1.00  0.00    -0.374 OA
ENDROOT
BRANCH   1   2
ATOM      2  C   UNL     1       4.007   0.415  -1.656  1.00  0.00     0.202 C 
BRANCH   2   3
ATOM      3  C   UNL     1       3.709  -0.962  -1.072  1.00  0.00     0.261 C 
BRANCH   3   4
ATOM      4  O   UNL     1       2.366  -1.028  -0.581  1.00  0.00    -0.460 OA
BRANCH   4   5
ATOM      5  C   UNL     1       1.925  -0.847   0.684  1.00  0.00     0.338 C 
ATOM      6  O   UNL     1       0.738  -1.102   0.895  1.00  0.00    -0.246 OA
BRANCH   5   7
ATOM      7  C   UNL     1       2.732  -0.309   1.843  1.00  0.00     0.060 A 
ATOM      8  C   UNL     1       2.045  -0.230   3.070  1.00  0.00     0.016 A 
ATOM      9  C   UNL     1       4.044   0.182   1.824  1.00  0.00     0.016 A 
ATOM     10  C   UNL     1       2.619   0.362   4.199  1.00  0.00     0.010 A 
ATOM     11  C   UNL     1       4.630   0.772   2.949  1.00  0.00     0.010 A 
ATOM     12  C   UNL     1       3.913   0.883   4.136  1.00  0.00    -0.014 A 
BRANCH  12  13
ATOM     13  C   UNL     1       4.555   1.457   5.333  1.00  0.00     0.031 A 
ATOM     14  C   UNL     1       4.663   2.941   5.514  1.00  0.00     0.074 A 
ATOM     15  C   UNL     1       5.057   0.600   6.241  1.00  0.00     0.049 A 
ATOM     16  N   UNL     1       5.063   3.606   6.565  1.00  0.00    -0.248 NA
ATOM     17  C   UNL     1       4.283   3.790   4.373  1.00  0.00     0.031 C 
ATOM     18  C   UNL     1       5.044  -0.859   6.103  1.00  0.00     0.029 A 
ATOM     19  N   UNL     1       5.652   0.818   7.453  1.00  0.00    -0.354 N 
ATOM     20  C   UNL     1       4.958   4.950   6.227  1.00  0.00     0.074 A 
ATOM     21  C   UNL     1       4.508   5.008   4.854  1.00  0.00     0.031 C 
ATOM     22  C   UNL     1       5.564  -1.407   7.210  1.00  0.00     0.029 A 
ATOM     23  C   UNL     1       5.954  -0.341   8.128  1.00  0.00     0.049 A 
ATOM     24  H   UNL     1       5.845   1.716   7.807  1.00  0.00     0.167 HD
ATOM     25  C   UNL     1       5.201   6.027   7.012  1.00  0.00     0.031 A 
ATOM     26  C   UNL     1       6.450  -0.524   9.366  1.00  0.00     0.031 A 
ATOM     27  C   UNL     1       5.669   5.923   8.372  1.00  0.00     0.049 A 
ATOM     28  C   UNL     1       6.686   0.685  10.224  1.00  0.00     0.074 A 
ATOM     29  C   UNL     1       5.906   6.941   9.279  1.00  0.00     0.029 A 
ATOM     30  N   UNL     1       5.972   4.733   9.020  1.00  0.00    -0.354 N 
ATOM     31  N   UNL     1       6.498   1.949   9.925  1.00  0.00    -0.248 NA
ATOM     32  C   UNL     1       7.165   0.449  11.591  1.00  0.00     0.031 C 
ATOM     33  C   UNL     1       6.411   6.372  10.450  1.00  0.00     0.029 A 
ATOM     34  C   UNL     1       6.415   4.993  10.305  1.00  0.00     0.049 A 
ATOM     35  H   UNL     1       5.886   3.836   8.623  1.00  0.00     0.167 HD
ATOM     36  C   UNL     1       6.811   2.661  11.075  1.00  0.00     0.074 A 
ATOM     37  C   UNL     1       7.184   1.683  12.079  1.00  0.00     0.031 C 
ATOM     38  C   UNL     1       6.789   4.000  11.283  1.00  0.00     0.031 A 
BRANCH  25  39
ATOM     39  C   UNL     1       4.937   7.408   6.464  1.00  0.00    -0.014 A 
ATOM     40  C   UNL     1       5.994   8.328   6.325  1.00  0.00     0.010 A 
ATOM     41  C   UNL     1       3.619   7.853   6.250  1.00  0.00     0.010 A 
ATOM     42  C   UNL     1       5.737   9.673   6.037  1.00  0.00     0.020 A 
ATOM     43  C   UNL     1       3.359   9.191   5.935  1.00  0.00     0.020 A 
ATOM     44  C   UNL     1       4.418  10.099   5.862  1.00  0.00     0.054 A 
BRANCH  44  45
ATOM     45  S   UNL     1       4.098  11.862   5.571  1.00  0.00     0.124 S 
ATOM     46  O   UNL     1       4.356  12.444   6.885  1.00  0.00    -0.237 OA
ATOM     47  O   UNL     1       5.068  12.196   4.531  1.00  0.00    -0.237 OA
ATOM     48  O   UNL     1       2.702  11.891   5.139  1.00  0.00    -0.744 OA
ENDBRANCH  44  45
ENDBRANCH  25  39
BRANCH  26  49
ATOM     49  C   UNL     1       6.622  -1.912   9.873  1.00  0.00    -0.014 A 
ATOM     50  C   UNL     1       7.593  -2.765   9.314  1.00  0.00     0.010 A 
ATOM     51  C   UNL     1       5.729  -2.429  10.827  1.00  0.00     0.010 A 
ATOM     52  C   UNL     1       7.630  -4.119   9.657  1.00  0.00     0.020 A 
ATOM     53  C   UNL     1       5.782  -3.778  11.195  1.00  0.00     0.020 A 
ATOM     54  C   UNL     1       6.712  -4.620  10.583  1.00  0.00     0.054 A 
BRANCH  54  55
ATOM     55  S   UNL     1       6.734  -6.394  10.962  1.00  0.00     0.124 S 
ATOM     56  O   UNL     1       6.102  -6.962   9.774  1.00  0.00    -0.237 OA
ATOM     57  O   UNL     1       8.160  -6.672  11.110  1.00  0.00    -0.237 OA
ATOM     58  O   UNL     1       5.952  -6.491  12.193  1.00  0.00    -0.744 OA
ENDBRANCH  54  55
ENDBRANCH  26  49
BRANCH  38  59
ATOM     59  C   UNL     1       7.179   4.502  12.647  1.00  0.00    -0.014 A 
ATOM     60  C   UNL     1       6.213   5.117  13.465  1.00  0.00     0.010 A 
ATOM     61  C   UNL     1       8.519   4.465  13.073  1.00  0.00     0.010 A 
ATOM     62  C   UNL     1       6.583   5.710  14.673  1.00  0.00     0.020 A 
ATOM     63  C   UNL     1       8.886   5.029  14.296  1.00  0.00     0.020 A 
ATOM     64  C   UNL     1       7.920   5.668  15.078  1.00  0.00     0.054 A 
BRANCH  64  65
ATOM     65  S   UNL     1       8.385   6.448  16.647  1.00  0.00     0.124 S 
ATOM     66  O   UNL     1       8.429   7.861  16.286  1.00  0.00    -0.237 OA
ATOM     67  O   UNL     1       7.294   6.058  17.538  1.00  0.00    -0.237 OA
ATOM     68  O   UNL     1       9.678   5.841  16.959  1.00  0.00    -0.744 OA
ENDBRANCH  64  65
ENDBRANCH  38  59
ENDBRANCH  12  13
ENDBRANCH   5   7
ENDBRANCH   4   5
ENDBRANCH   3   4
ENDBRANCH   2   3
ENDBRANCH   1   2
BRANCH   1  69
ATOM     69  C   UNL     1       2.524   2.155  -0.882  1.00  0.00     0.202 C 
BRANCH  69  70
ATOM     70  C   UNL     1       2.782   3.566  -1.413  1.00  0.00     0.261 C 
BRANCH  70  71
ATOM     71  O   UNL     1       3.426   3.479  -2.693  1.00  0.00    -0.457 OA
BRANCH  71  72
ATOM     72  C   UNL     1       4.786   3.370  -2.654  1.00  0.00     0.376 C 
ATOM     73  O   UNL     1       5.511   3.613  -1.700  1.00  0.00    -0.242 OA
BRANCH  72  74
ATOM     74  C   UNL     1       5.243   2.756  -3.939  1.00  0.00     0.241 A 
ATOM     75  N   UNL     1       6.266   1.875  -3.873  1.00  0.00    -0.204 NA
ATOM     76  N   UNL     1       4.557   3.085  -5.045  1.00  0.00    -0.222 NA
ATOM     77  C   UNL     1       6.697   1.354  -5.030  1.00  0.00     0.138 A 
ATOM     78  C   UNL     1       5.006   2.582  -6.185  1.00  0.00     0.077 A 
ATOM     79  C   UNL     1       6.131   1.746  -6.263  1.00  0.00     0.043 A 
ATOM     80  C   UNL     1       4.316   2.914  -7.342  1.00  0.00     0.029 A 
ATOM     81  C   UNL     1       6.578   1.345  -7.546  1.00  0.00     0.014 A 
ATOM     82  C   UNL     1       4.737   2.476  -8.596  1.00  0.00     0.002 A 
ATOM     83  C   UNL     1       5.885   1.706  -8.701  1.00  0.00     0.001 A 
BRANCH  77  84
ATOM     84  N   UNL     1       7.710   0.387  -4.994  1.00  0.00    -0.368 N 
ATOM     85  H   UNL     1       8.321   0.298  -5.761  1.00  0.00     0.162 HD
BRANCH  84  86
ATOM     86  C   UNL     1       7.879  -0.497  -3.832  1.00  0.00     0.127 C 
BRANCH  86  87
ATOM     87  C   UNL     1       7.787  -2.113  -3.999  1.00  0.00     0.070 C 
ATOM     88  C   UNL     1       7.469  -2.778  -2.600  1.00  0.00    -0.035 A 
ATOM     89  C   UNL     1       7.076  -2.701  -5.277  1.00  0.00    -0.025 A 
ATOM     90  C   UNL     1       7.082  -2.043  -1.455  1.00  0.00     0.005 A 
ATOM     91  C   UNL     1       7.625  -4.166  -2.387  1.00  0.00    -0.034 A 
ATOM     92  C   UNL     1       6.445  -3.957  -5.454  1.00  0.00     0.011 A 
ATOM     93  C   UNL     1       7.216  -1.981  -6.486  1.00  0.00     0.005 A 
ATOM     94  C   UNL     1       6.784  -2.647  -0.221  1.00  0.00     0.000 A 
ATOM     95  C   UNL     1       7.281  -4.771  -1.152  1.00  0.00     0.005 A 
ATOM     96  C   UNL     1       8.005  -5.091  -3.498  1.00  0.00     0.110 C 
ATOM     97  S   UNL     1       6.494  -5.415  -4.416  1.00  0.00    -0.121 SA
ATOM     98  C   UNL     1       5.791  -4.284  -6.676  1.00  0.00     0.015 A 
ATOM     99  C   UNL     1       6.579  -2.303  -7.692  1.00  0.00     0.000 A 
ATOM    100  C   UNL     1       6.849  -4.017  -0.076  1.00  0.00     0.000 A 
ATOM    101  C   UNL     1       5.824  -3.446  -7.778  1.00  0.00     0.001 A 
ENDBRANCH  86  87
ENDBRANCH  84  86
ENDBRANCH  77  84
ENDBRANCH  72  74
ENDBRANCH  71  72
ENDBRANCH  70  71
ENDBRANCH  69  70
ENDBRANCH   1  69
TORSDOF 20
