REMARK SMILES CCn1ccc2cc(S(=O)(=O)N3CCC[C@@H](C(=O)OCCOCCOC(=O)c4ccc(-c5c6nc(c(-c7ccc(S(=O)(=O)[O-])cc7)c7ccc([nH]7)c(-c7ccc(S(=O)(=O)[O-])cc7)c7nc(c(-c8ccc(S(=O)(=O)[O-])cc8)c8ccc5[nH]8)C=C7)C=C6)cc4)C3)ccc21
REMARK SMILES IDX 22 1 21 2 20 3 19 4 17 5 18 6 16 7 12 8 13 9 88 10 14 11
REMARK SMILES IDX 15 12 9 13 10 14 11 15 8 16 3 17 4 18 91 19 5 20 6 21 90 22
REMARK SMILES IDX 7 23 89 24 2 25 1 26 23 27 24 28 25 29 26 30 27 31 28 32
REMARK SMILES IDX 29 33 87 34 30 35 86 36 31 37 32 38 33 39 80 40 34 41 85 42
REMARK SMILES IDX 79 43 81 44 35 45 84 46 78 47 77 48 36 50 66 51 47 52 65 53
REMARK SMILES IDX 48 54 51 55 64 56 82 57 49 58 50 59 63 61 83 62 52 63 37 64
REMARK SMILES IDX 38 65 46 66 39 67 45 68 40 69 41 70 42 71 43 72 44 73 67 74
REMARK SMILES IDX 68 75 76 76 69 77 75 78 70 79 71 80 72 81 73 82 74 83 53 84
REMARK SMILES IDX 54 85 62 86 55 87 61 88 56 89 57 90 58 91 59 92 60 93
REMARK H PARENT 81 49 51 60
REMARK Flexibility Score: inf
ROOT
ATOM      1  O   UNL     1      -4.538  -4.740  -0.268  1.00  0.00    -0.374 OA
ENDROOT
BRANCH   1   2
ATOM      2  C   UNL     1      -5.589  -5.651  -0.572  1.00  0.00     0.202 C 
BRANCH   2   3
ATOM      3  C   UNL     1      -5.388  -6.788  -1.589  1.00  0.00     0.261 C 
BRANCH   3   4
ATOM      4  O   UNL     1      -4.101  -7.423  -1.551  1.00  0.00    -0.463 OA
BRANCH   4   5
ATOM      5  C   UNL     1      -3.308  -7.026  -2.578  1.00  0.00     0.310 C 
ATOM      6  O   UNL     1      -3.664  -6.223  -3.435  1.00  0.00    -0.252 OA
BRANCH   5   7
ATOM      7  C   UNL     1      -1.904  -7.617  -2.557  1.00  0.00     0.114 C 
ATOM      8  N   UNL     1       0.370  -6.781  -3.315  1.00  0.00    -0.197 NA
ATOM      9  C   UNL     1       0.995  -7.171  -2.038  1.00  0.00     0.102 C 
ATOM     10  C   UNL     1      -1.095  -6.593  -3.353  1.00  0.00     0.117 C 
ATOM     11  C   UNL     1       0.190  -8.254  -1.327  1.00  0.00     0.018 C 
ATOM     12  C   UNL     1      -1.272  -7.848  -1.181  1.00  0.00     0.018 C 
BRANCH   8  13
ATOM     13  S   UNL     1       1.239  -5.685  -4.302  1.00  0.00     0.243 S 
ATOM     14  O   UNL     1       0.591  -5.664  -5.603  1.00  0.00    -0.207 OA
ATOM     15  O   UNL     1       2.642  -5.992  -4.173  1.00  0.00    -0.207 OA
BRANCH  13  16
ATOM     16  C   UNL     1       1.025  -4.040  -3.627  1.00  0.00     0.083 A 
ATOM     17  N   UNL     1       0.985  -0.076  -2.424  1.00  0.00    -0.348 N 
ATOM     18  C   UNL     1       1.554   0.550  -3.505  1.00  0.00     0.087 A 
ATOM     19  C   UNL     1       0.877  -1.431  -2.668  1.00  0.00     0.048 A 
ATOM     20  C   UNL     1       1.818  -0.404  -4.460  1.00  0.00     0.028 A 
ATOM     21  C   UNL     1       1.422  -1.662  -3.936  1.00  0.00     0.001 A 
ATOM     22  C   UNL     1       0.352  -2.474  -1.894  1.00  0.00     0.028 A 
ATOM     23  C   UNL     1       1.476  -2.980  -4.431  1.00  0.00     0.032 A 
ATOM     24  C   UNL     1       0.458  -3.780  -2.381  1.00  0.00     0.024 A 
BRANCH  17  25
ATOM     25  C   UNL     1       0.530   0.620  -1.230  1.00  0.00     0.119 C 
ATOM     26  C   UNL     1       1.231   0.191   0.052  1.00  0.00     0.027 C 
ENDBRANCH  17  25
ENDBRANCH  13  16
ENDBRANCH   8  13
ENDBRANCH   5   7
ENDBRANCH   4   5
ENDBRANCH   3   4
ENDBRANCH   2   3
ENDBRANCH   1   2
BRANCH   1  27
ATOM     27  C   UNL     1      -3.373  -5.257   0.366  1.00  0.00     0.202 C 
BRANCH  27  28
ATOM     28  C   UNL     1      -3.487  -5.978   1.724  1.00  0.00     0.261 C 
BRANCH  28  29
ATOM     29  O   UNL     1      -4.326  -7.139   1.656  1.00  0.00    -0.460 OA
BRANCH  29  30
ATOM     30  C   UNL     1      -5.212  -7.273   2.684  1.00  0.00     0.338 C 
ATOM     31  O   UNL     1      -5.114  -6.804   3.804  1.00  0.00    -0.246 OA
BRANCH  30  32
ATOM     32  C   UNL     1      -6.476  -7.729   2.067  1.00  0.00     0.060 A 
ATOM     33  C   UNL     1      -6.493  -8.809   1.182  1.00  0.00     0.016 A 
ATOM     34  C   UNL     1      -7.553  -6.826   2.125  1.00  0.00     0.016 A 
ATOM     35  C   UNL     1      -7.551  -8.918   0.283  1.00  0.00     0.010 A 
ATOM     36  C   UNL     1      -8.581  -6.914   1.189  1.00  0.00     0.010 A 
ATOM     37  C   UNL     1      -8.557  -7.932   0.236  1.00  0.00    -0.014 A 
BRANCH  37  38
ATOM     38  C   UNL     1      -9.682  -8.133  -0.684  1.00  0.00     0.031 A 
ATOM     39  C   UNL     1     -10.472  -9.346  -0.342  1.00  0.00     0.074 A 
ATOM     40  C   UNL     1     -10.110  -7.326  -1.681  1.00  0.00     0.049 A 
ATOM     41  N   UNL     1     -10.605 -10.414  -1.053  1.00  0.00    -0.248 NA
ATOM     42  C   UNL     1     -11.049  -9.439   1.008  1.00  0.00     0.031 C 
ATOM     43  C   UNL     1      -9.648  -5.993  -2.066  1.00  0.00     0.029 A 
ATOM     44  N   UNL     1     -11.159  -7.534  -2.536  1.00  0.00    -0.354 N 
ATOM     45  C   UNL     1     -11.395 -11.279  -0.307  1.00  0.00     0.074 A 
ATOM     46  C   UNL     1     -11.538 -10.678   0.997  1.00  0.00     0.031 C 
ATOM     47  C   UNL     1     -10.552  -5.426  -2.906  1.00  0.00     0.029 A 
ATOM     48  C   UNL     1     -11.579  -6.402  -3.231  1.00  0.00     0.049 A 
ATOM     49  H   UNL     1     -11.583  -8.415  -2.652  1.00  0.00     0.167 HD
ATOM     50  C   UNL     1     -11.993 -12.371  -0.852  1.00  0.00     0.031 A 
ATOM     51  C   UNL     1     -12.703  -6.277  -3.990  1.00  0.00     0.031 A 
ATOM     52  C   UNL     1     -11.461 -12.689  -2.148  1.00  0.00     0.049 A 
ATOM     53  C   UNL     1     -13.096  -7.639  -4.418  1.00  0.00     0.074 A 
ATOM     54  C   UNL     1     -10.223 -13.093  -2.606  1.00  0.00     0.029 A 
ATOM     55  N   UNL     1     -12.145 -12.229  -3.248  1.00  0.00    -0.354 N 
ATOM     56  N   UNL     1     -12.397  -8.354  -5.252  1.00  0.00    -0.248 NA
ATOM     57  C   UNL     1     -14.038  -8.377  -3.593  1.00  0.00     0.031 C 
ATOM     58  C   UNL     1     -10.050 -12.409  -3.841  1.00  0.00     0.029 A 
ATOM     59  C   UNL     1     -11.217 -11.687  -4.102  1.00  0.00     0.049 A 
ATOM     60  H   UNL     1     -13.117 -12.279  -3.395  1.00  0.00     0.167 HD
ATOM     61  C   UNL     1     -12.469  -9.642  -4.747  1.00  0.00     0.074 A 
ATOM     62  C   UNL     1     -13.566  -9.612  -3.781  1.00  0.00     0.031 C 
ATOM     63  C   UNL     1     -11.460 -10.539  -4.950  1.00  0.00     0.031 A 
BRANCH  50  64
ATOM     64  C   UNL     1     -13.242 -12.999  -0.313  1.00  0.00    -0.014 A 
ATOM     65  C   UNL     1     -14.137 -12.304   0.525  1.00  0.00     0.010 A 
ATOM     66  C   UNL     1     -13.667 -14.243  -0.819  1.00  0.00     0.010 A 
ATOM     67  C   UNL     1     -15.375 -12.835   0.883  1.00  0.00     0.020 A 
ATOM     68  C   UNL     1     -14.927 -14.767  -0.500  1.00  0.00     0.020 A 
ATOM     69  C   UNL     1     -15.767 -14.063   0.360  1.00  0.00     0.054 A 
BRANCH  69  70
ATOM     70  S   UNL     1     -17.412 -14.682   0.787  1.00  0.00     0.124 S 
ATOM     71  O   UNL     1     -17.273 -14.938   2.218  1.00  0.00    -0.237 OA
ATOM     72  O   UNL     1     -18.271 -13.558   0.427  1.00  0.00    -0.237 OA
ATOM     73  O   UNL     1     -17.558 -15.871  -0.048  1.00  0.00    -0.744 OA
ENDBRANCH  69  70
ENDBRANCH  50  64
BRANCH  51  74
ATOM     74  C   UNL     1     -13.688  -5.158  -4.015  1.00  0.00    -0.014 A 
ATOM     75  C   UNL     1     -13.809  -4.312  -2.896  1.00  0.00     0.010 A 
ATOM     76  C   UNL     1     -14.736  -5.142  -4.963  1.00  0.00     0.010 A 
ATOM     77  C   UNL     1     -14.973  -3.566  -2.672  1.00  0.00     0.020 A 
ATOM     78  C   UNL     1     -15.908  -4.394  -4.744  1.00  0.00     0.020 A 
ATOM     79  C   UNL     1     -16.035  -3.648  -3.573  1.00  0.00     0.054 A 
BRANCH  79  80
ATOM     80  S   UNL     1     -17.608  -2.854  -3.123  1.00  0.00     0.124 S 
ATOM     81  O   UNL     1     -18.048  -3.673  -1.997  1.00  0.00    -0.237 OA
ATOM     82  O   UNL     1     -17.192  -1.495  -2.782  1.00  0.00    -0.237 OA
ATOM     83  O   UNL     1     -18.417  -2.969  -4.333  1.00  0.00    -0.744 OA
ENDBRANCH  79  80
ENDBRANCH  51  74
BRANCH  63  84
ATOM     84  C   UNL     1     -10.361 -10.199  -5.938  1.00  0.00    -0.014 A 
ATOM     85  C   UNL     1     -10.018 -11.183  -6.883  1.00  0.00     0.010 A 
ATOM     86  C   UNL     1      -9.540  -9.057  -5.834  1.00  0.00     0.010 A 
ATOM     87  C   UNL     1      -8.870 -11.060  -7.666  1.00  0.00     0.020 A 
ATOM     88  C   UNL     1      -8.400  -8.912  -6.641  1.00  0.00     0.020 A 
ATOM     89  C   UNL     1      -8.059  -9.932  -7.532  1.00  0.00     0.054 A 
BRANCH  89  90
ATOM     90  S   UNL     1      -6.543  -9.853  -8.523  1.00  0.00     0.124 S 
ATOM     91  O   UNL     1      -5.704 -10.862  -7.880  1.00  0.00    -0.237 OA
ATOM     92  O   UNL     1      -7.016 -10.197  -9.862  1.00  0.00    -0.237 OA
ATOM     93  O   UNL     1      -6.089  -8.474  -8.364  1.00  0.00    -0.744 OA
ENDBRANCH  89  90
ENDBRANCH  63  84
ENDBRANCH  37  38
ENDBRANCH  30  32
ENDBRANCH  29  30
ENDBRANCH  28  29
ENDBRANCH  27  28
ENDBRANCH   1  27
TORSDOF 20
