REMARK SMILES CC1=C(C)C[C@@H](C(=O)OCCOCCOC(=O)c2ccc(-c3c4nc(c(-c5ccc(S(=O)(=O)[O-])cc5)c5ccc([nH]5)c(-c5ccc(S(=O)(=O)[O-])cc5)c5nc(c(-c6ccc(S(=O)(=O)[O-])cc6)c6ccc3[nH]6)C=C5)C=C4)cc2)[C@@H](C(=O)NCC[NH+]2CCOCC2)C1
REMARK SMILES IDX 11 1 10 2 9 3 7 4 8 5 6 6 1 7 2 8 3 9 90 10 4 11 5 12 78 13
REMARK SMILES IDX 79 14 80 15 81 16 82 18 83 19 84 20 85 21 89 22 86 24 88 25
REMARK SMILES IDX 87 26 12 27 13 28 14 29 15 30 16 31 17 32 18 33 19 34 77 35
REMARK SMILES IDX 20 36 76 37 21 38 22 39 23 40 70 41 24 42 75 43 69 44 71 45
REMARK SMILES IDX 25 46 74 47 68 48 67 49 26 51 56 52 37 53 55 54 38 55 41 56
REMARK SMILES IDX 54 57 72 58 39 59 40 60 53 62 73 63 42 64 27 65 28 66 36 67
REMARK SMILES IDX 29 68 35 69 30 70 31 71 32 72 33 73 34 74 57 75 58 76 66 77
REMARK SMILES IDX 59 78 65 79 60 80 61 81 62 82 63 83 64 84 43 85 44 86 52 87
REMARK SMILES IDX 45 88 51 89 46 90 47 91 48 92 49 93 50 94
REMARK H PARENT 81 17 84 23 71 50 41 61
REMARK Flexibility Score: inf
ROOT
ATOM      1  C   UNL     1      -5.044   1.512  -4.032  1.00  0.00     0.202 C 
ENDROOT
BRANCH   1   2
ATOM      2  C   UNL     1      -4.067   0.442  -3.502  1.00  0.00     0.261 C 
BRANCH   2   3
ATOM      3  O   UNL     1      -2.712   0.869  -3.179  1.00  0.00    -0.463 OA
BRANCH   3   4
ATOM      4  C   UNL     1      -1.755   0.438  -4.023  1.00  0.00     0.310 C 
ATOM      5  O   UNL     1      -2.013  -0.189  -5.055  1.00  0.00    -0.252 OA
BRANCH   4   6
ATOM      6  C   UNL     1      -0.285   0.704  -3.687  1.00  0.00     0.116 C 
ATOM      7  C   UNL     1       1.107  -0.228   0.366  1.00  0.00     0.039 C 
ATOM      8  C   UNL     1       0.872  -0.057  -1.109  1.00  0.00    -0.074 C 
ATOM      9  C   UNL     1       0.432  -1.016  -1.947  1.00  0.00    -0.073 C 
ATOM     10  C   UNL     1       1.238   1.305  -1.660  1.00  0.00     0.045 C 
ATOM     11  C   UNL     1       0.096  -2.438  -1.583  1.00  0.00     0.039 C 
ATOM     12  C   UNL     1       0.316  -0.693  -3.411  1.00  0.00     0.046 C 
ATOM     13  C   UNL     1       0.361   1.837  -2.828  1.00  0.00     0.097 C 
BRANCH  13  14
ATOM     14  C   UNL     1      -0.491   2.974  -2.261  1.00  0.00     0.224 C 
ATOM     15  O   UNL     1      -1.273   2.768  -1.332  1.00  0.00    -0.275 OA
ATOM     16  N   UNL     1      -0.380   4.273  -2.713  1.00  0.00    -0.350 N 
ATOM     17  H   UNL     1      -1.102   4.858  -2.389  1.00  0.00     0.163 HD
BRANCH  16  18
ATOM     18  C   UNL     1       0.585   4.969  -3.572  1.00  0.00     0.177 C 
BRANCH  18  19
ATOM     19  C   UNL     1       0.098   5.447  -4.984  1.00  0.00     0.283 C 
BRANCH  19  20
ATOM     20  N   UNL     1      -0.445   6.822  -5.100  1.00  0.00    -0.330 N 
ATOM     21  C   UNL     1      -1.888   6.984  -4.785  1.00  0.00     0.291 C 
ATOM     22  C   UNL     1      -0.237   7.403  -6.454  1.00  0.00     0.291 C 
ATOM     23  H   UNL     1       0.091   7.314  -4.386  1.00  0.00     0.348 HD
ATOM     24  C   UNL     1      -2.889   6.630  -5.923  1.00  0.00     0.221 C 
ATOM     25  C   UNL     1      -1.208   6.878  -7.521  1.00  0.00     0.221 C 
ATOM     26  O   UNL     1      -2.544   7.245  -7.170  1.00  0.00    -0.370 OA
ENDBRANCH  19  20
ENDBRANCH  18  19
ENDBRANCH  16  18
ENDBRANCH  13  14
ENDBRANCH   4   6
ENDBRANCH   3   4
ENDBRANCH   2   3
ENDBRANCH   1   2
BRANCH   1  27
ATOM     27  O   UNL     1      -4.785   2.182  -5.258  1.00  0.00    -0.374 OA
BRANCH  27  28
ATOM     28  C   UNL     1      -3.507   2.736  -5.466  1.00  0.00     0.202 C 
BRANCH  28  29
ATOM     29  C   UNL     1      -2.826   3.507  -4.341  1.00  0.00     0.261 C 
BRANCH  29  30
ATOM     30  O   UNL     1      -3.400   3.483  -3.039  1.00  0.00    -0.460 OA
BRANCH  30  31
ATOM     31  C   UNL     1      -4.107   4.561  -2.651  1.00  0.00     0.338 C 
ATOM     32  O   UNL     1      -4.353   5.564  -3.307  1.00  0.00    -0.246 OA
BRANCH  31  33
ATOM     33  C   UNL     1      -4.633   4.306  -1.304  1.00  0.00     0.060 A 
ATOM     34  C   UNL     1      -5.967   3.908  -1.189  1.00  0.00     0.016 A 
ATOM     35  C   UNL     1      -3.835   4.472  -0.169  1.00  0.00     0.016 A 
ATOM     36  C   UNL     1      -6.509   3.674   0.071  1.00  0.00     0.010 A 
ATOM     37  C   UNL     1      -4.385   4.239   1.096  1.00  0.00     0.010 A 
ATOM     38  C   UNL     1      -5.730   3.853   1.223  1.00  0.00    -0.014 A 
BRANCH  38  39
ATOM     39  C   UNL     1      -6.368   3.701   2.554  1.00  0.00     0.031 A 
ATOM     40  C   UNL     1      -6.744   4.925   3.340  1.00  0.00     0.074 A 
ATOM     41  C   UNL     1      -6.670   2.475   3.021  1.00  0.00     0.049 A 
ATOM     42  N   UNL     1      -7.373   5.010   4.484  1.00  0.00    -0.248 NA
ATOM     43  C   UNL     1      -6.368   6.225   2.762  1.00  0.00     0.031 C 
ATOM     44  C   UNL     1      -6.378   1.216   2.336  1.00  0.00     0.029 A 
ATOM     45  N   UNL     1      -7.302   2.090   4.177  1.00  0.00    -0.354 N 
ATOM     46  C   UNL     1      -7.471   6.368   4.763  1.00  0.00     0.074 A 
ATOM     47  C   UNL     1      -6.803   7.069   3.687  1.00  0.00     0.031 C 
ATOM     48  C   UNL     1      -6.846   0.197   3.077  1.00  0.00     0.029 A 
ATOM     49  C   UNL     1      -7.437   0.728   4.304  1.00  0.00     0.049 A 
ATOM     50  H   UNL     1      -7.628   2.728   4.851  1.00  0.00     0.167 HD
ATOM     51  C   UNL     1      -8.072   6.976   5.814  1.00  0.00     0.031 A 
ATOM     52  C   UNL     1      -7.965  -0.010   5.301  1.00  0.00     0.031 A 
ATOM     53  C   UNL     1      -8.717   6.272   6.892  1.00  0.00     0.049 A 
ATOM     54  C   UNL     1      -8.562   0.688   6.495  1.00  0.00     0.074 A 
ATOM     55  C   UNL     1      -9.367   6.799   7.994  1.00  0.00     0.029 A 
ATOM     56  N   UNL     1      -8.785   4.892   7.011  1.00  0.00    -0.354 N 
ATOM     57  N   UNL     1      -8.682   1.975   6.723  1.00  0.00    -0.248 NA
ATOM     58  C   UNL     1      -9.106  -0.166   7.560  1.00  0.00     0.031 C 
ATOM     59  C   UNL     1      -9.768   5.739   8.813  1.00  0.00     0.029 A 
ATOM     60  C   UNL     1      -9.437   4.550   8.185  1.00  0.00     0.049 A 
ATOM     61  H   UNL     1      -8.424   4.250   6.358  1.00  0.00     0.167 HD
ATOM     62  C   UNL     1      -9.340   2.084   7.944  1.00  0.00     0.074 A 
ATOM     63  C   UNL     1      -9.607   0.734   8.396  1.00  0.00     0.031 C 
ATOM     64  C   UNL     1      -9.694   3.201   8.627  1.00  0.00     0.031 A 
BRANCH  51  65
ATOM     65  C   UNL     1      -8.029   8.481   5.866  1.00  0.00    -0.014 A 
ATOM     66  C   UNL     1      -8.764   9.267   4.960  1.00  0.00     0.010 A 
ATOM     67  C   UNL     1      -7.275   9.121   6.867  1.00  0.00     0.010 A 
ATOM     68  C   UNL     1      -8.715  10.662   5.030  1.00  0.00     0.020 A 
ATOM     69  C   UNL     1      -7.247  10.515   6.960  1.00  0.00     0.020 A 
ATOM     70  C   UNL     1      -7.956  11.277   6.030  1.00  0.00     0.054 A 
BRANCH  70  71
ATOM     71  S   UNL     1      -7.930  13.089   6.111  1.00  0.00     0.124 S 
ATOM     72  O   UNL     1      -7.147  13.433   4.926  1.00  0.00    -0.237 OA
ATOM     73  O   UNL     1      -9.349  13.432   6.046  1.00  0.00    -0.237 OA
ATOM     74  O   UNL     1      -7.281  13.372   7.388  1.00  0.00    -0.744 OA
ENDBRANCH  70  71
ENDBRANCH  51  65
BRANCH  52  75
ATOM     75  C   UNL     1      -7.938  -1.498   5.220  1.00  0.00    -0.014 A 
ATOM     76  C   UNL     1      -9.126  -2.238   5.087  1.00  0.00     0.010 A 
ATOM     77  C   UNL     1      -6.710  -2.184   5.278  1.00  0.00     0.010 A 
ATOM     78  C   UNL     1      -9.088  -3.636   5.031  1.00  0.00     0.020 A 
ATOM     79  C   UNL     1      -6.665  -3.578   5.191  1.00  0.00     0.020 A 
ATOM     80  C   UNL     1      -7.856  -4.296   5.079  1.00  0.00     0.054 A 
BRANCH  80  81
ATOM     81  S   UNL     1      -7.828  -6.106   4.955  1.00  0.00     0.124 S 
ATOM     82  O   UNL     1      -8.376  -6.509   6.246  1.00  0.00    -0.237 OA
ATOM     83  O   UNL     1      -8.683  -6.355   3.797  1.00  0.00    -0.237 OA
ATOM     84  O   UNL     1      -6.413  -6.413   4.753  1.00  0.00    -0.744 OA
ENDBRANCH  80  81
ENDBRANCH  52  75
BRANCH  64  85
ATOM     85  C   UNL     1     -10.444   3.019   9.923  1.00  0.00    -0.014 A 
ATOM     86  C   UNL     1      -9.814   2.502  11.070  1.00  0.00     0.010 A 
ATOM     87  C   UNL     1     -11.789   3.425  10.008  1.00  0.00     0.010 A 
ATOM     88  C   UNL     1     -10.526   2.364  12.266  1.00  0.00     0.020 A 
ATOM     89  C   UNL     1     -12.494   3.319  11.209  1.00  0.00     0.020 A 
ATOM     90  C   UNL     1     -11.861   2.775  12.328  1.00  0.00     0.054 A 
BRANCH  90  91
ATOM     91  S   UNL     1     -12.748   2.623  13.903  1.00  0.00     0.124 S 
ATOM     92  O   UNL     1     -12.932   1.179  14.011  1.00  0.00    -0.237 OA
ATOM     93  O   UNL     1     -11.810   3.211  14.856  1.00  0.00    -0.237 OA
ATOM     94  O   UNL     1     -13.972   3.392  13.688  1.00  0.00    -0.744 OA
ENDBRANCH  90  91
ENDBRANCH  64  85
ENDBRANCH  38  39
ENDBRANCH  31  33
ENDBRANCH  30  31
ENDBRANCH  29  30
ENDBRANCH  28  29
ENDBRANCH  27  28
ENDBRANCH   1  27
TORSDOF 21
