REMARK SMILES CC(C)[C@H](NC(=O)[C@H](C)NC(=O)C[NH3+])C(=O)OCCOCCOC(=O)c1ccc(-c2c3nc(c(-c4ccc(S(=O)(=O)[O-])cc4)c4ccc([nH]4)c(-c4ccc(S(=O)(=O)[O-])cc4)c4nc(c(-c5ccc(S(=O)(=O)[O-])cc5)c5ccc2[nH]5)C=C4)C=C3)cc1
REMARK SMILES IDX 19 1 18 2 17 3 15 4 16 5 4 6 2 7 1 8 3 9 5 10 6 11 7 13 8 14
REMARK SMILES IDX 9 15 10 16 11 17 12 19 13 20 14 21 20 25 21 26 22 27 23 28
REMARK SMILES IDX 24 29 25 30 26 31 27 32 85 33 28 34 84 35 29 36 30 37 31 38
REMARK SMILES IDX 78 39 32 40 83 41 77 42 79 43 33 44 82 45 76 46 75 47 34 49
REMARK SMILES IDX 64 50 45 51 63 52 46 53 49 54 62 55 80 56 47 57 48 58 61 60
REMARK SMILES IDX 81 61 50 62 35 63 36 64 44 65 37 66 43 67 38 68 39 69 40 70
REMARK SMILES IDX 41 71 42 72 65 73 66 74 74 75 67 76 73 77 68 78 69 79 70 80
REMARK SMILES IDX 71 81 72 82 51 83 52 84 60 85 53 86 59 87 54 88 55 89 56 90
REMARK SMILES IDX 57 91 58 92
REMARK H PARENT 5 12 10 18 14 22 14 23 14 24 79 48 49 59
REMARK Flexibility Score: inf
ROOT
ATOM      1  C   UNL     1      -6.086   2.961  -2.019  1.00  0.00     0.202 C 
ENDROOT
BRANCH   1   2
ATOM      2  C   UNL     1      -4.594   2.633  -1.994  1.00  0.00     0.261 C 
BRANCH   2   3
ATOM      3  O   UNL     1      -4.018   2.735  -3.314  1.00  0.00    -0.462 OA
BRANCH   3   4
ATOM      4  C   UNL     1      -3.152   1.739  -3.651  1.00  0.00     0.328 C 
ATOM      5  O   UNL     1      -2.839   0.805  -2.919  1.00  0.00    -0.250 OA
BRANCH   4   6
ATOM      6  C   UNL     1      -2.434   2.005  -4.987  1.00  0.00     0.194 C 
BRANCH   6   7
ATOM      7  C   UNL     1      -1.021   2.541  -4.584  1.00  0.00     0.017 C 
ATOM      8  C   UNL     1       0.012   1.414  -4.692  1.00  0.00     0.010 C 
ATOM      9  C   UNL     1      -0.527   3.771  -5.348  1.00  0.00     0.010 C 
ENDBRANCH   6   7
BRANCH   6  10
ATOM     10  N   UNL     1      -3.138   2.892  -5.917  1.00  0.00    -0.341 N 
ATOM     11  C   UNL     1      -3.840   2.644  -7.059  1.00  0.00     0.243 C 
ATOM     12  H   UNL     1      -3.096   3.845  -5.671  1.00  0.00     0.164 HD
ATOM     13  O   UNL     1      -4.052   3.626  -7.778  1.00  0.00    -0.273 OA
BRANCH  11  14
ATOM     14  C   UNL     1      -4.231   1.210  -7.530  1.00  0.00     0.168 C 
ATOM     15  C   UNL     1      -5.363   1.319  -8.564  1.00  0.00     0.041 C 
BRANCH  14  16
ATOM     16  N   UNL     1      -4.711   0.367  -6.435  1.00  0.00    -0.340 N 
ATOM     17  C   UNL     1      -4.362  -0.872  -6.016  1.00  0.00     0.275 C 
ATOM     18  H   UNL     1      -5.426   0.781  -5.899  1.00  0.00     0.164 HD
ATOM     19  O   UNL     1      -5.000  -1.369  -5.088  1.00  0.00    -0.268 OA
BRANCH  17  20
ATOM     20  C   UNL     1      -3.277  -1.647  -6.742  1.00  0.00     0.360 C 
BRANCH  20  21
ATOM     21  N   UNL     1      -3.868  -2.271  -7.933  1.00  0.00    -0.350 N 
ATOM     22  H   UNL     1      -4.622  -2.897  -7.649  1.00  0.00     0.344 HD
ATOM     23  H   UNL     1      -3.153  -2.803  -8.428  1.00  0.00     0.344 HD
ATOM     24  H   UNL     1      -4.240  -1.547  -8.547  1.00  0.00     0.344 HD
ENDBRANCH  20  21
ENDBRANCH  17  20
ENDBRANCH  14  16
ENDBRANCH  11  14
ENDBRANCH   6  10
ENDBRANCH   4   6
ENDBRANCH   3   4
ENDBRANCH   2   3
ENDBRANCH   1   2
BRANCH   1  25
ATOM     25  O   UNL     1      -6.961   1.999  -2.613  1.00  0.00    -0.374 OA
BRANCH  25  26
ATOM     26  C   UNL     1      -6.676   1.581  -3.939  1.00  0.00     0.202 C 
BRANCH  26  27
ATOM     27  C   UNL     1      -6.976   2.558  -5.090  1.00  0.00     0.261 C 
BRANCH  27  28
ATOM     28  O   UNL     1      -6.971   3.923  -4.724  1.00  0.00    -0.460 OA
BRANCH  28  29
ATOM     29  C   UNL     1      -8.185   4.367  -4.337  1.00  0.00     0.338 C 
ATOM     30  O   UNL     1      -9.249   3.777  -4.361  1.00  0.00    -0.246 OA
BRANCH  29  31
ATOM     31  C   UNL     1      -7.950   5.654  -3.690  1.00  0.00     0.060 A 
ATOM     32  C   UNL     1      -8.316   5.766  -2.346  1.00  0.00     0.016 A 
ATOM     33  C   UNL     1      -7.338   6.701  -4.385  1.00  0.00     0.016 A 
ATOM     34  C   UNL     1      -8.124   6.972  -1.697  1.00  0.00     0.010 A 
ATOM     35  C   UNL     1      -7.155   7.913  -3.735  1.00  0.00     0.010 A 
ATOM     36  C   UNL     1      -7.593   8.057  -2.408  1.00  0.00    -0.014 A 
BRANCH  36  37
ATOM     37  C   UNL     1      -7.720   9.402  -1.828  1.00  0.00     0.031 A 
ATOM     38  C   UNL     1      -8.888  10.235  -2.267  1.00  0.00     0.074 A 
ATOM     39  C   UNL     1      -6.844   9.822  -0.902  1.00  0.00     0.049 A 
ATOM     40  N   UNL     1      -9.217  11.446  -1.912  1.00  0.00    -0.248 NA
ATOM     41  C   UNL     1      -9.812   9.620  -3.240  1.00  0.00     0.031 C 
ATOM     42  C   UNL     1      -5.715   9.043  -0.390  1.00  0.00     0.029 A 
ATOM     43  N   UNL     1      -6.774  11.007  -0.224  1.00  0.00    -0.354 N 
ATOM     44  C   UNL     1     -10.379  11.738  -2.617  1.00  0.00     0.074 A 
ATOM     45  C   UNL     1     -10.678  10.598  -3.451  1.00  0.00     0.031 C 
ATOM     46  C   UNL     1      -5.064   9.776   0.529  1.00  0.00     0.029 A 
ATOM     47  C   UNL     1      -5.709  11.081   0.639  1.00  0.00     0.049 A 
ATOM     48  H   UNL     1      -7.425  11.736  -0.343  1.00  0.00     0.167 HD
ATOM     49  C   UNL     1     -11.131  12.859  -2.560  1.00  0.00     0.031 A 
ATOM     50  C   UNL     1      -5.302  12.105   1.413  1.00  0.00     0.031 A 
ATOM     51  C   UNL     1     -10.798  13.983  -1.730  1.00  0.00     0.049 A 
ATOM     52  C   UNL     1      -6.116  13.373   1.398  1.00  0.00     0.074 A 
ATOM     53  C   UNL     1     -11.471  15.181  -1.590  1.00  0.00     0.029 A 
ATOM     54  N   UNL     1      -9.688  14.041  -0.897  1.00  0.00    -0.354 N 
ATOM     55  N   UNL     1      -7.216  13.638   0.732  1.00  0.00    -0.248 NA
ATOM     56  C   UNL     1      -5.642  14.473   2.245  1.00  0.00     0.031 C 
ATOM     57  C   UNL     1     -10.738  15.986  -0.713  1.00  0.00     0.029 A 
ATOM     58  C   UNL     1      -9.646  15.263  -0.253  1.00  0.00     0.049 A 
ATOM     59  H   UNL     1      -9.029  13.319  -0.783  1.00  0.00     0.167 HD
ATOM     60  C   UNL     1      -7.587  14.924   1.108  1.00  0.00     0.074 A 
ATOM     61  C   UNL     1      -6.598  15.375   2.067  1.00  0.00     0.031 C 
ATOM     62  C   UNL     1      -8.648  15.668   0.704  1.00  0.00     0.031 A 
BRANCH  49  63
ATOM     63  C   UNL     1     -12.354  12.927  -3.433  1.00  0.00    -0.014 A 
ATOM     64  C   UNL     1     -13.483  12.127  -3.174  1.00  0.00     0.010 A 
ATOM     65  C   UNL     1     -12.389  13.825  -4.515  1.00  0.00     0.010 A 
ATOM     66  C   UNL     1     -14.612  12.207  -3.994  1.00  0.00     0.020 A 
ATOM     67  C   UNL     1     -13.526  13.929  -5.321  1.00  0.00     0.020 A 
ATOM     68  C   UNL     1     -14.627  13.111  -5.061  1.00  0.00     0.054 A 
BRANCH  68  69
ATOM     69  S   UNL     1     -16.124  13.226  -6.080  1.00  0.00     0.124 S 
ATOM     70  O   UNL     1     -16.095  11.959  -6.805  1.00  0.00    -0.237 OA
ATOM     71  O   UNL     1     -17.181  13.354  -5.080  1.00  0.00    -0.237 OA
ATOM     72  O   UNL     1     -15.897  14.416  -6.897  1.00  0.00    -0.744 OA
ENDBRANCH  68  69
ENDBRANCH  49  63
BRANCH  50  73
ATOM     73  C   UNL     1      -4.073  11.978   2.241  1.00  0.00    -0.014 A 
ATOM     74  C   UNL     1      -4.146  11.977   3.645  1.00  0.00     0.010 A 
ATOM     75  C   UNL     1      -2.813  11.860   1.625  1.00  0.00     0.010 A 
ATOM     76  C   UNL     1      -2.982  11.892   4.415  1.00  0.00     0.020 A 
ATOM     77  C   UNL     1      -1.650  11.744   2.390  1.00  0.00     0.020 A 
ATOM     78  C   UNL     1      -1.740  11.778   3.782  1.00  0.00     0.054 A 
BRANCH  78  79
ATOM     79  S   UNL     1      -0.245  11.647   4.801  1.00  0.00     0.124 S 
ATOM     80  O   UNL     1      -0.120  13.001   5.331  1.00  0.00    -0.237 OA
ATOM     81  O   UNL     1      -0.615  10.618   5.770  1.00  0.00    -0.237 OA
ATOM     82  O   UNL     1       0.786  11.250   3.846  1.00  0.00    -0.744 OA
ENDBRANCH  78  79
ENDBRANCH  50  73
BRANCH  62  83
ATOM     83  C   UNL     1      -8.821  17.019   1.340  1.00  0.00    -0.014 A 
ATOM     84  C   UNL     1      -7.969  18.091   1.025  1.00  0.00     0.010 A 
ATOM     85  C   UNL     1      -9.903  17.231   2.215  1.00  0.00     0.010 A 
ATOM     86  C   UNL     1      -8.178  19.346   1.599  1.00  0.00     0.020 A 
ATOM     87  C   UNL     1     -10.134  18.492   2.764  1.00  0.00     0.020 A 
ATOM     88  C   UNL     1      -9.261  19.539   2.463  1.00  0.00     0.054 A 
BRANCH  88  89
ATOM     89  S   UNL     1      -9.540  21.191   3.154  1.00  0.00     0.124 S 
ATOM     90  O   UNL     1      -8.454  21.302   4.123  1.00  0.00    -0.237 OA
ATOM     91  O   UNL     1      -9.425  22.052   1.979  1.00  0.00    -0.237 OA
ATOM     92  O   UNL     1     -10.882  21.106   3.727  1.00  0.00    -0.744 OA
ENDBRANCH  88  89
ENDBRANCH  62  83
ENDBRANCH  36  37
ENDBRANCH  29  31
ENDBRANCH  28  29
ENDBRANCH  27  28
ENDBRANCH  26  27
ENDBRANCH  25  26
ENDBRANCH   1  25
TORSDOF 23
