REMARK SMILES C[C@H](CCCO)Nc1ccc2c(C(=O)OCCOCCOC(=O)c3ccc(-c4c5nc(c(-c6ccc(S(=O)(=O)[O-])cc6)c6ccc([nH]6)c(-c6ccc(S(=O)(=O)[O-])cc6)c6nc(c(-c7ccc(S(=O)(=O)[O-])cc7)c7ccc4[nH]7)C=C6)C=C5)cc3)cccc2n1
REMARK SMILES IDX 16 1 15 2 13 3 14 4 12 5 8 6 9 7 88 8 10 9 87 10 11 11 86 12
REMARK SMILES IDX 85 13 84 14 7 15 2 17 1 18 3 19 4 20 5 21 6 22 17 24 18 25
REMARK SMILES IDX 19 26 20 27 21 28 22 29 23 30 24 31 25 32 83 33 26 34 82 35
REMARK SMILES IDX 27 36 28 37 29 38 76 39 30 40 81 41 75 42 77 43 31 44 80 45
REMARK SMILES IDX 74 46 73 47 32 49 62 50 43 51 61 52 44 53 47 54 60 55 78 56
REMARK SMILES IDX 45 57 46 58 59 60 79 61 48 62 33 63 34 64 42 65 35 66 41 67
REMARK SMILES IDX 36 68 37 69 38 70 39 71 40 72 63 73 64 74 72 75 65 76 71 77
REMARK SMILES IDX 66 78 67 79 68 80 69 81 70 82 49 83 50 84 58 85 51 86 57 87
REMARK SMILES IDX 52 88 53 89 54 90 55 91 56 92
REMARK H PARENT 7 16 6 23 77 48 47 59
REMARK Flexibility Score: inf
ROOT
ATOM      1  C   UNL     1      -6.661   3.155   5.818  1.00  0.00     0.261 C 
ENDROOT
BRANCH   1   2
ATOM      2  O   UNL     1      -5.581   3.905   5.244  1.00  0.00    -0.460 OA
BRANCH   2   3
ATOM      3  C   UNL     1      -4.439   3.202   5.057  1.00  0.00     0.338 C 
ATOM      4  O   UNL     1      -4.184   2.083   5.477  1.00  0.00    -0.246 OA
BRANCH   3   5
ATOM      5  C   UNL     1      -3.567   3.927   4.109  1.00  0.00     0.069 A 
ATOM      6  C   UNL     1      -1.810   2.039   0.803  1.00  0.00     0.126 A 
ATOM      7  C   UNL     1      -2.817   1.357   1.460  1.00  0.00     0.047 A 
ATOM      8  N   UNL     1      -1.472   3.297   1.147  1.00  0.00    -0.231 NA
ATOM      9  C   UNL     1      -3.422   1.953   2.560  1.00  0.00     0.015 A 
ATOM     10  C   UNL     1      -2.090   3.899   2.177  1.00  0.00     0.073 A 
ATOM     11  C   UNL     1      -3.043   3.247   2.975  1.00  0.00     0.015 A 
ATOM     12  C   UNL     1      -1.765   5.219   2.464  1.00  0.00     0.029 A 
ATOM     13  C   UNL     1      -2.347   5.914   3.527  1.00  0.00     0.003 A 
ATOM     14  C   UNL     1      -3.244   5.263   4.364  1.00  0.00     0.016 A 
BRANCH   6  15
ATOM     15  N   UNL     1      -1.057   1.366  -0.138  1.00  0.00    -0.368 N 
ATOM     16  H   UNL     1      -1.457   0.632  -0.658  1.00  0.00     0.162 HD
BRANCH  15  17
ATOM     17  C   UNL     1       0.328   1.744  -0.361  1.00  0.00     0.077 C 
ATOM     18  C   UNL     1       0.475   2.348  -1.752  1.00  0.00     0.031 C 
BRANCH  17  19
ATOM     19  C   UNL     1       1.195   0.488  -0.157  1.00  0.00     0.027 C 
BRANCH  19  20
ATOM     20  C   UNL     1       2.704   0.753  -0.077  1.00  0.00     0.030 C 
BRANCH  20  21
ATOM     21  C   UNL     1       3.129   1.734   1.011  1.00  0.00     0.156 C 
BRANCH  21  22
ATOM     22  O   UNL     1       2.738   1.271   2.294  1.00  0.00    -0.396 OA
ATOM     23  H   UNL     1       1.772   1.184   2.326  1.00  0.00     0.210 HD
ENDBRANCH  21  22
ENDBRANCH  20  21
ENDBRANCH  19  20
ENDBRANCH  17  19
ENDBRANCH  15  17
ENDBRANCH   6  15
ENDBRANCH   3   5
ENDBRANCH   2   3
ENDBRANCH   1   2
BRANCH   1  24
ATOM     24  C   UNL     1      -7.845   3.046   4.852  1.00  0.00     0.202 C 
BRANCH  24  25
ATOM     25  O   UNL     1      -7.605   2.462   3.571  1.00  0.00    -0.374 OA
BRANCH  25  26
ATOM     26  C   UNL     1      -6.901   3.238   2.603  1.00  0.00     0.202 C 
BRANCH  26  27
ATOM     27  C   UNL     1      -7.622   4.410   1.923  1.00  0.00     0.261 C 
BRANCH  27  28
ATOM     28  O   UNL     1      -8.107   5.395   2.847  1.00  0.00    -0.460 OA
BRANCH  28  29
ATOM     29  C   UNL     1      -9.453   5.376   3.015  1.00  0.00     0.338 C 
ATOM     30  O   UNL     1     -10.256   4.665   2.432  1.00  0.00    -0.246 OA
BRANCH  29  31
ATOM     31  C   UNL     1      -9.837   6.220   4.160  1.00  0.00     0.060 A 
ATOM     32  C   UNL     1     -10.608   5.619   5.162  1.00  0.00     0.016 A 
ATOM     33  C   UNL     1      -9.530   7.580   4.218  1.00  0.00     0.016 A 
ATOM     34  C   UNL     1     -11.126   6.391   6.196  1.00  0.00     0.010 A 
ATOM     35  C   UNL     1     -10.055   8.356   5.259  1.00  0.00     0.010 A 
ATOM     36  C   UNL     1     -10.887   7.772   6.230  1.00  0.00    -0.014 A 
BRANCH  36  37
ATOM     37  C   UNL     1     -11.616   8.597   7.225  1.00  0.00     0.031 A 
ATOM     38  C   UNL     1     -12.810   9.404   6.787  1.00  0.00     0.074 A 
ATOM     39  C   UNL     1     -11.263   8.559   8.523  1.00  0.00     0.049 A 
ATOM     40  N   UNL     1     -13.625  10.131   7.507  1.00  0.00    -0.248 NA
ATOM     41  C   UNL     1     -13.132   9.387   5.350  1.00  0.00     0.031 C 
ATOM     42  C   UNL     1     -10.148   7.786   9.072  1.00  0.00     0.029 A 
ATOM     43  N   UNL     1     -11.818   9.171   9.618  1.00  0.00    -0.354 N 
ATOM     44  C   UNL     1     -14.555  10.655   6.616  1.00  0.00     0.074 A 
ATOM     45  C   UNL     1     -14.181  10.196   5.296  1.00  0.00     0.031 C 
ATOM     46  C   UNL     1     -10.111   7.959  10.404  1.00  0.00     0.029 A 
ATOM     47  C   UNL     1     -11.177   8.877  10.797  1.00  0.00     0.049 A 
ATOM     48  H   UNL     1     -12.602   9.765   9.563  1.00  0.00     0.167 HD
ATOM     49  C   UNL     1     -15.631  11.438   6.875  1.00  0.00     0.031 A 
ATOM     50  C   UNL     1     -11.417   9.306  12.052  1.00  0.00     0.031 A 
ATOM     51  C   UNL     1     -15.993  11.903   8.189  1.00  0.00     0.049 A 
ATOM     52  C   UNL     1     -12.580  10.230  12.301  1.00  0.00     0.074 A 
ATOM     53  C   UNL     1     -17.071  12.691   8.556  1.00  0.00     0.029 A 
ATOM     54  N   UNL     1     -15.287  11.630   9.351  1.00  0.00    -0.354 N 
ATOM     55  N   UNL     1     -13.466  10.692  11.450  1.00  0.00    -0.248 NA
ATOM     56  C   UNL     1     -12.782  10.678  13.685  1.00  0.00     0.031 C 
ATOM     57  C   UNL     1     -16.980  12.945   9.929  1.00  0.00     0.029 A 
ATOM     58  C   UNL     1     -15.887  12.257  10.430  1.00  0.00     0.049 A 
ATOM     59  H   UNL     1     -14.477  11.072   9.401  1.00  0.00     0.167 HD
ATOM     60  C   UNL     1     -14.346  11.464  12.202  1.00  0.00     0.074 A 
ATOM     61  C   UNL     1     -13.900  11.382  13.578  1.00  0.00     0.031 C 
ATOM     62  C   UNL     1     -15.425  12.178  11.793  1.00  0.00     0.031 A 
BRANCH  49  63
ATOM     63  C   UNL     1     -16.484  11.865   5.708  1.00  0.00    -0.014 A 
ATOM     64  C   UNL     1     -17.306  10.947   5.029  1.00  0.00     0.010 A 
ATOM     65  C   UNL     1     -16.511  13.219   5.322  1.00  0.00     0.010 A 
ATOM     66  C   UNL     1     -18.117  11.369   3.971  1.00  0.00     0.020 A 
ATOM     67  C   UNL     1     -17.341  13.649   4.284  1.00  0.00     0.020 A 
ATOM     68  C   UNL     1     -18.130  12.719   3.606  1.00  0.00     0.054 A 
BRANCH  68  69
ATOM     69  S   UNL     1     -19.223  13.243   2.256  1.00  0.00     0.124 S 
ATOM     70  O   UNL     1     -18.567  12.656   1.091  1.00  0.00    -0.237 OA
ATOM     71  O   UNL     1     -20.501  12.641   2.628  1.00  0.00    -0.237 OA
ATOM     72  O   UNL     1     -19.183  14.702   2.323  1.00  0.00    -0.744 OA
ENDBRANCH  68  69
ENDBRANCH  49  63
BRANCH  50  73
ATOM     73  C   UNL     1     -10.531   8.879  13.171  1.00  0.00    -0.014 A 
ATOM     74  C   UNL     1     -11.016   8.059  14.205  1.00  0.00     0.010 A 
ATOM     75  C   UNL     1      -9.194   9.315  13.216  1.00  0.00     0.010 A 
ATOM     76  C   UNL     1     -10.190   7.708  15.277  1.00  0.00     0.020 A 
ATOM     77  C   UNL     1      -8.355   8.938  14.268  1.00  0.00     0.020 A 
ATOM     78  C   UNL     1      -8.864   8.150  15.301  1.00  0.00     0.054 A 
BRANCH  78  79
ATOM     79  S   UNL     1      -7.800   7.658  16.686  1.00  0.00     0.124 S 
ATOM     80  O   UNL     1      -8.328   8.470  17.777  1.00  0.00    -0.237 OA
ATOM     81  O   UNL     1      -8.054   6.223  16.782  1.00  0.00    -0.237 OA
ATOM     82  O   UNL     1      -6.459   8.017  16.230  1.00  0.00    -0.744 OA
ENDBRANCH  78  79
ENDBRANCH  50  73
BRANCH  62  83
ATOM     83  C   UNL     1     -16.213  12.902  12.856  1.00  0.00    -0.014 A 
ATOM     84  C   UNL     1     -15.675  14.008  13.541  1.00  0.00     0.010 A 
ATOM     85  C   UNL     1     -17.517  12.475  13.167  1.00  0.00     0.010 A 
ATOM     86  C   UNL     1     -16.402  14.631  14.559  1.00  0.00     0.020 A 
ATOM     87  C   UNL     1     -18.261  13.119  14.159  1.00  0.00     0.020 A 
ATOM     88  C   UNL     1     -17.689  14.178  14.866  1.00  0.00     0.054 A 
BRANCH  88  89
ATOM     89  S   UNL     1     -18.611  15.003  16.191  1.00  0.00     0.124 S 
ATOM     90  O   UNL     1     -17.921  14.524  17.385  1.00  0.00    -0.237 OA
ATOM     91  O   UNL     1     -18.422  16.418  15.881  1.00  0.00    -0.237 OA
ATOM     92  O   UNL     1     -19.977  14.511  16.022  1.00  0.00    -0.744 OA
ENDBRANCH  88  89
ENDBRANCH  62  83
ENDBRANCH  36  37
ENDBRANCH  29  31
ENDBRANCH  28  29
ENDBRANCH  27  28
ENDBRANCH  26  27
ENDBRANCH  25  26
ENDBRANCH  24  25
ENDBRANCH   1  24
TORSDOF 23
