REMARK SMILES O=C(OCCOCCOC(=O)c1ccc(-c2c3nc(c(-c4ccc(S(=O)(=O)[O-])cc4)c4ccc([nH]4)c(-c4ccc(S(=O)(=O)[O-])cc4)c4nc(c(-c5ccc(S(=O)(=O)[O-])cc5)c5ccc2[nH]5)C=C4)C=C3)cc1)C1=Cc2cc(C(F)(F)F)ccc2O[C@@H]1C(F)(F)F
REMARK SMILES IDX 7 1 6 2 5 3 4 4 3 5 2 6 1 7 72 8 73 9 85 10 74 11 84 12
REMARK SMILES IDX 75 13 83 14 76 15 82 16 81 17 86 18 87 19 88 20 89 21 77 22
REMARK SMILES IDX 78 23 79 24 80 25 8 26 9 27 10 28 11 29 12 30 13 31 71 32
REMARK SMILES IDX 14 33 70 34 15 35 16 36 17 37 64 38 18 39 69 40 63 41 65 42
REMARK SMILES IDX 19 43 68 44 62 45 61 46 20 48 50 49 31 50 49 51 32 52 35 53
REMARK SMILES IDX 48 54 66 55 33 56 34 57 47 59 67 60 36 61 21 62 22 63 30 64
REMARK SMILES IDX 23 65 29 66 24 67 25 68 26 69 27 70 28 71 51 72 52 73 60 74
REMARK SMILES IDX 53 75 59 76 54 77 55 78 56 79 57 80 58 81 37 82 38 83 46 84
REMARK SMILES IDX 39 85 45 86 40 87 41 88 42 89 43 90 44 91
REMARK H PARENT 65 47 35 58
REMARK Flexibility Score: inf
ROOT
ATOM      1  C   UNL     1       2.913   0.090  -2.949  1.00  0.00     0.202 C 
ENDROOT
BRANCH   1   2
ATOM      2  O   UNL     1       4.120   0.290  -2.187  1.00  0.00    -0.374 OA
BRANCH   2   3
ATOM      3  C   UNL     1       4.271   0.946  -0.722  1.00  0.00     0.202 C 
BRANCH   3   4
ATOM      4  C   UNL     1       3.455   0.288   1.174  1.00  0.00     0.261 C 
BRANCH   4   5
ATOM      5  O   UNL     1       2.530   1.124   2.113  1.00  0.00    -0.460 OA
BRANCH   5   6
ATOM      6  C   UNL     1       2.655   2.441   1.938  1.00  0.00     0.338 C 
ATOM      7  O   UNL     1       2.070   3.366   2.438  1.00  0.00    -0.246 OA
BRANCH   6   8
ATOM      8  C   UNL     1       3.487   2.336   0.770  1.00  0.00     0.087 C 
ATOM      9  C   UNL     1       4.884   2.005   1.183  1.00  0.00     0.027 C 
ATOM     10  C   UNL     1       2.336   1.162  -0.270  1.00  0.00     0.316 C 
ATOM     11  C   UNL     1       5.647   0.374   0.916  1.00  0.00     0.018 A 
ATOM     12  O   UNL     1       3.115  -0.576  -0.514  1.00  0.00    -0.475 OA
ATOM     13  C   UNL     1       6.885   0.110   1.435  1.00  0.00     0.025 A 
ATOM     14  C   UNL     1       4.788  -0.902   0.128  1.00  0.00     0.128 A 
ATOM     15  C   UNL     1       7.342  -1.223   1.286  1.00  0.00     0.056 A 
ATOM     16  C   UNL     1       5.241  -2.186   0.122  1.00  0.00     0.048 A 
ATOM     17  C   UNL     1       6.536  -2.306   0.700  1.00  0.00     0.017 A 
BRANCH  10  18
ATOM     18  C   UNL     1       1.752   2.133  -1.363  1.00  0.00     0.430 C 
ATOM     19  F   UNL     1       0.826   1.577  -2.167  1.00  0.00    -0.167 F 
ATOM     20  F   UNL     1       1.113   3.150  -0.715  1.00  0.00    -0.167 F 
ATOM     21  F   UNL     1       2.675   2.747  -2.136  1.00  0.00    -0.167 F 
ENDBRANCH  10  18
BRANCH  15  22
ATOM     22  C   UNL     1       8.762  -1.499   1.774  1.00  0.00     0.416 C 
ATOM     23  F   UNL     1       9.667  -0.662   1.185  1.00  0.00    -0.166 F 
ATOM     24  F   UNL     1       8.897  -1.294   3.113  1.00  0.00    -0.166 F 
ATOM     25  F   UNL     1       9.203  -2.759   1.528  1.00  0.00    -0.166 F 
ENDBRANCH  15  22
ENDBRANCH   6   8
ENDBRANCH   5   6
ENDBRANCH   4   5
ENDBRANCH   3   4
ENDBRANCH   2   3
ENDBRANCH   1   2
BRANCH   1  26
ATOM     26  C   UNL     1       3.019  -1.032  -3.984  1.00  0.00     0.261 C 
BRANCH  26  27
ATOM     27  O   UNL     1       3.495  -2.237  -3.391  1.00  0.00    -0.460 OA
BRANCH  27  28
ATOM     28  C   UNL     1       4.836  -2.397  -3.486  1.00  0.00     0.338 C 
ATOM     29  O   UNL     1       5.640  -1.627  -3.984  1.00  0.00    -0.246 OA
BRANCH  28  30
ATOM     30  C   UNL     1       5.213  -3.685  -2.875  1.00  0.00     0.060 A 
ATOM     31  C   UNL     1       6.525  -3.822  -2.408  1.00  0.00     0.016 A 
ATOM     32  C   UNL     1       4.296  -4.739  -2.749  1.00  0.00     0.016 A 
ATOM     33  C   UNL     1       6.922  -5.009  -1.805  1.00  0.00     0.010 A 
ATOM     34  C   UNL     1       4.699  -5.934  -2.162  1.00  0.00     0.010 A 
ATOM     35  C   UNL     1       6.016  -6.072  -1.704  1.00  0.00    -0.014 A 
BRANCH  35  36
ATOM     36  C   UNL     1       6.512  -7.395  -1.292  1.00  0.00     0.031 A 
ATOM     37  C   UNL     1       7.030  -8.307  -2.363  1.00  0.00     0.074 A 
ATOM     38  C   UNL     1       6.517  -7.750   0.003  1.00  0.00     0.049 A 
ATOM     39  N   UNL     1       7.562  -9.492  -2.249  1.00  0.00    -0.248 NA
ATOM     40  C   UNL     1       6.942  -7.810  -3.749  1.00  0.00     0.031 C 
ATOM     41  C   UNL     1       6.053  -6.917   1.113  1.00  0.00     0.029 A 
ATOM     42  N   UNL     1       6.931  -8.910   0.601  1.00  0.00    -0.354 N 
ATOM     43  C   UNL     1       7.892  -9.876  -3.542  1.00  0.00     0.074 A 
ATOM     44  C   UNL     1       7.464  -8.818  -4.430  1.00  0.00     0.031 C 
ATOM     45  C   UNL     1       6.208  -7.598   2.262  1.00  0.00     0.029 A 
ATOM     46  C   UNL     1       6.757  -8.919   1.964  1.00  0.00     0.049 A 
ATOM     47  H   UNL     1       7.318  -9.665   0.102  1.00  0.00     0.167 HD
ATOM     48  C   UNL     1       8.505 -11.010  -3.949  1.00  0.00     0.031 A 
ATOM     49  C   UNL     1       7.005  -9.896   2.858  1.00  0.00     0.031 A 
ATOM     50  C   UNL     1       8.873 -12.074  -3.057  1.00  0.00     0.049 A 
ATOM     51  C   UNL     1       7.601 -11.191   2.363  1.00  0.00     0.074 A 
ATOM     52  C   UNL     1       9.488 -13.275  -3.358  1.00  0.00     0.029 A 
ATOM     53  N   UNL     1       8.639 -12.071  -1.689  1.00  0.00    -0.354 N 
ATOM     54  N   UNL     1       7.957 -11.523   1.143  1.00  0.00    -0.248 NA
ATOM     55  C   UNL     1       7.840 -12.236   3.366  1.00  0.00     0.031 C 
ATOM     56  C   UNL     1       9.565 -14.027  -2.182  1.00  0.00     0.029 A 
ATOM     57  C   UNL     1       9.068 -13.264  -1.135  1.00  0.00     0.049 A 
ATOM     58  H   UNL     1       8.229 -11.330  -1.188  1.00  0.00     0.167 HD
ATOM     59  C   UNL     1       8.491 -12.804   1.239  1.00  0.00     0.074 A 
ATOM     60  C   UNL     1       8.429 -13.175   2.639  1.00  0.00     0.031 C 
ATOM     61  C   UNL     1       8.991 -13.604   0.264  1.00  0.00     0.031 A 
BRANCH  48  62
ATOM     62  C   UNL     1       8.771 -11.163  -5.420  1.00  0.00    -0.014 A 
ATOM     63  C   UNL     1       9.742 -10.377  -6.069  1.00  0.00     0.010 A 
ATOM     64  C   UNL     1       8.060 -12.123  -6.161  1.00  0.00     0.010 A 
ATOM     65  C   UNL     1       9.979 -10.532  -7.436  1.00  0.00     0.020 A 
ATOM     66  C   UNL     1       8.314 -12.301  -7.524  1.00  0.00     0.020 A 
ATOM     67  C   UNL     1       9.265 -11.496  -8.155  1.00  0.00     0.054 A 
BRANCH  67  68
ATOM     68  S   UNL     1       9.623 -11.704  -9.920  1.00  0.00     0.124 S 
ATOM     69  O   UNL     1       9.077 -10.472 -10.486  1.00  0.00    -0.237 OA
ATOM     70  O   UNL     1      11.079 -11.812  -9.938  1.00  0.00    -0.237 OA
ATOM     71  O   UNL     1       8.905 -12.924 -10.279  1.00  0.00    -0.744 OA
ENDBRANCH  67  68
ENDBRANCH  48  62
BRANCH  49  72
ATOM     72  C   UNL     1       6.678  -9.703   4.298  1.00  0.00    -0.014 A 
ATOM     73  C   UNL     1       7.693  -9.662   5.271  1.00  0.00     0.010 A 
ATOM     74  C   UNL     1       5.337  -9.586   4.709  1.00  0.00     0.010 A 
ATOM     75  C   UNL     1       7.372  -9.541   6.627  1.00  0.00     0.020 A 
ATOM     76  C   UNL     1       5.014  -9.432   6.060  1.00  0.00     0.020 A 
ATOM     77  C   UNL     1       6.033  -9.428   7.013  1.00  0.00     0.054 A 
BRANCH  77  78
ATOM     78  S   UNL     1       5.642  -9.249   8.775  1.00  0.00     0.124 S 
ATOM     79  O   UNL     1       5.946 -10.580   9.291  1.00  0.00    -0.237 OA
ATOM     80  O   UNL     1       6.551  -8.184   9.192  1.00  0.00    -0.237 OA
ATOM     81  O   UNL     1       4.226  -8.886   8.776  1.00  0.00    -0.744 OA
ENDBRANCH  77  78
ENDBRANCH  49  72
BRANCH  61  82
ATOM     82  C   UNL     1       9.541 -14.943   0.681  1.00  0.00    -0.014 A 
ATOM     83  C   UNL     1       8.698 -15.977   1.125  1.00  0.00     0.010 A 
ATOM     84  C   UNL     1      10.924 -15.185   0.571  1.00  0.00     0.010 A 
ATOM     85  C   UNL     1       9.232 -17.215   1.490  1.00  0.00     0.020 A 
ATOM     86  C   UNL     1      11.457 -16.432   0.900  1.00  0.00     0.020 A 
ATOM     87  C   UNL     1      10.609 -17.434   1.374  1.00  0.00     0.054 A 
BRANCH  87  88
ATOM     88  S   UNL     1      11.271 -19.062   1.819  1.00  0.00     0.124 S 
ATOM     89  O   UNL     1      11.151 -19.051   3.274  1.00  0.00    -0.237 OA
ATOM     90  O   UNL     1      10.370 -19.975   1.120  1.00  0.00    -0.237 OA
ATOM     91  O   UNL     1      12.639 -19.032   1.306  1.00  0.00    -0.744 OA
ENDBRANCH  87  88
ENDBRANCH  61  82
ENDBRANCH  35  36
ENDBRANCH  28  30
ENDBRANCH  27  28
ENDBRANCH  26  27
ENDBRANCH   1  26
TORSDOF 19
