REMARK SMILES COc1ccc(C(=O)c2ccccc2)cc1[C@@H](C)C(=O)OCCOCCOC(=O)c1ccc(-c2c3nc(c(-c4ccc(S(=O)(=O)[O-])cc4)c4ccc([nH]4)c(-c4ccc(S(=O)(=O)[O-])cc4)c4nc(c(-c5ccc(S(=O)(=O)[O-])cc5)c5ccc2[nH]5)C=C4)C=C3)cc1
REMARK SMILES IDX 24 1 23 2 22 3 21 4 19 5 20 6 17 7 18 8 16 9 3 10 4 11 5 12
REMARK SMILES IDX 15 13 6 14 2 15 1 16 7 17 8 18 9 19 10 20 14 21 11 22 13 23
REMARK SMILES IDX 12 24 25 25 26 26 27 27 28 28 29 29 30 30 31 31 89 32 32 33
REMARK SMILES IDX 88 34 33 35 34 36 35 37 82 38 36 39 87 40 81 41 83 42 37 43
REMARK SMILES IDX 86 44 80 45 79 46 38 48 68 49 49 50 67 51 50 52 53 53 66 54
REMARK SMILES IDX 84 55 51 56 52 57 65 59 85 60 54 61 39 62 40 63 48 64 41 65
REMARK SMILES IDX 47 66 42 67 43 68 44 69 45 70 46 71 69 72 70 73 78 74 71 75
REMARK SMILES IDX 77 76 72 77 73 78 74 79 75 80 76 81 55 82 56 83 64 84 57 85
REMARK SMILES IDX 63 86 58 87 59 88 60 89 61 90 62 91
REMARK H PARENT 83 47 53 58
REMARK Flexibility Score: inf
ROOT
ATOM      1  O   UNL     1       2.970  -0.965   4.409  1.00  0.00    -0.374 OA
ENDROOT
BRANCH   1   2
ATOM      2  C   UNL     1       4.130  -0.193   4.724  1.00  0.00     0.202 C 
BRANCH   2   3
ATOM      3  C   UNL     1       5.126  -0.018   3.575  1.00  0.00     0.261 C 
BRANCH   3   4
ATOM      4  O   UNL     1       4.601   0.877   2.574  1.00  0.00    -0.463 OA
BRANCH   4   5
ATOM      5  C   UNL     1       4.321   0.340   1.359  1.00  0.00     0.313 C 
ATOM      6  O   UNL     1       4.576  -0.815   1.032  1.00  0.00    -0.252 OA
BRANCH   5   7
ATOM      7  C   UNL     1       3.687   1.334   0.396  1.00  0.00     0.130 C 
ATOM      8  C   UNL     1       4.773   2.147  -0.307  1.00  0.00     0.025 C 
BRANCH   7   9
ATOM      9  C   UNL     1       2.587   2.235   0.955  1.00  0.00     0.009 A 
ATOM     10  C   UNL     1       1.273   2.182   0.464  1.00  0.00     0.122 A 
ATOM     11  C   UNL     1       0.314   3.113   0.871  1.00  0.00     0.047 A 
ATOM     12  C   UNL     1       0.659   4.131   1.762  1.00  0.00     0.016 A 
ATOM     13  C   UNL     1       2.891   3.233   1.906  1.00  0.00     0.020 A 
ATOM     14  C   UNL     1       1.962   4.220   2.266  1.00  0.00     0.023 A 
BRANCH  10  15
ATOM     15  O   UNL     1       0.905   1.318  -0.532  1.00  0.00    -0.496 OA
ATOM     16  C   UNL     1       0.602   0.015  -0.034  1.00  0.00     0.278 C 
ENDBRANCH  10  15
BRANCH  14  17
ATOM     17  C   UNL     1       2.293   5.378   3.155  1.00  0.00     0.193 C 
ATOM     18  O   UNL     1       1.366   6.026   3.640  1.00  0.00    -0.289 OA
BRANCH  17  19
ATOM     19  C   UNL     1       3.688   5.765   3.511  1.00  0.00     0.022 A 
ATOM     20  C   UNL     1       3.903   6.316   4.779  1.00  0.00     0.012 A 
ATOM     21  C   UNL     1       4.780   5.605   2.652  1.00  0.00     0.012 A 
ATOM     22  C   UNL     1       5.197   6.570   5.235  1.00  0.00     0.001 A 
ATOM     23  C   UNL     1       6.077   5.850   3.110  1.00  0.00     0.001 A 
ATOM     24  C   UNL     1       6.286   6.308   4.410  1.00  0.00     0.000 A 
ENDBRANCH  17  19
ENDBRANCH  14  17
ENDBRANCH   7   9
ENDBRANCH   5   7
ENDBRANCH   4   5
ENDBRANCH   3   4
ENDBRANCH   2   3
ENDBRANCH   1   2
BRANCH   1  25
ATOM     25  C   UNL     1       1.914  -0.278   3.738  1.00  0.00     0.202 C 
BRANCH  25  26
ATOM     26  C   UNL     1       0.951   0.518   4.626  1.00  0.00     0.261 C 
BRANCH  26  27
ATOM     27  O   UNL     1       1.607   1.601   5.303  1.00  0.00    -0.460 OA
BRANCH  27  28
ATOM     28  C   UNL     1       1.884   1.361   6.606  1.00  0.00     0.338 C 
ATOM     29  O   UNL     1       1.585   0.362   7.250  1.00  0.00    -0.246 OA
BRANCH  28  30
ATOM     30  C   UNL     1       2.764   2.414   7.144  1.00  0.00     0.060 A 
ATOM     31  C   UNL     1       3.872   2.015   7.904  1.00  0.00     0.016 A 
ATOM     32  C   UNL     1       2.473   3.768   6.981  1.00  0.00     0.016 A 
ATOM     33  C   UNL     1       4.656   2.965   8.558  1.00  0.00     0.010 A 
ATOM     34  C   UNL     1       3.258   4.715   7.646  1.00  0.00     0.010 A 
ATOM     35  C   UNL     1       4.332   4.324   8.467  1.00  0.00    -0.014 A 
BRANCH  35  36
ATOM     36  C   UNL     1       4.981   5.313   9.369  1.00  0.00     0.031 A 
ATOM     37  C   UNL     1       4.164   5.921  10.483  1.00  0.00     0.074 A 
ATOM     38  C   UNL     1       6.274   5.662   9.222  1.00  0.00     0.049 A 
ATOM     39  N   UNL     1       4.511   6.811  11.378  1.00  0.00    -0.248 NA
ATOM     40  C   UNL     1       2.762   5.483  10.587  1.00  0.00     0.031 C 
ATOM     41  C   UNL     1       7.183   5.160   8.191  1.00  0.00     0.029 A 
ATOM     42  N   UNL     1       7.049   6.531   9.953  1.00  0.00    -0.354 N 
ATOM     43  C   UNL     1       3.366   7.052  12.131  1.00  0.00     0.074 A 
ATOM     44  C   UNL     1       2.303   6.263  11.552  1.00  0.00     0.031 C 
ATOM     45  C   UNL     1       8.393   5.724   8.360  1.00  0.00     0.029 A 
ATOM     46  C   UNL     1       8.343   6.636   9.500  1.00  0.00     0.049 A 
ATOM     47  H   UNL     1       6.708   7.032  10.728  1.00  0.00     0.167 HD
ATOM     48  C   UNL     1       3.212   7.832  13.228  1.00  0.00     0.031 A 
ATOM     49  C   UNL     1       9.372   7.378   9.958  1.00  0.00     0.031 A 
ATOM     50  C   UNL     1       4.271   8.593  13.832  1.00  0.00     0.049 A 
ATOM     51  C   UNL     1       9.184   8.233  11.185  1.00  0.00     0.074 A 
ATOM     52  C   UNL     1       4.226   9.380  14.969  1.00  0.00     0.029 A 
ATOM     53  N   UNL     1       5.570   8.651  13.354  1.00  0.00    -0.354 N 
ATOM     54  N   UNL     1       8.104   8.415  11.909  1.00  0.00    -0.248 NA
ATOM     55  C   UNL     1      10.365   8.960  11.675  1.00  0.00     0.031 C 
ATOM     56  C   UNL     1       5.495   9.938  15.163  1.00  0.00     0.029 A 
ATOM     57  C   UNL     1       6.338   9.459  14.174  1.00  0.00     0.049 A 
ATOM     58  H   UNL     1       5.898   8.186  12.551  1.00  0.00     0.167 HD
ATOM     59  C   UNL     1       8.489   9.238  12.963  1.00  0.00     0.074 A 
ATOM     60  C   UNL     1       9.899   9.515  12.785  1.00  0.00     0.031 C 
ATOM     61  C   UNL     1       7.745   9.713  13.993  1.00  0.00     0.031 A 
BRANCH  48  62
ATOM     62  C   UNL     1       1.837   7.890  13.840  1.00  0.00    -0.014 A 
ATOM     63  C   UNL     1       1.289   6.773  14.499  1.00  0.00     0.010 A 
ATOM     64  C   UNL     1       1.082   9.073  13.755  1.00  0.00     0.010 A 
ATOM     65  C   UNL     1      -0.010   6.820  15.010  1.00  0.00     0.020 A 
ATOM     66  C   UNL     1      -0.207   9.133  14.294  1.00  0.00     0.020 A 
ATOM     67  C   UNL     1      -0.753   7.998  14.897  1.00  0.00     0.054 A 
BRANCH  67  68
ATOM     68  S   UNL     1      -2.436   8.034  15.572  1.00  0.00     0.124 S 
ATOM     69  O   UNL     1      -3.176   7.270  14.571  1.00  0.00    -0.237 OA
ATOM     70  O   UNL     1      -2.277   7.380  16.868  1.00  0.00    -0.237 OA
ATOM     71  O   UNL     1      -2.755   9.458  15.631  1.00  0.00    -0.744 OA
ENDBRANCH  67  68
ENDBRANCH  48  62
BRANCH  49  72
ATOM     72  C   UNL     1      10.695   7.324   9.275  1.00  0.00    -0.014 A 
ATOM     73  C   UNL     1      11.787   6.678   9.882  1.00  0.00     0.010 A 
ATOM     74  C   UNL     1      10.873   7.935   8.021  1.00  0.00     0.010 A 
ATOM     75  C   UNL     1      13.039   6.665   9.260  1.00  0.00     0.020 A 
ATOM     76  C   UNL     1      12.117   7.902   7.384  1.00  0.00     0.020 A 
ATOM     77  C   UNL     1      13.196   7.278   8.014  1.00  0.00     0.054 A 
BRANCH  77  78
ATOM     78  S   UNL     1      14.819   7.211   7.203  1.00  0.00     0.124 S 
ATOM     79  O   UNL     1      15.587   8.178   7.980  1.00  0.00    -0.237 OA
ATOM     80  O   UNL     1      15.200   5.812   7.376  1.00  0.00    -0.237 OA
ATOM     81  O   UNL     1      14.527   7.603   5.826  1.00  0.00    -0.744 OA
ENDBRANCH  77  78
ENDBRANCH  49  72
BRANCH  61  82
ATOM     82  C   UNL     1       8.452  10.523  15.047  1.00  0.00    -0.014 A 
ATOM     83  C   UNL     1       8.903  11.830  14.795  1.00  0.00     0.010 A 
ATOM     84  C   UNL     1       8.635   9.970  16.329  1.00  0.00     0.010 A 
ATOM     85  C   UNL     1       9.567  12.552  15.792  1.00  0.00     0.020 A 
ATOM     86  C   UNL     1       9.273  10.698  17.336  1.00  0.00     0.020 A 
ATOM     87  C   UNL     1       9.754  11.978  17.054  1.00  0.00     0.054 A 
BRANCH  87  88
ATOM     88  S   UNL     1      10.603  12.937  18.338  1.00  0.00     0.124 S 
ATOM     89  O   UNL     1      11.999  12.827  17.924  1.00  0.00    -0.237 OA
ATOM     90  O   UNL     1      10.009  14.264  18.197  1.00  0.00    -0.237 OA
ATOM     91  O   UNL     1      10.262  12.238  19.575  1.00  0.00    -0.744 OA
ENDBRANCH  87  88
ENDBRANCH  61  82
ENDBRANCH  35  36
ENDBRANCH  28  30
ENDBRANCH  27  28
ENDBRANCH  26  27
ENDBRANCH  25  26
ENDBRANCH   1  25
TORSDOF 21
