REMARK SMILES Cc1cc(S(=O)(=O)N[C@@H](CO)C(=O)OCCOCCOC(=O)c2ccc(-c3c4nc(c(-c5ccc(S(=O)(=O)[O-])cc5)c5ccc([nH]5)c(-c5ccc(S(=O)(=O)[O-])cc5)c5nc(c(-c6ccc(S(=O)(=O)[O-])cc6)c6ccc3[nH]6)C=C5)C=C4)cc2)ccc1OC(C)C
REMARK SMILES IDX 16 1 15 2 14 3 12 4 13 5 9 6 8 7 5 9 6 10 7 11 4 12 1 13
REMARK SMILES IDX 2 14 3 15 85 16 84 17 83 18 86 19 87 20 88 21 89 22 10 23
REMARK SMILES IDX 11 24 17 26 18 27 19 28 20 29 21 30 22 31 23 32 24 33 82 34
REMARK SMILES IDX 25 35 81 36 26 37 27 38 28 39 75 40 29 41 80 42 74 43 76 44
REMARK SMILES IDX 30 45 79 46 73 47 72 48 31 50 61 51 42 52 60 53 43 54 46 55
REMARK SMILES IDX 59 56 77 57 44 58 45 59 58 61 78 62 47 63 32 64 33 65 41 66
REMARK SMILES IDX 34 67 40 68 35 69 36 70 37 71 38 72 39 73 62 74 63 75 71 76
REMARK SMILES IDX 64 77 70 78 65 79 66 80 67 81 68 82 69 83 48 84 49 85 57 86
REMARK SMILES IDX 50 87 56 88 51 89 52 90 53 91 54 92 55 93
REMARK H PARENT 8 8 11 25 76 49 46 60
REMARK Flexibility Score: inf
ROOT
ATOM      1  C   UNL     1      -6.180  -1.982   1.236  1.00  0.00     0.202 C 
ENDROOT
BRANCH   1   2
ATOM      2  C   UNL     1      -6.401  -2.424  -0.185  1.00  0.00     0.261 C 
BRANCH   2   3
ATOM      3  O   UNL     1      -5.173  -2.674  -0.874  1.00  0.00    -0.462 OA
BRANCH   3   4
ATOM      4  C   UNL     1      -4.513  -1.619  -1.455  1.00  0.00     0.326 C 
ATOM      5  O   UNL     1      -4.965  -0.513  -1.710  1.00  0.00    -0.250 OA
BRANCH   4   6
ATOM      6  C   UNL     1      -3.027  -1.978  -1.502  1.00  0.00     0.205 C 
BRANCH   6   7
ATOM      7  N   UNL     1      -2.832  -2.715  -0.225  1.00  0.00    -0.194 NA
ATOM      8  H   UNL     1      -3.403  -2.217   0.457  1.00  0.00     0.142 HD
BRANCH   7   9
ATOM      9  S   UNL     1      -1.417  -2.995   0.533  1.00  0.00     0.241 S 
ATOM     10  O   UNL     1      -0.653  -3.863  -0.333  1.00  0.00    -0.207 OA
ATOM     11  O   UNL     1      -1.730  -3.361   1.897  1.00  0.00    -0.207 OA
BRANCH   9  12
ATOM     12  C   UNL     1      -0.618  -1.427   0.585  1.00  0.00     0.083 A 
ATOM     13  C   UNL     1       2.925  -0.496  -0.121  1.00  0.00     0.048 C 
ATOM     14  C   UNL     1       1.479  -0.229   0.180  1.00  0.00    -0.008 A 
ATOM     15  C   UNL     1       0.752  -1.422   0.347  1.00  0.00     0.029 A 
ATOM     16  C   UNL     1       0.771   0.983   0.228  1.00  0.00     0.122 A 
ATOM     17  C   UNL     1      -0.616   0.956   0.504  1.00  0.00     0.048 A 
ATOM     18  C   UNL     1      -1.314  -0.234   0.706  1.00  0.00     0.025 A 
BRANCH  16  19
ATOM     19  O   UNL     1       1.167   2.269   0.013  1.00  0.00    -0.491 OA
BRANCH  19  20
ATOM     20  C   UNL     1       2.508   2.735  -0.005  1.00  0.00     0.167 C 
ATOM     21  C   UNL     1       3.259   2.457   1.297  1.00  0.00     0.052 C 
ATOM     22  C   UNL     1       3.209   2.426  -1.328  1.00  0.00     0.052 C 
ENDBRANCH  19  20
ENDBRANCH  16  19
ENDBRANCH   9  12
ENDBRANCH   7   9
ENDBRANCH   6   7
BRANCH   6  23
ATOM     23  C   UNL     1      -2.636  -2.787  -2.729  1.00  0.00     0.188 C 
BRANCH  23  24
ATOM     24  O   UNL     1      -3.113  -4.129  -2.677  1.00  0.00    -0.394 OA
ATOM     25  H   UNL     1      -2.725  -4.580  -1.911  1.00  0.00     0.210 HD
ENDBRANCH  23  24
ENDBRANCH   6  23
ENDBRANCH   4   6
ENDBRANCH   3   4
ENDBRANCH   2   3
ENDBRANCH   1   2
BRANCH   1  26
ATOM     26  O   UNL     1      -5.861  -0.592   1.168  1.00  0.00    -0.374 OA
BRANCH  26  27
ATOM     27  C   UNL     1      -5.750   0.074   2.414  1.00  0.00     0.202 C 
BRANCH  27  28
ATOM     28  C   UNL     1      -6.976  -0.045   3.333  1.00  0.00     0.261 C 
BRANCH  28  29
ATOM     29  O   UNL     1      -8.100   0.640   2.751  1.00  0.00    -0.460 OA
BRANCH  29  30
ATOM     30  C   UNL     1      -9.127  -0.162   2.350  1.00  0.00     0.338 C 
ATOM     31  O   UNL     1      -9.842  -0.795   3.104  1.00  0.00    -0.246 OA
BRANCH  30  32
ATOM     32  C   UNL     1      -9.193  -0.171   0.862  1.00  0.00     0.060 A 
ATOM     33  C   UNL     1      -9.797  -1.236   0.167  1.00  0.00     0.016 A 
ATOM     34  C   UNL     1      -8.474   0.795   0.161  1.00  0.00     0.016 A 
ATOM     35  C   UNL     1      -9.601  -1.383  -1.220  1.00  0.00     0.010 A 
ATOM     36  C   UNL     1      -8.230   0.611  -1.184  1.00  0.00     0.010 A 
ATOM     37  C   UNL     1      -8.777  -0.478  -1.889  1.00  0.00    -0.014 A 
BRANCH  37  38
ATOM     38  C   UNL     1      -8.281  -0.572  -3.268  1.00  0.00     0.031 A 
ATOM     39  C   UNL     1      -8.545   0.555  -4.192  1.00  0.00     0.074 A 
ATOM     40  C   UNL     1      -7.317  -1.461  -3.605  1.00  0.00     0.049 A 
ATOM     41  N   UNL     1      -8.145   0.596  -5.414  1.00  0.00    -0.248 NA
ATOM     42  C   UNL     1      -9.333   1.726  -3.820  1.00  0.00     0.031 C 
ATOM     43  C   UNL     1      -6.258  -1.296  -4.602  1.00  0.00     0.029 A 
ATOM     44  N   UNL     1      -7.132  -2.754  -3.158  1.00  0.00    -0.354 N 
ATOM     45  C   UNL     1      -8.313   1.878  -5.873  1.00  0.00     0.074 A 
ATOM     46  C   UNL     1      -9.153   2.511  -4.885  1.00  0.00     0.031 C 
ATOM     47  C   UNL     1      -5.647  -2.473  -4.805  1.00  0.00     0.029 A 
ATOM     48  C   UNL     1      -6.379  -3.489  -4.075  1.00  0.00     0.049 A 
ATOM     49  H   UNL     1      -7.484  -3.109  -2.309  1.00  0.00     0.167 HD
ATOM     50  C   UNL     1      -7.628   2.262  -6.988  1.00  0.00     0.031 A 
ATOM     51  C   UNL     1      -6.901  -4.648  -4.567  1.00  0.00     0.031 A 
ATOM     52  C   UNL     1      -6.956   1.115  -7.631  1.00  0.00     0.049 A 
ATOM     53  C   UNL     1      -7.345  -4.442  -5.997  1.00  0.00     0.074 A 
ATOM     54  C   UNL     1      -5.644   0.704  -7.797  1.00  0.00     0.029 A 
ATOM     55  N   UNL     1      -7.735   0.015  -7.982  1.00  0.00    -0.354 N 
ATOM     56  N   UNL     1      -7.071  -3.358  -6.673  1.00  0.00    -0.248 NA
ATOM     57  C   UNL     1      -8.159  -5.373  -6.774  1.00  0.00     0.031 C 
ATOM     58  C   UNL     1      -5.657  -0.670  -8.210  1.00  0.00     0.029 A 
ATOM     59  C   UNL     1      -6.973  -1.082  -8.337  1.00  0.00     0.049 A 
ATOM     60  H   UNL     1      -8.720   0.019  -7.977  1.00  0.00     0.167 HD
ATOM     61  C   UNL     1      -7.699  -3.371  -7.872  1.00  0.00     0.074 A 
ATOM     62  C   UNL     1      -8.359  -4.670  -7.906  1.00  0.00     0.031 C 
ATOM     63  C   UNL     1      -7.652  -2.313  -8.732  1.00  0.00     0.031 A 
BRANCH  50  64
ATOM     64  C   UNL     1      -7.460   3.704  -7.436  1.00  0.00    -0.014 A 
ATOM     65  C   UNL     1      -6.583   4.017  -8.493  1.00  0.00     0.010 A 
ATOM     66  C   UNL     1      -8.102   4.807  -6.837  1.00  0.00     0.010 A 
ATOM     67  C   UNL     1      -6.359   5.343  -8.915  1.00  0.00     0.020 A 
ATOM     68  C   UNL     1      -7.898   6.132  -7.246  1.00  0.00     0.020 A 
ATOM     69  C   UNL     1      -7.022   6.395  -8.286  1.00  0.00     0.054 A 
BRANCH  69  70
ATOM     70  S   UNL     1      -6.740   8.100  -8.828  1.00  0.00     0.124 S 
ATOM     71  O   UNL     1      -5.310   8.273  -8.588  1.00  0.00    -0.237 OA
ATOM     72  O   UNL     1      -7.147   8.057 -10.229  1.00  0.00    -0.237 OA
ATOM     73  O   UNL     1      -7.609   8.891  -7.957  1.00  0.00    -0.744 OA
ENDBRANCH  69  70
ENDBRANCH  50  64
BRANCH  51  74
ATOM     74  C   UNL     1      -7.513  -5.471  -3.467  1.00  0.00    -0.014 A 
ATOM     75  C   UNL     1      -6.589  -6.066  -2.570  1.00  0.00     0.010 A 
ATOM     76  C   UNL     1      -8.816  -5.217  -2.998  1.00  0.00     0.010 A 
ATOM     77  C   UNL     1      -6.893  -6.226  -1.210  1.00  0.00     0.020 A 
ATOM     78  C   UNL     1      -9.122  -5.372  -1.630  1.00  0.00     0.020 A 
ATOM     79  C   UNL     1      -8.142  -5.824  -0.737  1.00  0.00     0.054 A 
BRANCH  79  80
ATOM     80  S   UNL     1      -8.352  -5.561   1.064  1.00  0.00     0.124 S 
ATOM     81  O   UNL     1      -8.790  -6.871   1.528  1.00  0.00    -0.237 OA
ATOM     82  O   UNL     1      -7.015  -5.149   1.495  1.00  0.00    -0.237 OA
ATOM     83  O   UNL     1      -9.346  -4.492   1.123  1.00  0.00    -0.744 OA
ENDBRANCH  79  80
ENDBRANCH  51  74
BRANCH  63  84
ATOM     84  C   UNL     1      -8.332  -2.391 -10.057  1.00  0.00    -0.014 A 
ATOM     85  C   UNL     1      -8.171  -3.512 -10.886  1.00  0.00     0.010 A 
ATOM     86  C   UNL     1      -9.107  -1.315 -10.528  1.00  0.00     0.010 A 
ATOM     87  C   UNL     1      -8.871  -3.612 -12.086  1.00  0.00     0.020 A 
ATOM     88  C   UNL     1      -9.784  -1.393 -11.742  1.00  0.00     0.020 A 
ATOM     89  C   UNL     1      -9.698  -2.562 -12.490  1.00  0.00     0.054 A 
BRANCH  89  90
ATOM     90  S   UNL     1     -10.674  -2.743 -13.998  1.00  0.00     0.124 S 
ATOM     91  O   UNL     1      -9.743  -3.407 -14.908  1.00  0.00    -0.237 OA
ATOM     92  O   UNL     1     -11.788  -3.564 -13.531  1.00  0.00    -0.237 OA
ATOM     93  O   UNL     1     -11.015  -1.369 -14.356  1.00  0.00    -0.744 OA
ENDBRANCH  89  90
ENDBRANCH  63  84
ENDBRANCH  37  38
ENDBRANCH  30  32
ENDBRANCH  29  30
ENDBRANCH  28  29
ENDBRANCH  27  28
ENDBRANCH  26  27
ENDBRANCH   1  26
TORSDOF 24
