REMARK SMILES O=C(N[C@@H](CS)C(=O)N[C@@H](CO)C(=O)OCCOCCOC(=O)c1ccc(-c2c3nc(c(-c4ccc(S(=O)(=O)[O-])cc4)c4ccc([nH]4)c(-c4ccc(S(=O)(=O)[O-])cc4)c4nc(c(-c5ccc(S(=O)(=O)[O-])cc5)c5ccc2[nH]5)C=C4)C=C3)cc1)c1ccc(F)cc1
REMARK SMILES IDX 17 1 16 2 15 3 13 4 14 5 10 6 9 7 7 8 8 9 4 11 3 12 1 13
REMARK SMILES IDX 2 14 84 16 85 17 90 18 86 19 89 20 87 21 88 22 5 23 6 24
REMARK SMILES IDX 11 26 12 27 18 29 19 30 20 31 21 32 22 33 23 34 24 35 25 36
REMARK SMILES IDX 83 37 26 38 82 39 27 40 28 41 29 42 76 43 30 44 81 45 75 46
REMARK SMILES IDX 77 47 31 48 80 49 74 50 73 51 32 53 62 54 43 55 61 56 44 57
REMARK SMILES IDX 47 58 60 59 78 60 45 61 46 62 59 64 79 65 48 66 33 67 34 68
REMARK SMILES IDX 42 69 35 70 41 71 36 72 37 73 38 74 39 75 40 76 63 77 64 78
REMARK SMILES IDX 72 79 65 80 71 81 66 82 67 83 68 84 69 85 70 86 49 87 50 88
REMARK SMILES IDX 58 89 51 90 57 91 52 92 53 93 54 94 55 95 56 96
REMARK H PARENT 9 10 3 15 6 25 12 28 77 52 47 63
REMARK Flexibility Score: inf
ROOT
ATOM      1  C   UNL     1       6.465  -2.130   6.951  1.00  0.00     0.202 C 
ENDROOT
BRANCH   1   2
ATOM      2  C   UNL     1       4.990  -2.537   6.879  1.00  0.00     0.261 C 
BRANCH   2   3
ATOM      3  O   UNL     1       4.578  -2.720   5.513  1.00  0.00    -0.462 OA
BRANCH   3   4
ATOM      4  C   UNL     1       3.331  -2.263   5.211  1.00  0.00     0.331 C 
ATOM      5  O   UNL     1       2.508  -1.866   6.028  1.00  0.00    -0.250 OA
BRANCH   4   6
ATOM      6  C   UNL     1       3.048  -2.310   3.701  1.00  0.00     0.218 C 
BRANCH   6   7
ATOM      7  N   UNL     1       4.234  -2.561   2.867  1.00  0.00    -0.339 N 
ATOM      8  C   UNL     1       4.824  -1.871   1.861  1.00  0.00     0.244 C 
ATOM      9  O   UNL     1       5.926  -2.288   1.483  1.00  0.00    -0.273 OA
ATOM     10  H   UNL     1       4.694  -3.405   3.084  1.00  0.00     0.164 HD
BRANCH   8  11
ATOM     11  C   UNL     1       4.287  -0.556   1.252  1.00  0.00     0.181 C 
BRANCH  11  12
ATOM     12  N   UNL     1       2.863  -0.544   0.910  1.00  0.00    -0.339 N 
ATOM     13  O   UNL     1       1.001   0.093  -0.164  1.00  0.00    -0.269 OA
ATOM     14  C   UNL     1       2.226   0.014  -0.170  1.00  0.00     0.251 C 
ATOM     15  H   UNL     1       2.275  -1.005   1.550  1.00  0.00     0.164 HD
BRANCH  14  16
ATOM     16  C   UNL     1       2.981   0.558  -1.321  1.00  0.00     0.040 A 
ATOM     17  C   UNL     1       3.953  -0.195  -1.992  1.00  0.00     0.017 A 
ATOM     18  C   UNL     1       2.640   1.835  -1.789  1.00  0.00     0.017 A 
ATOM     19  C   UNL     1       4.637   0.360  -3.076  1.00  0.00     0.040 A 
ATOM     20  C   UNL     1       3.314   2.379  -2.885  1.00  0.00     0.040 A 
ATOM     21  C   UNL     1       4.314   1.642  -3.509  1.00  0.00     0.123 A 
ATOM     22  F   UNL     1       4.967   2.169  -4.553  1.00  0.00    -0.207 F 
ENDBRANCH  14  16
ENDBRANCH  11  12
BRANCH  11  23
ATOM     23  C   UNL     1       4.765   0.695   2.012  1.00  0.00     0.101 C 
BRANCH  23  24
ATOM     24  S   UNL     1       3.781   1.190   3.460  1.00  0.00    -0.177 SA
ATOM     25  H   UNL     1       2.527   1.534   3.059  1.00  0.00     0.102 HD
ENDBRANCH  23  24
ENDBRANCH  11  23
ENDBRANCH   8  11
ENDBRANCH   6   7
BRANCH   6  26
ATOM     26  C   UNL     1       1.977  -3.375   3.451  1.00  0.00     0.193 C 
BRANCH  26  27
ATOM     27  O   UNL     1       2.503  -4.689   3.623  1.00  0.00    -0.394 OA
ATOM     28  H   UNL     1       3.222  -4.835   2.988  1.00  0.00     0.210 HD
ENDBRANCH  26  27
ENDBRANCH   6  26
ENDBRANCH   4   6
ENDBRANCH   3   4
ENDBRANCH   2   3
ENDBRANCH   1   2
BRANCH   1  29
ATOM     29  O   UNL     1       6.799  -0.867   6.370  1.00  0.00    -0.374 OA
BRANCH  29  30
ATOM     30  C   UNL     1       6.761  -0.767   4.948  1.00  0.00     0.202 C 
BRANCH  30  31
ATOM     31  C   UNL     1       7.922  -1.400   4.171  1.00  0.00     0.261 C 
BRANCH  31  32
ATOM     32  O   UNL     1       8.063  -2.807   4.419  1.00  0.00    -0.460 OA
BRANCH  32  33
ATOM     33  C   UNL     1       9.198  -3.143   5.077  1.00  0.00     0.338 C 
ATOM     34  O   UNL     1      10.116  -2.395   5.398  1.00  0.00    -0.246 OA
BRANCH  33  35
ATOM     35  C   UNL     1       9.131  -4.537   5.542  1.00  0.00     0.060 A 
ATOM     36  C   UNL     1       9.286  -4.760   6.915  1.00  0.00     0.016 A 
ATOM     37  C   UNL     1       9.011  -5.609   4.654  1.00  0.00     0.016 A 
ATOM     38  C   UNL     1       9.372  -6.059   7.403  1.00  0.00     0.010 A 
ATOM     39  C   UNL     1       9.105  -6.917   5.147  1.00  0.00     0.010 A 
ATOM     40  C   UNL     1       9.322  -7.145   6.518  1.00  0.00    -0.014 A 
BRANCH  40  41
ATOM     41  C   UNL     1       9.621  -8.502   7.037  1.00  0.00     0.031 A 
ATOM     42  C   UNL     1      11.005  -9.067   6.867  1.00  0.00     0.074 A 
ATOM     43  C   UNL     1       8.686  -9.191   7.715  1.00  0.00     0.049 A 
ATOM     44  N   UNL     1      11.497 -10.196   7.307  1.00  0.00    -0.248 NA
ATOM     45  C   UNL     1      11.964  -8.249   6.106  1.00  0.00     0.031 C 
ATOM     46  C   UNL     1       7.320  -8.732   7.972  1.00  0.00     0.029 A 
ATOM     47  N   UNL     1       8.749 -10.419   8.323  1.00  0.00    -0.354 N 
ATOM     48  C   UNL     1      12.820 -10.226   6.881  1.00  0.00     0.074 A 
ATOM     49  C   UNL     1      13.045  -9.016   6.119  1.00  0.00     0.031 C 
ATOM     50  C   UNL     1       6.676  -9.666   8.692  1.00  0.00     0.029 A 
ATOM     51  C   UNL     1       7.574 -10.795   8.927  1.00  0.00     0.049 A 
ATOM     52  H   UNL     1       9.559 -10.977   8.326  1.00  0.00     0.167 HD
ATOM     53  C   UNL     1      13.764 -11.170   7.110  1.00  0.00     0.031 A 
ATOM     54  C   UNL     1       7.256 -11.923   9.591  1.00  0.00     0.031 A 
ATOM     55  C   UNL     1      13.532 -12.381   7.852  1.00  0.00     0.049 A 
ATOM     56  C   UNL     1       8.308 -12.983   9.785  1.00  0.00     0.074 A 
ATOM     57  C   UNL     1      14.427 -13.396   8.148  1.00  0.00     0.029 A 
ATOM     58  N   UNL     1      12.316 -12.747   8.410  1.00  0.00    -0.354 N 
ATOM     59  N   UNL     1       9.562 -12.981   9.399  1.00  0.00    -0.248 NA
ATOM     60  C   UNL     1       7.903 -14.189  10.519  1.00  0.00     0.031 C 
ATOM     61  C   UNL     1      13.738 -14.399   8.840  1.00  0.00     0.029 A 
ATOM     62  C   UNL     1      12.429 -13.982   9.026  1.00  0.00     0.049 A 
ATOM     63  H   UNL     1      11.494 -12.207   8.374  1.00  0.00     0.167 HD
ATOM     64  C   UNL     1      10.102 -14.176   9.863  1.00  0.00     0.074 A 
ATOM     65  C   UNL     1       9.043 -14.864  10.575  1.00  0.00     0.031 C 
ATOM     66  C   UNL     1      11.361 -14.661   9.716  1.00  0.00     0.031 A 
BRANCH  53  67
ATOM     67  C   UNL     1      15.131 -10.941   6.519  1.00  0.00    -0.014 A 
ATOM     68  C   UNL     1      15.996  -9.962   7.039  1.00  0.00     0.010 A 
ATOM     69  C   UNL     1      15.568 -11.740   5.447  1.00  0.00     0.010 A 
ATOM     70  C   UNL     1      17.258  -9.760   6.473  1.00  0.00     0.020 A 
ATOM     71  C   UNL     1      16.840 -11.559   4.894  1.00  0.00     0.020 A 
ATOM     72  C   UNL     1      17.671 -10.558   5.401  1.00  0.00     0.054 A 
BRANCH  72  73
ATOM     73  S   UNL     1      19.320 -10.288   4.697  1.00  0.00     0.124 S 
ATOM     74  O   UNL     1      19.135  -9.037   3.966  1.00  0.00    -0.237 OA
ATOM     75  O   UNL     1      20.167 -10.202   5.884  1.00  0.00    -0.237 OA
ATOM     76  O   UNL     1      19.540 -11.468   3.864  1.00  0.00    -0.744 OA
ENDBRANCH  72  73
ENDBRANCH  53  67
BRANCH  54  77
ATOM     77  C   UNL     1       5.877 -12.111  10.116  1.00  0.00    -0.014 A 
ATOM     78  C   UNL     1       5.622 -12.088  11.498  1.00  0.00     0.010 A 
ATOM     79  C   UNL     1       4.805 -12.308   9.226  1.00  0.00     0.010 A 
ATOM     80  C   UNL     1       4.323 -12.273  11.981  1.00  0.00     0.020 A 
ATOM     81  C   UNL     1       3.502 -12.467   9.704  1.00  0.00     0.020 A 
ATOM     82  C   UNL     1       3.270 -12.460  11.080  1.00  0.00     0.054 A 
BRANCH  82  83
ATOM     83  S   UNL     1       1.584 -12.643  11.725  1.00  0.00     0.124 S 
ATOM     84  O   UNL     1       1.605 -14.005  12.247  1.00  0.00    -0.237 OA
ATOM     85  O   UNL     1       1.512 -11.581  12.726  1.00  0.00    -0.237 OA
ATOM     86  O   UNL     1       0.744 -12.435  10.547  1.00  0.00    -0.744 OA
ENDBRANCH  82  83
ENDBRANCH  54  77
BRANCH  66  87
ATOM     87  C   UNL     1      11.664 -15.988  10.360  1.00  0.00    -0.014 A 
ATOM     88  C   UNL     1      11.135 -17.186   9.847  1.00  0.00     0.010 A 
ATOM     89  C   UNL     1      12.506 -16.038  11.487  1.00  0.00     0.010 A 
ATOM     90  C   UNL     1      11.400 -18.404  10.480  1.00  0.00     0.020 A 
ATOM     91  C   UNL     1      12.796 -17.257  12.105  1.00  0.00     0.020 A 
ATOM     92  C   UNL     1      12.223 -18.430  11.610  1.00  0.00     0.054 A 
BRANCH  92  93
ATOM     93  S   UNL     1      12.558 -20.022  12.413  1.00  0.00     0.124 S 
ATOM     94  O   UNL     1      11.308 -20.270  13.127  1.00  0.00    -0.237 OA
ATOM     95  O   UNL     1      12.819 -20.906  11.280  1.00  0.00    -0.237 OA
ATOM     96  O   UNL     1      13.716 -19.745  13.259  1.00  0.00    -0.744 OA
ENDBRANCH  92  93
ENDBRANCH  66  87
ENDBRANCH  40  41
ENDBRANCH  33  35
ENDBRANCH  32  33
ENDBRANCH  31  32
ENDBRANCH  30  31
ENDBRANCH  29  30
ENDBRANCH   1  29
TORSDOF 25
