REMARK SMILES O=C(OCCOCCOC(=O)[C@@H]1CN(C(=O)[C@H]2CC=CCC2)c2ccccc2O1)c1ccc(-c2c3nc(c(-c4ccc(S(=O)(=O)[O-])cc4)c4ccc([nH]4)c(-c4ccc(S(=O)(=O)[O-])cc4)c4nc(c(-c5ccc(S(=O)(=O)[O-])cc5)c5ccc2[nH]5)C=C4)C=C3)cc1
REMARK SMILES IDX 5 1 4 2 3 3 2 4 1 5 30 6 31 7 89 8 32 9 88 10 33 11 34 12
REMARK SMILES IDX 35 13 82 14 36 15 87 16 81 17 83 18 37 19 86 20 80 21 79 22
REMARK SMILES IDX 38 24 68 25 49 26 67 27 50 28 53 29 66 30 84 31 51 32 52 33
REMARK SMILES IDX 65 35 85 36 54 37 39 38 40 39 48 40 41 41 47 42 42 43 43 44
REMARK SMILES IDX 44 45 45 46 46 47 69 48 70 49 78 50 71 51 77 52 72 53 73 54
REMARK SMILES IDX 74 55 75 56 76 57 55 58 56 59 64 60 57 61 63 62 58 63 59 64
REMARK SMILES IDX 60 65 61 66 62 67 6 68 7 69 8 70 9 71 10 72 11 73 12 74
REMARK SMILES IDX 13 75 29 76 14 77 28 78 23 79 27 80 24 81 26 82 25 83 15 84
REMARK SMILES IDX 16 85 17 86 18 87 22 88 19 89 21 90 20 91
REMARK H PARENT 83 23 53 34
REMARK Flexibility Score: inf
ROOT
ATOM      1  C   UNL     1       4.798  -1.149  -1.256  1.00  0.00     0.202 C 
ENDROOT
BRANCH   1   2
ATOM      2  C   UNL     1       3.968  -0.395  -0.189  1.00  0.00     0.261 C 
BRANCH   2   3
ATOM      3  O   UNL     1       2.521  -0.395  -0.244  1.00  0.00    -0.460 OA
BRANCH   3   4
ATOM      4  C   UNL     1       1.792   0.755  -0.415  1.00  0.00     0.338 C 
ATOM      5  O   UNL     1       0.712   0.930   0.117  1.00  0.00    -0.246 OA
BRANCH   4   6
ATOM      6  C   UNL     1       2.381   1.744  -1.346  1.00  0.00     0.060 A 
ATOM      7  C   UNL     1       3.258   1.262  -2.296  1.00  0.00     0.016 A 
ATOM      8  C   UNL     1       2.124   3.109  -1.302  1.00  0.00     0.016 A 
ATOM      9  C   UNL     1       4.164   2.071  -2.904  1.00  0.00     0.010 A 
ATOM     10  C   UNL     1       2.811   3.939  -2.196  1.00  0.00     0.010 A 
ATOM     11  C   UNL     1       3.846   3.407  -2.987  1.00  0.00    -0.014 A 
BRANCH  11  12
ATOM     12  C   UNL     1       4.604   4.167  -3.986  1.00  0.00     0.031 A 
ATOM     13  C   UNL     1       5.420   5.314  -3.522  1.00  0.00     0.074 A 
ATOM     14  C   UNL     1       4.604   3.729  -5.264  1.00  0.00     0.049 A 
ATOM     15  N   UNL     1       5.975   6.253  -4.229  1.00  0.00    -0.248 NA
ATOM     16  C   UNL     1       5.622   5.436  -2.068  1.00  0.00     0.031 C 
ATOM     17  C   UNL     1       3.947   2.501  -5.752  1.00  0.00     0.029 A 
ATOM     18  N   UNL     1       5.194   4.236  -6.386  1.00  0.00    -0.354 N 
ATOM     19  C   UNL     1       6.512   7.134  -3.304  1.00  0.00     0.074 A 
ATOM     20  C   UNL     1       6.242   6.603  -1.987  1.00  0.00     0.031 C 
ATOM     21  C   UNL     1       4.213   2.333  -7.051  1.00  0.00     0.029 A 
ATOM     22  C   UNL     1       4.903   3.516  -7.522  1.00  0.00     0.049 A 
ATOM     23  H   UNL     1       5.770   5.035  -6.382  1.00  0.00     0.167 HD
ATOM     24  C   UNL     1       7.133   8.305  -3.567  1.00  0.00     0.031 A 
ATOM     25  C   UNL     1       5.079   3.833  -8.816  1.00  0.00     0.031 A 
ATOM     26  C   UNL     1       7.346   8.761  -4.913  1.00  0.00     0.049 A 
ATOM     27  C   UNL     1       5.692   5.170  -9.089  1.00  0.00     0.074 A 
ATOM     28  C   UNL     1       7.904   9.944  -5.352  1.00  0.00     0.029 A 
ATOM     29  N   UNL     1       6.999   8.030  -6.048  1.00  0.00    -0.354 N 
ATOM     30  N   UNL     1       6.103   6.068  -8.222  1.00  0.00    -0.248 NA
ATOM     31  C   UNL     1       5.849   5.556 -10.491  1.00  0.00     0.031 C 
ATOM     32  C   UNL     1       7.841   9.950  -6.750  1.00  0.00     0.029 A 
ATOM     33  C   UNL     1       7.315   8.740  -7.188  1.00  0.00     0.049 A 
ATOM     34  H   UNL     1       6.587   7.135  -6.038  1.00  0.00     0.167 HD
ATOM     35  C   UNL     1       6.594   7.122  -8.970  1.00  0.00     0.074 A 
ATOM     36  C   UNL     1       6.428   6.744 -10.365  1.00  0.00     0.031 C 
ATOM     37  C   UNL     1       7.136   8.292  -8.551  1.00  0.00     0.031 A 
BRANCH  24  38
ATOM     38  C   UNL     1       7.463   9.176  -2.387  1.00  0.00    -0.014 A 
ATOM     39  C   UNL     1       8.418   8.802  -1.423  1.00  0.00     0.010 A 
ATOM     40  C   UNL     1       6.723  10.356  -2.189  1.00  0.00     0.010 A 
ATOM     41  C   UNL     1       8.566   9.547  -0.248  1.00  0.00     0.020 A 
ATOM     42  C   UNL     1       6.894  11.123  -1.033  1.00  0.00     0.020 A 
ATOM     43  C   UNL     1       7.793  10.695  -0.056  1.00  0.00     0.054 A 
BRANCH  43  44
ATOM     44  S   UNL     1       7.968  11.618   1.496  1.00  0.00     0.124 S 
ATOM     45  O   UNL     1       7.301  10.735   2.449  1.00  0.00    -0.237 OA
ATOM     46  O   UNL     1       9.418  11.721   1.645  1.00  0.00    -0.237 OA
ATOM     47  O   UNL     1       7.281  12.879   1.230  1.00  0.00    -0.744 OA
ENDBRANCH  43  44
ENDBRANCH  24  38
BRANCH  25  48
ATOM     48  C   UNL     1       4.570   2.921  -9.877  1.00  0.00    -0.014 A 
ATOM     49  C   UNL     1       5.455   2.212 -10.705  1.00  0.00     0.010 A 
ATOM     50  C   UNL     1       3.185   2.674  -9.997  1.00  0.00     0.010 A 
ATOM     51  C   UNL     1       4.968   1.274 -11.625  1.00  0.00     0.020 A 
ATOM     52  C   UNL     1       2.697   1.717 -10.891  1.00  0.00     0.020 A 
ATOM     53  C   UNL     1       3.594   1.026 -11.706  1.00  0.00     0.054 A 
BRANCH  53  54
ATOM     54  S   UNL     1       2.998  -0.251 -12.851  1.00  0.00     0.124 S 
ATOM     55  O   UNL     1       3.229   0.375 -14.149  1.00  0.00    -0.237 OA
ATOM     56  O   UNL     1       3.860  -1.386 -12.533  1.00  0.00    -0.237 OA
ATOM     57  O   UNL     1       1.595  -0.420 -12.479  1.00  0.00    -0.744 OA
ENDBRANCH  53  54
ENDBRANCH  25  48
BRANCH  37  58
ATOM     58  C   UNL     1       7.653   9.210  -9.616  1.00  0.00    -0.014 A 
ATOM     59  C   UNL     1       6.782   9.996 -10.386  1.00  0.00     0.010 A 
ATOM     60  C   UNL     1       9.044   9.375  -9.740  1.00  0.00     0.010 A 
ATOM     61  C   UNL     1       7.301  10.947 -11.264  1.00  0.00     0.020 A 
ATOM     62  C   UNL     1       9.563  10.345 -10.592  1.00  0.00     0.020 A 
ATOM     63  C   UNL     1       8.686  11.126 -11.348  1.00  0.00     0.054 A 
BRANCH  63  64
ATOM     64  S   UNL     1       9.327  12.454 -12.400  1.00  0.00     0.124 S 
ATOM     65  O   UNL     1       9.088  11.922 -13.739  1.00  0.00    -0.237 OA
ATOM     66  O   UNL     1       8.496  13.592 -12.016  1.00  0.00    -0.237 OA
ATOM     67  O   UNL     1      10.732  12.556 -12.011  1.00  0.00    -0.744 OA
ENDBRANCH  63  64
ENDBRANCH  37  58
ENDBRANCH  11  12
ENDBRANCH   4   6
ENDBRANCH   3   4
ENDBRANCH   2   3
ENDBRANCH   1   2
BRANCH   1  68
ATOM     68  O   UNL     1       4.232  -1.688  -2.443  1.00  0.00    -0.374 OA
BRANCH  68  69
ATOM     69  C   UNL     1       2.935  -2.262  -2.435  1.00  0.00     0.202 C 
BRANCH  69  70
ATOM     70  C   UNL     1       2.780  -3.610  -1.745  1.00  0.00     0.261 C 
BRANCH  70  71
ATOM     71  O   UNL     1       3.472  -3.693  -0.489  1.00  0.00    -0.460 OA
BRANCH  71  72
ATOM     72  C   UNL     1       4.717  -4.249  -0.574  1.00  0.00     0.349 C 
ATOM     73  O   UNL     1       5.215  -4.671  -1.611  1.00  0.00    -0.248 OA
BRANCH  72  74
ATOM     74  C   UNL     1       5.370  -4.392   0.806  1.00  0.00     0.302 C 
ATOM     75  C   UNL     1       5.217  -3.255   1.823  1.00  0.00     0.183 C 
ATOM     76  O   UNL     1       6.718  -4.822   0.704  1.00  0.00    -0.475 OA
ATOM     77  N   UNL     1       6.215  -2.174   1.809  1.00  0.00    -0.304 N 
ATOM     78  C   UNL     1       7.578  -3.776   0.484  1.00  0.00     0.144 A 
ATOM     79  C   UNL     1       7.420  -2.496   1.054  1.00  0.00     0.086 A 
ATOM     80  C   UNL     1       8.683  -4.106  -0.312  1.00  0.00     0.049 A 
ATOM     81  C   UNL     1       8.484  -1.599   0.858  1.00  0.00     0.030 A 
ATOM     82  C   UNL     1       9.688  -3.175  -0.536  1.00  0.00     0.004 A 
ATOM     83  C   UNL     1       9.598  -1.930   0.069  1.00  0.00     0.002 A 
BRANCH  77  84
ATOM     84  C   UNL     1       5.989  -0.904   2.373  1.00  0.00     0.230 C 
ATOM     85  O   UNL     1       6.597   0.096   1.958  1.00  0.00    -0.274 OA
BRANCH  84  86
ATOM     86  C   UNL     1       4.963  -0.593   3.515  1.00  0.00     0.083 C 
ATOM     87  C   UNL     1       3.460  -0.495   3.224  1.00  0.00     0.040 C 
ATOM     88  C   UNL     1       5.200  -1.272   4.863  1.00  0.00     0.018 C 
ATOM     89  C   UNL     1       2.722  -1.777   3.445  1.00  0.00    -0.030 C 
ATOM     90  C   UNL     1       4.462  -2.597   5.051  1.00  0.00     0.028 C 
ATOM     91  C   UNL     1       3.185  -2.728   4.268  1.00  0.00    -0.031 C 
ENDBRANCH  84  86
ENDBRANCH  77  84
ENDBRANCH  72  74
ENDBRANCH  71  72
ENDBRANCH  70  71
ENDBRANCH  69  70
ENDBRANCH  68  69
ENDBRANCH   1  68
TORSDOF 19
