REMARK SMILES C[C@@H](C(=O)OCCOCCOC(=O)c1ccc(-c2c3nc(c(-c4ccc(S(=O)(=O)[O-])cc4)c4ccc([nH]4)c(-c4ccc(S(=O)(=O)[O-])cc4)c4nc(c(-c5ccc(S(=O)(=O)[O-])cc5)c5ccc2[nH]5)C=C4)C=C3)cc1)c1ccccc1-c1ccn(C(F)F)c(=O)c1
REMARK SMILES IDX 8 1 7 2 6 3 5 4 3 5 4 6 2 7 1 8 74 9 75 10 79 11 76 12 78 13
REMARK SMILES IDX 77 14 80 15 81 16 89 17 82 18 87 19 83 20 88 21 84 22 85 23
REMARK SMILES IDX 86 24 9 25 10 26 11 27 12 28 13 29 14 30 15 31 73 32 16 33
REMARK SMILES IDX 72 34 17 35 18 36 19 37 66 38 20 39 71 40 65 41 67 42 21 43
REMARK SMILES IDX 70 44 64 45 63 46 22 48 52 49 33 50 51 51 34 52 37 53 50 54
REMARK SMILES IDX 68 55 35 56 36 57 49 59 69 60 38 61 23 62 24 63 32 64 25 65
REMARK SMILES IDX 31 66 26 67 27 68 28 69 29 70 30 71 53 72 54 73 62 74 55 75
REMARK SMILES IDX 61 76 56 77 57 78 58 79 59 80 60 81 39 82 40 83 48 84 41 85
REMARK SMILES IDX 47 86 42 87 43 88 44 89 45 90 46 91
REMARK H PARENT 67 47 37 58
REMARK Flexibility Score: inf
ROOT
ATOM      1  O   UNL     1       0.880   1.522   4.434  1.00  0.00    -0.374 OA
ENDROOT
BRANCH   1   2
ATOM      2  C   UNL     1       2.174   0.928   4.513  1.00  0.00     0.202 C 
BRANCH   2   3
ATOM      3  C   UNL     1       2.343  -0.508   4.006  1.00  0.00     0.261 C 
BRANCH   3   4
ATOM      4  O   UNL     1       1.999  -0.655   2.617  1.00  0.00    -0.463 OA
BRANCH   4   5
ATOM      5  C   UNL     1       0.790  -1.243   2.403  1.00  0.00     0.313 C 
ATOM      6  O   UNL     1       0.088  -1.687   3.306  1.00  0.00    -0.252 OA
BRANCH   5   7
ATOM      7  C   UNL     1       0.397  -1.296   0.915  1.00  0.00     0.127 C 
ATOM      8  C   UNL     1       1.079  -0.247   0.027  1.00  0.00     0.025 C 
BRANCH   7   9
ATOM      9  C   UNL     1      -1.138  -1.280   0.823  1.00  0.00    -0.026 A 
ATOM     10  C   UNL     1      -1.837  -0.057   0.835  1.00  0.00     0.005 A 
ATOM     11  C   UNL     1      -1.884  -2.484   0.901  1.00  0.00    -0.014 A 
ATOM     12  C   UNL     1      -3.226  -0.022   0.961  1.00  0.00     0.000 A 
ATOM     13  C   UNL     1      -3.280  -2.433   1.040  1.00  0.00     0.009 A 
ATOM     14  C   UNL     1      -3.945  -1.207   1.079  1.00  0.00     0.001 A 
BRANCH  11  15
ATOM     15  C   UNL     1      -1.222  -3.802   0.809  1.00  0.00    -0.011 A 
ATOM     16  C   UNL     1      -0.456  -4.396   1.887  1.00  0.00     0.027 A 
ATOM     17  C   UNL     1      -1.214  -4.389  -0.400  1.00  0.00     0.080 A 
ATOM     18  C   UNL     1       0.403  -5.391   1.634  1.00  0.00     0.095 A 
ATOM     19  C   UNL     1      -0.356  -5.576  -0.662  1.00  0.00     0.255 A 
ATOM     20  N   UNL     1       0.495  -5.941   0.369  1.00  0.00    -0.258 N 
ATOM     21  O   UNL     1      -0.422  -6.109  -1.765  1.00  0.00    -0.269 OA
BRANCH  20  22
ATOM     22  C   UNL     1       1.460  -6.972   0.090  1.00  0.00     0.451 C 
ATOM     23  F   UNL     1       0.845  -8.162  -0.118  1.00  0.00    -0.185 F 
ATOM     24  F   UNL     1       2.181  -6.674  -1.019  1.00  0.00    -0.185 F 
ENDBRANCH  20  22
ENDBRANCH  11  15
ENDBRANCH   7   9
ENDBRANCH   5   7
ENDBRANCH   4   5
ENDBRANCH   3   4
ENDBRANCH   2   3
ENDBRANCH   1   2
BRANCH   1  25
ATOM     25  C   UNL     1       0.421   1.958   3.157  1.00  0.00     0.202 C 
BRANCH  25  26
ATOM     26  C   UNL     1       1.063   3.211   2.549  1.00  0.00     0.261 C 
BRANCH  26  27
ATOM     27  O   UNL     1       2.461   3.027   2.265  1.00  0.00    -0.460 OA
BRANCH  27  28
ATOM     28  C   UNL     1       3.288   3.786   3.022  1.00  0.00     0.338 C 
ATOM     29  O   UNL     1       2.962   4.654   3.823  1.00  0.00    -0.246 OA
BRANCH  28  30
ATOM     30  C   UNL     1       4.673   3.291   2.923  1.00  0.00     0.060 A 
ATOM     31  C   UNL     1       5.334   2.995   4.123  1.00  0.00     0.016 A 
ATOM     32  C   UNL     1       5.340   3.188   1.700  1.00  0.00     0.016 A 
ATOM     33  C   UNL     1       6.682   2.654   4.112  1.00  0.00     0.010 A 
ATOM     34  C   UNL     1       6.700   2.857   1.692  1.00  0.00     0.010 A 
ATOM     35  C   UNL     1       7.385   2.631   2.901  1.00  0.00    -0.014 A 
BRANCH  35  36
ATOM     36  C   UNL     1       8.864   2.542   2.929  1.00  0.00     0.031 A 
ATOM     37  C   UNL     1       9.668   3.810   2.825  1.00  0.00     0.074 A 
ATOM     38  C   UNL     1       9.482   1.360   3.102  1.00  0.00     0.049 A 
ATOM     39  N   UNL     1      10.966   3.971   2.836  1.00  0.00    -0.248 NA
ATOM     40  C   UNL     1       8.906   5.064   2.694  1.00  0.00     0.031 C 
ATOM     41  C   UNL     1       8.810   0.071   3.267  1.00  0.00     0.029 A 
ATOM     42  N   UNL     1      10.818   1.056   3.170  1.00  0.00    -0.354 N 
ATOM     43  C   UNL     1      11.177   5.339   2.709  1.00  0.00     0.074 A 
ATOM     44  C   UNL     1       9.876   5.961   2.594  1.00  0.00     0.031 C 
ATOM     45  C   UNL     1       9.741  -0.888   3.413  1.00  0.00     0.029 A 
ATOM     46  C   UNL     1      11.070  -0.286   3.322  1.00  0.00     0.049 A 
ATOM     47  H   UNL     1      11.528   1.735   3.115  1.00  0.00     0.167 HD
ATOM     48  C   UNL     1      12.349   6.018   2.696  1.00  0.00     0.031 A 
ATOM     49  C   UNL     1      12.240  -0.954   3.365  1.00  0.00     0.031 A 
ATOM     50  C   UNL     1      13.642   5.396   2.796  1.00  0.00     0.049 A 
ATOM     51  C   UNL     1      13.532  -0.185   3.273  1.00  0.00     0.074 A 
ATOM     52  C   UNL     1      14.888   5.998   2.799  1.00  0.00     0.029 A 
ATOM     53  N   UNL     1      13.856   4.031   2.904  1.00  0.00    -0.354 N 
ATOM     54  N   UNL     1      13.715   1.110   3.171  1.00  0.00    -0.248 NA
ATOM     55  C   UNL     1      14.775  -0.968   3.311  1.00  0.00     0.031 C 
ATOM     56  C   UNL     1      15.858   4.991   2.856  1.00  0.00     0.029 A 
ATOM     57  C   UNL     1      15.214   3.767   2.947  1.00  0.00     0.049 A 
ATOM     58  H   UNL     1      13.146   3.349   2.944  1.00  0.00     0.167 HD
ATOM     59  C   UNL     1      15.093   1.299   3.158  1.00  0.00     0.074 A 
ATOM     60  C   UNL     1      15.696  -0.014   3.275  1.00  0.00     0.031 C 
ATOM     61  C   UNL     1      15.797   2.454   3.061  1.00  0.00     0.031 A 
BRANCH  48  62
ATOM     62  C   UNL     1      12.282   7.513   2.530  1.00  0.00    -0.014 A 
ATOM     63  C   UNL     1      11.828   8.343   3.571  1.00  0.00     0.010 A 
ATOM     64  C   UNL     1      12.706   8.098   1.323  1.00  0.00     0.010 A 
ATOM     65  C   UNL     1      11.763   9.728   3.394  1.00  0.00     0.020 A 
ATOM     66  C   UNL     1      12.667   9.484   1.151  1.00  0.00     0.020 A 
ATOM     67  C   UNL     1      12.179  10.289   2.183  1.00  0.00     0.054 A 
BRANCH  67  68
ATOM     68  S   UNL     1      12.100  12.091   1.984  1.00  0.00     0.124 S 
ATOM     69  O   UNL     1      10.664  12.313   1.833  1.00  0.00    -0.237 OA
ATOM     70  O   UNL     1      12.683  12.577   3.232  1.00  0.00    -0.237 OA
ATOM     71  O   UNL     1      12.898  12.343   0.787  1.00  0.00    -0.744 OA
ENDBRANCH  67  68
ENDBRANCH  48  62
BRANCH  49  72
ATOM     72  C   UNL     1      12.242  -2.437   3.483  1.00  0.00    -0.014 A 
ATOM     73  C   UNL     1      12.671  -3.065   4.665  1.00  0.00     0.010 A 
ATOM     74  C   UNL     1      11.803  -3.230   2.407  1.00  0.00     0.010 A 
ATOM     75  C   UNL     1      12.672  -4.460   4.764  1.00  0.00     0.020 A 
ATOM     76  C   UNL     1      11.778  -4.623   2.512  1.00  0.00     0.020 A 
ATOM     77  C   UNL     1      12.222  -5.230   3.688  1.00  0.00     0.054 A 
BRANCH  77  78
ATOM     78  S   UNL     1      12.170  -7.036   3.861  1.00  0.00     0.124 S 
ATOM     79  O   UNL     1      13.580  -7.392   3.748  1.00  0.00    -0.237 OA
ATOM     80  O   UNL     1      11.576  -7.209   5.185  1.00  0.00    -0.237 OA
ATOM     81  O   UNL     1      11.322  -7.460   2.749  1.00  0.00    -0.744 OA
ENDBRANCH  77  78
ENDBRANCH  49  72
BRANCH  61  82
ATOM     82  C   UNL     1      17.299   2.359   3.109  1.00  0.00    -0.014 A 
ATOM     83  C   UNL     1      18.033   1.859   2.019  1.00  0.00     0.010 A 
ATOM     84  C   UNL     1      17.988   2.832   4.241  1.00  0.00     0.010 A 
ATOM     85  C   UNL     1      19.429   1.806   2.073  1.00  0.00     0.020 A 
ATOM     86  C   UNL     1      19.384   2.806   4.288  1.00  0.00     0.020 A 
ATOM     87  C   UNL     1      20.095   2.279   3.208  1.00  0.00     0.054 A 
BRANCH  87  88
ATOM     88  S   UNL     1      21.909   2.241   3.237  1.00  0.00     0.124 S 
ATOM     89  O   UNL     1      22.178   0.822   3.454  1.00  0.00    -0.237 OA
ATOM     90  O   UNL     1      22.263   2.753   1.916  1.00  0.00    -0.237 OA
ATOM     91  O   UNL     1      22.256   3.119   4.353  1.00  0.00    -0.744 OA
ENDBRANCH  87  88
ENDBRANCH  61  82
ENDBRANCH  35  36
ENDBRANCH  28  30
ENDBRANCH  27  28
ENDBRANCH  26  27
ENDBRANCH  25  26
ENDBRANCH   1  25
TORSDOF 20
