REMARK SMILES O=C(OCCOCCOC(=O)[C@]1(CCc2cccnc2)C[C@H]2CC[C@@H]1O2)c1ccc(-c2c3nc(c(-c4ccc(S(=O)(=O)[O-])cc4)c4ccc([nH]4)c(-c4ccc(S(=O)(=O)[O-])cc4)c4nc(c(-c5ccc(S(=O)(=O)[O-])cc5)c5ccc2[nH]5)C=C4)C=C3)cc1
REMARK SMILES IDX 6 1 5 2 4 3 3 4 2 5 1 6 27 7 28 8 86 9 29 10 85 11 30 12
REMARK SMILES IDX 31 13 32 14 79 15 33 16 84 17 78 18 80 19 34 20 83 21 77 22
REMARK SMILES IDX 76 23 35 25 65 26 46 27 64 28 47 29 50 30 63 31 81 32 48 33
REMARK SMILES IDX 49 34 62 36 82 37 51 38 36 39 37 40 45 41 38 42 44 43 39 44
REMARK SMILES IDX 40 45 41 46 42 47 43 48 66 49 67 50 75 51 68 52 74 53 69 54
REMARK SMILES IDX 70 55 71 56 72 57 73 58 52 59 53 60 61 61 54 62 60 63 55 64
REMARK SMILES IDX 56 65 57 66 58 67 59 68 7 69 8 70 9 71 10 72 11 73 12 74
REMARK SMILES IDX 21 75 25 76 22 77 24 78 26 79 23 80 13 81 14 82 15 83 16 84
REMARK SMILES IDX 20 85 17 86 19 87 18 88
REMARK H PARENT 80 24 50 35
REMARK Flexibility Score: inf
ROOT
ATOM      1  O   UNL     1       3.356  -0.138  -1.102  1.00  0.00    -0.374 OA
ENDROOT
BRANCH   1   2
ATOM      2  C   UNL     1       3.956  -1.269  -0.467  1.00  0.00     0.202 C 
BRANCH   2   3
ATOM      3  C   UNL     1       3.830  -1.317   1.057  1.00  0.00     0.261 C 
BRANCH   3   4
ATOM      4  O   UNL     1       2.520  -0.958   1.484  1.00  0.00    -0.460 OA
BRANCH   4   5
ATOM      5  C   UNL     1       2.028   0.303   1.537  1.00  0.00     0.338 C 
ATOM      6  O   UNL     1       0.812   0.438   1.675  1.00  0.00    -0.246 OA
BRANCH   5   7
ATOM      7  C   UNL     1       2.873   1.546   1.488  1.00  0.00     0.060 A 
ATOM      8  C   UNL     1       4.125   1.689   0.877  1.00  0.00     0.016 A 
ATOM      9  C   UNL     1       2.296   2.693   2.059  1.00  0.00     0.016 A 
ATOM     10  C   UNL     1       4.780   2.907   0.817  1.00  0.00     0.010 A 
ATOM     11  C   UNL     1       2.950   3.925   2.017  1.00  0.00     0.010 A 
ATOM     12  C   UNL     1       4.199   4.023   1.400  1.00  0.00    -0.014 A 
BRANCH  12  13
ATOM     13  C   UNL     1       5.031   5.224   1.514  1.00  0.00     0.031 A 
ATOM     14  C   UNL     1       5.794   5.407   2.786  1.00  0.00     0.074 A 
ATOM     15  C   UNL     1       5.199   6.022   0.448  1.00  0.00     0.049 A 
ATOM     16  N   UNL     1       6.583   6.380   3.143  1.00  0.00    -0.248 NA
ATOM     17  C   UNL     1       5.657   4.335   3.791  1.00  0.00     0.031 C 
ATOM     18  C   UNL     1       4.598   5.806  -0.871  1.00  0.00     0.029 A 
ATOM     19  N   UNL     1       5.954   7.149   0.294  1.00  0.00    -0.354 N 
ATOM     20  C   UNL     1       7.004   6.060   4.427  1.00  0.00     0.074 A 
ATOM     21  C   UNL     1       6.392   4.802   4.785  1.00  0.00     0.031 C 
ATOM     22  C   UNL     1       5.037   6.759  -1.710  1.00  0.00     0.029 A 
ATOM     23  C   UNL     1       5.889   7.684  -0.970  1.00  0.00     0.049 A 
ATOM     24  H   UNL     1       6.493   7.541   1.018  1.00  0.00     0.167 HD
ATOM     25  C   UNL     1       7.811   6.779   5.238  1.00  0.00     0.031 A 
ATOM     26  C   UNL     1       6.442   8.814  -1.449  1.00  0.00     0.031 A 
ATOM     27  C   UNL     1       8.367   8.046   4.851  1.00  0.00     0.049 A 
ATOM     28  C   UNL     1       7.251   9.652  -0.494  1.00  0.00     0.074 A 
ATOM     29  C   UNL     1       9.129   8.922   5.597  1.00  0.00     0.029 A 
ATOM     30  N   UNL     1       8.204   8.617   3.593  1.00  0.00    -0.354 N 
ATOM     31  N   UNL     1       7.578   9.395   0.754  1.00  0.00    -0.248 NA
ATOM     32  C   UNL     1       7.748  10.937  -0.996  1.00  0.00     0.031 C 
ATOM     33  C   UNL     1       9.374  10.053   4.809  1.00  0.00     0.029 A 
ATOM     34  C   UNL     1       8.830   9.848   3.548  1.00  0.00     0.049 A 
ATOM     35  H   UNL     1       7.715   8.205   2.845  1.00  0.00     0.167 HD
ATOM     36  C   UNL     1       8.331  10.480   1.183  1.00  0.00     0.074 A 
ATOM     37  C   UNL     1       8.426  11.386   0.051  1.00  0.00     0.031 C 
ATOM     38  C   UNL     1       8.891  10.716   2.396  1.00  0.00     0.031 A 
BRANCH  25  39
ATOM     39  C   UNL     1       8.010   6.255   6.634  1.00  0.00    -0.014 A 
ATOM     40  C   UNL     1       8.745   5.082   6.891  1.00  0.00     0.010 A 
ATOM     41  C   UNL     1       7.380   6.914   7.705  1.00  0.00     0.010 A 
ATOM     42  C   UNL     1       8.791   4.546   8.182  1.00  0.00     0.020 A 
ATOM     43  C   UNL     1       7.450   6.399   9.001  1.00  0.00     0.020 A 
ATOM     44  C   UNL     1       8.133   5.203   9.227  1.00  0.00     0.054 A 
BRANCH  44  45
ATOM     45  S   UNL     1       8.180   4.472  10.886  1.00  0.00     0.124 S 
ATOM     46  O   UNL     1       7.294   3.320  10.732  1.00  0.00    -0.237 OA
ATOM     47  O   UNL     1       9.595   4.155  11.056  1.00  0.00    -0.237 OA
ATOM     48  O   UNL     1       7.673   5.535  11.749  1.00  0.00    -0.744 OA
ENDBRANCH  44  45
ENDBRANCH  25  39
BRANCH  26  49
ATOM     49  C   UNL     1       6.204   9.230  -2.860  1.00  0.00    -0.014 A 
ATOM     50  C   UNL     1       7.262   9.293  -3.784  1.00  0.00     0.010 A 
ATOM     51  C   UNL     1       4.904   9.548  -3.297  1.00  0.00     0.010 A 
ATOM     52  C   UNL     1       7.025   9.671  -5.111  1.00  0.00     0.020 A 
ATOM     53  C   UNL     1       4.657   9.895  -4.629  1.00  0.00     0.020 A 
ATOM     54  C   UNL     1       5.723   9.964  -5.527  1.00  0.00     0.054 A 
BRANCH  54  55
ATOM     55  S   UNL     1       5.430  10.396  -7.265  1.00  0.00     0.124 S 
ATOM     56  O   UNL     1       6.024  11.726  -7.352  1.00  0.00    -0.237 OA
ATOM     57  O   UNL     1       6.141   9.337  -7.977  1.00  0.00    -0.237 OA
ATOM     58  O   UNL     1       3.975  10.351  -7.389  1.00  0.00    -0.744 OA
ENDBRANCH  54  55
ENDBRANCH  26  49
BRANCH  38  59
ATOM     59  C   UNL     1       9.682  11.986   2.547  1.00  0.00    -0.014 A 
ATOM     60  C   UNL     1       9.047  13.239   2.614  1.00  0.00     0.010 A 
ATOM     61  C   UNL     1      11.078  11.909   2.701  1.00  0.00     0.010 A 
ATOM     62  C   UNL     1       9.803  14.397   2.804  1.00  0.00     0.020 A 
ATOM     63  C   UNL     1      11.831  13.061   2.924  1.00  0.00     0.020 A 
ATOM     64  C   UNL     1      11.189  14.300   2.962  1.00  0.00     0.054 A 
BRANCH  64  65
ATOM     65  S   UNL     1      12.140  15.813   3.265  1.00  0.00     0.124 S 
ATOM     66  O   UNL     1      12.110  16.457   1.955  1.00  0.00    -0.237 OA
ATOM     67  O   UNL     1      11.362  16.475   4.309  1.00  0.00    -0.237 OA
ATOM     68  O   UNL     1      13.449  15.321   3.689  1.00  0.00    -0.744 OA
ENDBRANCH  64  65
ENDBRANCH  38  59
ENDBRANCH  12  13
ENDBRANCH   5   7
ENDBRANCH   4   5
ENDBRANCH   3   4
ENDBRANCH   2   3
ENDBRANCH   1   2
BRANCH   1  69
ATOM     69  C   UNL     1       2.044  -0.339  -1.635  1.00  0.00     0.202 C 
BRANCH  69  70
ATOM     70  C   UNL     1       2.123  -0.616  -3.138  1.00  0.00     0.261 C 
BRANCH  70  71
ATOM     71  O   UNL     1       2.969  -1.766  -3.283  1.00  0.00    -0.463 OA
BRANCH  71  72
ATOM     72  C   UNL     1       3.975  -1.751  -4.196  1.00  0.00     0.314 C 
ATOM     73  O   UNL     1       4.072  -0.954  -5.112  1.00  0.00    -0.252 OA
BRANCH  72  74
ATOM     74  C   UNL     1       5.018  -2.829  -3.866  1.00  0.00     0.097 C 
ATOM     75  C   UNL     1       5.452  -3.522  -5.178  1.00  0.00     0.053 C 
ATOM     76  C   UNL     1       4.266  -4.011  -3.181  1.00  0.00     0.136 C 
ATOM     77  C   UNL     1       4.720  -4.871  -5.111  1.00  0.00     0.120 C 
ATOM     78  C   UNL     1       5.138  -5.206  -2.801  1.00  0.00     0.036 C 
ATOM     79  O   UNL     1       3.555  -4.561  -4.322  1.00  0.00    -0.374 OA
ATOM     80  C   UNL     1       5.434  -5.829  -4.163  1.00  0.00     0.035 C 
BRANCH  74  81
ATOM     81  C   UNL     1       6.211  -2.301  -3.019  1.00  0.00     0.026 C 
BRANCH  81  82
ATOM     82  C   UNL     1       7.092  -1.104  -3.459  1.00  0.00     0.038 C 
BRANCH  82  83
ATOM     83  C   UNL     1       6.809   0.344  -3.110  1.00  0.00    -0.030 A 
ATOM     84  C   UNL     1       5.559   0.947  -3.137  1.00  0.00     0.007 A 
ATOM     85  C   UNL     1       7.874   1.223  -2.893  1.00  0.00     0.114 A 
ATOM     86  C   UNL     1       5.406   2.330  -3.022  1.00  0.00     0.020 A 
ATOM     87  N   UNL     1       7.768   2.567  -2.744  1.00  0.00    -0.264 NA
ATOM     88  C   UNL     1       6.535   3.098  -2.843  1.00  0.00     0.111 A 
ENDBRANCH  82  83
ENDBRANCH  81  82
ENDBRANCH  74  81
ENDBRANCH  72  74
ENDBRANCH  71  72
ENDBRANCH  70  71
ENDBRANCH  69  70
ENDBRANCH   1  69
TORSDOF 20
