REMARK SMILES CC[C@H](Oc1ccccc1/C=C1\SC(N)=[NH+]C1=O)C(=O)OCCOCCOC(=O)c1ccc(-c2c3nc(c(-c4ccc(S(=O)(=O)[O-])cc4)c4ccc([nH]4)c(-c4ccc(S(=O)(=O)[O-])cc4)c4nc(c(-c5ccc(S(=O)(=O)[O-])cc5)c5ccc2[nH]5)C=C4)C=C3)cc1
REMARK SMILES IDX 24 1 23 2 22 3 21 4 19 5 20 6 3 7 2 8 1 9 4 10 5 11 6 12
REMARK SMILES IDX 10 13 7 14 9 15 8 16 11 17 12 18 13 19 17 20 14 21 16 22
REMARK SMILES IDX 18 23 15 24 25 28 26 29 27 30 28 31 29 32 30 33 31 34 89 35
REMARK SMILES IDX 32 36 88 37 33 38 34 39 35 40 82 41 36 42 87 43 81 44 83 45
REMARK SMILES IDX 37 46 86 47 80 48 79 49 38 51 68 52 49 53 67 54 50 55 53 56
REMARK SMILES IDX 66 57 84 58 51 59 52 60 65 62 85 63 54 64 39 65 40 66 48 67
REMARK SMILES IDX 41 68 47 69 42 70 43 71 44 72 45 73 46 74 69 75 70 76 78 77
REMARK SMILES IDX 71 78 77 79 72 80 73 81 74 82 75 83 76 84 55 85 56 86 64 87
REMARK SMILES IDX 57 88 63 89 58 90 59 91 60 92 61 93 62 94
REMARK H PARENT 16 25 15 26 15 27 83 50 53 61
REMARK Flexibility Score: inf
ROOT
ATOM      1  O   UNL     1       0.989  -5.757   2.603  1.00  0.00    -0.374 OA
ENDROOT
BRANCH   1   2
ATOM      2  C   UNL     1      -0.281  -5.507   3.185  1.00  0.00     0.202 C 
BRANCH   2   3
ATOM      3  C   UNL     1      -0.631  -4.089   3.663  1.00  0.00     0.261 C 
BRANCH   3   4
ATOM      4  O   UNL     1      -0.382  -3.013   2.740  1.00  0.00    -0.461 OA
BRANCH   4   5
ATOM      5  C   UNL     1       0.731  -2.271   3.008  1.00  0.00     0.347 C 
ATOM      6  O   UNL     1       1.590  -2.588   3.828  1.00  0.00    -0.248 OA
BRANCH   5   7
ATOM      7  C   UNL     1       0.746  -0.905   2.293  1.00  0.00     0.282 C 
BRANCH   7   8
ATOM      8  C   UNL     1       0.195   0.060   3.358  1.00  0.00     0.054 C 
ATOM      9  C   UNL     1      -1.287  -0.103   3.682  1.00  0.00     0.008 C 
ENDBRANCH   7   8
BRANCH   7  10
ATOM     10  O   UNL     1       0.301  -0.943   0.934  1.00  0.00    -0.478 OA
BRANCH  10  11
ATOM     11  C   UNL     1      -0.461  -0.046   0.241  1.00  0.00     0.127 A 
ATOM     12  C   UNL     1      -1.021   1.125   0.742  1.00  0.00     0.047 A 
ATOM     13  C   UNL     1      -0.759  -0.373  -1.105  1.00  0.00     0.018 A 
ATOM     14  C   UNL     1      -2.027   1.812   0.055  1.00  0.00     0.004 A 
ATOM     15  C   UNL     1      -1.796   0.294  -1.782  1.00  0.00     0.012 A 
ATOM     16  C   UNL     1      -2.461   1.358  -1.180  1.00  0.00     0.001 A 
BRANCH  13  17
ATOM     17  C   UNL     1       0.182  -1.170  -1.918  1.00  0.00     0.036 C 
ATOM     18  C   UNL     1      -0.002  -2.304  -2.600  1.00  0.00     0.110 C 
ATOM     19  S   UNL     1      -1.361  -3.333  -2.648  1.00  0.00     0.006 SA
ATOM     20  C   UNL     1       1.108  -2.954  -3.362  1.00  0.00     0.346 C 
ATOM     21  C   UNL     1      -0.318  -4.633  -3.167  1.00  0.00     0.314 C 
ATOM     22  N   UNL     1       0.875  -4.302  -3.527  1.00  0.00    -0.200 N 
ATOM     23  O   UNL     1       2.106  -2.358  -3.743  1.00  0.00    -0.240 OA
ATOM     24  N   UNL     1      -0.777  -5.897  -3.095  1.00  0.00    -0.281 N 
ATOM     25  H   UNL     1       1.540  -4.937  -3.879  1.00  0.00     0.316 HD
ATOM     26  H   UNL     1      -1.704  -6.069  -2.810  1.00  0.00     0.302 HD
ATOM     27  H   UNL     1      -0.186  -6.649  -3.326  1.00  0.00     0.302 HD
ENDBRANCH  13  17
ENDBRANCH  10  11
ENDBRANCH   7  10
ENDBRANCH   5   7
ENDBRANCH   4   5
ENDBRANCH   3   4
ENDBRANCH   2   3
ENDBRANCH   1   2
BRANCH   1  28
ATOM     28  C   UNL     1       1.359  -5.030   1.441  1.00  0.00     0.202 C 
BRANCH  28  29
ATOM     29  C   UNL     1       0.422  -5.012   0.227  1.00  0.00     0.261 C 
BRANCH  29  30
ATOM     30  O   UNL     1      -0.966  -4.753   0.510  1.00  0.00    -0.460 OA
BRANCH  30  31
ATOM     31  C   UNL     1      -1.817  -5.739   0.137  1.00  0.00     0.338 C 
ATOM     32  O   UNL     1      -1.531  -6.790  -0.415  1.00  0.00    -0.246 OA
BRANCH  31  33
ATOM     33  C   UNL     1      -3.216  -5.418   0.453  1.00  0.00     0.060 A 
ATOM     34  C   UNL     1      -3.856  -6.112   1.484  1.00  0.00     0.016 A 
ATOM     35  C   UNL     1      -3.957  -4.638  -0.435  1.00  0.00     0.016 A 
ATOM     36  C   UNL     1      -5.247  -6.061   1.587  1.00  0.00     0.010 A 
ATOM     37  C   UNL     1      -5.343  -4.576  -0.324  1.00  0.00     0.010 A 
ATOM     38  C   UNL     1      -6.000  -5.321   0.661  1.00  0.00    -0.014 A 
BRANCH  38  39
ATOM     39  C   UNL     1      -7.479  -5.337   0.688  1.00  0.00     0.031 A 
ATOM     40  C   UNL     1      -8.251  -6.058  -0.385  1.00  0.00     0.074 A 
ATOM     41  C   UNL     1      -8.116  -4.654   1.654  1.00  0.00     0.049 A 
ATOM     42  N   UNL     1      -9.546  -6.152  -0.545  1.00  0.00    -0.248 NA
ATOM     43  C   UNL     1      -7.467  -6.752  -1.421  1.00  0.00     0.031 C 
ATOM     44  C   UNL     1      -7.458  -3.901   2.724  1.00  0.00     0.029 A 
ATOM     45  N   UNL     1      -9.453  -4.471   1.887  1.00  0.00    -0.354 N 
ATOM     46  C   UNL     1      -9.735  -6.903  -1.701  1.00  0.00     0.074 A 
ATOM     47  C   UNL     1      -8.420  -7.212  -2.221  1.00  0.00     0.031 C 
ATOM     48  C   UNL     1      -8.395  -3.349   3.509  1.00  0.00     0.029 A 
ATOM     49  C   UNL     1      -9.714  -3.674   2.975  1.00  0.00     0.049 A 
ATOM     50  H   UNL     1     -10.158  -4.872   1.329  1.00  0.00     0.167 HD
ATOM     51  C   UNL     1     -10.899  -7.301  -2.270  1.00  0.00     0.031 A 
ATOM     52  C   UNL     1     -10.886  -3.243   3.476  1.00  0.00     0.031 A 
ATOM     53  C   UNL     1     -12.199  -6.973  -1.742  1.00  0.00     0.049 A 
ATOM     54  C   UNL     1     -12.162  -3.678   2.812  1.00  0.00     0.074 A 
ATOM     55  C   UNL     1     -13.442  -7.368  -2.206  1.00  0.00     0.029 A 
ATOM     56  N   UNL     1     -12.424  -6.163  -0.638  1.00  0.00    -0.354 N 
ATOM     57  N   UNL     1     -12.323  -4.447   1.761  1.00  0.00    -0.248 NA
ATOM     58  C   UNL     1     -13.415  -3.199   3.409  1.00  0.00     0.031 C 
ATOM     59  C   UNL     1     -14.418  -6.744  -1.423  1.00  0.00     0.029 A 
ATOM     60  C   UNL     1     -13.785  -6.019  -0.426  1.00  0.00     0.049 A 
ATOM     61  H   UNL     1     -11.720  -5.750  -0.087  1.00  0.00     0.167 HD
ATOM     62  C   UNL     1     -13.697  -4.568   1.588  1.00  0.00     0.074 A 
ATOM     63  C   UNL     1     -14.319  -3.806   2.653  1.00  0.00     0.031 C 
ATOM     64  C   UNL     1     -14.383  -5.250   0.638  1.00  0.00     0.031 A 
BRANCH  51  65
ATOM     65  C   UNL     1     -10.828  -8.118  -3.537  1.00  0.00    -0.014 A 
ATOM     66  C   UNL     1     -10.346  -9.440  -3.531  1.00  0.00     0.010 A 
ATOM     67  C   UNL     1     -11.310  -7.577  -4.744  1.00  0.00     0.010 A 
ATOM     68  C   UNL     1     -10.314 -10.190  -4.711  1.00  0.00     0.020 A 
ATOM     69  C   UNL     1     -11.306  -8.333  -5.921  1.00  0.00     0.020 A 
ATOM     70  C   UNL     1     -10.794  -9.631  -5.900  1.00  0.00     0.054 A 
BRANCH  70  71
ATOM     71  S   UNL     1     -10.766 -10.639  -7.408  1.00  0.00     0.124 S 
ATOM     72  O   UNL     1      -9.337 -10.699  -7.704  1.00  0.00    -0.237 OA
ATOM     73  O   UNL     1     -11.368 -11.894  -6.965  1.00  0.00    -0.237 OA
ATOM     74  O   UNL     1     -11.566  -9.868  -8.357  1.00  0.00    -0.744 OA
ENDBRANCH  70  71
ENDBRANCH  51  65
BRANCH  52  75
ATOM     75  C   UNL     1     -10.897  -2.364   4.675  1.00  0.00    -0.014 A 
ATOM     76  C   UNL     1     -11.371  -2.845   5.908  1.00  0.00     0.010 A 
ATOM     77  C   UNL     1     -10.405  -1.048   4.597  1.00  0.00     0.010 A 
ATOM     78  C   UNL     1     -11.370  -2.020   7.036  1.00  0.00     0.020 A 
ATOM     79  C   UNL     1     -10.374  -0.231   5.729  1.00  0.00     0.020 A 
ATOM     80  C   UNL     1     -10.869  -0.719   6.940  1.00  0.00     0.054 A 
BRANCH  80  81
ATOM     81  S   UNL     1     -10.832   0.315   8.430  1.00  0.00     0.124 S 
ATOM     82  O   UNL     1     -12.246   0.622   8.620  1.00  0.00    -0.237 OA
ATOM     83  O   UNL     1     -10.238  -0.581   9.419  1.00  0.00    -0.237 OA
ATOM     84  O   UNL     1      -9.992   1.445   8.040  1.00  0.00    -0.744 OA
ENDBRANCH  80  81
ENDBRANCH  52  75
BRANCH  64  85
ATOM     85  C   UNL     1     -15.887  -5.232   0.728  1.00  0.00    -0.014 A 
ATOM     86  C   UNL     1     -16.623  -4.070   0.438  1.00  0.00     0.010 A 
ATOM     87  C   UNL     1     -16.573  -6.414   1.065  1.00  0.00     0.010 A 
ATOM     88  C   UNL     1     -18.018  -4.082   0.519  1.00  0.00     0.020 A 
ATOM     89  C   UNL     1     -17.968  -6.437   1.115  1.00  0.00     0.020 A 
ATOM     90  C   UNL     1     -18.681  -5.266   0.857  1.00  0.00     0.054 A 
BRANCH  90  91
ATOM     91  S   UNL     1     -20.494  -5.263   0.915  1.00  0.00     0.124 S 
ATOM     92  O   UNL     1     -20.757  -4.500   2.132  1.00  0.00    -0.237 OA
ATOM     93  O   UNL     1     -20.853  -4.598  -0.335  1.00  0.00    -0.237 OA
ATOM     94  O   UNL     1     -20.841  -6.681   0.982  1.00  0.00    -0.744 OA
ENDBRANCH  90  91
ENDBRANCH  64  85
ENDBRANCH  38  39
ENDBRANCH  31  33
ENDBRANCH  30  31
ENDBRANCH  29  30
ENDBRANCH  28  29
ENDBRANCH   1  28
TORSDOF 21
