REMARK SMILES COc1cc2ccccc2cc1C(=O)Nc1cc(C(=O)OCCOCCOC(=O)c2ccc(-c3c4nc(c(-c5ccc(S(=O)(=O)[O-])cc5)c5ccc([nH]5)c(-c5ccc(S(=O)(=O)[O-])cc5)c5nc(c(-c6ccc(S(=O)(=O)[O-])cc6)c6ccc3[nH]6)C=C5)C=C4)cc2)ccc1C
REMARK SMILES IDX 24 1 23 2 22 3 21 4 19 5 20 6 18 7 16 8 17 9 92 10 91 11
REMARK SMILES IDX 93 12 90 13 15 14 13 15 14 16 12 18 3 19 4 20 5 21 11 22
REMARK SMILES IDX 6 23 10 24 7 25 9 26 8 27 2 28 1 29 25 30 26 31 27 32 28 33
REMARK SMILES IDX 29 34 30 35 31 36 89 37 32 38 88 39 33 40 34 41 35 42 82 43
REMARK SMILES IDX 36 44 87 45 81 46 83 47 37 48 86 49 80 50 79 51 38 53 68 54
REMARK SMILES IDX 49 55 67 56 50 57 53 58 66 59 84 60 51 61 52 62 65 64 85 65
REMARK SMILES IDX 54 66 39 67 40 68 48 69 41 70 47 71 42 72 43 73 44 74 45 75
REMARK SMILES IDX 46 76 69 77 70 78 78 79 71 80 77 81 72 82 73 83 74 84 75 85
REMARK SMILES IDX 76 86 55 87 56 88 64 89 57 90 63 91 58 92 59 93 60 94 61 95
REMARK SMILES IDX 62 96
REMARK H PARENT 15 17 83 52 53 63
REMARK Flexibility Score: inf
ROOT
ATOM      1  O   UNL     1      -1.760  -1.603   4.315  1.00  0.00    -0.374 OA
ENDROOT
BRANCH   1   2
ATOM      2  C   UNL     1      -0.513  -2.267   4.153  1.00  0.00     0.202 C 
BRANCH   2   3
ATOM      3  C   UNL     1      -0.632  -3.147   2.961  1.00  0.00     0.261 C 
BRANCH   3   4
ATOM      4  O   UNL     1      -0.233  -2.532   1.752  1.00  0.00    -0.460 OA
BRANCH   4   5
ATOM      5  C   UNL     1      -1.061  -1.511   1.411  1.00  0.00     0.338 C 
ATOM      6  O   UNL     1      -2.262  -1.506   1.330  1.00  0.00    -0.246 OA
BRANCH   5   7
ATOM      7  C   UNL     1      -0.183  -0.334   1.312  1.00  0.00     0.062 A 
ATOM      8  C   UNL     1       1.854   0.569   0.447  1.00  0.00     0.045 A 
ATOM      9  C   UNL     1       1.137  -0.518   0.905  1.00  0.00     0.042 A 
ATOM     10  C   UNL     1       1.368   1.872   0.666  1.00  0.00    -0.027 A 
ATOM     11  C   UNL     1       0.087   2.041   1.233  1.00  0.00     0.006 A 
ATOM     12  C   UNL     1       2.031   3.091   0.095  1.00  0.00     0.046 C 
ATOM     13  C   UNL     1      -0.713   0.936   1.508  1.00  0.00     0.016 A 
BRANCH   8  14
ATOM     14  N   UNL     1       2.989   0.334  -0.333  1.00  0.00    -0.322 N 
ATOM     15  C   UNL     1       3.266  -0.673  -1.243  1.00  0.00     0.259 C 
ATOM     16  O   UNL     1       4.464  -0.842  -1.506  1.00  0.00    -0.269 OA
ATOM     17  H   UNL     1       3.712   0.993  -0.217  1.00  0.00     0.170 HD
BRANCH  15  18
ATOM     18  C   UNL     1       2.251  -1.486  -2.024  1.00  0.00     0.082 A 
ATOM     19  C   UNL     1       0.881  -1.239  -2.201  1.00  0.00     0.132 A 
ATOM     20  C   UNL     1       0.076  -2.105  -2.952  1.00  0.00     0.056 A 
ATOM     21  C   UNL     1       0.621  -3.199  -3.619  1.00  0.00    -0.015 A 
ATOM     22  C   UNL     1       2.789  -2.591  -2.733  1.00  0.00     0.026 A 
ATOM     23  C   UNL     1      -0.209  -4.082  -4.317  1.00  0.00     0.009 A 
ATOM     24  C   UNL     1       1.996  -3.457  -3.518  1.00  0.00    -0.017 A 
ATOM     25  C   UNL     1       0.296  -5.255  -4.871  1.00  0.00     0.001 A 
ATOM     26  C   UNL     1       2.511  -4.599  -4.162  1.00  0.00     0.009 A 
ATOM     27  C   UNL     1       1.662  -5.504  -4.810  1.00  0.00     0.001 A 
BRANCH  19  28
ATOM     28  O   UNL     1       0.187  -0.252  -1.573  1.00  0.00    -0.496 OA
ATOM     29  C   UNL     1      -0.039   0.886  -2.385  1.00  0.00     0.278 C 
ENDBRANCH  19  28
ENDBRANCH  15  18
ENDBRANCH   8  14
ENDBRANCH   5   7
ENDBRANCH   4   5
ENDBRANCH   3   4
ENDBRANCH   2   3
ENDBRANCH   1   2
BRANCH   1  30
ATOM     30  C   UNL     1      -1.836  -0.868   5.521  1.00  0.00     0.202 C 
BRANCH  30  31
ATOM     31  C   UNL     1      -1.460  -1.671   6.781  1.00  0.00     0.261 C 
BRANCH  31  32
ATOM     32  O   UNL     1      -2.490  -2.635   7.104  1.00  0.00    -0.460 OA
BRANCH  32  33
ATOM     33  C   UNL     1      -2.144  -3.960   7.094  1.00  0.00     0.338 C 
ATOM     34  O   UNL     1      -1.759  -4.564   8.081  1.00  0.00    -0.246 OA
BRANCH  33  35
ATOM     35  C   UNL     1      -2.542  -4.612   5.814  1.00  0.00     0.060 A 
ATOM     36  C   UNL     1      -1.932  -5.792   5.348  1.00  0.00     0.016 A 
ATOM     37  C   UNL     1      -3.483  -3.971   5.019  1.00  0.00     0.016 A 
ATOM     38  C   UNL     1      -2.149  -6.238   4.029  1.00  0.00     0.010 A 
ATOM     39  C   UNL     1      -3.659  -4.383   3.716  1.00  0.00     0.010 A 
ATOM     40  C   UNL     1      -2.961  -5.487   3.185  1.00  0.00    -0.014 A 
BRANCH  40  41
ATOM     41  C   UNL     1      -3.058  -5.575   1.716  1.00  0.00     0.031 A 
ATOM     42  C   UNL     1      -4.419  -5.599   1.133  1.00  0.00     0.074 A 
ATOM     43  C   UNL     1      -1.992  -5.284   0.921  1.00  0.00     0.049 A 
ATOM     44  N   UNL     1      -4.651  -5.467  -0.118  1.00  0.00    -0.248 NA
ATOM     45  C   UNL     1      -5.652  -5.743   1.907  1.00  0.00     0.031 C 
ATOM     46  C   UNL     1      -1.959  -4.829  -0.473  1.00  0.00     0.029 A 
ATOM     47  N   UNL     1      -0.633  -5.410   1.222  1.00  0.00    -0.354 N 
ATOM     48  C   UNL     1      -5.998  -5.355  -0.324  1.00  0.00     0.074 A 
ATOM     49  C   UNL     1      -6.587  -5.485   0.983  1.00  0.00     0.031 C 
ATOM     50  C   UNL     1      -0.726  -5.030  -0.965  1.00  0.00     0.029 A 
ATOM     51  C   UNL     1       0.064  -5.689   0.044  1.00  0.00     0.049 A 
ATOM     52  H   UNL     1      -0.233  -5.317   2.117  1.00  0.00     0.167 HD
ATOM     53  C   UNL     1      -6.405  -5.136  -1.603  1.00  0.00     0.031 A 
ATOM     54  C   UNL     1       0.759  -6.847  -0.054  1.00  0.00     0.031 A 
ATOM     55  C   UNL     1      -5.295  -5.392  -2.543  1.00  0.00     0.049 A 
ATOM     56  C   UNL     1      -0.029  -7.731  -1.004  1.00  0.00     0.074 A 
ATOM     57  C   UNL     1      -4.612  -4.658  -3.492  1.00  0.00     0.029 A 
ATOM     58  N   UNL     1      -4.563  -6.583  -2.393  1.00  0.00    -0.354 N 
ATOM     59  N   UNL     1      -1.266  -7.462  -1.365  1.00  0.00    -0.248 NA
ATOM     60  C   UNL     1       0.494  -8.881  -1.730  1.00  0.00     0.031 C 
ATOM     61  C   UNL     1      -3.513  -5.449  -3.940  1.00  0.00     0.029 A 
ATOM     62  C   UNL     1      -3.429  -6.607  -3.178  1.00  0.00     0.049 A 
ATOM     63  H   UNL     1      -4.830  -7.317  -1.795  1.00  0.00     0.167 HD
ATOM     64  C   UNL     1      -1.598  -8.159  -2.482  1.00  0.00     0.074 A 
ATOM     65  C   UNL     1      -0.529  -9.151  -2.568  1.00  0.00     0.031 C 
ATOM     66  C   UNL     1      -2.643  -7.838  -3.311  1.00  0.00     0.031 A 
BRANCH  53  67
ATOM     67  C   UNL     1      -7.771  -4.612  -2.005  1.00  0.00    -0.014 A 
ATOM     68  C   UNL     1      -7.976  -4.149  -3.322  1.00  0.00     0.010 A 
ATOM     69  C   UNL     1      -8.876  -4.479  -1.138  1.00  0.00     0.010 A 
ATOM     70  C   UNL     1      -9.185  -3.566  -3.739  1.00  0.00     0.020 A 
ATOM     71  C   UNL     1     -10.097  -3.906  -1.541  1.00  0.00     0.020 A 
ATOM     72  C   UNL     1     -10.242  -3.444  -2.843  1.00  0.00     0.054 A 
BRANCH  72  73
ATOM     73  S   UNL     1     -11.792  -2.687  -3.399  1.00  0.00     0.124 S 
ATOM     74  O   UNL     1     -11.370  -1.337  -3.763  1.00  0.00    -0.237 OA
ATOM     75  O   UNL     1     -12.181  -3.546  -4.513  1.00  0.00    -0.237 OA
ATOM     76  O   UNL     1     -12.660  -2.766  -2.226  1.00  0.00    -0.744 OA
ENDBRANCH  72  73
ENDBRANCH  53  67
BRANCH  54  77
ATOM     77  C   UNL     1       1.583  -7.029   1.205  1.00  0.00    -0.014 A 
ATOM     78  C   UNL     1       2.604  -6.045   1.390  1.00  0.00     0.010 A 
ATOM     79  C   UNL     1       1.049  -7.605   2.374  1.00  0.00     0.010 A 
ATOM     80  C   UNL     1       2.897  -5.500   2.655  1.00  0.00     0.020 A 
ATOM     81  C   UNL     1       1.361  -7.072   3.653  1.00  0.00     0.020 A 
ATOM     82  C   UNL     1       2.229  -5.980   3.778  1.00  0.00     0.054 A 
BRANCH  82  83
ATOM     83  S   UNL     1       2.312  -4.999   5.322  1.00  0.00     0.124 S 
ATOM     84  O   UNL     1       3.633  -5.329   5.841  1.00  0.00    -0.237 OA
ATOM     85  O   UNL     1       2.151  -3.625   4.844  1.00  0.00    -0.237 OA
ATOM     86  O   UNL     1       1.184  -5.495   6.104  1.00  0.00    -0.744 OA
ENDBRANCH  82  83
ENDBRANCH  54  77
BRANCH  66  87
ATOM     87  C   UNL     1      -3.071  -8.736  -4.422  1.00  0.00    -0.014 A 
ATOM     88  C   UNL     1      -2.191  -9.407  -5.271  1.00  0.00     0.010 A 
ATOM     89  C   UNL     1      -4.461  -8.899  -4.624  1.00  0.00     0.010 A 
ATOM     90  C   UNL     1      -2.681 -10.365  -6.157  1.00  0.00     0.020 A 
ATOM     91  C   UNL     1      -4.960  -9.808  -5.541  1.00  0.00     0.020 A 
ATOM     92  C   UNL     1      -4.060 -10.585  -6.252  1.00  0.00     0.054 A 
BRANCH  92  93
ATOM     93  S   UNL     1      -4.665 -11.931  -7.284  1.00  0.00     0.124 S 
ATOM     94  O   UNL     1      -3.884 -11.767  -8.507  1.00  0.00    -0.237 OA
ATOM     95  O   UNL     1      -4.328 -13.097  -6.472  1.00  0.00    -0.237 OA
ATOM     96  O   UNL     1      -6.093 -11.653  -7.417  1.00  0.00    -0.744 OA
ENDBRANCH  92  93
ENDBRANCH  66  87
ENDBRANCH  40  41
ENDBRANCH  33  35
ENDBRANCH  32  33
ENDBRANCH  31  32
ENDBRANCH  30  31
ENDBRANCH   1  30
TORSDOF 20
