REMARK SMILES O=C(CCC(=O)N1CCC(c2nnc3ccccn23)CC1)OCCOCCOC(=O)c1ccc(-c2c3nc(c(-c4ccc(S(=O)(=O)[O-])cc4)c4ccc([nH]4)c(-c4ccc(S(=O)(=O)[O-])cc4)c4nc(c(-c5ccc(S(=O)(=O)[O-])cc5)c5ccc2[nH]5)C=C4)C=C3)cc1
REMARK SMILES IDX 25 1 24 2 23 3 22 4 2 5 1 6 3 7 4 8 5 9 6 10 7 11 8 12 21 13
REMARK SMILES IDX 9 14 20 15 10 16 11 17 12 18 19 19 13 20 14 21 18 22 15 23
REMARK SMILES IDX 17 24 16 25 26 26 27 27 28 28 29 29 30 30 31 31 32 32 90 33
REMARK SMILES IDX 33 34 89 35 34 36 35 37 36 38 83 39 37 40 88 41 82 42 84 43
REMARK SMILES IDX 38 44 87 45 81 46 80 47 39 49 69 50 50 51 68 52 51 53 54 54
REMARK SMILES IDX 67 55 85 56 52 57 53 58 66 60 86 61 55 62 40 63 41 64 49 65
REMARK SMILES IDX 42 66 48 67 43 68 44 69 45 70 46 71 47 72 70 73 71 74 79 75
REMARK SMILES IDX 72 76 78 77 73 78 74 79 75 80 76 81 77 82 56 83 57 84 65 85
REMARK SMILES IDX 58 86 64 87 59 88 60 89 61 90 62 91 63 92
REMARK H PARENT 84 48 54 59
REMARK Flexibility Score: inf
ROOT
ATOM      1  O   UNL     1       4.409  -2.357  -1.569  1.00  0.00    -0.374 OA
ENDROOT
BRANCH   1   2
ATOM      2  C   UNL     1       5.214  -1.936  -0.472  1.00  0.00     0.202 C 
BRANCH   2   3
ATOM      3  C   UNL     1       4.833  -0.610   0.192  1.00  0.00     0.261 C 
BRANCH   3   4
ATOM      4  O   UNL     1       3.427  -0.519   0.486  1.00  0.00    -0.463 OA
BRANCH   4   5
ATOM      5  C   UNL     1       2.533   0.231  -0.189  1.00  0.00     0.306 C 
ATOM      6  O   UNL     1       1.335   0.164   0.088  1.00  0.00    -0.252 OA
BRANCH   5   7
ATOM      7  C   UNL     1       3.004   1.189  -1.243  1.00  0.00     0.132 C 
BRANCH   7   8
ATOM      8  C   UNL     1       3.005   2.600  -0.685  1.00  0.00     0.112 C 
BRANCH   8   9
ATOM      9  C   UNL     1       4.224   2.881   0.166  1.00  0.00     0.223 C 
ATOM     10  O   UNL     1       5.319   3.001  -0.390  1.00  0.00    -0.275 OA
ATOM     11  N   UNL     1       4.067   3.043   1.531  1.00  0.00    -0.343 N 
ATOM     12  C   UNL     1       5.159   3.631   2.291  1.00  0.00     0.120 C 
ATOM     13  C   UNL     1       2.995   2.498   2.367  1.00  0.00     0.120 C 
ATOM     14  C   UNL     1       5.820   2.572   3.142  1.00  0.00     0.033 C 
ATOM     15  C   UNL     1       3.543   1.423   3.314  1.00  0.00     0.033 C 
ATOM     16  C   UNL     1       4.815   1.867   4.073  1.00  0.00     0.062 C 
BRANCH  16  17
ATOM     17  C   UNL     1       5.543   0.697   4.662  1.00  0.00     0.140 A 
ATOM     18  N   UNL     1       5.597  -0.506   4.123  1.00  0.00    -0.134 NA
ATOM     19  N   UNL     1       6.482   0.787   5.672  1.00  0.00    -0.286 N 
ATOM     20  N   UNL     1       6.618  -1.194   4.719  1.00  0.00    -0.130 NA
ATOM     21  C   UNL     1       7.133  -0.437   5.658  1.00  0.00     0.160 A 
ATOM     22  C   UNL     1       6.849   1.832   6.516  1.00  0.00     0.095 A 
ATOM     23  C   UNL     1       8.180  -0.647   6.594  1.00  0.00     0.050 A 
ATOM     24  C   UNL     1       7.881   1.655   7.359  1.00  0.00     0.019 A 
ATOM     25  C   UNL     1       8.546   0.360   7.410  1.00  0.00     0.005 A 
ENDBRANCH  16  17
ENDBRANCH   8   9
ENDBRANCH   7   8
ENDBRANCH   5   7
ENDBRANCH   4   5
ENDBRANCH   3   4
ENDBRANCH   2   3
ENDBRANCH   1   2
BRANCH   1  26
ATOM     26  C   UNL     1       3.102  -2.867  -1.294  1.00  0.00     0.202 C 
BRANCH  26  27
ATOM     27  C   UNL     1       2.944  -4.069  -0.352  1.00  0.00     0.261 C 
BRANCH  27  28
ATOM     28  O   UNL     1       3.260  -3.801   1.029  1.00  0.00    -0.460 OA
BRANCH  28  29
ATOM     29  C   UNL     1       4.257  -4.565   1.541  1.00  0.00     0.338 C 
ATOM     30  O   UNL     1       4.941  -5.369   0.915  1.00  0.00    -0.246 OA
BRANCH  29  31
ATOM     31  C   UNL     1       4.524  -4.265   2.963  1.00  0.00     0.060 A 
ATOM     32  C   UNL     1       5.861  -4.160   3.350  1.00  0.00     0.016 A 
ATOM     33  C   UNL     1       3.513  -4.212   3.929  1.00  0.00     0.016 A 
ATOM     34  C   UNL     1       6.185  -4.012   4.699  1.00  0.00     0.010 A 
ATOM     35  C   UNL     1       3.846  -4.079   5.290  1.00  0.00     0.010 A 
ATOM     36  C   UNL     1       5.187  -3.977   5.690  1.00  0.00    -0.014 A 
BRANCH  36  37
ATOM     37  C   UNL     1       5.625  -3.931   7.119  1.00  0.00     0.031 A 
ATOM     38  C   UNL     1       6.442  -5.082   7.647  1.00  0.00     0.074 A 
ATOM     39  C   UNL     1       5.427  -2.851   7.904  1.00  0.00     0.049 A 
ATOM     40  N   UNL     1       7.169  -5.161   8.732  1.00  0.00    -0.248 NA
ATOM     41  C   UNL     1       6.446  -6.304   6.825  1.00  0.00     0.031 C 
ATOM     42  C   UNL     1       4.685  -1.653   7.521  1.00  0.00     0.029 A 
ATOM     43  N   UNL     1       5.917  -2.549   9.159  1.00  0.00    -0.354 N 
ATOM     44  C   UNL     1       7.704  -6.445   8.730  1.00  0.00     0.074 A 
ATOM     45  C   UNL     1       7.262  -7.088   7.511  1.00  0.00     0.031 C 
ATOM     46  C   UNL     1       4.874  -0.703   8.454  1.00  0.00     0.029 A 
ATOM     47  C   UNL     1       5.727  -1.229   9.517  1.00  0.00     0.049 A 
ATOM     48  H   UNL     1       6.358  -3.209   9.741  1.00  0.00     0.167 HD
ATOM     49  C   UNL     1       8.441  -7.066   9.682  1.00  0.00     0.031 A 
ATOM     50  C   UNL     1       6.234  -0.517  10.549  1.00  0.00     0.031 A 
ATOM     51  C   UNL     1       8.784  -6.486  10.949  1.00  0.00     0.049 A 
ATOM     52  C   UNL     1       7.074  -1.224  11.587  1.00  0.00     0.074 A 
ATOM     53  C   UNL     1       9.376  -7.092  12.043  1.00  0.00     0.029 A 
ATOM     54  N   UNL     1       8.536  -5.170  11.303  1.00  0.00    -0.354 N 
ATOM     55  N   UNL     1       7.584  -2.431  11.563  1.00  0.00    -0.248 NA
ATOM     56  C   UNL     1       7.383  -0.465  12.811  1.00  0.00     0.031 C 
ATOM     57  C   UNL     1       9.440  -6.152  13.079  1.00  0.00     0.029 A 
ATOM     58  C   UNL     1       8.941  -4.949  12.607  1.00  0.00     0.049 A 
ATOM     59  H   UNL     1       8.131  -4.493  10.714  1.00  0.00     0.167 HD
ATOM     60  C   UNL     1       8.245  -2.584  12.779  1.00  0.00     0.074 A 
ATOM     61  C   UNL     1       8.144  -1.321  13.478  1.00  0.00     0.031 C 
ATOM     62  C   UNL     1       8.841  -3.688  13.292  1.00  0.00     0.031 A 
BRANCH  49  63
ATOM     63  C   UNL     1       8.774  -8.507   9.426  1.00  0.00    -0.014 A 
ATOM     64  C   UNL     1       9.805  -8.880   8.547  1.00  0.00     0.010 A 
ATOM     65  C   UNL     1       7.982  -9.502  10.028  1.00  0.00     0.010 A 
ATOM     66  C   UNL     1      10.000 -10.227   8.230  1.00  0.00     0.020 A 
ATOM     67  C   UNL     1       8.185 -10.848   9.726  1.00  0.00     0.020 A 
ATOM     68  C   UNL     1       9.176 -11.200   8.808  1.00  0.00     0.054 A 
BRANCH  68  69
ATOM     69  S   UNL     1       9.406 -12.937   8.339  1.00  0.00     0.124 S 
ATOM     70  O   UNL     1       8.806 -12.970   7.008  1.00  0.00    -0.237 OA
ATOM     71  O   UNL     1      10.858 -13.093   8.378  1.00  0.00    -0.237 OA
ATOM     72  O   UNL     1       8.677 -13.672   9.370  1.00  0.00    -0.744 OA
ENDBRANCH  68  69
ENDBRANCH  49  63
BRANCH  50  73
ATOM     73  C   UNL     1       6.037   0.961  10.664  1.00  0.00    -0.014 A 
ATOM     74  C   UNL     1       7.164   1.809  10.670  1.00  0.00     0.010 A 
ATOM     75  C   UNL     1       4.767   1.536  10.833  1.00  0.00     0.010 A 
ATOM     76  C   UNL     1       7.031   3.188  10.847  1.00  0.00     0.020 A 
ATOM     77  C   UNL     1       4.624   2.922  10.986  1.00  0.00     0.020 A 
ATOM     78  C   UNL     1       5.758   3.736  11.004  1.00  0.00     0.054 A 
BRANCH  78  79
ATOM     79  S   UNL     1       5.598   5.535  11.186  1.00  0.00     0.124 S 
ATOM     80  O   UNL     1       5.934   5.728  12.592  1.00  0.00    -0.237 OA
ATOM     81  O   UNL     1       6.577   6.036  10.223  1.00  0.00    -0.237 OA
ATOM     82  O   UNL     1       4.204   5.784  10.828  1.00  0.00    -0.744 OA
ENDBRANCH  78  79
ENDBRANCH  50  73
BRANCH  62  83
ATOM     83  C   UNL     1       9.392  -3.604  14.691  1.00  0.00    -0.014 A 
ATOM     84  C   UNL     1       8.524  -3.528  15.796  1.00  0.00     0.010 A 
ATOM     85  C   UNL     1      10.777  -3.697  14.913  1.00  0.00     0.010 A 
ATOM     86  C   UNL     1       9.032  -3.528  17.098  1.00  0.00     0.020 A 
ATOM     87  C   UNL     1      11.287  -3.722  16.215  1.00  0.00     0.020 A 
ATOM     88  C   UNL     1      10.411  -3.629  17.299  1.00  0.00     0.054 A 
BRANCH  88  89
ATOM     89  S   UNL     1      11.039  -3.709  19.000  1.00  0.00     0.124 S 
ATOM     90  O   UNL     1      10.924  -2.318  19.431  1.00  0.00    -0.237 OA
ATOM     91  O   UNL     1      10.117  -4.644  19.640  1.00  0.00    -0.237 OA
ATOM     92  O   UNL     1      12.405  -4.202  18.841  1.00  0.00    -0.744 OA
ENDBRANCH  88  89
ENDBRANCH  62  83
ENDBRANCH  36  37
ENDBRANCH  29  31
ENDBRANCH  28  29
ENDBRANCH  27  28
ENDBRANCH  26  27
ENDBRANCH   1  26
TORSDOF 20
