REMARK SMILES COc1cccc(/C=C2/C(=O)N(c3cccc(C(=O)OCCOCCOC(=O)c4ccc(-c5c6nc(c(-c7ccc(S(=O)(=O)[O-])cc7)c7ccc([nH]7)c(-c7ccc(S(=O)(=O)[O-])cc7)c7nc(c(-c8ccc(S(=O)(=O)[O-])cc8)c8ccc5[nH]8)C=C7)C=C6)cc4)c3)N=C2C)c1
REMARK SMILES IDX 23 1 22 2 21 3 20 4 18 5 19 6 17 7 13 8 14 9 89 10 15 11
REMARK SMILES IDX 16 12 12 13 8 14 9 15 10 16 91 17 11 18 90 19 92 20 7 21
REMARK SMILES IDX 3 22 4 23 93 24 5 25 6 26 2 27 1 28 24 29 25 30 26 31 27 32
REMARK SMILES IDX 28 33 29 34 30 35 88 36 31 37 87 38 32 39 33 40 34 41 81 42
REMARK SMILES IDX 35 43 86 44 80 45 82 46 36 47 85 48 79 49 78 50 37 52 67 53
REMARK SMILES IDX 48 54 66 55 49 56 52 57 65 58 83 59 50 60 51 61 64 63 84 64
REMARK SMILES IDX 53 65 38 66 39 67 47 68 40 69 46 70 41 71 42 72 43 73 44 74
REMARK SMILES IDX 45 75 68 76 69 77 77 78 70 79 76 80 71 81 72 82 73 83 74 84
REMARK SMILES IDX 75 85 54 86 55 87 63 88 56 89 62 90 57 91 58 92 59 93 60 94
REMARK SMILES IDX 61 95
REMARK H PARENT 82 51 52 62
REMARK Flexibility Score: inf
ROOT
ATOM      1  O   UNL     1      13.156  -0.546  -0.257  1.00  0.00    -0.374 OA
ENDROOT
BRANCH   1   2
ATOM      2  C   UNL     1      12.613   0.640   0.322  1.00  0.00     0.202 C 
BRANCH   2   3
ATOM      3  C   UNL     1      12.269   1.797  -0.625  1.00  0.00     0.261 C 
BRANCH   3   4
ATOM      4  O   UNL     1      11.293   1.418  -1.607  1.00  0.00    -0.460 OA
BRANCH   4   5
ATOM      5  C   UNL     1      11.762   1.284  -2.874  1.00  0.00     0.338 C 
ATOM      6  O   UNL     1      12.882   1.546  -3.277  1.00  0.00    -0.246 OA
BRANCH   5   7
ATOM      7  C   UNL     1      10.768   0.536  -3.679  1.00  0.00     0.062 A 
ATOM      8  C   UNL     1       8.486  -0.068  -4.231  1.00  0.00     0.070 A 
ATOM      9  C   UNL     1       8.976  -1.105  -5.038  1.00  0.00     0.028 A 
ATOM     10  C   UNL     1       9.394   0.749  -3.542  1.00  0.00     0.044 A 
ATOM     11  C   UNL     1      10.350  -1.287  -5.210  1.00  0.00     0.003 A 
ATOM     12  C   UNL     1      11.246  -0.463  -4.534  1.00  0.00     0.016 A 
BRANCH   8  13
ATOM     13  N   UNL     1       7.098   0.145  -4.119  1.00  0.00    -0.196 N 
ATOM     14  C   UNL     1       4.092   1.907  -3.574  1.00  0.00     0.024 C 
ATOM     15  C   UNL     1       5.038   0.984  -3.789  1.00  0.00     0.065 C 
ATOM     16  C   UNL     1       6.469   1.357  -3.822  1.00  0.00     0.280 C 
ATOM     17  C   UNL     1       5.033  -0.469  -4.046  1.00  0.00     0.071 C 
ATOM     18  O   UNL     1       6.923   2.478  -3.656  1.00  0.00    -0.267 OA
ATOM     19  N   UNL     1       6.235  -0.933  -4.274  1.00  0.00    -0.169 NA
ATOM     20  C   UNL     1       3.825  -1.346  -4.026  1.00  0.00     0.069 C 
BRANCH  14  21
ATOM     21  C   UNL     1       2.662   1.639  -3.468  1.00  0.00    -0.021 A 
ATOM     22  C   UNL     1       0.817   0.655  -2.246  1.00  0.00     0.119 A 
ATOM     23  C   UNL     1      -0.043   1.004  -3.289  1.00  0.00     0.046 A 
ATOM     24  C   UNL     1       2.167   0.984  -2.333  1.00  0.00     0.054 A 
ATOM     25  C   UNL     1       0.435   1.704  -4.398  1.00  0.00     0.004 A 
ATOM     26  C   UNL     1       1.790   2.021  -4.490  1.00  0.00     0.008 A 
BRANCH  22  27
ATOM     27  O   UNL     1       0.250  -0.056  -1.224  1.00  0.00    -0.497 OA
ATOM     28  C   UNL     1       0.883   0.077   0.046  1.00  0.00     0.278 C 
ENDBRANCH  22  27
ENDBRANCH  14  21
ENDBRANCH   8  13
ENDBRANCH   5   7
ENDBRANCH   4   5
ENDBRANCH   3   4
ENDBRANCH   2   3
ENDBRANCH   1   2
BRANCH   1  29
ATOM     29  C   UNL     1      12.239  -1.447  -0.878  1.00  0.00     0.202 C 
BRANCH  29  30
ATOM     30  C   UNL     1      11.385  -2.338   0.035  1.00  0.00     0.261 C 
BRANCH  30  31
ATOM     31  O   UNL     1      10.486  -1.588   0.870  1.00  0.00    -0.460 OA
BRANCH  31  32
ATOM     32  C   UNL     1      10.825  -1.553   2.184  1.00  0.00     0.338 C 
ATOM     33  O   UNL     1      11.754  -2.127   2.724  1.00  0.00    -0.246 OA
BRANCH  32  34
ATOM     34  C   UNL     1       9.996  -0.548   2.875  1.00  0.00     0.060 A 
ATOM     35  C   UNL     1      10.649   0.518   3.506  1.00  0.00     0.016 A 
ATOM     36  C   UNL     1       8.607  -0.671   2.943  1.00  0.00     0.016 A 
ATOM     37  C   UNL     1       9.914   1.464   4.219  1.00  0.00     0.010 A 
ATOM     38  C   UNL     1       7.873   0.273   3.669  1.00  0.00     0.010 A 
ATOM     39  C   UNL     1       8.522   1.337   4.323  1.00  0.00    -0.014 A 
BRANCH  39  40
ATOM     40  C   UNL     1       7.747   2.282   5.163  1.00  0.00     0.031 A 
ATOM     41  C   UNL     1       7.247   1.843   6.511  1.00  0.00     0.074 A 
ATOM     42  C   UNL     1       7.488   3.525   4.718  1.00  0.00     0.049 A 
ATOM     43  N   UNL     1       6.499   2.492   7.366  1.00  0.00    -0.248 NA
ATOM     44  C   UNL     1       7.640   0.496   6.954  1.00  0.00     0.031 C 
ATOM     45  C   UNL     1       7.952   4.080   3.446  1.00  0.00     0.029 A 
ATOM     46  N   UNL     1       6.761   4.543   5.282  1.00  0.00    -0.354 N 
ATOM     47  C   UNL     1       6.320   1.631   8.443  1.00  0.00     0.074 A 
ATOM     48  C   UNL     1       7.016   0.403   8.121  1.00  0.00     0.031 C 
ATOM     49  C   UNL     1       7.492   5.336   3.324  1.00  0.00     0.029 A 
ATOM     50  C   UNL     1       6.665   5.659   4.484  1.00  0.00     0.049 A 
ATOM     51  H   UNL     1       6.348   4.481   6.173  1.00  0.00     0.167 HD
ATOM     52  C   UNL     1       5.639   1.846   9.595  1.00  0.00     0.031 A 
ATOM     53  C   UNL     1       5.966   6.798   4.654  1.00  0.00     0.031 A 
ATOM     54  C   UNL     1       4.934   3.065   9.900  1.00  0.00     0.049 A 
ATOM     55  C   UNL     1       5.144   6.979   5.903  1.00  0.00     0.074 A 
ATOM     56  C   UNL     1       4.234   3.388  11.050  1.00  0.00     0.029 A 
ATOM     57  N   UNL     1       4.827   4.156   9.049  1.00  0.00    -0.354 N 
ATOM     58  N   UNL     1       5.013   6.170   6.928  1.00  0.00    -0.248 NA
ATOM     59  C   UNL     1       4.377   8.227   6.019  1.00  0.00     0.031 C 
ATOM     60  C   UNL     1       3.643   4.641  10.865  1.00  0.00     0.029 A 
ATOM     61  C   UNL     1       4.036   5.134   9.631  1.00  0.00     0.049 A 
ATOM     62  H   UNL     1       5.250   4.224   8.163  1.00  0.00     0.167 HD
ATOM     63  C   UNL     1       4.167   6.822   7.820  1.00  0.00     0.074 A 
ATOM     64  C   UNL     1       3.836   8.099   7.223  1.00  0.00     0.031 C 
ATOM     65  C   UNL     1       3.704   6.399   9.023  1.00  0.00     0.031 A 
BRANCH  52  66
ATOM     66  C   UNL     1       5.587   0.724  10.599  1.00  0.00    -0.014 A 
ATOM     67  C   UNL     1       6.727   0.336  11.326  1.00  0.00     0.010 A 
ATOM     68  C   UNL     1       4.362   0.081  10.859  1.00  0.00     0.010 A 
ATOM     69  C   UNL     1       6.650  -0.696  12.267  1.00  0.00     0.020 A 
ATOM     70  C   UNL     1       4.274  -0.930  11.820  1.00  0.00     0.020 A 
ATOM     71  C   UNL     1       5.424  -1.322  12.507  1.00  0.00     0.054 A 
BRANCH  71  72
ATOM     72  S   UNL     1       5.349  -2.639  13.753  1.00  0.00     0.124 S 
ATOM     73  O   UNL     1       6.090  -3.715  13.099  1.00  0.00    -0.237 OA
ATOM     74  O   UNL     1       6.013  -2.028  14.902  1.00  0.00    -0.237 OA
ATOM     75  O   UNL     1       3.918  -2.881  13.919  1.00  0.00    -0.744 OA
ENDBRANCH  71  72
ENDBRANCH  52  66
BRANCH  53  76
ATOM     76  C   UNL     1       5.985   7.847   3.596  1.00  0.00    -0.014 A 
ATOM     77  C   UNL     1       6.587   9.095   3.832  1.00  0.00     0.010 A 
ATOM     78  C   UNL     1       5.398   7.599   2.341  1.00  0.00     0.010 A 
ATOM     79  C   UNL     1       6.586  10.081   2.840  1.00  0.00     0.020 A 
ATOM     80  C   UNL     1       5.424   8.569   1.335  1.00  0.00     0.020 A 
ATOM     81  C   UNL     1       6.008   9.809   1.596  1.00  0.00     0.054 A 
BRANCH  81  82
ATOM     82  S   UNL     1       6.063  11.087   0.309  1.00  0.00     0.124 S 
ATOM     83  O   UNL     1       5.121  12.076   0.824  1.00  0.00    -0.237 OA
ATOM     84  O   UNL     1       7.468  11.484   0.322  1.00  0.00    -0.237 OA
ATOM     85  O   UNL     1       5.632  10.379  -0.894  1.00  0.00    -0.744 OA
ENDBRANCH  81  82
ENDBRANCH  53  76
BRANCH  65  86
ATOM     86  C   UNL     1       2.803   7.333   9.790  1.00  0.00    -0.014 A 
ATOM     87  C   UNL     1       1.489   7.595   9.360  1.00  0.00     0.010 A 
ATOM     88  C   UNL     1       3.257   7.914  10.989  1.00  0.00     0.010 A 
ATOM     89  C   UNL     1       0.658   8.442  10.098  1.00  0.00     0.020 A 
ATOM     90  C   UNL     1       2.418   8.735  11.747  1.00  0.00     0.020 A 
ATOM     91  C   UNL     1       1.127   9.004  11.290  1.00  0.00     0.054 A 
BRANCH  91  92
ATOM     92  S   UNL     1       0.010  10.059  12.253  1.00  0.00     0.124 S 
ATOM     93  O   UNL     1      -0.077  11.254  11.418  1.00  0.00    -0.237 OA
ATOM     94  O   UNL     1      -1.207   9.253  12.325  1.00  0.00    -0.237 OA
ATOM     95  O   UNL     1       0.709  10.237  13.524  1.00  0.00    -0.744 OA
ENDBRANCH  91  92
ENDBRANCH  65  86
ENDBRANCH  39  40
ENDBRANCH  32  34
ENDBRANCH  31  32
ENDBRANCH  30  31
ENDBRANCH  29  30
ENDBRANCH   1  29
TORSDOF 20
