REMARK SMILES Cc1nc(-c2ccccc2Cl)nc2sc(C(=O)OCCOCCOC(=O)c3ccc(-c4c5nc(c(-c6ccc(S(=O)(=O)[O-])cc6)c6ccc([nH]6)c(-c6ccc(S(=O)(=O)[O-])cc6)c6nc(c(-c7ccc(S(=O)(=O)[O-])cc7)c7ccc4[nH]7)C=C6)C=C5)cc3)c(N)c12
REMARK SMILES IDX 22 1 21 2 20 3 19 4 18 5 16 6 17 7 15 8 1 9 2 10 3 11 89 12
REMARK SMILES IDX 4 13 13 14 87 15 12 16 14 17 5 18 6 19 10 20 7 21 9 22 11 23
REMARK SMILES IDX 8 24 88 25 23 28 24 29 25 30 26 31 27 32 28 33 86 34 29 35
REMARK SMILES IDX 85 36 30 37 31 38 32 39 79 40 33 41 84 42 78 43 80 44 34 45
REMARK SMILES IDX 83 46 77 47 76 48 35 50 65 51 46 52 64 53 47 54 50 55 63 56
REMARK SMILES IDX 81 57 48 58 49 59 62 61 82 62 51 63 36 64 37 65 45 66 38 67
REMARK SMILES IDX 44 68 39 69 40 70 41 71 42 72 43 73 66 74 67 75 75 76 68 77
REMARK SMILES IDX 74 78 69 79 70 80 71 81 72 82 73 83 52 84 53 85 61 86 54 87
REMARK SMILES IDX 60 88 55 89 56 90 57 91 58 92 59 93
REMARK H PARENT 88 26 88 27 80 49 50 60
REMARK Flexibility Score: inf
ROOT
ATOM      1  C   UNL     1      -0.453   3.894   5.794  1.00  0.00     0.202 C 
ENDROOT
BRANCH   1   2
ATOM      2  O   UNL     1      -1.554   4.423   6.526  1.00  0.00    -0.374 OA
BRANCH   2   3
ATOM      3  C   UNL     1      -2.297   3.566   7.395  1.00  0.00     0.202 C 
BRANCH   3   4
ATOM      4  C   UNL     1      -3.310   2.628   6.738  1.00  0.00     0.261 C 
BRANCH   4   5
ATOM      5  O   UNL     1      -2.663   1.579   6.004  1.00  0.00    -0.459 OA
BRANCH   5   6
ATOM      6  C   UNL     1      -2.609   1.735   4.652  1.00  0.00     0.350 C 
ATOM      7  O   UNL     1      -3.122   2.671   4.040  1.00  0.00    -0.245 OA
BRANCH   6   8
ATOM      8  C   UNL     1      -1.745   0.740   4.050  1.00  0.00     0.138 A 
ATOM      9  C   UNL     1       0.860  -0.044   0.225  1.00  0.00     0.067 C 
ATOM     10  C   UNL     1       0.433  -0.837   1.423  1.00  0.00     0.052 A 
ATOM     11  N   UNL     1       0.806  -2.152   1.387  1.00  0.00    -0.233 NA
ATOM     12  C   UNL     1      -0.338  -0.382   2.519  1.00  0.00     0.057 A 
ATOM     13  C   UNL     1       0.476  -2.970   2.400  1.00  0.00     0.162 A 
ATOM     14  C   UNL     1      -0.616  -1.347   3.477  1.00  0.00     0.130 A 
ATOM     15  C   UNL     1      -0.963   0.862   2.910  1.00  0.00     0.069 A 
ATOM     16  N   UNL     1      -0.236  -2.627   3.472  1.00  0.00    -0.217 NA
ATOM     17  S   UNL     1      -1.581  -0.800   4.756  1.00  0.00    -0.106 S 
BRANCH  13  18
ATOM     18  C   UNL     1       0.773  -4.400   2.290  1.00  0.00     0.038 A 
ATOM     19  C   UNL     1      -0.281  -5.321   2.498  1.00  0.00     0.013 A 
ATOM     20  C   UNL     1       2.055  -4.921   2.062  1.00  0.00     0.052 A 
ATOM     21  C   UNL     1      -0.066  -6.698   2.498  1.00  0.00     0.001 A 
ATOM     22  C   UNL     1       2.271  -6.307   2.067  1.00  0.00     0.021 A 
ATOM     23  Cl  UNL     1       3.442  -3.911   1.831  1.00  0.00    -0.084 Cl
ATOM     24  C   UNL     1       1.215  -7.192   2.289  1.00  0.00     0.002 A 
ENDBRANCH  13  18
BRANCH  15  25
ATOM     25  N   UNL     1      -0.842   2.042   2.259  1.00  0.00    -0.397 N 
ATOM     26  H   UNL     1      -1.306   2.841   2.599  1.00  0.00     0.156 HD
ATOM     27  H   UNL     1      -0.291   2.102   1.445  1.00  0.00     0.156 HD
ENDBRANCH  15  25
ENDBRANCH   6   8
ENDBRANCH   5   6
ENDBRANCH   4   5
ENDBRANCH   3   4
ENDBRANCH   2   3
ENDBRANCH   1   2
BRANCH   1  28
ATOM     28  C   UNL     1       0.837   3.591   6.538  1.00  0.00     0.261 C 
BRANCH  28  29
ATOM     29  O   UNL     1       0.634   2.643   7.570  1.00  0.00    -0.460 OA
BRANCH  29  30
ATOM     30  C   UNL     1       0.500   3.186   8.797  1.00  0.00     0.338 C 
ATOM     31  O   UNL     1       0.273   4.362   9.067  1.00  0.00    -0.246 OA
BRANCH  30  32
ATOM     32  C   UNL     1       0.805   2.161   9.790  1.00  0.00     0.060 A 
ATOM     33  C   UNL     1       0.726   2.540  11.132  1.00  0.00     0.016 A 
ATOM     34  C   UNL     1       1.474   1.000   9.372  1.00  0.00     0.016 A 
ATOM     35  C   UNL     1       1.534   1.891  12.033  1.00  0.00     0.010 A 
ATOM     36  C   UNL     1       2.300   0.376  10.263  1.00  0.00     0.010 A 
ATOM     37  C   UNL     1       2.387   0.896  11.551  1.00  0.00    -0.014 A 
BRANCH  37  38
ATOM     38  C   UNL     1       3.382   0.348  12.436  1.00  0.00     0.031 A 
ATOM     39  C   UNL     1       2.838  -0.718  13.298  1.00  0.00     0.074 A 
ATOM     40  C   UNL     1       4.677   0.697  12.332  1.00  0.00     0.049 A 
ATOM     41  N   UNL     1       2.572  -0.648  14.558  1.00  0.00    -0.248 NA
ATOM     42  C   UNL     1       2.308  -1.923  12.633  1.00  0.00     0.031 C 
ATOM     43  C   UNL     1       5.324   1.512  11.299  1.00  0.00     0.029 A 
ATOM     44  N   UNL     1       5.722   0.280  13.082  1.00  0.00    -0.354 N 
ATOM     45  C   UNL     1       2.056  -1.894  14.883  1.00  0.00     0.074 A 
ATOM     46  C   UNL     1       1.666  -2.508  13.642  1.00  0.00     0.031 C 
ATOM     47  C   UNL     1       6.662   1.309  11.351  1.00  0.00     0.029 A 
ATOM     48  C   UNL     1       6.965   0.455  12.489  1.00  0.00     0.049 A 
ATOM     49  H   UNL     1       5.611  -0.116  13.977  1.00  0.00     0.167 HD
ATOM     50  C   UNL     1       2.281  -2.463  16.098  1.00  0.00     0.031 A 
ATOM     51  C   UNL     1       8.121  -0.155  12.864  1.00  0.00     0.031 A 
ATOM     52  C   UNL     1       2.776  -1.503  17.051  1.00  0.00     0.049 A 
ATOM     53  C   UNL     1       7.914  -0.639  14.259  1.00  0.00     0.074 A 
ATOM     54  C   UNL     1       2.278  -0.326  17.573  1.00  0.00     0.029 A 
ATOM     55  N   UNL     1       4.138  -1.471  17.258  1.00  0.00    -0.354 N 
ATOM     56  N   UNL     1       7.711   0.166  15.270  1.00  0.00    -0.248 NA
ATOM     57  C   UNL     1       7.410  -1.994  14.441  1.00  0.00     0.031 C 
ATOM     58  C   UNL     1       3.400   0.550  17.637  1.00  0.00     0.029 A 
ATOM     59  C   UNL     1       4.535  -0.157  17.230  1.00  0.00     0.049 A 
ATOM     60  H   UNL     1       4.721  -2.251  17.400  1.00  0.00     0.167 HD
ATOM     61  C   UNL     1       6.704  -0.435  16.017  1.00  0.00     0.074 A 
ATOM     62  C   UNL     1       6.615  -1.801  15.500  1.00  0.00     0.031 C 
ATOM     63  C   UNL     1       5.834   0.303  16.771  1.00  0.00     0.031 A 
BRANCH  50  64
ATOM     64  C   UNL     1       2.439  -3.949  16.279  1.00  0.00    -0.014 A 
ATOM     65  C   UNL     1       2.539  -4.473  17.579  1.00  0.00     0.010 A 
ATOM     66  C   UNL     1       2.734  -4.826  15.211  1.00  0.00     0.010 A 
ATOM     67  C   UNL     1       2.950  -5.795  17.795  1.00  0.00     0.020 A 
ATOM     68  C   UNL     1       3.094  -6.156  15.411  1.00  0.00     0.020 A 
ATOM     69  C   UNL     1       3.229  -6.625  16.707  1.00  0.00     0.054 A 
BRANCH  69  70
ATOM     70  S   UNL     1       3.837  -8.302  16.996  1.00  0.00     0.124 S 
ATOM     71  O   UNL     1       5.120  -8.049  17.643  1.00  0.00    -0.237 OA
ATOM     72  O   UNL     1       2.793  -8.864  17.848  1.00  0.00    -0.237 OA
ATOM     73  O   UNL     1       3.915  -8.874  15.654  1.00  0.00    -0.744 OA
ENDBRANCH  69  70
ENDBRANCH  50  64
BRANCH  51  74
ATOM     74  C   UNL     1       9.175  -0.683  11.950  1.00  0.00    -0.014 A 
ATOM     75  C   UNL     1      10.428  -1.121  12.422  1.00  0.00     0.010 A 
ATOM     76  C   UNL     1       8.854  -0.986  10.608  1.00  0.00     0.010 A 
ATOM     77  C   UNL     1      11.304  -1.856  11.594  1.00  0.00     0.020 A 
ATOM     78  C   UNL     1       9.719  -1.708   9.777  1.00  0.00     0.020 A 
ATOM     79  C   UNL     1      10.936  -2.156  10.278  1.00  0.00     0.054 A 
BRANCH  79  80
ATOM     80  S   UNL     1      12.005  -3.212   9.252  1.00  0.00     0.124 S 
ATOM     81  O   UNL     1      13.193  -2.380   9.080  1.00  0.00    -0.237 OA
ATOM     82  O   UNL     1      12.178  -4.396  10.088  1.00  0.00    -0.237 OA
ATOM     83  O   UNL     1      11.219  -3.424   8.038  1.00  0.00    -0.744 OA
ENDBRANCH  79  80
ENDBRANCH  51  74
BRANCH  63  84
ATOM     84  C   UNL     1       6.104   1.784  16.959  1.00  0.00    -0.014 A 
ATOM     85  C   UNL     1       6.057   2.725  15.909  1.00  0.00     0.010 A 
ATOM     86  C   UNL     1       6.183   2.264  18.278  1.00  0.00     0.010 A 
ATOM     87  C   UNL     1       6.086   4.105  16.176  1.00  0.00     0.020 A 
ATOM     88  C   UNL     1       6.196   3.634  18.551  1.00  0.00     0.020 A 
ATOM     89  C   UNL     1       6.146   4.550  17.500  1.00  0.00     0.054 A 
BRANCH  89  90
ATOM     90  S   UNL     1       6.094   6.332  17.851  1.00  0.00     0.124 S 
ATOM     91  O   UNL     1       7.364   6.802  17.305  1.00  0.00    -0.237 OA
ATOM     92  O   UNL     1       4.899   6.770  17.132  1.00  0.00    -0.237 OA
ATOM     93  O   UNL     1       5.987   6.398  19.308  1.00  0.00    -0.744 OA
ENDBRANCH  89  90
ENDBRANCH  63  84
ENDBRANCH  37  38
ENDBRANCH  30  32
ENDBRANCH  29  30
ENDBRANCH  28  29
ENDBRANCH   1  28
TORSDOF 19
