REMARK SMILES CS(=O)(=O)c1ccc(-n2nc(C(F)(F)F)cc2-c2ccc(CC(=O)OCCOCCOC(=O)c3ccc(-c4c5nc(c(-c6ccc(S(=O)(=O)[O-])cc6)c6ccc([nH]6)c(-c6ccc(S(=O)(=O)[O-])cc6)c6nc(c(-c7ccc(S(=O)(=O)[O-])cc7)c7ccc4[nH]7)C=C6)C=C5)cc3)cc2)cc1
REMARK SMILES IDX 27 1 26 2 25 3 23 4 24 5 22 6 21 7 18 8 19 9 95 10 20 11
REMARK SMILES IDX 94 12 17 13 9 14 10 15 11 16 16 17 8 18 5 19 6 20 97 21 7 22
REMARK SMILES IDX 96 23 2 24 1 25 3 26 4 27 12 28 13 29 14 30 15 31 28 32
REMARK SMILES IDX 29 33 30 34 31 35 32 36 33 37 34 38 35 39 93 40 36 41 92 42
REMARK SMILES IDX 37 43 38 44 39 45 86 46 40 47 91 48 85 49 87 50 41 51 90 52
REMARK SMILES IDX 84 53 83 54 42 56 72 57 53 58 71 59 54 60 57 61 70 62 88 63
REMARK SMILES IDX 55 64 56 65 69 67 89 68 58 69 43 70 44 71 52 72 45 73 51 74
REMARK SMILES IDX 46 75 47 76 48 77 49 78 50 79 73 80 74 81 82 82 75 83 81 84
REMARK SMILES IDX 76 85 77 86 78 87 79 88 80 89 59 90 60 91 68 92 61 93 67 94
REMARK SMILES IDX 62 95 63 96 64 97 65 98 66 99
REMARK H PARENT 87 55 57 66
REMARK Flexibility Score: inf
ROOT
ATOM      1  C   UNL     1       2.136  -1.118  -8.247  1.00  0.00     0.202 C 
ENDROOT
BRANCH   1   2
ATOM      2  C   UNL     1       3.386  -0.344  -8.686  1.00  0.00     0.261 C 
BRANCH   2   3
ATOM      3  O   UNL     1       3.321   1.087  -8.558  1.00  0.00    -0.463 OA
BRANCH   3   4
ATOM      4  C   UNL     1       3.066   1.749  -9.718  1.00  0.00     0.310 C 
ATOM      5  O   UNL     1       2.894   1.200 -10.805  1.00  0.00    -0.252 OA
BRANCH   4   6
ATOM      6  C   UNL     1       3.082   3.253  -9.609  1.00  0.00     0.158 C 
BRANCH   6   7
ATOM      7  C   UNL     1       2.904   3.912  -8.262  1.00  0.00    -0.037 A 
ATOM      8  C   UNL     1       2.557   5.397  -5.885  1.00  0.00     0.000 A 
ATOM      9  C   UNL     1       1.451   4.968  -6.627  1.00  0.00     0.010 A 
ATOM     10  C   UNL     1       3.841   5.081  -6.345  1.00  0.00     0.010 A 
ATOM     11  C   UNL     1       1.621   4.221  -7.793  1.00  0.00     0.005 A 
ATOM     12  C   UNL     1       4.013   4.340  -7.520  1.00  0.00     0.005 A 
BRANCH   8  13
ATOM     13  C   UNL     1       2.370   6.222  -4.688  1.00  0.00     0.075 A 
ATOM     14  N   UNL     1       1.425   6.040  -3.667  1.00  0.00    -0.233 N 
ATOM     15  N   UNL     1       1.334   7.151  -2.885  1.00  0.00    -0.163 NA
ATOM     16  C   UNL     1       2.322   7.973  -3.301  1.00  0.00     0.167 A 
ATOM     17  C   UNL     1       2.988   7.425  -4.418  1.00  0.00     0.064 A 
BRANCH  14  18
ATOM     18  C   UNL     1       0.633   4.877  -3.372  1.00  0.00     0.065 A 
ATOM     19  C   UNL     1      -0.794   2.523  -2.663  1.00  0.00     0.067 A 
ATOM     20  C   UNL     1       0.367   2.463  -3.420  1.00  0.00     0.022 A 
ATOM     21  C   UNL     1      -1.294   3.776  -2.303  1.00  0.00     0.022 A 
ATOM     22  C   UNL     1       1.070   3.618  -3.776  1.00  0.00     0.030 A 
ATOM     23  C   UNL     1      -0.560   4.950  -2.631  1.00  0.00     0.030 A 
BRANCH  19  24
ATOM     24  S   UNL     1      -1.522   0.971  -2.131  1.00  0.00     0.175 S 
ATOM     25  C   UNL     1      -0.780   0.519  -0.574  1.00  0.00     0.163 C 
ATOM     26  O   UNL     1      -1.096  -0.016  -3.110  1.00  0.00    -0.224 OA
ATOM     27  O   UNL     1      -2.932   1.224  -1.918  1.00  0.00    -0.224 OA
ENDBRANCH  19  24
ENDBRANCH  14  18
BRANCH  16  28
ATOM     28  C   UNL     1       2.624   9.335  -2.710  1.00  0.00     0.435 C 
ATOM     29  F   UNL     1       1.527  10.125  -2.710  1.00  0.00    -0.164 F 
ATOM     30  F   UNL     1       3.126   9.242  -1.458  1.00  0.00    -0.164 F 
ATOM     31  F   UNL     1       3.567   9.981  -3.459  1.00  0.00    -0.164 F 
ENDBRANCH  16  28
ENDBRANCH   8  13
ENDBRANCH   6   7
ENDBRANCH   4   6
ENDBRANCH   3   4
ENDBRANCH   2   3
ENDBRANCH   1   2
BRANCH   1  32
ATOM     32  O   UNL     1       0.860  -0.561  -8.519  1.00  0.00    -0.374 OA
BRANCH  32  33
ATOM     33  C   UNL     1       0.489   0.615  -7.811  1.00  0.00     0.202 C 
BRANCH  33  34
ATOM     34  C   UNL     1       0.595   0.618  -6.291  1.00  0.00     0.261 C 
BRANCH  34  35
ATOM     35  O   UNL     1       1.941   0.541  -5.789  1.00  0.00    -0.460 OA
BRANCH  35  36
ATOM     36  C   UNL     1       2.185  -0.521  -4.956  1.00  0.00     0.338 C 
ATOM     37  O   UNL     1       1.687  -1.611  -5.010  1.00  0.00    -0.246 OA
BRANCH  36  38
ATOM     38  C   UNL     1       2.921  -0.011  -3.771  1.00  0.00     0.060 A 
ATOM     39  C   UNL     1       2.626  -0.647  -2.562  1.00  0.00     0.016 A 
ATOM     40  C   UNL     1       3.537   1.243  -3.789  1.00  0.00     0.016 A 
ATOM     41  C   UNL     1       2.731   0.072  -1.380  1.00  0.00     0.010 A 
ATOM     42  C   UNL     1       3.586   1.974  -2.608  1.00  0.00     0.010 A 
ATOM     43  C   UNL     1       3.087   1.424  -1.421  1.00  0.00    -0.014 A 
BRANCH  43  44
ATOM     44  C   UNL     1       3.210   2.173  -0.166  1.00  0.00     0.031 A 
ATOM     45  C   UNL     1       4.463   1.828   0.498  1.00  0.00     0.074 A 
ATOM     46  C   UNL     1       2.361   3.065   0.389  1.00  0.00     0.049 A 
ATOM     47  N   UNL     1       4.552   1.079   1.544  1.00  0.00    -0.248 NA
ATOM     48  C   UNL     1       5.733   2.112  -0.181  1.00  0.00     0.031 C 
ATOM     49  C   UNL     1       1.075   3.444  -0.136  1.00  0.00     0.029 A 
ATOM     50  N   UNL     1       2.446   3.867   1.498  1.00  0.00    -0.354 N 
ATOM     51  C   UNL     1       5.899   1.076   1.831  1.00  0.00     0.074 A 
ATOM     52  C   UNL     1       6.579   1.464   0.619  1.00  0.00     0.031 C 
ATOM     53  C   UNL     1       0.590   4.546   0.462  1.00  0.00     0.029 A 
ATOM     54  C   UNL     1       1.495   4.897   1.525  1.00  0.00     0.049 A 
ATOM     55  H   UNL     1       3.112   3.732   2.210  1.00  0.00     0.167 HD
ATOM     56  C   UNL     1       6.295   1.220   3.121  1.00  0.00     0.031 A 
ATOM     57  C   UNL     1       1.356   5.946   2.374  1.00  0.00     0.031 A 
ATOM     58  C   UNL     1       5.279   0.817   4.062  1.00  0.00     0.049 A 
ATOM     59  C   UNL     1       1.944   5.510   3.651  1.00  0.00     0.074 A 
ATOM     60  C   UNL     1       4.509  -0.320   4.220  1.00  0.00     0.029 A 
ATOM     61  N   UNL     1       4.669   1.802   4.800  1.00  0.00    -0.354 N 
ATOM     62  N   UNL     1       1.388   4.607   4.411  1.00  0.00    -0.248 NA
ATOM     63  C   UNL     1       3.362   5.731   3.870  1.00  0.00     0.031 C 
ATOM     64  C   UNL     1       3.262   0.126   4.739  1.00  0.00     0.029 A 
ATOM     65  C   UNL     1       3.336   1.506   4.933  1.00  0.00     0.049 A 
ATOM     66  H   UNL     1       5.117   2.595   5.175  1.00  0.00     0.167 HD
ATOM     67  C   UNL     1       2.450   3.829   4.842  1.00  0.00     0.074 A 
ATOM     68  C   UNL     1       3.639   4.639   4.586  1.00  0.00     0.031 C 
ATOM     69  C   UNL     1       2.288   2.498   5.094  1.00  0.00     0.031 A 
BRANCH  56  70
ATOM     70  C   UNL     1       7.400   2.186   3.446  1.00  0.00    -0.014 A 
ATOM     71  C   UNL     1       7.999   2.152   4.711  1.00  0.00     0.010 A 
ATOM     72  C   UNL     1       7.706   3.288   2.611  1.00  0.00     0.010 A 
ATOM     73  C   UNL     1       8.870   3.174   5.111  1.00  0.00     0.020 A 
ATOM     74  C   UNL     1       8.614   4.273   2.971  1.00  0.00     0.020 A 
ATOM     75  C   UNL     1       9.173   4.222   4.235  1.00  0.00     0.054 A 
BRANCH  75  76
ATOM     76  S   UNL     1      10.263   5.556   4.773  1.00  0.00     0.124 S 
ATOM     77  O   UNL     1       9.430   6.235   5.758  1.00  0.00    -0.237 OA
ATOM     78  O   UNL     1      11.409   4.821   5.300  1.00  0.00    -0.237 OA
ATOM     79  O   UNL     1      10.521   6.301   3.542  1.00  0.00    -0.744 OA
ENDBRANCH  75  76
ENDBRANCH  56  70
BRANCH  57  80
ATOM     80  C   UNL     1       0.913   7.339   2.079  1.00  0.00    -0.014 A 
ATOM     81  C   UNL     1       0.903   8.317   3.095  1.00  0.00     0.010 A 
ATOM     82  C   UNL     1       0.776   7.796   0.753  1.00  0.00     0.010 A 
ATOM     83  C   UNL     1       0.909   9.691   2.788  1.00  0.00     0.020 A 
ATOM     84  C   UNL     1       0.741   9.164   0.444  1.00  0.00     0.020 A 
ATOM     85  C   UNL     1       0.872  10.106   1.458  1.00  0.00     0.054 A 
BRANCH  85  86
ATOM     86  S   UNL     1       1.204  11.847   1.040  1.00  0.00     0.124 S 
ATOM     87  O   UNL     1      -0.110  12.462   1.195  1.00  0.00    -0.237 OA
ATOM     88  O   UNL     1       2.202  12.236   2.034  1.00  0.00    -0.237 OA
ATOM     89  O   UNL     1       1.707  11.784  -0.332  1.00  0.00    -0.744 OA
ENDBRANCH  85  86
ENDBRANCH  57  80
BRANCH  69  90
ATOM     90  C   UNL     1       0.894   1.972   5.368  1.00  0.00    -0.014 A 
ATOM     91  C   UNL     1      -0.177   2.006   4.454  1.00  0.00     0.010 A 
ATOM     92  C   UNL     1       0.708   1.291   6.586  1.00  0.00     0.010 A 
ATOM     93  C   UNL     1      -1.401   1.384   4.761  1.00  0.00     0.020 A 
ATOM     94  C   UNL     1      -0.498   0.658   6.891  1.00  0.00     0.020 A 
ATOM     95  C   UNL     1      -1.551   0.711   5.980  1.00  0.00     0.054 A 
BRANCH  95  96
ATOM     96  S   UNL     1      -3.112  -0.139   6.355  1.00  0.00     0.124 S 
ATOM     97  O   UNL     1      -4.048   0.970   6.515  1.00  0.00    -0.237 OA
ATOM     98  O   UNL     1      -3.316  -0.972   5.171  1.00  0.00    -0.237 OA
ATOM     99  O   UNL     1      -2.819  -0.882   7.580  1.00  0.00    -0.744 OA
ENDBRANCH  95  96
ENDBRANCH  69  90
ENDBRANCH  43  44
ENDBRANCH  36  38
ENDBRANCH  35  36
ENDBRANCH  34  35
ENDBRANCH  33  34
ENDBRANCH  32  33
ENDBRANCH   1  32
TORSDOF 22
