REMARK SMILES CCc1cc(C)c2c(c1)C=C(C(=O)OCCOCCOC(=O)c1ccc(-c3c4nc(c(-c5ccc(S(=O)(=O)[O-])cc5)c5ccc([nH]5)c(-c5ccc(S(=O)(=O)[O-])cc5)c5nc(c(-c6ccc(S(=O)(=O)[O-])cc6)c6ccc3[nH]6)C=C5)C=C4)cc1)[C@@H](C(F)(F)F)O2
REMARK SMILES IDX 18 1 17 2 16 3 15 4 14 5 12 6 13 7 11 8 3 9 4 10 9 11 5 12
REMARK SMILES IDX 8 13 6 14 7 15 10 16 88 17 83 18 2 19 1 20 84 21 85 22 86 23
REMARK SMILES IDX 87 24 19 25 20 26 21 27 22 28 23 29 24 30 82 31 25 32 81 33
REMARK SMILES IDX 26 34 27 35 28 36 75 37 29 38 80 39 74 40 76 41 30 42 79 43
REMARK SMILES IDX 73 44 72 45 31 47 61 48 42 49 60 50 43 51 46 52 59 53 77 54
REMARK SMILES IDX 44 55 45 56 58 58 78 59 47 60 32 61 33 62 41 63 34 64 40 65
REMARK SMILES IDX 35 66 36 67 37 68 38 69 39 70 62 71 63 72 71 73 64 74 70 75
REMARK SMILES IDX 65 76 66 77 67 78 68 79 69 80 48 81 49 82 57 83 50 84 56 85
REMARK SMILES IDX 51 86 52 87 53 88 54 89 55 90
REMARK H PARENT 76 46 46 57
REMARK Flexibility Score: inf
ROOT
ATOM      1  C   UNL     1       1.466  -4.001   8.421  1.00  0.00     0.202 C 
ENDROOT
BRANCH   1   2
ATOM      2  O   UNL     1       2.565  -4.769   8.917  1.00  0.00    -0.374 OA
BRANCH   2   3
ATOM      3  C   UNL     1       3.429  -4.155   9.870  1.00  0.00     0.202 C 
BRANCH   3   4
ATOM      4  C   UNL     1       4.477  -3.179   9.327  1.00  0.00     0.261 C 
BRANCH   4   5
ATOM      5  O   UNL     1       3.888  -2.142   8.529  1.00  0.00    -0.460 OA
BRANCH   5   6
ATOM      6  C   UNL     1       4.152  -2.235   7.205  1.00  0.00     0.338 C 
ATOM      7  O   UNL     1       4.899  -3.035   6.661  1.00  0.00    -0.246 OA
BRANCH   6   8
ATOM      8  C   UNL     1       3.293  -1.301   6.454  1.00  0.00     0.087 C 
ATOM      9  C   UNL     1       0.930  -0.427   2.348  1.00  0.00    -0.047 A 
ATOM     10  C   UNL     1       0.740   0.900   2.756  1.00  0.00     0.011 A 
ATOM     11  C   UNL     1       1.572  -1.311   3.223  1.00  0.00     0.015 A 
ATOM     12  C   UNL     1       1.188   1.348   4.010  1.00  0.00    -0.008 A 
ATOM     13  C   UNL     1       2.030  -0.876   4.471  1.00  0.00     0.018 A 
ATOM     14  C   UNL     1       1.012   2.789   4.399  1.00  0.00     0.048 C 
ATOM     15  C   UNL     1       1.820   0.443   4.876  1.00  0.00     0.130 A 
ATOM     16  C   UNL     1       2.782  -1.783   5.315  1.00  0.00     0.027 C 
ATOM     17  O   UNL     1       2.196   0.912   6.105  1.00  0.00    -0.475 OA
ATOM     18  C   UNL     1       3.057   0.098   6.951  1.00  0.00     0.316 C 
BRANCH   9  19
ATOM     19  C   UNL     1       0.456  -0.914   1.001  1.00  0.00     0.032 C 
ATOM     20  C   UNL     1       1.037  -0.126  -0.165  1.00  0.00     0.009 C 
ENDBRANCH   9  19
BRANCH  18  21
ATOM     21  C   UNL     1       4.363   0.869   7.190  1.00  0.00     0.430 C 
ATOM     22  F   UNL     1       4.114   2.140   7.585  1.00  0.00    -0.167 F 
ATOM     23  F   UNL     1       5.111   0.296   8.161  1.00  0.00    -0.167 F 
ATOM     24  F   UNL     1       5.123   0.930   6.073  1.00  0.00    -0.167 F 
ENDBRANCH  18  21
ENDBRANCH   6   8
ENDBRANCH   5   6
ENDBRANCH   4   5
ENDBRANCH   3   4
ENDBRANCH   2   3
ENDBRANCH   1   2
BRANCH   1  25
ATOM     25  C   UNL     1       0.335  -3.671   9.402  1.00  0.00     0.261 C 
BRANCH  25  26
ATOM     26  O   UNL     1       0.728  -2.672  10.363  1.00  0.00    -0.460 OA
BRANCH  26  27
ATOM     27  C   UNL     1       0.689  -3.074  11.655  1.00  0.00     0.338 C 
ATOM     28  O   UNL     1       0.326  -4.162  12.084  1.00  0.00    -0.246 OA
BRANCH  27  29
ATOM     29  C   UNL     1       1.323  -2.058  12.508  1.00  0.00     0.060 A 
ATOM     30  C   UNL     1       2.535  -2.378  13.132  1.00  0.00     0.016 A 
ATOM     31  C   UNL     1       0.676  -0.852  12.780  1.00  0.00     0.016 A 
ATOM     32  C   UNL     1       3.092  -1.501  14.058  1.00  0.00     0.010 A 
ATOM     33  C   UNL     1       1.227   0.019  13.724  1.00  0.00     0.010 A 
ATOM     34  C   UNL     1       2.418  -0.318  14.390  1.00  0.00    -0.014 A 
BRANCH  34  35
ATOM     35  C   UNL     1       2.880   0.468  15.556  1.00  0.00     0.031 A 
ATOM     36  C   UNL     1       2.252   0.204  16.898  1.00  0.00     0.074 A 
ATOM     37  C   UNL     1       3.886   1.353  15.436  1.00  0.00     0.049 A 
ATOM     38  N   UNL     1       2.529   0.743  18.056  1.00  0.00    -0.248 NA
ATOM     39  C   UNL     1       1.181  -0.807  16.945  1.00  0.00     0.031 C 
ATOM     40  C   UNL     1       4.607   1.651  14.199  1.00  0.00     0.029 A 
ATOM     41  N   UNL     1       4.484   2.155  16.376  1.00  0.00    -0.354 N 
ATOM     42  C   UNL     1       1.678   0.131  18.968  1.00  0.00     0.074 A 
ATOM     43  C   UNL     1       0.852  -0.796  18.229  1.00  0.00     0.031 C 
ATOM     44  C   UNL     1       5.561   2.562  14.460  1.00  0.00     0.029 A 
ATOM     45  C   UNL     1       5.503   2.929  15.874  1.00  0.00     0.049 A 
ATOM     46  H   UNL     1       4.210   2.173  17.322  1.00  0.00     0.167 HD
ATOM     47  C   UNL     1       1.604   0.314  20.305  1.00  0.00     0.031 A 
ATOM     48  C   UNL     1       6.296   3.832  16.485  1.00  0.00     0.031 A 
ATOM     49  C   UNL     1       2.423   1.238  21.039  1.00  0.00     0.049 A 
ATOM     50  C   UNL     1       6.126   4.090  17.959  1.00  0.00     0.074 A 
ATOM     51  C   UNL     1       2.420   1.488  22.400  1.00  0.00     0.029 A 
ATOM     52  N   UNL     1       3.386   2.059  20.478  1.00  0.00    -0.354 N 
ATOM     53  N   UNL     1       5.320   3.498  18.807  1.00  0.00    -0.248 NA
ATOM     54  C   UNL     1       6.968   5.135  18.560  1.00  0.00     0.031 C 
ATOM     55  C   UNL     1       3.353   2.495  22.656  1.00  0.00     0.029 A 
ATOM     56  C   UNL     1       3.968   2.836  21.461  1.00  0.00     0.049 A 
ATOM     57  H   UNL     1       3.621   2.086  19.522  1.00  0.00     0.167 HD
ATOM     58  C   UNL     1       5.574   4.082  20.043  1.00  0.00     0.074 A 
ATOM     59  C   UNL     1       6.607   5.075  19.836  1.00  0.00     0.031 C 
ATOM     60  C   UNL     1       5.002   3.814  21.241  1.00  0.00     0.031 A 
BRANCH  47  61
ATOM     61  C   UNL     1       0.606  -0.500  21.076  1.00  0.00    -0.014 A 
ATOM     62  C   UNL     1       0.868  -1.846  21.385  1.00  0.00     0.010 A 
ATOM     63  C   UNL     1      -0.554   0.112  21.584  1.00  0.00     0.010 A 
ATOM     64  C   UNL     1      -0.015  -2.568  22.190  1.00  0.00     0.020 A 
ATOM     65  C   UNL     1      -1.431  -0.603  22.404  1.00  0.00     0.020 A 
ATOM     66  C   UNL     1      -1.154  -1.938  22.703  1.00  0.00     0.054 A 
BRANCH  66  67
ATOM     67  S   UNL     1      -2.250  -2.891  23.789  1.00  0.00     0.124 S 
ATOM     68  O   UNL     1      -2.665  -3.989  22.918  1.00  0.00    -0.237 OA
ATOM     69  O   UNL     1      -1.360  -3.261  24.886  1.00  0.00    -0.237 OA
ATOM     70  O   UNL     1      -3.308  -1.944  24.135  1.00  0.00    -0.744 OA
ENDBRANCH  66  67
ENDBRANCH  47  61
BRANCH  48  71
ATOM     71  C   UNL     1       7.329   4.558  15.700  1.00  0.00    -0.014 A 
ATOM     72  C   UNL     1       8.691   4.246  15.857  1.00  0.00     0.010 A 
ATOM     73  C   UNL     1       6.955   5.550  14.776  1.00  0.00     0.010 A 
ATOM     74  C   UNL     1       9.660   4.916  15.105  1.00  0.00     0.020 A 
ATOM     75  C   UNL     1       7.919   6.207  14.007  1.00  0.00     0.020 A 
ATOM     76  C   UNL     1       9.267   5.886  14.178  1.00  0.00     0.054 A 
BRANCH  76  77
ATOM     77  S   UNL     1      10.546   6.709  13.188  1.00  0.00     0.124 S 
ATOM     78  O   UNL     1      11.366   7.348  14.213  1.00  0.00    -0.237 OA
ATOM     79  O   UNL     1      11.166   5.584  12.492  1.00  0.00    -0.237 OA
ATOM     80  O   UNL     1       9.788   7.623  12.336  1.00  0.00    -0.744 OA
ENDBRANCH  76  77
ENDBRANCH  48  71
BRANCH  60  81
ATOM     81  C   UNL     1       5.469   4.577  22.448  1.00  0.00    -0.014 A 
ATOM     82  C   UNL     1       4.976   5.866  22.711  1.00  0.00     0.010 A 
ATOM     83  C   UNL     1       6.260   3.927  23.415  1.00  0.00     0.010 A 
ATOM     84  C   UNL     1       5.246   6.484  23.934  1.00  0.00     0.020 A 
ATOM     85  C   UNL     1       6.517   4.536  24.645  1.00  0.00     0.020 A 
ATOM     86  C   UNL     1       5.998   5.807  24.901  1.00  0.00     0.054 A 
BRANCH  86  87
ATOM     87  S   UNL     1       6.231   6.591  26.520  1.00  0.00     0.124 S 
ATOM     88  O   UNL     1       6.942   7.818  26.170  1.00  0.00    -0.237 OA
ATOM     89  O   UNL     1       4.857   6.772  26.981  1.00  0.00    -0.237 OA
ATOM     90  O   UNL     1       7.015   5.614  27.272  1.00  0.00    -0.744 OA
ENDBRANCH  86  87
ENDBRANCH  60  81
ENDBRANCH  34  35
ENDBRANCH  27  29
ENDBRANCH  26  27
ENDBRANCH  25  26
ENDBRANCH   1  25
TORSDOF 19
