REMARK SMILES Cc1c(C[NH2+]Cc2cccc(F)c2)c(C(=O)OCCOCCOC(=O)c2ccc(-c3c4nc(c(-c5ccc(S(=O)(=O)[O-])cc5)c5ccc([nH]5)c(-c5ccc(S(=O)(=O)[O-])cc5)c5nc(c(-c6ccc(S(=O)(=O)[O-])cc6)c6ccc3[nH]6)C=C5)C=C4)cc2)c(C)n1Cc1c(F)cccc1Cl
REMARK SMILES IDX 19 1 18 2 17 3 15 4 16 5 14 6 1 7 2 8 3 9 88 10 86 11 87 12
REMARK SMILES IDX 4 13 5 14 6 17 7 18 8 19 13 20 9 21 11 22 10 23 12 24 89 25
REMARK SMILES IDX 90 26 91 27 96 28 92 29 93 30 95 31 97 32 94 33 20 34 21 35
REMARK SMILES IDX 22 36 23 37 24 38 25 39 26 40 27 41 85 42 28 43 84 44 29 45
REMARK SMILES IDX 30 46 31 47 78 48 32 49 83 50 77 51 79 52 33 53 82 54 76 55
REMARK SMILES IDX 75 56 34 58 64 59 45 60 63 61 46 62 49 63 62 64 80 65 47 66
REMARK SMILES IDX 48 67 61 69 81 70 50 71 35 72 36 73 44 74 37 75 43 76 38 77
REMARK SMILES IDX 39 78 40 79 41 80 42 81 65 82 66 83 74 84 67 85 73 86 68 87
REMARK SMILES IDX 69 88 70 89 71 90 72 91 51 92 52 93 60 94 53 95 59 96 54 97
REMARK SMILES IDX 55 98 56 99 57 100 58 101
REMARK H PARENT 5 15 5 16 79 57 49 68
REMARK Flexibility Score: inf
ROOT
ATOM      1  C   UNL     1      -0.052   3.889  -7.242  1.00  0.00     0.202 C 
ENDROOT
BRANCH   1   2
ATOM      2  C   UNL     1      -1.343   3.770  -6.413  1.00  0.00     0.261 C 
BRANCH   2   3
ATOM      3  O   UNL     1      -1.031   3.526  -5.040  1.00  0.00    -0.460 OA
BRANCH   3   4
ATOM      4  C   UNL     1      -1.367   2.316  -4.524  1.00  0.00     0.340 C 
ATOM      5  O   UNL     1      -2.126   1.515  -5.094  1.00  0.00    -0.246 OA
BRANCH   4   6
ATOM      6  C   UNL     1      -0.677   2.052  -3.258  1.00  0.00     0.089 A 
ATOM      7  C   UNL     1       0.941   0.096  -0.510  1.00  0.00     0.065 C 
ATOM      8  C   UNL     1       0.391   1.059  -1.510  1.00  0.00     0.025 A 
ATOM      9  C   UNL     1      -0.309   0.787  -2.687  1.00  0.00     0.042 A 
ATOM     10  N   UNL     1       0.550   2.438  -1.404  1.00  0.00    -0.343 N 
ATOM     11  C   UNL     1      -0.241   3.038  -2.370  1.00  0.00     0.030 A 
ATOM     12  C   UNL     1      -0.534   4.500  -2.447  1.00  0.00     0.065 C 
BRANCH   9  13
ATOM     13  C   UNL     1      -0.590  -0.567  -3.294  1.00  0.00     0.300 C 
BRANCH  13  14
ATOM     14  N   UNL     1      -2.028  -0.784  -3.326  1.00  0.00    -0.339 N 
ATOM     15  H   UNL     1      -2.448  -0.062  -3.911  1.00  0.00     0.346 HD
ATOM     16  H   UNL     1      -2.354  -0.746  -2.360  1.00  0.00     0.346 HD
BRANCH  14  17
ATOM     17  C   UNL     1      -2.419  -2.084  -3.851  1.00  0.00     0.297 C 
BRANCH  17  18
ATOM     18  C   UNL     1      -2.344  -3.248  -2.882  1.00  0.00     0.009 A 
ATOM     19  C   UNL     1      -2.119  -3.097  -1.504  1.00  0.00     0.010 A 
ATOM     20  C   UNL     1      -2.555  -4.546  -3.378  1.00  0.00     0.048 A 
ATOM     21  C   UNL     1      -2.075  -4.205  -0.652  1.00  0.00     0.004 A 
ATOM     22  C   UNL     1      -2.517  -5.643  -2.521  1.00  0.00     0.123 A 
ATOM     23  C   UNL     1      -2.273  -5.483  -1.163  1.00  0.00     0.039 A 
ATOM     24  F   UNL     1      -2.722  -6.873  -3.012  1.00  0.00    -0.207 F 
ENDBRANCH  17  18
ENDBRANCH  14  17
ENDBRANCH  13  14
ENDBRANCH   9  13
BRANCH  10  25
ATOM     25  C   UNL     1       1.294   3.144  -0.338  1.00  0.00     0.162 C 
BRANCH  25  26
ATOM     26  C   UNL     1       2.696   3.587  -0.708  1.00  0.00     0.026 A 
ATOM     27  C   UNL     1       2.888   4.708  -1.531  1.00  0.00     0.129 A 
ATOM     28  C   UNL     1       3.862   2.998  -0.192  1.00  0.00     0.048 A 
ATOM     29  F   UNL     1       1.846   5.448  -1.916  1.00  0.00    -0.207 F 
ATOM     30  C   UNL     1       4.149   5.171  -1.906  1.00  0.00     0.040 A 
ATOM     31  C   UNL     1       5.140   3.472  -0.546  1.00  0.00     0.021 A 
ATOM     32  Cl  UNL     1       3.819   1.729   0.982  1.00  0.00    -0.084 Cl
ATOM     33  C   UNL     1       5.285   4.545  -1.421  1.00  0.00     0.005 A 
ENDBRANCH  25  26
ENDBRANCH  10  25
ENDBRANCH   4   6
ENDBRANCH   3   4
ENDBRANCH   2   3
ENDBRANCH   1   2
BRANCH   1  34
ATOM     34  O   UNL     1       0.810   2.750  -7.150  1.00  0.00    -0.374 OA
BRANCH  34  35
ATOM     35  C   UNL     1       1.799   2.800  -6.096  1.00  0.00     0.202 C 
BRANCH  35  36
ATOM     36  C   UNL     1       3.182   3.389  -6.519  1.00  0.00     0.261 C 
BRANCH  36  37
ATOM     37  O   UNL     1       3.789   4.428  -5.647  1.00  0.00    -0.460 OA
BRANCH  37  38
ATOM     38  C   UNL     1       4.206   5.589  -6.266  1.00  0.00     0.338 C 
ATOM     39  O   UNL     1       3.800   5.918  -7.375  1.00  0.00    -0.246 OA
BRANCH  38  40
ATOM     40  C   UNL     1       5.124   6.540  -5.465  1.00  0.00     0.060 A 
ATOM     41  C   UNL     1       4.681   7.839  -5.236  1.00  0.00     0.016 A 
ATOM     42  C   UNL     1       6.489   6.341  -5.159  1.00  0.00     0.016 A 
ATOM     43  C   UNL     1       5.544   8.861  -4.691  1.00  0.00     0.010 A 
ATOM     44  C   UNL     1       7.391   7.420  -4.669  1.00  0.00     0.010 A 
ATOM     45  C   UNL     1       6.958   8.739  -4.418  1.00  0.00    -0.014 A 
BRANCH  45  46
ATOM     46  C   UNL     1       7.833  10.149  -4.368  1.00  0.00     0.031 A 
ATOM     47  C   UNL     1       7.224  10.926  -5.486  1.00  0.00     0.074 A 
ATOM     48  C   UNL     1       8.925  10.832  -3.797  1.00  0.00     0.049 A 
ATOM     49  N   UNL     1       7.195  10.418  -6.684  1.00  0.00    -0.248 NA
ATOM     50  C   UNL     1       6.315  12.053  -5.273  1.00  0.00     0.031 C 
ATOM     51  C   UNL     1       9.906  10.342  -2.810  1.00  0.00     0.029 A 
ATOM     52  N   UNL     1       9.441  12.178  -3.965  1.00  0.00    -0.354 N 
ATOM     53  C   UNL     1       6.506  11.310  -7.461  1.00  0.00     0.074 A 
ATOM     54  C   UNL     1       5.805  12.159  -6.505  1.00  0.00     0.031 C 
ATOM     55  C   UNL     1      10.753  11.329  -2.380  1.00  0.00     0.029 A 
ATOM     56  C   UNL     1      10.503  12.602  -3.063  1.00  0.00     0.049 A 
ATOM     57  H   UNL     1       9.087  12.780  -4.659  1.00  0.00     0.167 HD
ATOM     58  C   UNL     1       7.090  11.668  -8.640  1.00  0.00     0.031 A 
ATOM     59  C   UNL     1      11.189  13.821  -2.921  1.00  0.00     0.031 A 
ATOM     60  C   UNL     1       7.685  12.977  -8.565  1.00  0.00     0.049 A 
ATOM     61  C   UNL     1      11.100  14.497  -4.224  1.00  0.00     0.074 A 
ATOM     62  C   UNL     1       7.266  14.185  -8.048  1.00  0.00     0.029 A 
ATOM     63  N   UNL     1       9.065  13.025  -8.639  1.00  0.00    -0.354 N 
ATOM     64  N   UNL     1      11.850  14.131  -5.217  1.00  0.00    -0.248 NA
ATOM     65  C   UNL     1      10.327  15.716  -4.441  1.00  0.00     0.031 C 
ATOM     66  C   UNL     1       8.395  14.692  -7.366  1.00  0.00     0.029 A 
ATOM     67  C   UNL     1       9.522  13.976  -7.754  1.00  0.00     0.049 A 
ATOM     68  H   UNL     1       9.627  12.472  -9.227  1.00  0.00     0.167 HD
ATOM     69  C   UNL     1      11.249  14.716  -6.287  1.00  0.00     0.074 A 
ATOM     70  C   UNL     1      10.549  15.867  -5.749  1.00  0.00     0.031 C 
ATOM     71  C   UNL     1      10.888  13.886  -7.297  1.00  0.00     0.031 A 
BRANCH  58  72
ATOM     72  C   UNL     1       7.714  10.559  -9.446  1.00  0.00    -0.014 A 
ATOM     73  C   UNL     1       7.264  10.332 -10.753  1.00  0.00     0.010 A 
ATOM     74  C   UNL     1       8.738   9.731  -8.933  1.00  0.00     0.010 A 
ATOM     75  C   UNL     1       7.780   9.267 -11.499  1.00  0.00     0.020 A 
ATOM     76  C   UNL     1       9.237   8.651  -9.660  1.00  0.00     0.020 A 
ATOM     77  C   UNL     1       8.748   8.421 -10.941  1.00  0.00     0.054 A 
BRANCH  77  78
ATOM     78  S   UNL     1       9.305   6.985 -11.894  1.00  0.00     0.124 S 
ATOM     79  O   UNL     1       8.044   6.415 -12.369  1.00  0.00    -0.237 OA
ATOM     80  O   UNL     1      10.129   7.604 -12.927  1.00  0.00    -0.237 OA
ATOM     81  O   UNL     1      10.010   6.162 -10.915  1.00  0.00    -0.744 OA
ENDBRANCH  77  78
ENDBRANCH  58  72
BRANCH  59  82
ATOM     82  C   UNL     1      12.196  14.682  -2.052  1.00  0.00    -0.014 A 
ATOM     83  C   UNL     1      13.151  15.542  -2.714  1.00  0.00     0.010 A 
ATOM     84  C   UNL     1      11.960  15.040  -0.712  1.00  0.00     0.010 A 
ATOM     85  C   UNL     1      13.694  16.729  -2.155  1.00  0.00     0.020 A 
ATOM     86  C   UNL     1      12.539  16.218  -0.122  1.00  0.00     0.020 A 
ATOM     87  C   UNL     1      13.358  17.084  -0.860  1.00  0.00     0.054 A 
BRANCH  87  88
ATOM     88  S   UNL     1      13.875  18.730  -0.220  1.00  0.00     0.124 S 
ATOM     89  O   UNL     1      15.329  18.617  -0.150  1.00  0.00    -0.237 OA
ATOM     90  O   UNL     1      13.367  19.647  -1.239  1.00  0.00    -0.237 OA
ATOM     91  O   UNL     1      13.199  18.824   1.073  1.00  0.00    -0.744 OA
ENDBRANCH  87  88
ENDBRANCH  59  82
BRANCH  71  92
ATOM     92  C   UNL     1      11.859  12.762  -7.641  1.00  0.00    -0.014 A 
ATOM     93  C   UNL     1      12.420  11.866  -6.698  1.00  0.00     0.010 A 
ATOM     94  C   UNL     1      12.304  12.656  -8.968  1.00  0.00     0.010 A 
ATOM     95  C   UNL     1      13.454  10.984  -7.039  1.00  0.00     0.020 A 
ATOM     96  C   UNL     1      13.307  11.742  -9.329  1.00  0.00     0.020 A 
ATOM     97  C   UNL     1      13.907  10.942  -8.354  1.00  0.00     0.054 A 
BRANCH  97  98
ATOM     98  S   UNL     1      15.303   9.858  -8.768  1.00  0.00     0.124 S 
ATOM     99  O   UNL     1      16.430  10.556  -8.150  1.00  0.00    -0.237 OA
ATOM    100  O   UNL     1      14.936   8.594  -8.134  1.00  0.00    -0.237 OA
ATOM    101  O   UNL     1      15.316   9.851 -10.228  1.00  0.00    -0.744 OA
ENDBRANCH  97  98
ENDBRANCH  71  92
ENDBRANCH  45  46
ENDBRANCH  38  40
ENDBRANCH  37  38
ENDBRANCH  36  37
ENDBRANCH  35  36
ENDBRANCH  34  35
ENDBRANCH   1  34
TORSDOF 23
