REMARK SMILES Cc1cc(C(=O)N2C[C@@H](C(=O)OCCOCCOC(=O)c3ccc(-c4c5nc(c(-c6ccc(S(=O)(=O)[O-])cc6)c6ccc([nH]6)c(-c6ccc(S(=O)(=O)[O-])cc6)c6nc(c(-c7ccc(S(=O)(=O)[O-])cc7)c7ccc4[nH]7)C=C6)C=C5)cc3)[C@H](C3CC3)C2)sc1C
REMARK SMILES IDX 16 1 15 2 14 3 13 4 12 5 10 6 11 7 9 8 7 9 8 10 85 11 81 12
REMARK SMILES IDX 5 13 6 14 4 15 1 16 2 17 3 18 87 19 86 20 88 21 82 22 83 23
REMARK SMILES IDX 84 24 17 25 18 26 19 27 20 28 21 29 22 30 80 31 23 32 79 33
REMARK SMILES IDX 24 34 25 35 26 36 73 37 27 38 78 39 72 40 74 41 28 42 77 43
REMARK SMILES IDX 71 44 70 45 29 47 59 48 40 49 58 50 41 51 44 52 57 53 75 54
REMARK SMILES IDX 42 55 43 56 56 58 76 59 45 60 30 61 31 62 39 63 32 64 38 65
REMARK SMILES IDX 33 66 34 67 35 68 36 69 37 70 60 71 61 72 69 73 62 74 68 75
REMARK SMILES IDX 63 76 64 77 65 78 66 79 67 80 46 81 47 82 55 83 48 84 54 85
REMARK SMILES IDX 49 86 50 87 51 88 52 89 53 90
REMARK H PARENT 74 46 44 57
REMARK Flexibility Score: inf
ROOT
ATOM      1  C   UNL     1       5.538   1.087   3.283  1.00  0.00     0.202 C 
ENDROOT
BRANCH   1   2
ATOM      2  O   UNL     1       6.879   1.121   3.767  1.00  0.00    -0.374 OA
BRANCH   2   3
ATOM      3  C   UNL     1       7.888   1.607   2.880  1.00  0.00     0.202 C 
BRANCH   3   4
ATOM      4  C   UNL     1       8.355   0.626   1.801  1.00  0.00     0.261 C 
BRANCH   4   5
ATOM      5  O   UNL     1       7.316   0.416   0.833  1.00  0.00    -0.463 OA
BRANCH   5   6
ATOM      6  C   UNL     1       6.775  -0.831   0.777  1.00  0.00     0.311 C 
ATOM      7  O   UNL     1       7.171  -1.810   1.393  1.00  0.00    -0.252 OA
BRANCH   6   8
ATOM      8  C   UNL     1       5.565  -0.822  -0.119  1.00  0.00     0.124 C 
ATOM      9  N   UNL     1       3.578  -1.964  -0.493  1.00  0.00    -0.337 N 
ATOM     10  C   UNL     1       4.356  -1.413   0.593  1.00  0.00     0.135 C 
ATOM     11  C   UNL     1       4.466  -2.506  -1.495  1.00  0.00     0.124 C 
ATOM     12  C   UNL     1       5.781  -1.715  -1.355  1.00  0.00     0.028 C 
BRANCH   9  13
ATOM     13  C   UNL     1       2.255  -2.364  -0.430  1.00  0.00     0.263 C 
ATOM     14  O   UNL     1       1.951  -3.512  -0.763  1.00  0.00    -0.268 OA
BRANCH  13  15
ATOM     15  C   UNL     1       1.232  -1.369  -0.113  1.00  0.00     0.093 A 
ATOM     16  C   UNL     1      -2.422  -0.472   0.143  1.00  0.00     0.045 C 
ATOM     17  C   UNL     1      -0.929  -0.441   0.094  1.00  0.00    -0.037 A 
ATOM     18  C   UNL     1      -0.119  -1.624   0.047  1.00  0.00     0.029 A 
ATOM     19  C   UNL     1      -0.140   0.695   0.036  1.00  0.00     0.005 A 
ATOM     20  S   UNL     1       1.520   0.316  -0.111  1.00  0.00    -0.135 S 
ATOM     21  C   UNL     1      -0.570   2.127   0.035  1.00  0.00     0.056 C 
ENDBRANCH  13  15
ENDBRANCH   9  13
BRANCH  12  22
ATOM     22  C   UNL     1       6.145  -1.002  -2.639  1.00  0.00    -0.005 C 
ATOM     23  C   UNL     1       6.024   0.484  -2.896  1.00  0.00     0.004 C 
ATOM     24  C   UNL     1       7.379  -0.135  -2.699  1.00  0.00     0.004 C 
ENDBRANCH  12  22
ENDBRANCH   6   8
ENDBRANCH   5   6
ENDBRANCH   4   5
ENDBRANCH   3   4
ENDBRANCH   2   3
ENDBRANCH   1   2
BRANCH   1  25
ATOM     25  C   UNL     1       4.761   2.408   3.294  1.00  0.00     0.261 C 
BRANCH  25  26
ATOM     26  O   UNL     1       5.309   3.372   2.380  1.00  0.00    -0.460 OA
BRANCH  26  27
ATOM     27  C   UNL     1       5.974   4.391   2.972  1.00  0.00     0.338 C 
ATOM     28  O   UNL     1       6.113   4.580   4.175  1.00  0.00    -0.246 OA
BRANCH  27  29
ATOM     29  C   UNL     1       6.682   5.195   1.962  1.00  0.00     0.060 A 
ATOM     30  C   UNL     1       8.047   5.436   2.167  1.00  0.00     0.016 A 
ATOM     31  C   UNL     1       6.010   5.778   0.886  1.00  0.00     0.016 A 
ATOM     32  C   UNL     1       8.734   6.309   1.328  1.00  0.00     0.010 A 
ATOM     33  C   UNL     1       6.700   6.662   0.050  1.00  0.00     0.010 A 
ATOM     34  C   UNL     1       8.053   6.960   0.292  1.00  0.00    -0.014 A 
BRANCH  34  35
ATOM     35  C   UNL     1       8.714   8.070  -0.435  1.00  0.00     0.031 A 
ATOM     36  C   UNL     1       8.411   9.486  -0.027  1.00  0.00     0.074 A 
ATOM     37  C   UNL     1       9.587   7.822  -1.426  1.00  0.00     0.049 A 
ATOM     38  N   UNL     1       8.838  10.607  -0.547  1.00  0.00    -0.248 NA
ATOM     39  C   UNL     1       7.504   9.661   1.120  1.00  0.00     0.031 C 
ATOM     40  C   UNL     1      10.002   6.493  -1.875  1.00  0.00     0.029 A 
ATOM     41  N   UNL     1      10.280   8.684  -2.237  1.00  0.00    -0.354 N 
ATOM     42  C   UNL     1       8.247  11.620   0.201  1.00  0.00     0.074 A 
ATOM     43  C   UNL     1       7.411  10.980   1.193  1.00  0.00     0.031 C 
ATOM     44  C   UNL     1      10.874   6.629  -2.889  1.00  0.00     0.029 A 
ATOM     45  C   UNL     1      11.050   8.050  -3.182  1.00  0.00     0.049 A 
ATOM     46  H   UNL     1      10.230   9.663  -2.151  1.00  0.00     0.167 HD
ATOM     47  C   UNL     1       8.390  12.960   0.075  1.00  0.00     0.031 A 
ATOM     48  C   UNL     1      11.795   8.559  -4.184  1.00  0.00     0.031 A 
ATOM     49  C   UNL     1       9.209  13.592  -0.925  1.00  0.00     0.049 A 
ATOM     50  C   UNL     1      11.876  10.052  -4.358  1.00  0.00     0.074 A 
ATOM     51  C   UNL     1       9.425  14.943  -1.134  1.00  0.00     0.029 A 
ATOM     52  N   UNL     1       9.941  12.915  -1.889  1.00  0.00    -0.354 N 
ATOM     53  N   UNL     1      11.320  10.997  -3.636  1.00  0.00    -0.248 NA
ATOM     54  C   UNL     1      12.687  10.548  -5.479  1.00  0.00     0.031 C 
ATOM     55  C   UNL     1      10.246  15.084  -2.258  1.00  0.00     0.029 A 
ATOM     56  C   UNL     1      10.589  13.820  -2.712  1.00  0.00     0.049 A 
ATOM     57  H   UNL     1       9.992  11.936  -1.976  1.00  0.00     0.167 HD
ATOM     58  C   UNL     1      11.738  12.199  -4.198  1.00  0.00     0.074 A 
ATOM     59  C   UNL     1      12.597  11.862  -5.315  1.00  0.00     0.031 C 
ATOM     60  C   UNL     1      11.442  13.467  -3.820  1.00  0.00     0.031 A 
BRANCH  47  61
ATOM     61  C   UNL     1       7.606  13.831   1.020  1.00  0.00    -0.014 A 
ATOM     62  C   UNL     1       7.946  13.921   2.382  1.00  0.00     0.010 A 
ATOM     63  C   UNL     1       6.520  14.582   0.535  1.00  0.00     0.010 A 
ATOM     64  C   UNL     1       7.184  14.708   3.251  1.00  0.00     0.020 A 
ATOM     65  C   UNL     1       5.772  15.391   1.395  1.00  0.00     0.020 A 
ATOM     66  C   UNL     1       6.097  15.432   2.752  1.00  0.00     0.054 A 
BRANCH  66  67
ATOM     67  S   UNL     1       5.124  16.446   3.900  1.00  0.00     0.124 S 
ATOM     68  O   UNL     1       4.370  15.431   4.631  1.00  0.00    -0.237 OA
ATOM     69  O   UNL     1       6.154  17.139   4.670  1.00  0.00    -0.237 OA
ATOM     70  O   UNL     1       4.329  17.299   3.020  1.00  0.00    -0.744 OA
ENDBRANCH  66  67
ENDBRANCH  47  61
BRANCH  48  71
ATOM     71  C   UNL     1      12.513   7.641  -5.109  1.00  0.00    -0.014 A 
ATOM     72  C   UNL     1      13.914   7.536  -5.070  1.00  0.00     0.010 A 
ATOM     73  C   UNL     1      11.792   6.851  -6.024  1.00  0.00     0.010 A 
ATOM     74  C   UNL     1      14.582   6.662  -5.933  1.00  0.00     0.020 A 
ATOM     75  C   UNL     1      12.454   5.958  -6.871  1.00  0.00     0.020 A 
ATOM     76  C   UNL     1      13.847   5.875  -6.825  1.00  0.00     0.054 A 
BRANCH  76  77
ATOM     77  S   UNL     1      14.729   4.698  -7.887  1.00  0.00     0.124 S 
ATOM     78  O   UNL     1      15.341   5.580  -8.875  1.00  0.00    -0.237 OA
ATOM     79  O   UNL     1      15.651   4.058  -6.951  1.00  0.00    -0.237 OA
ATOM     80  O   UNL     1      13.667   3.831  -8.392  1.00  0.00    -0.744 OA
ENDBRANCH  76  77
ENDBRANCH  48  71
BRANCH  60  81
ATOM     81  C   UNL     1      12.079  14.592  -4.591  1.00  0.00    -0.014 A 
ATOM     82  C   UNL     1      11.643  14.931  -5.884  1.00  0.00     0.010 A 
ATOM     83  C   UNL     1      13.082  15.368  -3.980  1.00  0.00     0.010 A 
ATOM     84  C   UNL     1      12.214  16.013  -6.560  1.00  0.00     0.020 A 
ATOM     85  C   UNL     1      13.637  16.465  -4.643  1.00  0.00     0.020 A 
ATOM     86  C   UNL     1      13.206  16.774  -5.934  1.00  0.00     0.054 A 
BRANCH  86  87
ATOM     87  S   UNL     1      13.890  18.209  -6.810  1.00  0.00     0.124 S 
ATOM     88  O   UNL     1      14.747  17.576  -7.808  1.00  0.00    -0.237 OA
ATOM     89  O   UNL     1      12.694  18.865  -7.334  1.00  0.00    -0.237 OA
ATOM     90  O   UNL     1      14.592  18.950  -5.764  1.00  0.00    -0.744 OA
ENDBRANCH  86  87
ENDBRANCH  60  81
ENDBRANCH  34  35
ENDBRANCH  27  29
ENDBRANCH  26  27
ENDBRANCH  25  26
ENDBRANCH   1  25
TORSDOF 20
