REMARK SMILES C[C@H](C[N@H+](C)[C@H]1CC[C@H]([NH3+])CC1)C(=O)OCCOCCOC(=O)c1ccc(-c2c3nc(c(-c4ccc(S(=O)(=O)[O-])cc4)c4ccc([nH]4)c(-c4ccc(S(=O)(=O)[O-])cc4)c4nc(c(-c5ccc(S(=O)(=O)[O-])cc5)c5ccc2[nH]5)C=C4)C=C3)cc1
REMARK SMILES IDX 17 1 16 2 15 3 13 4 14 5 2 6 1 7 3 8 4 9 5 10 6 12 7 13
REMARK SMILES IDX 12 14 8 15 11 16 9 17 10 18 18 22 19 23 20 24 21 25 22 26
REMARK SMILES IDX 23 27 24 28 25 29 83 30 26 31 82 32 27 33 28 34 29 35 76 36
REMARK SMILES IDX 30 37 81 38 75 39 77 40 31 41 80 42 74 43 73 44 32 46 62 47
REMARK SMILES IDX 43 48 61 49 44 50 47 51 60 52 78 53 45 54 46 55 59 57 79 58
REMARK SMILES IDX 48 59 33 60 34 61 42 62 35 63 41 64 36 65 37 66 38 67 39 68
REMARK SMILES IDX 40 69 63 70 64 71 72 72 65 73 71 74 66 75 67 76 68 77 69 78
REMARK SMILES IDX 70 79 49 80 50 81 58 82 51 83 57 84 52 85 53 86 54 87 55 88
REMARK SMILES IDX 56 89
REMARK H PARENT 4 11 10 19 10 20 10 21 77 45 47 56
REMARK Flexibility Score: inf
ROOT
ATOM      1  C   UNL     1      -3.950  -1.431   0.412  1.00  0.00     0.202 C 
ENDROOT
BRANCH   1   2
ATOM      2  C   UNL     1      -3.115  -1.055   1.640  1.00  0.00     0.261 C 
BRANCH   2   3
ATOM      3  O   UNL     1      -1.778  -0.715   1.240  1.00  0.00    -0.463 OA
BRANCH   3   4
ATOM      4  C   UNL     1      -0.807  -0.816   2.184  1.00  0.00     0.314 C 
ATOM      5  O   UNL     1      -1.019  -1.104   3.355  1.00  0.00    -0.252 OA
BRANCH   4   6
ATOM      6  C   UNL     1       0.590  -0.670   1.579  1.00  0.00     0.151 C 
ATOM      7  C   UNL     1       1.630  -0.363   2.655  1.00  0.00     0.026 C 
BRANCH   6   8
ATOM      8  C   UNL     1       0.717   0.226   0.323  1.00  0.00     0.277 C 
BRANCH   8   9
ATOM      9  N   UNL     1       0.610   1.689   0.362  1.00  0.00    -0.334 N 
ATOM     10  C   UNL     1       1.808   2.405   0.754  1.00  0.00     0.332 C 
ATOM     11  H   UNL     1       0.558   1.937  -0.626  1.00  0.00     0.348 HD
BRANCH   9  12
ATOM     12  C   UNL     1      -0.658   2.206   0.870  1.00  0.00     0.184 C 
ATOM     13  C   UNL     1      -1.105   3.464   0.120  1.00  0.00     0.071 C 
ATOM     14  C   UNL     1      -0.706   2.519   2.371  1.00  0.00     0.071 C 
ATOM     15  C   UNL     1      -2.563   3.755   0.475  1.00  0.00     0.071 C 
ATOM     16  C   UNL     1      -2.147   2.751   2.805  1.00  0.00     0.071 C 
ATOM     17  C   UNL     1      -2.842   3.839   1.985  1.00  0.00     0.181 C 
BRANCH  17  18
ATOM     18  N   UNL     1      -4.276   3.732   2.267  1.00  0.00    -0.355 N 
ATOM     19  H   UNL     1      -4.612   2.813   1.980  1.00  0.00     0.344 HD
ATOM     20  H   UNL     1      -4.778   4.455   1.751  1.00  0.00     0.344 HD
ATOM     21  H   UNL     1      -4.436   3.856   3.267  1.00  0.00     0.344 HD
ENDBRANCH  17  18
ENDBRANCH   9  12
ENDBRANCH   8   9
ENDBRANCH   6   8
ENDBRANCH   4   6
ENDBRANCH   3   4
ENDBRANCH   2   3
ENDBRANCH   1   2
BRANCH   1  22
ATOM     22  O   UNL     1      -3.524  -2.602  -0.289  1.00  0.00    -0.374 OA
BRANCH  22  23
ATOM     23  C   UNL     1      -2.261  -2.550  -0.947  1.00  0.00     0.202 C 
BRANCH  23  24
ATOM     24  C   UNL     1      -2.171  -1.721  -2.238  1.00  0.00     0.261 C 
BRANCH  24  25
ATOM     25  O   UNL     1      -2.535  -0.333  -2.107  1.00  0.00    -0.460 OA
BRANCH  25  26
ATOM     26  C   UNL     1      -3.679   0.009  -2.756  1.00  0.00     0.338 C 
ATOM     27  O   UNL     1      -4.431  -0.742  -3.354  1.00  0.00    -0.246 OA
BRANCH  26  28
ATOM     28  C   UNL     1      -3.992   1.446  -2.600  1.00  0.00     0.060 A 
ATOM     29  C   UNL     1      -5.241   1.795  -2.071  1.00  0.00     0.016 A 
ATOM     30  C   UNL     1      -3.155   2.433  -3.123  1.00  0.00     0.016 A 
ATOM     31  C   UNL     1      -5.674   3.126  -2.097  1.00  0.00     0.010 A 
ATOM     32  C   UNL     1      -3.593   3.767  -3.151  1.00  0.00     0.010 A 
ATOM     33  C   UNL     1      -4.869   4.121  -2.668  1.00  0.00    -0.014 A 
BRANCH  33  34
ATOM     34  C   UNL     1      -5.386   5.508  -2.858  1.00  0.00     0.031 A 
ATOM     35  C   UNL     1      -5.868   5.944  -4.214  1.00  0.00     0.074 A 
ATOM     36  C   UNL     1      -5.418   6.393  -1.843  1.00  0.00     0.049 A 
ATOM     37  N   UNL     1      -6.317   7.114  -4.586  1.00  0.00    -0.248 NA
ATOM     38  C   UNL     1      -5.870   4.928  -5.278  1.00  0.00     0.031 C 
ATOM     39  C   UNL     1      -5.074   6.089  -0.463  1.00  0.00     0.029 A 
ATOM     40  N   UNL     1      -5.722   7.732  -1.815  1.00  0.00    -0.354 N 
ATOM     41  C   UNL     1      -6.686   6.972  -5.916  1.00  0.00     0.074 A 
ATOM     42  C   UNL     1      -6.358   5.615  -6.302  1.00  0.00     0.031 C 
ATOM     43  C   UNL     1      -5.071   7.219   0.262  1.00  0.00     0.029 A 
ATOM     44  C   UNL     1      -5.459   8.329  -0.602  1.00  0.00     0.049 A 
ATOM     45  H   UNL     1      -6.091   8.219  -2.587  1.00  0.00     0.167 HD
ATOM     46  C   UNL     1      -7.269   7.880  -6.734  1.00  0.00     0.031 A 
ATOM     47  C   UNL     1      -5.517   9.621  -0.224  1.00  0.00     0.031 A 
ATOM     48  C   UNL     1      -7.578   9.235  -6.361  1.00  0.00     0.049 A 
ATOM     49  C   UNL     1      -6.038  10.645  -1.193  1.00  0.00     0.074 A 
ATOM     50  C   UNL     1      -8.209  10.210  -7.115  1.00  0.00     0.029 A 
ATOM     51  N   UNL     1      -7.264   9.816  -5.142  1.00  0.00    -0.354 N 
ATOM     52  N   UNL     1      -6.451  10.472  -2.425  1.00  0.00    -0.248 NA
ATOM     53  C   UNL     1      -6.140  12.030  -0.709  1.00  0.00     0.031 C 
ATOM     54  C   UNL     1      -8.224  11.397  -6.374  1.00  0.00     0.029 A 
ATOM     55  C   UNL     1      -7.651  11.146  -5.138  1.00  0.00     0.049 A 
ATOM     56  H   UNL     1      -6.830   9.351  -4.390  1.00  0.00     0.167 HD
ATOM     57  C   UNL     1      -6.910  11.714  -2.846  1.00  0.00     0.074 A 
ATOM     58  C   UNL     1      -6.719  12.630  -1.740  1.00  0.00     0.031 C 
ATOM     59  C   UNL     1      -7.458  12.056  -4.037  1.00  0.00     0.031 A 
BRANCH  46  60
ATOM     60  C   UNL     1      -7.612   7.436  -8.129  1.00  0.00    -0.014 A 
ATOM     61  C   UNL     1      -8.702   6.578  -8.363  1.00  0.00     0.010 A 
ATOM     62  C   UNL     1      -6.880   7.933  -9.221  1.00  0.00     0.010 A 
ATOM     63  C   UNL     1      -9.038   6.206  -9.667  1.00  0.00     0.020 A 
ATOM     64  C   UNL     1      -7.226   7.580 -10.527  1.00  0.00     0.020 A 
ATOM     65  C   UNL     1      -8.297   6.709 -10.741  1.00  0.00     0.054 A 
BRANCH  65  66
ATOM     66  S   UNL     1      -8.781   6.242 -12.425  1.00  0.00     0.124 S 
ATOM     67  O   UNL     1      -8.336   4.852 -12.491  1.00  0.00    -0.237 OA
ATOM     68  O   UNL     1     -10.228   6.438 -12.409  1.00  0.00    -0.237 OA
ATOM     69  O   UNL     1      -8.039   7.173 -13.271  1.00  0.00    -0.744 OA
ENDBRANCH  65  66
ENDBRANCH  46  60
BRANCH  47  70
ATOM     70  C   UNL     1      -5.074  10.025   1.138  1.00  0.00    -0.014 A 
ATOM     71  C   UNL     1      -6.006  10.421   2.112  1.00  0.00     0.010 A 
ATOM     72  C   UNL     1      -3.703  10.041   1.456  1.00  0.00     0.010 A 
ATOM     73  C   UNL     1      -5.575  10.856   3.369  1.00  0.00     0.020 A 
ATOM     74  C   UNL     1      -3.269  10.455   2.718  1.00  0.00     0.020 A 
ATOM     75  C   UNL     1      -4.208  10.876   3.662  1.00  0.00     0.054 A 
BRANCH  75  76
ATOM     76  S   UNL     1      -3.671  11.432   5.304  1.00  0.00     0.124 S 
ATOM     77  O   UNL     1      -3.868  12.875   5.215  1.00  0.00    -0.237 OA
ATOM     78  O   UNL     1      -4.587  10.721   6.193  1.00  0.00    -0.237 OA
ATOM     79  O   UNL     1      -2.280  10.992   5.375  1.00  0.00    -0.744 OA
ENDBRANCH  75  76
ENDBRANCH  47  70
BRANCH  59  80
ATOM     80  C   UNL     1      -7.931  13.475  -4.202  1.00  0.00    -0.014 A 
ATOM     81  C   UNL     1      -7.019  14.536  -4.345  1.00  0.00     0.010 A 
ATOM     82  C   UNL     1      -9.311  13.745  -4.258  1.00  0.00     0.010 A 
ATOM     83  C   UNL     1      -7.480  15.845  -4.513  1.00  0.00     0.020 A 
ATOM     84  C   UNL     1      -9.775  15.048  -4.452  1.00  0.00     0.020 A 
ATOM     85  C   UNL     1      -8.856  16.093  -4.564  1.00  0.00     0.054 A 
BRANCH  85  86
ATOM     86  S   UNL     1      -9.429  17.793  -4.828  1.00  0.00     0.124 S 
ATOM     87  O   UNL     1      -9.209  18.395  -3.516  1.00  0.00    -0.237 OA
ATOM     88  O   UNL     1      -8.549  18.268  -5.893  1.00  0.00    -0.237 OA
ATOM     89  O   UNL     1     -10.829  17.631  -5.213  1.00  0.00    -0.744 OA
ENDBRANCH  85  86
ENDBRANCH  59  80
ENDBRANCH  33  34
ENDBRANCH  26  28
ENDBRANCH  25  26
ENDBRANCH  24  25
ENDBRANCH  23  24
ENDBRANCH  22  23
ENDBRANCH   1  22
TORSDOF 21
