REMARK SMILES Cc1c(CC(=O)OCCOCCOC(=O)c2ccc(-c3c4nc(c(-c5ccc(S(=O)(=O)[O-])cc5)c5ccc([nH]5)c(-c5ccc(S(=O)(=O)[O-])cc5)c5nc(c(-c6ccc(S(=O)(=O)[O-])cc6)c6ccc3[nH]6)C=C5)C=C4)cc2)c2cc(O)ccc2n1C(=O)c1ccc(Cl)cc1
REMARK SMILES IDX 10 1 9 2 8 3 7 4 5 5 6 6 4 7 3 8 1 9 2 10 83 11 76 12 82 13
REMARK SMILES IDX 77 14 81 15 78 16 80 17 84 18 85 19 86 20 87 21 92 22 88 23
REMARK SMILES IDX 91 24 89 25 90 26 79 27 11 29 12 30 13 31 14 32 15 33 16 34
REMARK SMILES IDX 17 35 75 36 18 37 74 38 19 39 20 40 21 41 68 42 22 43 73 44
REMARK SMILES IDX 67 45 69 46 23 47 72 48 66 49 65 50 24 52 54 53 35 54 53 55
REMARK SMILES IDX 36 56 39 57 52 58 70 59 37 60 38 61 51 63 71 64 40 65 25 66
REMARK SMILES IDX 26 67 34 68 27 69 33 70 28 71 29 72 30 73 31 74 32 75 55 76
REMARK SMILES IDX 56 77 64 78 57 79 63 80 58 81 59 82 60 83 61 84 62 85 41 86
REMARK SMILES IDX 42 87 50 88 43 89 49 90 44 91 45 92 46 93 47 94 48 95
REMARK H PARENT 79 28 69 51 39 62
REMARK Flexibility Score: inf
ROOT
ATOM      1  O   UNL     1       2.378  -4.725   4.508  1.00  0.00    -0.374 OA
ENDROOT
BRANCH   1   2
ATOM      2  C   UNL     1       3.554  -4.376   3.790  1.00  0.00     0.202 C 
BRANCH   2   3
ATOM      3  C   UNL     1       3.497  -3.942   2.315  1.00  0.00     0.261 C 
BRANCH   3   4
ATOM      4  O   UNL     1       2.444  -3.018   1.988  1.00  0.00    -0.463 OA
BRANCH   4   5
ATOM      5  C   UNL     1       1.402  -3.582   1.321  1.00  0.00     0.310 C 
ATOM      6  O   UNL     1       1.343  -4.773   1.021  1.00  0.00    -0.252 OA
BRANCH   5   7
ATOM      7  C   UNL     1       0.266  -2.651   0.960  1.00  0.00     0.160 C 
BRANCH   7   8
ATOM      8  C   UNL     1       0.128  -1.321   1.664  1.00  0.00    -0.008 A 
ATOM      9  C   UNL     1       1.171   0.221  -0.135  1.00  0.00     0.065 C 
ATOM     10  C   UNL     1       0.507  -0.076   1.177  1.00  0.00     0.028 A 
ATOM     11  N   UNL     1       0.147   0.921   2.099  1.00  0.00    -0.280 N 
ATOM     12  C   UNL     1      -0.543  -1.088   2.903  1.00  0.00     0.008 A 
ATOM     13  C   UNL     1      -0.475   0.283   3.189  1.00  0.00     0.057 A 
ATOM     14  C   UNL     1      -1.195  -1.948   3.821  1.00  0.00     0.056 A 
ATOM     15  C   UNL     1      -1.007   0.770   4.406  1.00  0.00     0.031 A 
ATOM     16  C   UNL     1      -1.603  -1.461   5.060  1.00  0.00     0.116 A 
ATOM     17  C   UNL     1      -1.518  -0.117   5.356  1.00  0.00     0.048 A 
BRANCH  11  18
ATOM     18  C   UNL     1       0.345   2.327   1.925  1.00  0.00     0.262 C 
ATOM     19  O   UNL     1       0.885   2.737   0.898  1.00  0.00    -0.268 OA
BRANCH  18  20
ATOM     20  C   UNL     1      -0.090   3.386   2.851  1.00  0.00     0.040 A 
ATOM     21  C   UNL     1       0.590   3.610   4.053  1.00  0.00     0.015 A 
ATOM     22  C   UNL     1      -1.176   4.193   2.486  1.00  0.00     0.015 A 
ATOM     23  C   UNL     1       0.116   4.583   4.938  1.00  0.00     0.021 A 
ATOM     24  C   UNL     1      -1.632   5.178   3.365  1.00  0.00     0.021 A 
ATOM     25  C   UNL     1      -0.997   5.354   4.595  1.00  0.00     0.041 A 
ATOM     26  Cl  UNL     1      -1.600   6.525   5.703  1.00  0.00    -0.084 Cl
ENDBRANCH  18  20
ENDBRANCH  11  18
BRANCH  16  27
ATOM     27  O   UNL     1      -2.004  -2.362   6.002  1.00  0.00    -0.508 OA
ATOM     28  H   UNL     1      -2.056  -3.272   5.787  1.00  0.00     0.293 HD
ENDBRANCH  16  27
ENDBRANCH   7   8
ENDBRANCH   5   7
ENDBRANCH   4   5
ENDBRANCH   3   4
ENDBRANCH   2   3
ENDBRANCH   1   2
BRANCH   1  29
ATOM     29  C   UNL     1       1.408  -3.705   4.710  1.00  0.00     0.202 C 
BRANCH  29  30
ATOM     30  C   UNL     1       1.768  -2.472   5.559  1.00  0.00     0.261 C 
BRANCH  30  31
ATOM     31  O   UNL     1       2.934  -1.791   5.104  1.00  0.00    -0.460 OA
BRANCH  31  32
ATOM     32  C   UNL     1       3.774  -1.382   6.090  1.00  0.00     0.338 C 
ATOM     33  O   UNL     1       3.501  -1.139   7.254  1.00  0.00    -0.246 OA
BRANCH  32  34
ATOM     34  C   UNL     1       5.111  -1.708   5.573  1.00  0.00     0.060 A 
ATOM     35  C   UNL     1       5.475  -1.295   4.288  1.00  0.00     0.016 A 
ATOM     36  C   UNL     1       5.769  -2.764   6.224  1.00  0.00     0.016 A 
ATOM     37  C   UNL     1       6.426  -2.036   3.603  1.00  0.00     0.010 A 
ATOM     38  C   UNL     1       6.704  -3.514   5.524  1.00  0.00     0.010 A 
ATOM     39  C   UNL     1       6.990  -3.182   4.199  1.00  0.00    -0.014 A 
BRANCH  39  40
ATOM     40  C   UNL     1       8.069  -3.859   3.481  1.00  0.00     0.031 A 
ATOM     41  C   UNL     1       9.265  -2.983   3.391  1.00  0.00     0.074 A 
ATOM     42  C   UNL     1       8.089  -5.141   3.058  1.00  0.00     0.049 A 
ATOM     43  N   UNL     1       9.773  -2.448   2.333  1.00  0.00    -0.248 NA
ATOM     44  C   UNL     1       9.837  -2.484   4.654  1.00  0.00     0.031 C 
ATOM     45  C   UNL     1       7.124  -6.205   3.344  1.00  0.00     0.029 A 
ATOM     46  N   UNL     1       9.052  -5.800   2.344  1.00  0.00    -0.354 N 
ATOM     47  C   UNL     1      10.857  -1.700   2.780  1.00  0.00     0.074 A 
ATOM     48  C   UNL     1      10.730  -1.603   4.209  1.00  0.00     0.031 C 
ATOM     49  C   UNL     1       7.658  -7.407   3.019  1.00  0.00     0.029 A 
ATOM     50  C   UNL     1       8.934  -7.189   2.362  1.00  0.00     0.049 A 
ATOM     51  H   UNL     1       9.768  -5.332   1.857  1.00  0.00     0.167 HD
ATOM     52  C   UNL     1      11.915  -1.430   1.969  1.00  0.00     0.031 A 
ATOM     53  C   UNL     1       9.831  -8.094   1.892  1.00  0.00     0.031 A 
ATOM     54  C   UNL     1      11.610  -1.714   0.595  1.00  0.00     0.049 A 
ATOM     55  C   UNL     1      10.676  -7.397   0.899  1.00  0.00     0.074 A 
ATOM     56  C   UNL     1      10.955  -1.071  -0.430  1.00  0.00     0.029 A 
ATOM     57  N   UNL     1      11.684  -3.045   0.272  1.00  0.00    -0.354 N 
ATOM     58  N   UNL     1      10.214  -6.919  -0.223  1.00  0.00    -0.248 NA
ATOM     59  C   UNL     1      11.992  -6.911   1.297  1.00  0.00     0.031 C 
ATOM     60  C   UNL     1      10.468  -2.098  -1.291  1.00  0.00     0.029 A 
ATOM     61  C   UNL     1      10.888  -3.336  -0.805  1.00  0.00     0.049 A 
ATOM     62  H   UNL     1      12.236  -3.704   0.751  1.00  0.00     0.167 HD
ATOM     63  C   UNL     1      10.971  -5.787  -0.447  1.00  0.00     0.074 A 
ATOM     64  C   UNL     1      12.140  -5.922   0.413  1.00  0.00     0.031 C 
ATOM     65  C   UNL     1      10.446  -4.694  -1.069  1.00  0.00     0.031 A 
BRANCH  52  66
ATOM     66  C   UNL     1      13.335  -1.313   2.464  1.00  0.00    -0.014 A 
ATOM     67  C   UNL     1      13.743  -1.766   3.736  1.00  0.00     0.010 A 
ATOM     68  C   UNL     1      14.357  -0.963   1.558  1.00  0.00     0.010 A 
ATOM     69  C   UNL     1      15.085  -1.814   4.115  1.00  0.00     0.020 A 
ATOM     70  C   UNL     1      15.713  -1.046   1.914  1.00  0.00     0.020 A 
ATOM     71  C   UNL     1      16.065  -1.455   3.199  1.00  0.00     0.054 A 
BRANCH  71  72
ATOM     72  S   UNL     1      17.793  -1.582   3.717  1.00  0.00     0.124 S 
ATOM     73  O   UNL     1      17.874  -0.543   4.742  1.00  0.00    -0.237 OA
ATOM     74  O   UNL     1      17.873  -2.955   4.207  1.00  0.00    -0.237 OA
ATOM     75  O   UNL     1      18.541  -1.310   2.493  1.00  0.00    -0.744 OA
ENDBRANCH  71  72
ENDBRANCH  52  66
BRANCH  53  76
ATOM     76  C   UNL     1      10.266  -9.379   2.504  1.00  0.00    -0.014 A 
ATOM     77  C   UNL     1      10.322  -9.486   3.908  1.00  0.00     0.010 A 
ATOM     78  C   UNL     1      10.950 -10.351   1.745  1.00  0.00     0.010 A 
ATOM     79  C   UNL     1      11.104 -10.467   4.532  1.00  0.00     0.020 A 
ATOM     80  C   UNL     1      11.732 -11.344   2.366  1.00  0.00     0.020 A 
ATOM     81  C   UNL     1      11.834 -11.369   3.758  1.00  0.00     0.054 A 
BRANCH  81  82
ATOM     82  S   UNL     1      12.984 -12.498   4.603  1.00  0.00     0.124 S 
ATOM     83  O   UNL     1      13.984 -11.575   5.131  1.00  0.00    -0.237 OA
ATOM     84  O   UNL     1      12.127 -13.132   5.602  1.00  0.00    -0.237 OA
ATOM     85  O   UNL     1      13.450 -13.382   3.538  1.00  0.00    -0.744 OA
ENDBRANCH  81  82
ENDBRANCH  53  76
BRANCH  65  86
ATOM     86  C   UNL     1       9.248  -4.867  -1.965  1.00  0.00    -0.014 A 
ATOM     87  C   UNL     1       9.411  -4.463  -3.303  1.00  0.00     0.010 A 
ATOM     88  C   UNL     1       7.968  -5.259  -1.530  1.00  0.00     0.010 A 
ATOM     89  C   UNL     1       8.324  -4.386  -4.169  1.00  0.00     0.020 A 
ATOM     90  C   UNL     1       6.871  -5.210  -2.409  1.00  0.00     0.020 A 
ATOM     91  C   UNL     1       7.055  -4.744  -3.715  1.00  0.00     0.054 A 
BRANCH  91  92
ATOM     92  S   UNL     1       5.667  -4.556  -4.866  1.00  0.00     0.124 S 
ATOM     93  O   UNL     1       5.538  -3.103  -4.958  1.00  0.00    -0.237 OA
ATOM     94  O   UNL     1       6.159  -5.215  -6.074  1.00  0.00    -0.237 OA
ATOM     95  O   UNL     1       4.559  -5.236  -4.199  1.00  0.00    -0.744 OA
ENDBRANCH  91  92
ENDBRANCH  65  86
ENDBRANCH  39  40
ENDBRANCH  32  34
ENDBRANCH  31  32
ENDBRANCH  30  31
ENDBRANCH  29  30
ENDBRANCH   1  29
TORSDOF 21
