REMARK SMILES COc1cc2c(cc1OC)[C@@H](CC(=O)OCCOCCOC(=O)c1ccc(-c3c4nc(c(-c5ccc(S(=O)(=O)[O-])cc5)c5ccc([nH]5)c(-c5ccc(S(=O)(=O)[O-])cc5)c5nc(c(-c6ccc(S(=O)(=O)[O-])cc6)c6ccc3[nH]6)C=C5)C=C4)cc1)N(C(=O)Nc1ccc(Cl)cc1)CC2
REMARK SMILES IDX 18 1 17 2 16 3 15 4 13 5 14 6 12 7 11 8 3 9 4 10 8 11 5 12
REMARK SMILES IDX 7 13 6 14 96 15 95 16 84 17 2 18 1 19 9 20 10 21 85 22 86 23
REMARK SMILES IDX 87 24 88 26 89 27 94 28 90 29 93 30 91 31 92 32 19 33 20 34
REMARK SMILES IDX 21 35 22 36 23 37 24 38 25 39 83 40 26 41 82 42 27 43 28 44
REMARK SMILES IDX 29 45 76 46 30 47 81 48 75 49 77 50 31 51 80 52 74 53 73 54
REMARK SMILES IDX 32 56 62 57 43 58 61 59 44 60 47 61 60 62 78 63 45 64 46 65
REMARK SMILES IDX 59 67 79 68 48 69 33 70 34 71 42 72 35 73 41 74 36 75 37 76
REMARK SMILES IDX 38 77 39 78 40 79 63 80 64 81 72 82 65 83 71 84 66 85 67 86
REMARK SMILES IDX 68 87 69 88 70 89 49 90 50 91 58 92 51 93 57 94 52 95 53 96
REMARK SMILES IDX 54 97 55 98 56 99
REMARK H PARENT 87 25 77 55 47 66
REMARK Flexibility Score: inf
ROOT
ATOM      1  O   UNL     1       2.702  -7.384  -7.599  1.00  0.00    -0.374 OA
ENDROOT
BRANCH   1   2
ATOM      2  C   UNL     1       2.671  -8.633  -6.903  1.00  0.00     0.202 C 
BRANCH   2   3
ATOM      3  C   UNL     1       3.565  -8.680  -5.671  1.00  0.00     0.261 C 
BRANCH   3   4
ATOM      4  O   UNL     1       3.014  -7.807  -4.672  1.00  0.00    -0.463 OA
BRANCH   4   5
ATOM      5  C   UNL     1       3.899  -7.074  -3.972  1.00  0.00     0.308 C 
ATOM      6  O   UNL     1       5.108  -7.045  -4.197  1.00  0.00    -0.252 OA
BRANCH   5   7
ATOM      7  C   UNL     1       3.304  -6.228  -2.867  1.00  0.00     0.152 C 
BRANCH   7   8
ATOM      8  C   UNL     1       1.801  -5.849  -2.811  1.00  0.00     0.128 C 
ATOM      9  C   UNL     1       1.093  -2.146  -0.516  1.00  0.00     0.161 A 
ATOM     10  C   UNL     1       0.036  -2.930  -0.969  1.00  0.00     0.054 A 
ATOM     11  C   UNL     1       2.410  -2.486  -0.846  1.00  0.00     0.161 A 
ATOM     12  C   UNL     1       0.285  -4.078  -1.732  1.00  0.00    -0.037 A 
ATOM     13  C   UNL     1       2.641  -3.639  -1.617  1.00  0.00     0.056 A 
ATOM     14  C   UNL     1       1.597  -4.477  -2.060  1.00  0.00    -0.018 A 
ATOM     15  C   UNL     1      -0.825  -5.043  -2.023  1.00  0.00     0.057 C 
ATOM     16  C   UNL     1      -0.302  -6.369  -1.490  1.00  0.00     0.127 C 
ATOM     17  N   UNL     1       0.818  -6.892  -2.289  1.00  0.00    -0.317 N 
BRANCH   9  18
ATOM     18  O   UNL     1       0.756  -1.159   0.375  1.00  0.00    -0.493 OA
ATOM     19  C   UNL     1       1.108   0.141  -0.080  1.00  0.00     0.278 C 
ENDBRANCH   9  18
BRANCH  11  20
ATOM     20  O   UNL     1       3.408  -1.700  -0.331  1.00  0.00    -0.493 OA
ATOM     21  C   UNL     1       4.737  -1.949  -0.773  1.00  0.00     0.278 C 
ENDBRANCH  11  20
BRANCH  17  22
ATOM     22  C   UNL     1       1.101  -8.229  -2.363  1.00  0.00     0.322 C 
ATOM     23  O   UNL     1       2.263  -8.643  -2.434  1.00  0.00    -0.248 OA
ATOM     24  N   UNL     1       0.202  -9.225  -2.235  1.00  0.00    -0.308 N 
ATOM     25  H   UNL     1       0.633 -10.106  -2.322  1.00  0.00     0.171 HD
BRANCH  24  26
ATOM     26  C   UNL     1      -1.168  -9.356  -2.014  1.00  0.00     0.042 A 
ATOM     27  C   UNL     1      -1.511 -10.286  -1.026  1.00  0.00     0.028 A 
ATOM     28  C   UNL     1      -2.169  -8.609  -2.636  1.00  0.00     0.028 A 
ATOM     29  C   UNL     1      -2.814 -10.357  -0.545  1.00  0.00     0.022 A 
ATOM     30  C   UNL     1      -3.488  -8.700  -2.172  1.00  0.00     0.022 A 
ATOM     31  C   UNL     1      -3.795  -9.546  -1.105  1.00  0.00     0.041 A 
ATOM     32  Cl  UNL     1      -5.381  -9.556  -0.443  1.00  0.00    -0.084 Cl
ENDBRANCH  24  26
ENDBRANCH  17  22
ENDBRANCH   7   8
ENDBRANCH   5   7
ENDBRANCH   4   5
ENDBRANCH   3   4
ENDBRANCH   2   3
ENDBRANCH   1   2
BRANCH   1  33
ATOM     33  C   UNL     1       1.964  -6.309  -7.018  1.00  0.00     0.202 C 
BRANCH  33  34
ATOM     34  C   UNL     1       0.469  -6.281  -7.351  1.00  0.00     0.261 C 
BRANCH  34  35
ATOM     35  O   UNL     1      -0.251  -7.383  -6.770  1.00  0.00    -0.460 OA
BRANCH  35  36
ATOM     36  C   UNL     1      -0.537  -8.390  -7.628  1.00  0.00     0.338 C 
ATOM     37  O   UNL     1      -0.284  -8.431  -8.829  1.00  0.00    -0.246 OA
BRANCH  36  38
ATOM     38  C   UNL     1      -1.077  -9.548  -6.893  1.00  0.00     0.060 A 
ATOM     39  C   UNL     1      -0.522 -10.810  -7.141  1.00  0.00     0.016 A 
ATOM     40  C   UNL     1      -2.163  -9.414  -6.028  1.00  0.00     0.016 A 
ATOM     41  C   UNL     1      -1.085 -11.948  -6.563  1.00  0.00     0.010 A 
ATOM     42  C   UNL     1      -2.716 -10.556  -5.438  1.00  0.00     0.010 A 
ATOM     43  C   UNL     1      -2.210 -11.834  -5.736  1.00  0.00    -0.014 A 
BRANCH  43  44
ATOM     44  C   UNL     1      -2.975 -13.046  -5.343  1.00  0.00     0.031 A 
ATOM     45  C   UNL     1      -4.302 -13.308  -6.013  1.00  0.00     0.074 A 
ATOM     46  C   UNL     1      -2.499 -13.918  -4.435  1.00  0.00     0.049 A 
ATOM     47  N   UNL     1      -5.161 -14.272  -5.805  1.00  0.00    -0.248 NA
ATOM     48  C   UNL     1      -4.720 -12.346  -7.047  1.00  0.00     0.031 C 
ATOM     49  C   UNL     1      -1.220 -13.803  -3.734  1.00  0.00     0.029 A 
ATOM     50  N   UNL     1      -3.042 -15.083  -3.950  1.00  0.00    -0.354 N 
ATOM     51  C   UNL     1      -6.227 -14.019  -6.662  1.00  0.00     0.074 A 
ATOM     52  C   UNL     1      -5.926 -12.791  -7.363  1.00  0.00     0.031 C 
ATOM     53  C   UNL     1      -1.072 -14.863  -2.919  1.00  0.00     0.029 A 
ATOM     54  C   UNL     1      -2.257 -15.714  -3.015  1.00  0.00     0.049 A 
ATOM     55  H   UNL     1      -3.913 -15.434  -4.246  1.00  0.00     0.167 HD
ATOM     56  C   UNL     1      -7.350 -14.748  -6.865  1.00  0.00     0.031 A 
ATOM     57  C   UNL     1      -2.472 -16.844  -2.312  1.00  0.00     0.031 A 
ATOM     58  C   UNL     1      -7.644 -15.982  -6.190  1.00  0.00     0.049 A 
ATOM     59  C   UNL     1      -3.745 -17.624  -2.530  1.00  0.00     0.074 A 
ATOM     60  C   UNL     1      -8.746 -16.805  -6.343  1.00  0.00     0.029 A 
ATOM     61  N   UNL     1      -6.828 -16.576  -5.240  1.00  0.00    -0.354 N 
ATOM     62  N   UNL     1      -4.735 -17.375  -3.354  1.00  0.00    -0.248 NA
ATOM     63  C   UNL     1      -3.924 -18.843  -1.728  1.00  0.00     0.031 C 
ATOM     64  C   UNL     1      -8.615 -17.878  -5.456  1.00  0.00     0.029 A 
ATOM     65  C   UNL     1      -7.407 -17.749  -4.789  1.00  0.00     0.049 A 
ATOM     66  H   UNL     1      -5.965 -16.216  -4.931  1.00  0.00     0.167 HD
ATOM     67  C   UNL     1      -5.637 -18.422  -3.192  1.00  0.00     0.074 A 
ATOM     68  C   UNL     1      -5.071 -19.312  -2.200  1.00  0.00     0.031 C 
ATOM     69  C   UNL     1      -6.825 -18.631  -3.810  1.00  0.00     0.031 A 
BRANCH  56  70
ATOM     70  C   UNL     1      -8.351 -14.216  -7.855  1.00  0.00    -0.014 A 
ATOM     71  C   UNL     1      -8.088 -14.235  -9.236  1.00  0.00     0.010 A 
ATOM     72  C   UNL     1      -9.583 -13.715  -7.398  1.00  0.00     0.010 A 
ATOM     73  C   UNL     1      -9.022 -13.723 -10.140  1.00  0.00     0.020 A 
ATOM     74  C   UNL     1     -10.531 -13.227  -8.301  1.00  0.00     0.020 A 
ATOM     75  C   UNL     1     -10.236 -13.218  -9.666  1.00  0.00     0.054 A 
BRANCH  75  76
ATOM     76  S   UNL     1     -11.439 -12.577 -10.862  1.00  0.00     0.124 S 
ATOM     77  O   UNL     1     -10.835 -11.302 -11.241  1.00  0.00    -0.237 OA
ATOM     78  O   UNL     1     -11.439 -13.604 -11.901  1.00  0.00    -0.237 OA
ATOM     79  O   UNL     1     -12.675 -12.476 -10.091  1.00  0.00    -0.744 OA
ENDBRANCH  75  76
ENDBRANCH  56  70
BRANCH  57  80
ATOM     80  C   UNL     1      -1.463 -17.316  -1.324  1.00  0.00    -0.014 A 
ATOM     81  C   UNL     1      -0.715 -18.483  -1.564  1.00  0.00     0.010 A 
ATOM     82  C   UNL     1      -1.262 -16.612  -0.123  1.00  0.00     0.010 A 
ATOM     83  C   UNL     1       0.197 -18.949  -0.612  1.00  0.00     0.020 A 
ATOM     84  C   UNL     1      -0.332 -17.060   0.820  1.00  0.00     0.020 A 
ATOM     85  C   UNL     1       0.382 -18.235   0.575  1.00  0.00     0.054 A 
BRANCH  85  86
ATOM     86  S   UNL     1       1.596 -18.836   1.782  1.00  0.00     0.124 S 
ATOM     87  O   UNL     1       0.894 -19.966   2.381  1.00  0.00    -0.237 OA
ATOM     88  O   UNL     1       2.740 -19.173   0.939  1.00  0.00    -0.237 OA
ATOM     89  O   UNL     1       1.798 -17.686   2.661  1.00  0.00    -0.744 OA
ENDBRANCH  85  86
ENDBRANCH  57  80
BRANCH  69  90
ATOM     90  C   UNL     1      -7.578 -19.890  -3.474  1.00  0.00    -0.014 A 
ATOM     91  C   UNL     1      -8.244 -20.038  -2.245  1.00  0.00     0.010 A 
ATOM     92  C   UNL     1      -7.675 -20.914  -4.434  1.00  0.00     0.010 A 
ATOM     93  C   UNL     1      -8.971 -21.200  -1.972  1.00  0.00     0.020 A 
ATOM     94  C   UNL     1      -8.421 -22.066  -4.175  1.00  0.00     0.020 A 
ATOM     95  C   UNL     1      -9.054 -22.208  -2.938  1.00  0.00     0.054 A 
BRANCH  95  96
ATOM     96  S   UNL     1     -10.043 -23.686  -2.579  1.00  0.00     0.124 S 
ATOM     97  O   UNL     1      -9.177 -24.413  -1.656  1.00  0.00    -0.237 OA
ATOM     98  O   UNL     1     -11.258 -23.126  -1.993  1.00  0.00    -0.237 OA
ATOM     99  O   UNL     1     -10.221 -24.309  -3.889  1.00  0.00    -0.744 OA
ENDBRANCH  95  96
ENDBRANCH  69  90
ENDBRANCH  43  44
ENDBRANCH  36  38
ENDBRANCH  35  36
ENDBRANCH  34  35
ENDBRANCH  33  34
ENDBRANCH   1  33
TORSDOF 22
