REMARK SMILES CO[C@H]1C[C@@H](C(=O)OCCOCCOC(=O)c2ccc(-c3c4nc(c(-c5ccc(S(=O)(=O)[O-])cc5)c5ccc([nH]5)c(-c5ccc(S(=O)(=O)[O-])cc5)c5nc(c(-c6ccc(S(=O)(=O)[O-])cc6)c6ccc3[nH]6)C=C5)C=C4)cc2)N(C(=O)Nc2cc(C)cc(F)c2)C1
REMARK SMILES IDX 12 1 11 2 10 3 9 4 8 5 6 6 7 7 5 8 3 9 4 10 89 11 77 12 2 13
REMARK SMILES IDX 1 14 78 15 79 16 80 17 81 19 82 20 88 21 83 22 86 23 84 24
REMARK SMILES IDX 85 25 87 26 13 27 14 28 15 29 16 30 17 31 18 32 76 33 19 34
REMARK SMILES IDX 75 35 20 36 21 37 22 38 69 39 23 40 74 41 68 42 70 43 24 44
REMARK SMILES IDX 73 45 67 46 66 47 25 49 55 50 36 51 54 52 37 53 40 54 53 55
REMARK SMILES IDX 71 56 38 57 39 58 52 60 72 61 41 62 26 63 27 64 35 65 28 66
REMARK SMILES IDX 34 67 29 68 30 69 31 70 32 71 33 72 56 73 57 74 65 75 58 76
REMARK SMILES IDX 64 77 59 78 60 79 61 80 62 81 63 82 42 83 43 84 51 85 44 86
REMARK SMILES IDX 50 87 45 88 46 89 47 90 48 91 49 92
REMARK H PARENT 80 18 70 48 40 59
REMARK Flexibility Score: inf
ROOT
ATOM      1  C   UNL     1       4.567   1.659   5.365  1.00  0.00     0.202 C 
ENDROOT
BRANCH   1   2
ATOM      2  O   UNL     1       5.911   1.223   5.251  1.00  0.00    -0.374 OA
BRANCH   2   3
ATOM      3  C   UNL     1       6.660   1.431   4.059  1.00  0.00     0.202 C 
BRANCH   3   4
ATOM      4  C   UNL     1       6.027   1.850   2.724  1.00  0.00     0.261 C 
BRANCH   4   5
ATOM      5  O   UNL     1       5.190   0.968   1.948  1.00  0.00    -0.462 OA
BRANCH   5   6
ATOM      6  C   UNL     1       4.441  -0.030   2.471  1.00  0.00     0.329 C 
ATOM      7  O   UNL     1       4.521  -0.497   3.596  1.00  0.00    -0.250 OA
BRANCH   6   8
ATOM      8  C   UNL     1       3.322  -0.368   1.497  1.00  0.00     0.199 C 
ATOM      9  C   UNL     1       0.904  -0.153   1.778  1.00  0.00     0.140 C 
ATOM     10  C   UNL     1       2.202   0.636   1.834  1.00  0.00     0.071 C 
ATOM     11  C   UNL     1       1.345  -1.581   2.107  1.00  0.00     0.154 C 
ATOM     12  N   UNL     1       2.740  -1.699   1.706  1.00  0.00    -0.308 N 
BRANCH   9  13
ATOM     13  O   UNL     1      -0.036   0.291   2.757  1.00  0.00    -0.380 OA
ATOM     14  C   UNL     1      -0.655   1.532   2.452  1.00  0.00     0.195 C 
ENDBRANCH   9  13
BRANCH  12  15
ATOM     15  C   UNL     1       3.224  -2.934   1.356  1.00  0.00     0.322 C 
ATOM     16  O   UNL     1       2.510  -3.940   1.413  1.00  0.00    -0.248 OA
ATOM     17  N   UNL     1       4.426  -3.058   0.732  1.00  0.00    -0.308 N 
ATOM     18  H   UNL     1       4.396  -3.601  -0.089  1.00  0.00     0.171 HD
BRANCH  17  19
ATOM     19  C   UNL     1       5.698  -2.556   1.037  1.00  0.00     0.046 A 
ATOM     20  C   UNL     1       6.578  -2.310  -0.024  1.00  0.00     0.029 A 
ATOM     21  C   UNL     1       6.150  -2.402   2.343  1.00  0.00     0.065 A 
ATOM     22  C   UNL     1       7.843  -1.749   0.208  1.00  0.00    -0.046 A 
ATOM     23  C   UNL     1       7.409  -1.854   2.572  1.00  0.00     0.125 A 
ATOM     24  C   UNL     1       8.791  -1.465  -0.919  1.00  0.00     0.044 C 
ATOM     25  C   UNL     1       8.234  -1.477   1.521  1.00  0.00     0.042 A 
ATOM     26  F   UNL     1       7.833  -1.674   3.829  1.00  0.00    -0.207 F 
ENDBRANCH  17  19
ENDBRANCH  12  15
ENDBRANCH   6   8
ENDBRANCH   5   6
ENDBRANCH   4   5
ENDBRANCH   3   4
ENDBRANCH   2   3
ENDBRANCH   1   2
BRANCH   1  27
ATOM     27  C   UNL     1       4.376   3.095   5.831  1.00  0.00     0.261 C 
BRANCH  27  28
ATOM     28  O   UNL     1       4.938   4.006   4.880  1.00  0.00    -0.460 OA
BRANCH  28  29
ATOM     29  C   UNL     1       6.155   4.490   5.232  1.00  0.00     0.338 C 
ATOM     30  O   UNL     1       6.729   4.348   6.288  1.00  0.00    -0.246 OA
BRANCH  29  31
ATOM     31  C   UNL     1       6.784   5.100   4.042  1.00  0.00     0.060 A 
ATOM     32  C   UNL     1       8.153   4.875   3.854  1.00  0.00     0.016 A 
ATOM     33  C   UNL     1       6.061   5.900   3.152  1.00  0.00     0.016 A 
ATOM     34  C   UNL     1       8.826   5.512   2.819  1.00  0.00     0.010 A 
ATOM     35  C   UNL     1       6.739   6.555   2.124  1.00  0.00     0.010 A 
ATOM     36  C   UNL     1       8.130   6.405   1.997  1.00  0.00    -0.014 A 
BRANCH  36  37
ATOM     37  C   UNL     1       8.900   7.400   1.220  1.00  0.00     0.031 A 
ATOM     38  C   UNL     1       9.177   8.725   1.878  1.00  0.00     0.074 A 
ATOM     39  C   UNL     1       9.361   7.126  -0.010  1.00  0.00     0.049 A 
ATOM     40  N   UNL     1       9.793   9.773   1.403  1.00  0.00    -0.248 NA
ATOM     41  C   UNL     1       8.689   8.887   3.261  1.00  0.00     0.031 C 
ATOM     42  C   UNL     1       9.203   5.853  -0.712  1.00  0.00     0.029 A 
ATOM     43  N   UNL     1      10.058   7.914  -0.888  1.00  0.00    -0.354 N 
ATOM     44  C   UNL     1       9.756  10.720   2.420  1.00  0.00     0.074 A 
ATOM     45  C   UNL     1       9.038  10.135   3.528  1.00  0.00     0.031 C 
ATOM     46  C   UNL     1       9.780   5.952  -1.923  1.00  0.00     0.029 A 
ATOM     47  C   UNL     1      10.316   7.303  -2.090  1.00  0.00     0.049 A 
ATOM     48  H   UNL     1      10.346   8.832  -0.677  1.00  0.00     0.167 HD
ATOM     49  C   UNL     1      10.275  11.969   2.428  1.00  0.00     0.031 A 
ATOM     50  C   UNL     1      10.900   7.791  -3.202  1.00  0.00     0.031 A 
ATOM     51  C   UNL     1      10.970  12.547   1.312  1.00  0.00     0.049 A 
ATOM     52  C   UNL     1      11.402   9.213  -3.198  1.00  0.00     0.074 A 
ATOM     53  C   UNL     1      11.544  13.801   1.213  1.00  0.00     0.029 A 
ATOM     54  N   UNL     1      11.175  11.911   0.097  1.00  0.00    -0.354 N 
ATOM     55  N   UNL     1      11.375  10.095  -2.225  1.00  0.00    -0.248 NA
ATOM     56  C   UNL     1      12.017   9.703  -4.438  1.00  0.00     0.031 C 
ATOM     57  C   UNL     1      12.040  13.947  -0.086  1.00  0.00     0.029 A 
ATOM     58  C   UNL     1      11.839  12.758  -0.772  1.00  0.00     0.049 A 
ATOM     59  H   UNL     1      10.890  10.993  -0.116  1.00  0.00     0.167 HD
ATOM     60  C   UNL     1      11.998  11.233  -2.727  1.00  0.00     0.074 A 
ATOM     61  C   UNL     1      12.398  10.923  -4.085  1.00  0.00     0.031 C 
ATOM     62  C   UNL     1      12.224  12.426  -2.121  1.00  0.00     0.031 A 
BRANCH  49  63
ATOM     63  C   UNL     1      10.059  12.804   3.662  1.00  0.00    -0.014 A 
ATOM     64  C   UNL     1      10.719  12.514   4.870  1.00  0.00     0.010 A 
ATOM     65  C   UNL     1       9.197  13.913   3.601  1.00  0.00     0.010 A 
ATOM     66  C   UNL     1      10.493  13.300   6.004  1.00  0.00     0.020 A 
ATOM     67  C   UNL     1       8.991  14.718   4.724  1.00  0.00     0.020 A 
ATOM     68  C   UNL     1       9.630  14.397   5.923  1.00  0.00     0.054 A 
BRANCH  68  69
ATOM     69  S   UNL     1       9.381  15.419   7.401  1.00  0.00     0.124 S 
ATOM     70  O   UNL     1       8.581  14.537   8.246  1.00  0.00    -0.237 OA
ATOM     71  O   UNL     1      10.748  15.658   7.858  1.00  0.00    -0.237 OA
ATOM     72  O   UNL     1       8.681  16.597   6.894  1.00  0.00    -0.744 OA
ENDBRANCH  68  69
ENDBRANCH  49  63
BRANCH  50  73
ATOM     73  C   UNL     1      11.028   6.934  -4.411  1.00  0.00    -0.014 A 
ATOM     74  C   UNL     1      12.288   6.482  -4.843  1.00  0.00     0.010 A 
ATOM     75  C   UNL     1       9.882   6.552  -5.134  1.00  0.00     0.010 A 
ATOM     76  C   UNL     1      12.400   5.671  -5.976  1.00  0.00     0.020 A 
ATOM     77  C   UNL     1       9.987   5.719  -6.251  1.00  0.00     0.020 A 
ATOM     78  C   UNL     1      11.247   5.289  -6.669  1.00  0.00     0.054 A 
BRANCH  78  79
ATOM     79  S   UNL     1      11.411   4.178  -8.095  1.00  0.00     0.124 S 
ATOM     80  O   UNL     1      12.011   5.053  -9.096  1.00  0.00    -0.237 OA
ATOM     81  O   UNL     1      12.277   3.124  -7.572  1.00  0.00    -0.237 OA
ATOM     82  O   UNL     1      10.036   3.765  -8.366  1.00  0.00    -0.744 OA
ENDBRANCH  78  79
ENDBRANCH  50  73
BRANCH  62  83
ATOM     83  C   UNL     1      12.969  13.475  -2.903  1.00  0.00    -0.014 A 
ATOM     84  C   UNL     1      12.367  14.153  -3.976  1.00  0.00     0.010 A 
ATOM     85  C   UNL     1      14.270  13.836  -2.506  1.00  0.00     0.010 A 
ATOM     86  C   UNL     1      13.065  15.152  -4.659  1.00  0.00     0.020 A 
ATOM     87  C   UNL     1      14.959  14.855  -3.166  1.00  0.00     0.020 A 
ATOM     88  C   UNL     1      14.357  15.497  -4.248  1.00  0.00     0.054 A 
BRANCH  88  89
ATOM     89  S   UNL     1      15.223  16.829  -5.123  1.00  0.00     0.124 S 
ATOM     90  O   UNL     1      15.558  16.189  -6.393  1.00  0.00    -0.237 OA
ATOM     91  O   UNL     1      14.209  17.877  -5.195  1.00  0.00    -0.237 OA
ATOM     92  O   UNL     1      16.362  17.129  -4.257  1.00  0.00    -0.744 OA
ENDBRANCH  88  89
ENDBRANCH  62  83
ENDBRANCH  36  37
ENDBRANCH  29  31
ENDBRANCH  28  29
ENDBRANCH  27  28
ENDBRANCH   1  27
TORSDOF 20
