REMARK SMILES CCCC[C@H](NS(=O)(=O)c1cccc(Br)c1)C(=O)OCCOCCOC(=O)c1ccc(-c2c3nc(c(-c4ccc(S(=O)(=O)[O-])cc4)c4ccc([nH]4)c(-c4ccc(S(=O)(=O)[O-])cc4)c4nc(c(-c5ccc(S(=O)(=O)[O-])cc5)c5ccc2[nH]5)C=C4)C=C3)cc1
REMARK SMILES IDX 22 1 21 2 20 3 19 4 17 5 18 6 5 7 4 8 3 9 2 10 1 11 6 12
REMARK SMILES IDX 7 14 8 15 9 16 10 17 11 18 16 19 12 20 14 21 13 22 15 23
REMARK SMILES IDX 23 24 24 25 25 26 26 27 27 28 28 29 29 30 87 31 30 32 86 33
REMARK SMILES IDX 31 34 32 35 33 36 80 37 34 38 85 39 79 40 81 41 35 42 84 43
REMARK SMILES IDX 78 44 77 45 36 47 66 48 47 49 65 50 48 51 51 52 64 53 82 54
REMARK SMILES IDX 49 55 50 56 63 58 83 59 52 60 37 61 38 62 46 63 39 64 45 65
REMARK SMILES IDX 40 66 41 67 42 68 43 69 44 70 67 71 68 72 76 73 69 74 75 75
REMARK SMILES IDX 70 76 71 77 72 78 73 79 74 80 53 81 54 82 62 83 55 84 61 85
REMARK SMILES IDX 56 86 57 87 58 88 59 89 60 90
REMARK H PARENT 6 13 81 46 51 57
REMARK Flexibility Score: inf
ROOT
ATOM      1  O   UNL     1      -1.611   3.966   3.890  1.00  0.00    -0.374 OA
ENDROOT
BRANCH   1   2
ATOM      2  C   UNL     1      -1.703   3.428   5.210  1.00  0.00     0.202 C 
BRANCH   2   3
ATOM      3  C   UNL     1      -2.626   2.213   5.360  1.00  0.00     0.261 C 
BRANCH   3   4
ATOM      4  O   UNL     1      -1.979   0.990   4.954  1.00  0.00    -0.462 OA
BRANCH   4   5
ATOM      5  C   UNL     1      -2.089   0.688   3.641  1.00  0.00     0.324 C 
ATOM      6  O   UNL     1      -2.780   1.312   2.841  1.00  0.00    -0.250 OA
BRANCH   5   7
ATOM      7  C   UNL     1      -1.294  -0.537   3.232  1.00  0.00     0.179 C 
BRANCH   7   8
ATOM      8  C   UNL     1      -1.891  -1.862   3.727  1.00  0.00     0.032 C 
BRANCH   8   9
ATOM      9  C   UNL     1      -3.416  -1.963   3.820  1.00  0.00     0.002 C 
BRANCH   9  10
ATOM     10  C   UNL     1      -4.205  -1.707   2.538  1.00  0.00    -0.003 C 
ATOM     11  C   UNL     1      -3.876  -2.672   1.413  1.00  0.00     0.004 C 
ENDBRANCH   9  10
ENDBRANCH   8   9
ENDBRANCH   7   8
BRANCH   7  12
ATOM     12  N   UNL     1       0.174  -0.581   3.385  1.00  0.00    -0.197 NA
ATOM     13  H   UNL     1       0.532  -0.060   2.584  1.00  0.00     0.142 HD
BRANCH  12  14
ATOM     14  S   UNL     1       1.091  -0.057   4.673  1.00  0.00     0.241 S 
ATOM     15  O   UNL     1       2.445  -0.444   4.360  1.00  0.00    -0.207 OA
ATOM     16  O   UNL     1       0.762   1.322   4.936  1.00  0.00    -0.207 OA
BRANCH  14  17
ATOM     17  C   UNL     1       0.561  -1.015   6.053  1.00  0.00     0.083 A 
ATOM     18  C   UNL     1      -0.127  -0.401   7.106  1.00  0.00     0.022 A 
ATOM     19  C   UNL     1       0.823  -2.385   6.065  1.00  0.00     0.037 A 
ATOM     20  C   UNL     1      -0.627  -1.179   8.146  1.00  0.00     0.003 A 
ATOM     21  C   UNL     1       0.312  -3.152   7.107  1.00  0.00     0.019 A 
ATOM     22  C   UNL     1      -0.420  -2.560   8.139  1.00  0.00     0.016 A 
ATOM     23  Br  UNL     1       0.576  -5.023   7.096  1.00  0.00    -0.051 Br
ENDBRANCH  14  17
ENDBRANCH  12  14
ENDBRANCH   7  12
ENDBRANCH   5   7
ENDBRANCH   4   5
ENDBRANCH   3   4
ENDBRANCH   2   3
ENDBRANCH   1   2
BRANCH   1  24
ATOM     24  C   UNL     1      -0.527   3.497   3.084  1.00  0.00     0.202 C 
BRANCH  24  25
ATOM     25  C   UNL     1       0.817   4.224   3.261  1.00  0.00     0.261 C 
BRANCH  25  26
ATOM     26  O   UNL     1       1.465   3.906   4.506  1.00  0.00    -0.460 OA
BRANCH  26  27
ATOM     27  C   UNL     1       1.201   4.747   5.531  1.00  0.00     0.338 C 
ATOM     28  O   UNL     1       0.632   5.824   5.450  1.00  0.00    -0.246 OA
BRANCH  27  29
ATOM     29  C   UNL     1       1.520   4.110   6.837  1.00  0.00     0.060 A 
ATOM     30  C   UNL     1       0.682   4.431   7.915  1.00  0.00     0.016 A 
ATOM     31  C   UNL     1       2.601   3.246   7.037  1.00  0.00     0.016 A 
ATOM     32  C   UNL     1       0.970   3.971   9.199  1.00  0.00     0.010 A 
ATOM     33  C   UNL     1       2.889   2.781   8.331  1.00  0.00     0.010 A 
ATOM     34  C   UNL     1       2.106   3.186   9.429  1.00  0.00    -0.014 A 
BRANCH  34  35
ATOM     35  C   UNL     1       2.556   2.964  10.832  1.00  0.00     0.031 A 
ATOM     36  C   UNL     1       3.706   3.783  11.367  1.00  0.00     0.074 A 
ATOM     37  C   UNL     1       1.907   2.120  11.656  1.00  0.00     0.049 A 
ATOM     38  N   UNL     1       4.226   3.797  12.568  1.00  0.00    -0.248 NA
ATOM     39  C   UNL     1       4.350   4.711  10.424  1.00  0.00     0.031 C 
ATOM     40  C   UNL     1       0.749   1.303  11.294  1.00  0.00     0.029 A 
ATOM     41  N   UNL     1       2.127   1.819  12.980  1.00  0.00    -0.354 N 
ATOM     42  C   UNL     1       5.260   4.727  12.523  1.00  0.00     0.074 A 
ATOM     43  C   UNL     1       5.316   5.228  11.167  1.00  0.00     0.031 C 
ATOM     44  C   UNL     1       0.358   0.598  12.370  1.00  0.00     0.029 A 
ATOM     45  C   UNL     1       1.254   0.888  13.491  1.00  0.00     0.049 A 
ATOM     46  H   UNL     1       2.843   2.233  13.513  1.00  0.00     0.167 HD
ATOM     47  C   UNL     1       6.083   5.138  13.517  1.00  0.00     0.031 A 
ATOM     48  C   UNL     1       1.188   0.321  14.714  1.00  0.00     0.031 A 
ATOM     49  C   UNL     1       6.040   4.640  14.867  1.00  0.00     0.049 A 
ATOM     50  C   UNL     1       2.167   0.736  15.785  1.00  0.00     0.074 A 
ATOM     51  C   UNL     1       6.824   5.015  15.945  1.00  0.00     0.029 A 
ATOM     52  N   UNL     1       5.177   3.657  15.324  1.00  0.00    -0.354 N 
ATOM     53  N   UNL     1       3.115   1.640  15.731  1.00  0.00    -0.248 NA
ATOM     54  C   UNL     1       2.055   0.060  17.086  1.00  0.00     0.031 C 
ATOM     55  C   UNL     1       6.482   4.210  17.036  1.00  0.00     0.029 A 
ATOM     56  C   UNL     1       5.433   3.387  16.659  1.00  0.00     0.049 A 
ATOM     57  H   UNL     1       4.485   3.215  14.781  1.00  0.00     0.167 HD
ATOM     58  C   UNL     1       3.692   1.661  16.999  1.00  0.00     0.074 A 
ATOM     59  C   UNL     1       2.977   0.692  17.801  1.00  0.00     0.031 C 
ATOM     60  C   UNL     1       4.720   2.420  17.456  1.00  0.00     0.031 A 
BRANCH  47  61
ATOM     61  C   UNL     1       7.137   6.159  13.172  1.00  0.00    -0.014 A 
ATOM     62  C   UNL     1       6.799   7.494  12.886  1.00  0.00     0.010 A 
ATOM     63  C   UNL     1       8.493   5.784  13.181  1.00  0.00     0.010 A 
ATOM     64  C   UNL     1       7.795   8.425  12.578  1.00  0.00     0.020 A 
ATOM     65  C   UNL     1       9.494   6.719  12.904  1.00  0.00     0.020 A 
ATOM     66  C   UNL     1       9.137   8.031  12.588  1.00  0.00     0.054 A 
BRANCH  66  67
ATOM     67  S   UNL     1      10.409   9.267  12.210  1.00  0.00     0.124 S 
ATOM     68  O   UNL     1      10.210   9.476  10.778  1.00  0.00    -0.237 OA
ATOM     69  O   UNL     1      10.031  10.387  13.067  1.00  0.00    -0.237 OA
ATOM     70  O   UNL     1      11.659   8.602  12.574  1.00  0.00    -0.744 OA
ENDBRANCH  66  67
ENDBRANCH  47  61
BRANCH  48  71
ATOM     71  C   UNL     1       0.167  -0.728  14.993  1.00  0.00    -0.014 A 
ATOM     72  C   UNL     1      -0.884  -0.494  15.898  1.00  0.00     0.010 A 
ATOM     73  C   UNL     1       0.254  -1.982  14.360  1.00  0.00     0.010 A 
ATOM     74  C   UNL     1      -1.819  -1.497  16.173  1.00  0.00     0.020 A 
ATOM     75  C   UNL     1      -0.696  -2.976  14.608  1.00  0.00     0.020 A 
ATOM     76  C   UNL     1      -1.722  -2.730  15.522  1.00  0.00     0.054 A 
BRANCH  76  77
ATOM     77  S   UNL     1      -2.980  -3.996  15.848  1.00  0.00     0.124 S 
ATOM     78  O   UNL     1      -2.638  -4.425  17.200  1.00  0.00    -0.237 OA
ATOM     79  O   UNL     1      -4.224  -3.243  15.716  1.00  0.00    -0.237 OA
ATOM     80  O   UNL     1      -2.747  -4.986  14.798  1.00  0.00    -0.744 OA
ENDBRANCH  76  77
ENDBRANCH  48  71
BRANCH  60  81
ATOM     81  C   UNL     1       5.118   2.269  18.904  1.00  0.00    -0.014 A 
ATOM     82  C   UNL     1       5.757   1.108  19.374  1.00  0.00     0.010 A 
ATOM     83  C   UNL     1       4.901   3.336  19.797  1.00  0.00     0.010 A 
ATOM     84  C   UNL     1       6.138   1.003  20.716  1.00  0.00     0.020 A 
ATOM     85  C   UNL     1       5.309   3.248  21.131  1.00  0.00     0.020 A 
ATOM     86  C   UNL     1       5.912   2.075  21.586  1.00  0.00     0.054 A 
BRANCH  86  87
ATOM     87  S   UNL     1       6.451   1.928  23.312  1.00  0.00     0.124 S 
ATOM     88  O   UNL     1       5.486   0.974  23.853  1.00  0.00    -0.237 OA
ATOM     89  O   UNL     1       7.819   1.432  23.180  1.00  0.00    -0.237 OA
ATOM     90  O   UNL     1       6.336   3.289  23.830  1.00  0.00    -0.744 OA
ENDBRANCH  86  87
ENDBRANCH  60  81
ENDBRANCH  34  35
ENDBRANCH  27  29
ENDBRANCH  26  27
ENDBRANCH  25  26
ENDBRANCH  24  25
ENDBRANCH   1  24
TORSDOF 23
