REMARK SMILES C[C@@H](C(=O)OCCOCCOC(=O)c1ccc(-c2c3nc(c(-c4ccc(S(=O)(=O)[O-])cc4)c4ccc([nH]4)c(-c4ccc(S(=O)(=O)[O-])cc4)c4nc(c(-c5ccc(S(=O)(=O)[O-])cc5)c5ccc2[nH]5)C=C4)C=C3)cc1)c1ccc(C[C@@H]2CCC[C@@H]2O)cc1F
REMARK SMILES IDX 7 1 6 2 5 3 3 4 4 5 2 6 1 7 74 8 75 9 86 10 76 11 85 12
REMARK SMILES IDX 87 13 77 14 78 15 79 16 80 17 83 18 81 19 82 20 84 21 8 23
REMARK SMILES IDX 9 24 10 25 11 26 12 27 13 28 14 29 15 30 73 31 16 32 72 33
REMARK SMILES IDX 17 34 18 35 19 36 66 37 20 38 71 39 65 40 67 41 21 42 70 43
REMARK SMILES IDX 64 44 63 45 22 47 52 48 33 49 51 50 34 51 37 52 50 53 68 54
REMARK SMILES IDX 35 55 36 56 49 58 69 59 38 60 23 61 24 62 32 63 25 64 31 65
REMARK SMILES IDX 26 66 27 67 28 68 29 69 30 70 53 71 54 72 62 73 55 74 61 75
REMARK SMILES IDX 56 76 57 77 58 78 59 79 60 80 39 81 40 82 48 83 41 84 47 85
REMARK SMILES IDX 42 86 43 87 44 88 45 89 46 90
REMARK H PARENT 84 22 67 46 37 57
REMARK Flexibility Score: inf
ROOT
ATOM      1  C   UNL     1     -13.065   2.065   7.562  1.00  0.00     0.202 C 
ENDROOT
BRANCH   1   2
ATOM      2  C   UNL     1     -11.763   2.421   8.285  1.00  0.00     0.261 C 
BRANCH   2   3
ATOM      3  O   UNL     1     -11.107   3.522   7.640  1.00  0.00    -0.463 OA
BRANCH   3   4
ATOM      4  C   UNL     1      -9.769   3.378   7.452  1.00  0.00     0.313 C 
ATOM      5  O   UNL     1      -9.086   2.514   7.994  1.00  0.00    -0.252 OA
BRANCH   4   6
ATOM      6  C   UNL     1      -9.210   4.358   6.412  1.00  0.00     0.129 C 
ATOM      7  C   UNL     1     -10.034   5.650   6.349  1.00  0.00     0.025 C 
BRANCH   6   8
ATOM      8  C   UNL     1      -8.894   3.680   5.074  1.00  0.00     0.002 A 
ATOM      9  C   UNL     1      -8.155   2.483   5.072  1.00  0.00     0.008 A 
ATOM     10  C   UNL     1      -9.216   4.215   3.821  1.00  0.00     0.127 A 
ATOM     11  C   UNL     1      -7.724   1.885   3.885  1.00  0.00     0.004 A 
ATOM     12  C   UNL     1      -8.754   3.641   2.630  1.00  0.00     0.043 A 
ATOM     13  F   UNL     1      -9.954   5.327   3.713  1.00  0.00    -0.207 F 
ATOM     14  C   UNL     1      -7.949   2.498   2.653  1.00  0.00    -0.045 A 
BRANCH  14  15
ATOM     15  C   UNL     1      -7.307   1.966   1.395  1.00  0.00     0.041 C 
BRANCH  15  16
ATOM     16  C   UNL     1      -5.781   2.182   1.216  1.00  0.00     0.022 C 
ATOM     17  C   UNL     1      -4.883   1.491   2.250  1.00  0.00     0.007 C 
ATOM     18  C   UNL     1      -5.263   3.624   1.253  1.00  0.00     0.117 C 
ATOM     19  C   UNL     1      -4.488   2.556   3.279  1.00  0.00     0.003 C 
ATOM     20  C   UNL     1      -4.955   3.897   2.720  1.00  0.00     0.032 C 
BRANCH  18  21
ATOM     21  O   UNL     1      -6.147   4.562   0.675  1.00  0.00    -0.393 OA
ATOM     22  H   UNL     1      -6.991   4.548   1.154  1.00  0.00     0.210 HD
ENDBRANCH  18  21
ENDBRANCH  15  16
ENDBRANCH  14  15
ENDBRANCH   6   8
ENDBRANCH   4   6
ENDBRANCH   3   4
ENDBRANCH   2   3
ENDBRANCH   1   2
BRANCH   1  23
ATOM     23  O   UNL     1     -12.958   1.763   6.170  1.00  0.00    -0.374 OA
BRANCH  23  24
ATOM     24  C   UNL     1     -12.704   2.845   5.271  1.00  0.00     0.202 C 
BRANCH  24  25
ATOM     25  C   UNL     1     -13.827   3.871   5.064  1.00  0.00     0.261 C 
BRANCH  25  26
ATOM     26  O   UNL     1     -14.116   4.636   6.250  1.00  0.00    -0.460 OA
BRANCH  26  27
ATOM     27  C   UNL     1     -15.372   4.482   6.732  1.00  0.00     0.338 C 
ATOM     28  O   UNL     1     -16.278   3.823   6.233  1.00  0.00    -0.246 OA
BRANCH  27  29
ATOM     29  C   UNL     1     -15.487   5.069   8.079  1.00  0.00     0.060 A 
ATOM     30  C   UNL     1     -15.909   4.229   9.118  1.00  0.00     0.016 A 
ATOM     31  C   UNL     1     -15.287   6.432   8.307  1.00  0.00     0.016 A 
ATOM     32  C   UNL     1     -16.177   4.756  10.379  1.00  0.00     0.010 A 
ATOM     33  C   UNL     1     -15.569   6.962   9.573  1.00  0.00     0.010 A 
ATOM     34  C   UNL     1     -16.049   6.133  10.603  1.00  0.00    -0.014 A 
BRANCH  34  35
ATOM     35  C   UNL     1     -16.563   6.714  11.868  1.00  0.00     0.031 A 
ATOM     36  C   UNL     1     -17.930   7.346  11.880  1.00  0.00     0.074 A 
ATOM     37  C   UNL     1     -15.845   6.641  13.003  1.00  0.00     0.049 A 
ATOM     38  N   UNL     1     -18.570   7.914  12.869  1.00  0.00    -0.248 NA
ATOM     39  C   UNL     1     -18.674   7.331  10.610  1.00  0.00     0.031 C 
ATOM     40  C   UNL     1     -14.530   6.014  13.133  1.00  0.00     0.029 A 
ATOM     41  N   UNL     1     -16.125   7.101  14.265  1.00  0.00    -0.354 N 
ATOM     42  C   UNL     1     -19.789   8.327  12.342  1.00  0.00     0.074 A 
ATOM     43  C   UNL     1     -19.786   7.970  10.940  1.00  0.00     0.031 C 
ATOM     44  C   UNL     1     -14.113   6.138  14.405  1.00  0.00     0.029 A 
ATOM     45  C   UNL     1     -15.116   6.875  15.171  1.00  0.00     0.049 A 
ATOM     46  H   UNL     1     -16.968   7.551  14.500  1.00  0.00     0.167 HD
ATOM     47  C   UNL     1     -20.821   8.941  12.969  1.00  0.00     0.031 A 
ATOM     48  C   UNL     1     -15.004   7.239  16.464  1.00  0.00     0.031 A 
ATOM     49  C   UNL     1     -20.817   9.312  14.360  1.00  0.00     0.049 A 
ATOM     50  C   UNL     1     -16.133   7.987  17.123  1.00  0.00     0.074 A 
ATOM     51  C   UNL     1     -21.816   9.936  15.087  1.00  0.00     0.029 A 
ATOM     52  N   UNL     1     -19.761   9.099  15.232  1.00  0.00    -0.354 N 
ATOM     53  N   UNL     1     -17.286   8.355  16.614  1.00  0.00    -0.248 NA
ATOM     54  C   UNL     1     -15.950   8.361  18.532  1.00  0.00     0.031 C 
ATOM     55  C   UNL     1     -21.343  10.146  16.387  1.00  0.00     0.029 A 
ATOM     56  C   UNL     1     -20.073   9.601  16.484  1.00  0.00     0.049 A 
ATOM     57  H   UNL     1     -18.913   8.657  14.996  1.00  0.00     0.167 HD
ATOM     58  C   UNL     1     -17.973   8.982  17.648  1.00  0.00     0.074 A 
ATOM     59  C   UNL     1     -17.114   8.932  18.813  1.00  0.00     0.031 C 
ATOM     60  C   UNL     1     -19.207   9.547  17.635  1.00  0.00     0.031 A 
BRANCH  47  61
ATOM     61  C   UNL     1     -22.031   9.281  12.141  1.00  0.00    -0.014 A 
ATOM     62  C   UNL     1     -22.914   8.280  11.698  1.00  0.00     0.010 A 
ATOM     63  C   UNL     1     -22.305  10.625  11.826  1.00  0.00     0.010 A 
ATOM     64  C   UNL     1     -24.028   8.612  10.922  1.00  0.00     0.020 A 
ATOM     65  C   UNL     1     -23.432  10.963  11.072  1.00  0.00     0.020 A 
ATOM     66  C   UNL     1     -24.277   9.952  10.610  1.00  0.00     0.054 A 
BRANCH  66  67
ATOM     67  S   UNL     1     -25.738  10.358   9.614  1.00  0.00     0.124 S 
ATOM     68  O   UNL     1     -25.328   9.912   8.284  1.00  0.00    -0.237 OA
ATOM     69  O   UNL     1     -26.789   9.565  10.246  1.00  0.00    -0.237 OA
ATOM     70  O   UNL     1     -25.873  11.804   9.770  1.00  0.00    -0.744 OA
ENDBRANCH  66  67
ENDBRANCH  47  61
BRANCH  48  71
ATOM     71  C   UNL     1     -13.761   6.919  17.218  1.00  0.00    -0.014 A 
ATOM     72  C   UNL     1     -13.765   5.955  18.240  1.00  0.00     0.010 A 
ATOM     73  C   UNL     1     -12.559   7.582  16.907  1.00  0.00     0.010 A 
ATOM     74  C   UNL     1     -12.593   5.668  18.947  1.00  0.00     0.020 A 
ATOM     75  C   UNL     1     -11.380   7.279  17.593  1.00  0.00     0.020 A 
ATOM     76  C   UNL     1     -11.407   6.331  18.616  1.00  0.00     0.054 A 
BRANCH  76  77
ATOM     77  S   UNL     1      -9.884   5.903  19.506  1.00  0.00     0.124 S 
ATOM     78  O   UNL     1     -10.089   6.560  20.793  1.00  0.00    -0.237 OA
ATOM     79  O   UNL     1      -9.928   4.443  19.524  1.00  0.00    -0.237 OA
ATOM     80  O   UNL     1      -8.830   6.475  18.671  1.00  0.00    -0.744 OA
ENDBRANCH  76  77
ENDBRANCH  48  71
BRANCH  60  81
ATOM     81  C   UNL     1     -19.719  10.130  18.925  1.00  0.00    -0.014 A 
ATOM     82  C   UNL     1     -19.210  11.338  19.433  1.00  0.00     0.010 A 
ATOM     83  C   UNL     1     -20.767   9.486  19.609  1.00  0.00     0.010 A 
ATOM     84  C   UNL     1     -19.720  11.877  20.617  1.00  0.00     0.020 A 
ATOM     85  C   UNL     1     -21.297  10.036  20.779  1.00  0.00     0.020 A 
ATOM     86  C   UNL     1     -20.760  11.221  21.284  1.00  0.00     0.054 A 
BRANCH  86  87
ATOM     87  S   UNL     1     -21.435  11.963  22.796  1.00  0.00     0.124 S 
ATOM     88  O   UNL     1     -20.390  11.667  23.772  1.00  0.00    -0.237 OA
ATOM     89  O   UNL     1     -21.573  13.371  22.430  1.00  0.00    -0.237 OA
ATOM     90  O   UNL     1     -22.696  11.252  22.997  1.00  0.00    -0.744 OA
ENDBRANCH  86  87
ENDBRANCH  60  81
ENDBRANCH  34  35
ENDBRANCH  27  29
ENDBRANCH  26  27
ENDBRANCH  25  26
ENDBRANCH  24  25
ENDBRANCH  23  24
ENDBRANCH   1  23
TORSDOF 21
