REMARK SMILES O=C1C[C@@H](C(=O)OCCOCCOC(=O)c2ccc(-c3c4nc(c(-c5ccc(S(=O)(=O)[O-])cc5)c5ccc([nH]5)c(-c5ccc(S(=O)(=O)[O-])cc5)c5nc(c(-c6ccc(S(=O)(=O)[O-])cc6)c6ccc3[nH]6)C=C5)C=C4)cc2)C2(CC[NH+](Cc3c[nH]nc3-c3ccc(Cl)cc3)CC2)N1
REMARK SMILES IDX 10 1 9 2 8 3 7 4 5 5 6 6 4 7 1 8 2 9 3 10 95 11 76 12 77 14
REMARK SMILES IDX 94 15 78 16 93 17 79 18 80 20 81 21 82 22 85 23 83 24 84 25
REMARK SMILES IDX 86 27 87 28 92 29 88 30 91 31 89 32 90 33 11 34 12 35 13 36
REMARK SMILES IDX 14 37 15 38 16 39 17 40 75 41 18 42 74 43 19 44 20 45 21 46
REMARK SMILES IDX 68 47 22 48 73 49 67 50 69 51 23 52 72 53 66 54 65 55 24 57
REMARK SMILES IDX 54 58 35 59 53 60 36 61 39 62 52 63 70 64 37 65 38 66 51 68
REMARK SMILES IDX 71 69 40 70 25 71 26 72 34 73 27 74 33 75 28 76 29 77 30 78
REMARK SMILES IDX 31 79 32 80 55 81 56 82 64 83 57 84 63 85 58 86 59 87 60 88
REMARK SMILES IDX 61 89 62 90 41 91 42 92 50 93 43 94 49 95 44 96 45 97 46 98
REMARK SMILES IDX 47 99 48 100
REMARK H PARENT 95 13 79 19 83 26 69 56 39 67
REMARK Flexibility Score: inf
ROOT
ATOM      1  O   UNL     1       4.799   3.003  -4.753  1.00  0.00    -0.374 OA
ENDROOT
BRANCH   1   2
ATOM      2  C   UNL     1       3.412   3.127  -4.446  1.00  0.00     0.202 C 
BRANCH   2   3
ATOM      3  C   UNL     1       2.714   1.885  -3.878  1.00  0.00     0.261 C 
BRANCH   3   4
ATOM      4  O   UNL     1       3.221   1.421  -2.611  1.00  0.00    -0.463 OA
BRANCH   4   5
ATOM      5  C   UNL     1       4.033   0.337  -2.668  1.00  0.00     0.311 C 
ATOM      6  O   UNL     1       4.454  -0.162  -3.708  1.00  0.00    -0.252 OA
BRANCH   5   7
ATOM      7  C   UNL     1       4.310  -0.321  -1.330  1.00  0.00     0.134 C 
ATOM      8  O   UNL     1       1.216  -0.944   0.350  1.00  0.00    -0.275 OA
ATOM      9  C   UNL     1       2.319  -0.609  -0.038  1.00  0.00     0.221 C 
ATOM     10  C   UNL     1       3.152  -1.309  -1.077  1.00  0.00     0.117 C 
ATOM     11  N   UNL     1       3.047   0.441   0.465  1.00  0.00    -0.349 N 
ATOM     12  C   UNL     1       4.419   0.477  -0.011  1.00  0.00     0.064 C 
ATOM     13  H   UNL     1       2.675   1.105   1.088  1.00  0.00     0.164 HD
ATOM     14  C   UNL     1       4.894   1.932  -0.080  1.00  0.00     0.091 C 
ATOM     15  C   UNL     1       5.285  -0.333   1.002  1.00  0.00     0.091 C 
ATOM     16  C   UNL     1       6.408   2.076  -0.157  1.00  0.00     0.264 C 
ATOM     17  C   UNL     1       6.780   0.006   1.016  1.00  0.00     0.264 C 
ATOM     18  N   UNL     1       7.098   1.422   0.938  1.00  0.00    -0.331 N 
ATOM     19  H   UNL     1       8.087   1.433   0.688  1.00  0.00     0.348 HD
BRANCH  18  20
ATOM     20  C   UNL     1       7.258   2.181   2.189  1.00  0.00     0.303 C 
BRANCH  20  21
ATOM     21  C   UNL     1       6.029   2.325   3.031  1.00  0.00     0.052 A 
ATOM     22  C   UNL     1       5.475   1.349   3.843  1.00  0.00     0.115 A 
ATOM     23  C   UNL     1       5.247   3.495   3.334  1.00  0.00     0.101 A 
ATOM     24  N   UNL     1       4.359   1.885   4.398  1.00  0.00    -0.285 N 
ATOM     25  N   UNL     1       4.212   3.182   4.131  1.00  0.00    -0.175 NA
ATOM     26  H   UNL     1       3.722   1.368   4.942  1.00  0.00     0.189 HD
BRANCH  23  27
ATOM     27  C   UNL     1       5.439   4.901   2.966  1.00  0.00     0.003 A 
ATOM     28  C   UNL     1       5.386   5.876   3.977  1.00  0.00     0.012 A 
ATOM     29  C   UNL     1       5.616   5.318   1.645  1.00  0.00     0.012 A 
ATOM     30  C   UNL     1       5.512   7.235   3.674  1.00  0.00     0.021 A 
ATOM     31  C   UNL     1       5.753   6.678   1.339  1.00  0.00     0.021 A 
ATOM     32  C   UNL     1       5.695   7.630   2.353  1.00  0.00     0.041 A 
ATOM     33  Cl  UNL     1       5.835   9.298   1.968  1.00  0.00    -0.084 Cl
ENDBRANCH  23  27
ENDBRANCH  20  21
ENDBRANCH  18  20
ENDBRANCH   5   7
ENDBRANCH   4   5
ENDBRANCH   3   4
ENDBRANCH   2   3
ENDBRANCH   1   2
BRANCH   1  34
ATOM     34  C   UNL     1       5.722   3.090  -3.669  1.00  0.00     0.202 C 
BRANCH  34  35
ATOM     35  C   UNL     1       5.812   4.458  -2.988  1.00  0.00     0.261 C 
BRANCH  35  36
ATOM     36  O   UNL     1       4.612   4.725  -2.242  1.00  0.00    -0.460 OA
BRANCH  36  37
ATOM     37  C   UNL     1       4.366   6.046  -2.084  1.00  0.00     0.338 C 
ATOM     38  O   UNL     1       5.158   6.957  -2.248  1.00  0.00    -0.246 OA
BRANCH  37  39
ATOM     39  C   UNL     1       2.929   6.256  -1.849  1.00  0.00     0.060 A 
ATOM     40  C   UNL     1       2.150   6.671  -2.934  1.00  0.00     0.016 A 
ATOM     41  C   UNL     1       2.385   6.182  -0.566  1.00  0.00     0.016 A 
ATOM     42  C   UNL     1       0.834   7.080  -2.724  1.00  0.00     0.010 A 
ATOM     43  C   UNL     1       1.063   6.591  -0.359  1.00  0.00     0.010 A 
ATOM     44  C   UNL     1       0.297   7.087  -1.429  1.00  0.00    -0.014 A 
BRANCH  44  45
ATOM     45  C   UNL     1      -1.012   7.742  -1.191  1.00  0.00     0.031 A 
ATOM     46  C   UNL     1      -1.047   9.154  -0.668  1.00  0.00     0.074 A 
ATOM     47  C   UNL     1      -2.159   7.101  -1.481  1.00  0.00     0.049 A 
ATOM     48  N   UNL     1      -2.077   9.936  -0.469  1.00  0.00    -0.248 NA
ATOM     49  C   UNL     1       0.248   9.765  -0.327  1.00  0.00     0.031 C 
ATOM     50  C   UNL     1      -2.255   5.737  -1.998  1.00  0.00     0.029 A 
ATOM     51  N   UNL     1      -3.463   7.518  -1.383  1.00  0.00    -0.354 N 
ATOM     52  C   UNL     1      -1.557  11.130   0.020  1.00  0.00     0.074 A 
ATOM     53  C   UNL     1      -0.123  10.958   0.116  1.00  0.00     0.031 C 
ATOM     54  C   UNL     1      -3.552   5.427  -2.170  1.00  0.00     0.029 A 
ATOM     55  C   UNL     1      -4.376   6.564  -1.762  1.00  0.00     0.049 A 
ATOM     56  H   UNL     1      -3.720   8.416  -1.072  1.00  0.00     0.167 HD
ATOM     57  C   UNL     1      -2.212  12.268   0.352  1.00  0.00     0.031 A 
ATOM     58  C   UNL     1      -5.723   6.598  -1.772  1.00  0.00     0.031 A 
ATOM     59  C   UNL     1      -3.640  12.430   0.275  1.00  0.00     0.049 A 
ATOM     60  C   UNL     1      -6.433   7.861  -1.365  1.00  0.00     0.074 A 
ATOM     61  C   UNL     1      -4.395  13.556   0.553  1.00  0.00     0.029 A 
ATOM     62  N   UNL     1      -4.530  11.433  -0.093  1.00  0.00    -0.354 N 
ATOM     63  N   UNL     1      -5.921   9.003  -0.973  1.00  0.00    -0.248 NA
ATOM     64  C   UNL     1      -7.902   7.844  -1.417  1.00  0.00     0.031 C 
ATOM     65  C   UNL     1      -5.747  13.223   0.407  1.00  0.00     0.029 A 
ATOM     66  C   UNL     1      -5.830  11.906  -0.016  1.00  0.00     0.049 A 
ATOM     67  H   UNL     1      -4.276  10.522  -0.367  1.00  0.00     0.167 HD
ATOM     68  C   UNL     1      -7.004   9.847  -0.749  1.00  0.00     0.074 A 
ATOM     69  C   UNL     1      -8.197   9.089  -1.065  1.00  0.00     0.031 C 
ATOM     70  C   UNL     1      -7.009  11.135  -0.323  1.00  0.00     0.031 A 
BRANCH  57  71
ATOM     71  C   UNL     1      -1.387  13.420   0.864  1.00  0.00    -0.014 A 
ATOM     72  C   UNL     1      -0.555  14.161   0.005  1.00  0.00     0.010 A 
ATOM     73  C   UNL     1      -1.466  13.784   2.221  1.00  0.00     0.010 A 
ATOM     74  C   UNL     1       0.214  15.218   0.502  1.00  0.00     0.020 A 
ATOM     75  C   UNL     1      -0.717  14.855   2.717  1.00  0.00     0.020 A 
ATOM     76  C   UNL     1       0.133  15.554   1.857  1.00  0.00     0.054 A 
BRANCH  76  77
ATOM     77  S   UNL     1       1.133  16.936   2.475  1.00  0.00     0.124 S 
ATOM     78  O   UNL     1       2.471  16.352   2.504  1.00  0.00    -0.237 OA
ATOM     79  O   UNL     1       0.919  17.966   1.462  1.00  0.00    -0.237 OA
ATOM     80  O   UNL     1       0.552  17.226   3.784  1.00  0.00    -0.744 OA
ENDBRANCH  76  77
ENDBRANCH  57  71
BRANCH  58  81
ATOM     81  C   UNL     1      -6.483   5.386  -2.182  1.00  0.00    -0.014 A 
ATOM     82  C   UNL     1      -7.158   5.339  -3.413  1.00  0.00     0.010 A 
ATOM     83  C   UNL     1      -6.505   4.254  -1.345  1.00  0.00     0.010 A 
ATOM     84  C   UNL     1      -7.843   4.182  -3.800  1.00  0.00     0.020 A 
ATOM     85  C   UNL     1      -7.168   3.089  -1.739  1.00  0.00     0.020 A 
ATOM     86  C   UNL     1      -7.839   3.063  -2.963  1.00  0.00     0.054 A 
BRANCH  86  87
ATOM     87  S   UNL     1      -8.668   1.547  -3.519  1.00  0.00     0.124 S 
ATOM     88  O   UNL     1     -10.076   1.886  -3.333  1.00  0.00    -0.237 OA
ATOM     89  O   UNL     1      -8.222   1.433  -4.905  1.00  0.00    -0.237 OA
ATOM     90  O   UNL     1      -8.145   0.522  -2.619  1.00  0.00    -0.744 OA
ENDBRANCH  86  87
ENDBRANCH  58  81
BRANCH  70  91
ATOM     91  C   UNL     1      -8.345  11.815  -0.186  1.00  0.00    -0.014 A 
ATOM     92  C   UNL     1      -9.217  11.498   0.870  1.00  0.00     0.010 A 
ATOM     93  C   UNL     1      -8.709  12.826  -1.095  1.00  0.00     0.010 A 
ATOM     94  C   UNL     1     -10.443  12.159   0.998  1.00  0.00     0.020 A 
ATOM     95  C   UNL     1      -9.921  13.506  -0.957  1.00  0.00     0.020 A 
ATOM     96  C   UNL     1     -10.788  13.158   0.082  1.00  0.00     0.054 A 
BRANCH  96  97
ATOM     97  S   UNL     1     -12.364  14.031   0.291  1.00  0.00     0.124 S 
ATOM     98  O   UNL     1     -13.325  13.041  -0.186  1.00  0.00    -0.237 OA
ATOM     99  O   UNL     1     -12.397  14.298   1.727  1.00  0.00    -0.237 OA
ATOM    100  O   UNL     1     -12.219  15.215  -0.553  1.00  0.00    -0.744 OA
ENDBRANCH  96  97
ENDBRANCH  70  91
ENDBRANCH  44  45
ENDBRANCH  37  39
ENDBRANCH  36  37
ENDBRANCH  35  36
ENDBRANCH  34  35
ENDBRANCH   1  34
TORSDOF 20
