REMARK SMILES CCCCCCNC(=O)Oc1cccc(-c2ccc([C@@H](C)C(=O)OCCOCCOC(=O)c3ccc(-c4c5nc(c(-c6ccc(S(=O)(=O)[O-])cc6)c6ccc([nH]6)c(-c6ccc(S(=O)(=O)[O-])cc6)c6nc(c(-c7ccc(S(=O)(=O)[O-])cc7)c7ccc4[nH]7)C=C6)C=C5)cc3)cc2N)c1
REMARK SMILES IDX 24 1 22 2 23 3 20 4 21 5 19 6 16 7 17 8 94 9 18 10 93 11
REMARK SMILES IDX 15 12 11 13 12 14 96 15 13 16 14 17 10 18 8 19 7 20 9 22
REMARK SMILES IDX 6 23 5 24 4 25 3 26 2 27 1 28 95 29 25 32 26 33 27 34 28 35
REMARK SMILES IDX 29 36 30 37 31 38 32 39 33 40 34 41 92 42 35 43 91 44 36 45
REMARK SMILES IDX 37 46 38 47 85 48 39 49 90 50 84 51 86 52 40 53 89 54 83 55
REMARK SMILES IDX 82 56 41 58 71 59 52 60 70 61 53 62 56 63 69 64 87 65 54 66
REMARK SMILES IDX 55 67 68 69 88 70 57 71 42 72 43 73 51 74 44 75 50 76 45 77
REMARK SMILES IDX 46 78 47 79 48 80 49 81 72 82 73 83 81 84 74 85 80 86 75 87
REMARK SMILES IDX 76 88 77 89 78 90 79 91 58 92 59 93 67 94 60 95 66 96 61 97
REMARK SMILES IDX 62 98 63 99 64 100 65 101
REMARK H PARENT 7 21 95 30 95 31 86 57 56 68
REMARK Flexibility Score: inf
ROOT
ATOM      1  O   UNL     1      -3.873  11.739   9.431  1.00  0.00    -0.463 OA
ENDROOT
BRANCH   1   2
ATOM      2  C   UNL     1      -4.392  12.448   8.397  1.00  0.00     0.313 C 
ATOM      3  O   UNL     1      -4.099  13.611   8.134  1.00  0.00    -0.252 OA
BRANCH   2   4
ATOM      4  C   UNL     1      -5.419  11.682   7.577  1.00  0.00     0.126 C 
ATOM      5  C   UNL     1      -6.820  12.063   8.045  1.00  0.00     0.025 C 
BRANCH   4   6
ATOM      6  C   UNL     1      -5.252  10.171   7.442  1.00  0.00    -0.032 A 
ATOM      7  C   UNL     1      -5.183   7.346   7.033  1.00  0.00     0.005 A 
ATOM      8  C   UNL     1      -5.346   7.906   8.316  1.00  0.00     0.011 A 
ATOM      9  C   UNL     1      -4.997   8.227   5.944  1.00  0.00     0.040 A 
ATOM     10  C   UNL     1      -5.386   9.292   8.519  1.00  0.00     0.005 A 
ATOM     11  C   UNL     1      -5.043   9.616   6.166  1.00  0.00     0.030 A 
BRANCH   7  12
ATOM     12  C   UNL     1      -5.258   5.875   6.867  1.00  0.00    -0.013 A 
ATOM     13  C   UNL     1      -4.356   3.769   6.051  1.00  0.00     0.133 A 
ATOM     14  C   UNL     1      -5.511   3.092   6.438  1.00  0.00     0.047 A 
ATOM     15  C   UNL     1      -4.218   5.143   6.267  1.00  0.00     0.056 A 
ATOM     16  C   UNL     1      -6.535   3.795   7.064  1.00  0.00     0.004 A 
ATOM     17  C   UNL     1      -6.411   5.173   7.269  1.00  0.00     0.009 A 
BRANCH  13  18
ATOM     18  O   UNL     1      -3.418   3.024   5.311  1.00  0.00    -0.410 OA
BRANCH  18  19
ATOM     19  C   UNL     1      -2.067   3.129   5.599  1.00  0.00     0.412 C 
ATOM     20  N   UNL     1      -1.277   2.386   4.767  1.00  0.00    -0.321 N 
ATOM     21  H   UNL     1      -0.308   2.416   4.941  1.00  0.00     0.167 HD
ATOM     22  O   UNL     1      -1.574   3.806   6.498  1.00  0.00    -0.224 OA
BRANCH  20  23
ATOM     23  C   UNL     1      -1.708   1.559   3.657  1.00  0.00     0.119 C 
BRANCH  23  24
ATOM     24  C   UNL     1      -1.121   2.036   2.326  1.00  0.00     0.021 C 
BRANCH  24  25
ATOM     25  C   UNL     1       0.408   1.950   2.226  1.00  0.00     0.002 C 
BRANCH  25  26
ATOM     26  C   UNL     1       1.003   0.546   2.381  1.00  0.00    -0.000 C 
BRANCH  26  27
ATOM     27  C   UNL     1       0.530  -0.486   1.353  1.00  0.00    -0.003 C 
ATOM     28  C   UNL     1       0.919  -0.137  -0.075  1.00  0.00     0.004 C 
ENDBRANCH  26  27
ENDBRANCH  25  26
ENDBRANCH  24  25
ENDBRANCH  23  24
ENDBRANCH  20  23
ENDBRANCH  18  19
ENDBRANCH  13  18
ENDBRANCH   7  12
BRANCH   9  29
ATOM     29  N   UNL     1      -4.927   7.783   4.623  1.00  0.00    -0.398 N 
ATOM     30  H   UNL     1      -4.893   6.818   4.430  1.00  0.00     0.156 HD
ATOM     31  H   UNL     1      -4.911   8.434   3.885  1.00  0.00     0.156 HD
ENDBRANCH   9  29
ENDBRANCH   4   6
ENDBRANCH   2   4
ENDBRANCH   1   2
BRANCH   1  32
ATOM     32  C   UNL     1      -2.799  12.368  10.153  1.00  0.00     0.261 C 
BRANCH  32  33
ATOM     33  C   UNL     1      -1.487  11.598   9.983  1.00  0.00     0.202 C 
BRANCH  33  34
ATOM     34  O   UNL     1      -0.922  11.579   8.672  1.00  0.00    -0.374 OA
BRANCH  34  35
ATOM     35  C   UNL     1      -1.530  10.724   7.703  1.00  0.00     0.202 C 
BRANCH  35  36
ATOM     36  C   UNL     1      -1.254   9.220   7.816  1.00  0.00     0.261 C 
BRANCH  36  37
ATOM     37  O   UNL     1      -1.753   8.648   9.036  1.00  0.00    -0.460 OA
BRANCH  37  38
ATOM     38  C   UNL     1      -0.789   8.286   9.916  1.00  0.00     0.338 C 
ATOM     39  O   UNL     1       0.418   8.357   9.754  1.00  0.00    -0.246 OA
BRANCH  38  40
ATOM     40  C   UNL     1      -1.383   7.957  11.227  1.00  0.00     0.060 A 
ATOM     41  C   UNL     1      -0.811   8.567  12.350  1.00  0.00     0.016 A 
ATOM     42  C   UNL     1      -2.399   7.010  11.375  1.00  0.00     0.016 A 
ATOM     43  C   UNL     1      -1.192   8.173  13.629  1.00  0.00     0.010 A 
ATOM     44  C   UNL     1      -2.782   6.614  12.664  1.00  0.00     0.010 A 
ATOM     45  C   UNL     1      -2.142   7.157  13.795  1.00  0.00    -0.014 A 
BRANCH  45  46
ATOM     46  C   UNL     1      -2.310   6.558  15.144  1.00  0.00     0.031 A 
ATOM     47  C   UNL     1      -1.620   5.253  15.452  1.00  0.00     0.074 A 
ATOM     48  C   UNL     1      -2.977   7.212  16.113  1.00  0.00     0.049 A 
ATOM     49  N   UNL     1      -1.565   4.591  16.580  1.00  0.00    -0.248 NA
ATOM     50  C   UNL     1      -0.887   4.615  14.346  1.00  0.00     0.031 C 
ATOM     51  C   UNL     1      -3.641   8.506  15.957  1.00  0.00     0.029 A 
ATOM     52  N   UNL     1      -3.189   6.882  17.428  1.00  0.00    -0.354 N 
ATOM     53  C   UNL     1      -0.792   3.464  16.320  1.00  0.00     0.074 A 
ATOM     54  C   UNL     1      -0.434   3.510  14.920  1.00  0.00     0.031 C 
ATOM     55  C   UNL     1      -4.175   8.867  17.137  1.00  0.00     0.029 A 
ATOM     56  C   UNL     1      -3.915   7.820  18.123  1.00  0.00     0.049 A 
ATOM     57  H   UNL     1      -2.852   6.052  17.836  1.00  0.00     0.167 HD
ATOM     58  C   UNL     1      -0.400   2.486  17.172  1.00  0.00     0.031 A 
ATOM     59  C   UNL     1      -4.329   7.830  19.406  1.00  0.00     0.031 A 
ATOM     60  C   UNL     1      -0.764   2.432  18.563  1.00  0.00     0.049 A 
ATOM     61  C   UNL     1      -3.954   6.686  20.312  1.00  0.00     0.074 A 
ATOM     62  C   UNL     1      -0.419   1.481  19.507  1.00  0.00     0.029 A 
ATOM     63  N   UNL     1      -1.560   3.366  19.209  1.00  0.00    -0.354 N 
ATOM     64  N   UNL     1      -3.209   5.637  20.053  1.00  0.00    -0.248 NA
ATOM     65  C   UNL     1      -4.469   6.733  21.688  1.00  0.00     0.031 C 
ATOM     66  C   UNL     1      -1.050   1.811  20.711  1.00  0.00     0.029 A 
ATOM     67  C   UNL     1      -1.738   3.001  20.533  1.00  0.00     0.049 A 
ATOM     68  H   UNL     1      -1.941   4.171  18.789  1.00  0.00     0.167 HD
ATOM     69  C   UNL     1      -3.144   4.915  21.241  1.00  0.00     0.074 A 
ATOM     70  C   UNL     1      -3.910   5.655  22.223  1.00  0.00     0.031 C 
ATOM     71  C   UNL     1      -2.506   3.746  21.498  1.00  0.00     0.031 A 
BRANCH  58  72
ATOM     72  C   UNL     1       0.452   1.377  16.611  1.00  0.00    -0.014 A 
ATOM     73  C   UNL     1       1.794   1.601  16.252  1.00  0.00     0.010 A 
ATOM     74  C   UNL     1      -0.085   0.084  16.476  1.00  0.00     0.010 A 
ATOM     75  C   UNL     1       2.571   0.561  15.733  1.00  0.00     0.020 A 
ATOM     76  C   UNL     1       0.697  -0.965  15.983  1.00  0.00     0.020 A 
ATOM     77  C   UNL     1       2.016  -0.715  15.600  1.00  0.00     0.054 A 
BRANCH  77  78
ATOM     78  S   UNL     1       3.054  -2.052  14.947  1.00  0.00     0.124 S 
ATOM     79  O   UNL     1       3.151  -1.696  13.533  1.00  0.00    -0.237 OA
ATOM     80  O   UNL     1       4.287  -1.907  15.716  1.00  0.00    -0.237 OA
ATOM     81  O   UNL     1       2.284  -3.261  15.232  1.00  0.00    -0.744 OA
ENDBRANCH  77  78
ENDBRANCH  58  72
BRANCH  59  82
ATOM     82  C   UNL     1      -5.159   8.957  19.916  1.00  0.00    -0.014 A 
ATOM     83  C   UNL     1      -4.652   9.850  20.876  1.00  0.00     0.010 A 
ATOM     84  C   UNL     1      -6.478   9.127  19.455  1.00  0.00     0.010 A 
ATOM     85  C   UNL     1      -5.455  10.877  21.383  1.00  0.00     0.020 A 
ATOM     86  C   UNL     1      -7.274  10.169  19.938  1.00  0.00     0.020 A 
ATOM     87  C   UNL     1      -6.761  11.029  20.911  1.00  0.00     0.054 A 
BRANCH  87  88
ATOM     88  S   UNL     1      -7.775  12.388  21.556  1.00  0.00     0.124 S 
ATOM     89  O   UNL     1      -8.108  11.910  22.894  1.00  0.00    -0.237 OA
ATOM     90  O   UNL     1      -6.857  13.523  21.499  1.00  0.00    -0.237 OA
ATOM     91  O   UNL     1      -8.894  12.455  20.618  1.00  0.00    -0.744 OA
ENDBRANCH  87  88
ENDBRANCH  59  82
BRANCH  71  92
ATOM     92  C   UNL     1      -2.582   3.207  22.903  1.00  0.00    -0.014 A 
ATOM     93  C   UNL     1      -3.774   2.662  23.412  1.00  0.00     0.010 A 
ATOM     94  C   UNL     1      -1.429   3.205  23.710  1.00  0.00     0.010 A 
ATOM     95  C   UNL     1      -3.821   2.158  24.715  1.00  0.00     0.020 A 
ATOM     96  C   UNL     1      -1.465   2.676  25.003  1.00  0.00     0.020 A 
ATOM     97  C   UNL     1      -2.666   2.170  25.503  1.00  0.00     0.054 A 
BRANCH  97  98
ATOM     98  S   UNL     1      -2.744   1.478  27.178  1.00  0.00     0.124 S 
ATOM     99  O   UNL     1      -3.482   2.511  27.900  1.00  0.00    -0.237 OA
ATOM    100  O   UNL     1      -3.461   0.221  26.973  1.00  0.00    -0.237 OA
ATOM    101  O   UNL     1      -1.341   1.333  27.559  1.00  0.00    -0.744 OA
ENDBRANCH  97  98
ENDBRANCH  71  92
ENDBRANCH  45  46
ENDBRANCH  38  40
ENDBRANCH  37  38
ENDBRANCH  36  37
ENDBRANCH  35  36
ENDBRANCH  34  35
ENDBRANCH  33  34
ENDBRANCH  32  33
ENDBRANCH   1  32
TORSDOF 27
