REMARK SMILES C[C@](NC(=O)[C@](C)([NH3+])C(F)(F)F)(C(=O)OCCOCCOC(=O)c1ccc(-c2c3nc(c(-c4ccc(S(=O)(=O)[O-])cc4)c4ccc([nH]4)c(-c4ccc(S(=O)(=O)[O-])cc4)c4nc(c(-c5ccc(S(=O)(=O)[O-])cc5)c5ccc2[nH]5)C=C4)C=C3)cc1)c1ccccc1
REMARK SMILES IDX 18 1 17 2 16 3 15 4 13 5 14 6 2 7 1 8 84 9 85 10 89 11 86 12
REMARK SMILES IDX 88 13 87 14 3 15 4 16 5 18 6 19 7 20 8 21 9 25 10 26 11 27
REMARK SMILES IDX 12 28 19 29 20 30 21 31 22 32 23 33 24 34 25 35 83 36 26 37
REMARK SMILES IDX 82 38 27 39 28 40 29 41 76 42 30 43 81 44 75 45 77 46 31 47
REMARK SMILES IDX 80 48 74 49 73 50 32 52 62 53 43 54 61 55 44 56 47 57 60 58
REMARK SMILES IDX 78 59 45 60 46 61 59 63 79 64 48 65 33 66 34 67 42 68 35 69
REMARK SMILES IDX 41 70 36 71 37 72 38 73 39 74 40 75 63 76 64 77 72 78 65 79
REMARK SMILES IDX 71 80 66 81 67 82 68 83 69 84 70 85 49 86 50 87 58 88 51 89
REMARK SMILES IDX 57 90 52 91 53 92 54 93 55 94 56 95
REMARK H PARENT 3 17 8 22 8 23 8 24 77 51 47 62
REMARK Flexibility Score: inf
ROOT
ATOM      1  O   UNL     1       0.928  -3.437  -6.096  1.00  0.00    -0.374 OA
ENDROOT
BRANCH   1   2
ATOM      2  C   UNL     1       0.828  -2.135  -5.504  1.00  0.00     0.202 C 
BRANCH   2   3
ATOM      3  C   UNL     1      -0.282  -1.980  -4.452  1.00  0.00     0.261 C 
BRANCH   3   4
ATOM      4  O   UNL     1       0.038  -2.548  -3.148  1.00  0.00    -0.461 OA
BRANCH   4   5
ATOM      5  C   UNL     1      -0.984  -3.219  -2.556  1.00  0.00     0.336 C 
ATOM      6  O   UNL     1      -2.030  -3.483  -3.153  1.00  0.00    -0.249 OA
BRANCH   5   7
ATOM      7  C   UNL     1      -0.774  -3.644  -1.035  1.00  0.00     0.161 C 
ATOM      8  C   UNL     1      -1.933  -2.795  -0.403  1.00  0.00     0.053 C 
BRANCH   7   9
ATOM      9  C   UNL     1      -1.095  -5.158  -0.864  1.00  0.00    -0.012 A 
ATOM     10  C   UNL     1      -1.455  -5.685   0.390  1.00  0.00     0.007 A 
ATOM     11  C   UNL     1      -1.005  -6.066  -1.941  1.00  0.00     0.007 A 
ATOM     12  C   UNL     1      -1.726  -7.047   0.554  1.00  0.00     0.000 A 
ATOM     13  C   UNL     1      -1.264  -7.428  -1.774  1.00  0.00     0.000 A 
ATOM     14  C   UNL     1      -1.627  -7.918  -0.526  1.00  0.00     0.000 A 
ENDBRANCH   7   9
BRANCH   7  15
ATOM     15  N   UNL     1       0.388  -3.327  -0.118  1.00  0.00    -0.331 N 
ATOM     16  C   UNL     1       1.713  -3.585   0.032  1.00  0.00     0.291 C 
ATOM     17  H   UNL     1       0.082  -2.738   0.610  1.00  0.00     0.165 HD
ATOM     18  O   UNL     1       2.098  -3.601   1.208  1.00  0.00    -0.267 OA
BRANCH  16  19
ATOM     19  C   UNL     1       2.693  -3.753  -1.126  1.00  0.00     0.267 C 
ATOM     20  C   UNL     1       2.224  -4.920  -1.982  1.00  0.00     0.100 C 
BRANCH  19  21
ATOM     21  N   UNL     1       4.053  -4.194  -0.635  1.00  0.00    -0.337 N 
ATOM     22  H   UNL     1       4.684  -4.298  -1.430  1.00  0.00     0.345 HD
ATOM     23  H   UNL     1       3.967  -5.088  -0.151  1.00  0.00     0.345 HD
ATOM     24  H   UNL     1       4.427  -3.495   0.006  1.00  0.00     0.345 HD
ENDBRANCH  19  21
BRANCH  19  25
ATOM     25  C   UNL     1       2.737  -2.352  -1.796  1.00  0.00     0.453 C 
ATOM     26  F   UNL     1       2.686  -2.468  -3.135  1.00  0.00    -0.164 F 
ATOM     27  F   UNL     1       1.743  -1.511  -1.441  1.00  0.00    -0.164 F 
ATOM     28  F   UNL     1       3.899  -1.706  -1.519  1.00  0.00    -0.164 F 
ENDBRANCH  19  25
ENDBRANCH  16  19
ENDBRANCH   7  15
ENDBRANCH   5   7
ENDBRANCH   4   5
ENDBRANCH   3   4
ENDBRANCH   2   3
ENDBRANCH   1   2
BRANCH   1  29
ATOM     29  C   UNL     1       1.650  -4.393  -5.327  1.00  0.00     0.202 C 
BRANCH  29  30
ATOM     30  C   UNL     1       3.162  -4.454  -5.598  1.00  0.00     0.261 C 
BRANCH  30  31
ATOM     31  O   UNL     1       3.820  -3.267  -5.119  1.00  0.00    -0.460 OA
BRANCH  31  32
ATOM     32  C   UNL     1       4.208  -2.405  -6.091  1.00  0.00     0.338 C 
ATOM     33  O   UNL     1       4.288  -2.656  -7.274  1.00  0.00    -0.246 OA
BRANCH  32  34
ATOM     34  C   UNL     1       4.344  -1.022  -5.560  1.00  0.00     0.060 A 
ATOM     35  C   UNL     1       3.894  -0.006  -6.408  1.00  0.00     0.016 A 
ATOM     36  C   UNL     1       4.916  -0.693  -4.328  1.00  0.00     0.016 A 
ATOM     37  C   UNL     1       4.134   1.328  -6.096  1.00  0.00     0.010 A 
ATOM     38  C   UNL     1       5.124   0.659  -3.996  1.00  0.00     0.010 A 
ATOM     39  C   UNL     1       4.816   1.673  -4.922  1.00  0.00    -0.014 A 
BRANCH  39  40
ATOM     40  C   UNL     1       5.397   3.045  -4.848  1.00  0.00     0.031 A 
ATOM     41  C   UNL     1       6.880   3.217  -5.090  1.00  0.00     0.074 A 
ATOM     42  C   UNL     1       4.611   4.137  -4.766  1.00  0.00     0.049 A 
ATOM     43  N   UNL     1       7.560   4.311  -5.330  1.00  0.00    -0.248 NA
ATOM     44  C   UNL     1       7.703   1.998  -5.070  1.00  0.00     0.031 C 
ATOM     45  C   UNL     1       3.161   4.125  -4.571  1.00  0.00     0.029 A 
ATOM     46  N   UNL     1       4.920   5.472  -4.889  1.00  0.00    -0.354 N 
ATOM     47  C   UNL     1       8.882   3.908  -5.493  1.00  0.00     0.074 A 
ATOM     48  C   UNL     1       8.918   2.481  -5.272  1.00  0.00     0.031 C 
ATOM     49  C   UNL     1       2.700   5.386  -4.636  1.00  0.00     0.029 A 
ATOM     50  C   UNL     1       3.821   6.300  -4.860  1.00  0.00     0.049 A 
ATOM     51  H   UNL     1       5.841   5.804  -4.989  1.00  0.00     0.167 HD
ATOM     52  C   UNL     1       9.971   4.644  -5.818  1.00  0.00     0.031 A 
ATOM     53  C   UNL     1       3.721   7.636  -5.018  1.00  0.00     0.031 A 
ATOM     54  C   UNL     1       9.952   6.064  -6.037  1.00  0.00     0.049 A 
ATOM     55  C   UNL     1       4.954   8.447  -5.326  1.00  0.00     0.074 A 
ATOM     56  C   UNL     1      11.002   6.894  -6.388  1.00  0.00     0.029 A 
ATOM     57  N   UNL     1       8.829   6.867  -5.915  1.00  0.00    -0.354 N 
ATOM     58  N   UNL     1       6.186   8.038  -5.522  1.00  0.00    -0.248 NA
ATOM     59  C   UNL     1       4.777   9.901  -5.455  1.00  0.00     0.031 C 
ATOM     60  C   UNL     1      10.526   8.209  -6.420  1.00  0.00     0.029 A 
ATOM     61  C   UNL     1       9.166   8.188  -6.157  1.00  0.00     0.049 A 
ATOM     62  H   UNL     1       7.926   6.546  -5.690  1.00  0.00     0.167 HD
ATOM     63  C   UNL     1       6.920   9.180  -5.836  1.00  0.00     0.074 A 
ATOM     64  C   UNL     1       5.993  10.292  -5.810  1.00  0.00     0.031 C 
ATOM     65  C   UNL     1       8.239   9.292  -6.130  1.00  0.00     0.031 A 
BRANCH  52  66
ATOM     66  C   UNL     1      11.288   3.918  -5.914  1.00  0.00    -0.014 A 
ATOM     67  C   UNL     1      11.554   3.011  -6.958  1.00  0.00     0.010 A 
ATOM     68  C   UNL     1      12.275   4.146  -4.939  1.00  0.00     0.010 A 
ATOM     69  C   UNL     1      12.758   2.303  -6.990  1.00  0.00     0.020 A 
ATOM     70  C   UNL     1      13.494   3.463  -4.985  1.00  0.00     0.020 A 
ATOM     71  C   UNL     1      13.717   2.528  -5.998  1.00  0.00     0.054 A 
BRANCH  71  72
ATOM     72  S   UNL     1      15.268   1.588  -6.054  1.00  0.00     0.124 S 
ATOM     73  O   UNL     1      14.829   0.260  -5.632  1.00  0.00    -0.237 OA
ATOM     74  O   UNL     1      15.662   1.703  -7.455  1.00  0.00    -0.237 OA
ATOM     75  O   UNL     1      16.132   2.288  -5.107  1.00  0.00    -0.744 OA
ENDBRANCH  71  72
ENDBRANCH  52  66
BRANCH  53  76
ATOM     76  C   UNL     1       2.390   8.300  -4.913  1.00  0.00    -0.014 A 
ATOM     77  C   UNL     1       1.773   8.867  -6.043  1.00  0.00     0.010 A 
ATOM     78  C   UNL     1       1.734   8.374  -3.671  1.00  0.00     0.010 A 
ATOM     79  C   UNL     1       0.533   9.505  -5.931  1.00  0.00     0.020 A 
ATOM     80  C   UNL     1       0.482   8.987  -3.559  1.00  0.00     0.020 A 
ATOM     81  C   UNL     1      -0.107   9.556  -4.689  1.00  0.00     0.054 A 
BRANCH  81  82
ATOM     82  S   UNL     1      -1.743  10.335  -4.577  1.00  0.00     0.124 S 
ATOM     83  O   UNL     1      -1.418  11.750  -4.719  1.00  0.00    -0.237 OA
ATOM     84  O   UNL     1      -2.455   9.732  -5.701  1.00  0.00    -0.237 OA
ATOM     85  O   UNL     1      -2.224   9.931  -3.258  1.00  0.00    -0.744 OA
ENDBRANCH  81  82
ENDBRANCH  53  76
BRANCH  65  86
ATOM     86  C   UNL     1       8.763  10.657  -6.500  1.00  0.00    -0.014 A 
ATOM     87  C   UNL     1       8.885  11.684  -5.548  1.00  0.00     0.010 A 
ATOM     88  C   UNL     1       9.188  10.896  -7.821  1.00  0.00     0.010 A 
ATOM     89  C   UNL     1       9.381  12.938  -5.920  1.00  0.00     0.020 A 
ATOM     90  C   UNL     1       9.713  12.137  -8.190  1.00  0.00     0.020 A 
ATOM     91  C   UNL     1       9.789  13.157  -7.240  1.00  0.00     0.054 A 
BRANCH  91  92
ATOM     92  S   UNL     1      10.452  14.784  -7.694  1.00  0.00     0.124 S 
ATOM     93  O   UNL     1       9.245  15.606  -7.724  1.00  0.00    -0.237 OA
ATOM     94  O   UNL     1      11.380  15.069  -6.602  1.00  0.00    -0.237 OA
ATOM     95  O   UNL     1      11.081  14.552  -8.993  1.00  0.00    -0.744 OA
ENDBRANCH  91  92
ENDBRANCH  65  86
ENDBRANCH  39  40
ENDBRANCH  32  34
ENDBRANCH  31  32
ENDBRANCH  30  31
ENDBRANCH  29  30
ENDBRANCH   1  29
TORSDOF 22
