REMARK SMILES C[C@@H](C(=O)OCCOCCOC(=O)c1ccc(-c2c3nc(c(-c4ccc(S(=O)(=O)[O-])cc4)c4ccc([nH]4)c(-c4ccc(S(=O)(=O)[O-])cc4)c4nc(c(-c5ccc(S(=O)(=O)[O-])cc5)c5ccc2[nH]5)C=C4)C=C3)cc1)c1cc(/C=C/S(C)(=O)=O)cc(C(=O)c2ccccc2)c1
REMARK SMILES IDX 8 1 7 2 6 3 5 4 3 5 4 6 2 7 1 8 74 9 75 10 93 11 76 12 84 13
REMARK SMILES IDX 83 14 77 15 78 16 79 17 80 18 81 19 82 20 85 21 86 22 87 23
REMARK SMILES IDX 88 24 92 25 89 26 91 27 90 28 9 29 10 30 11 31 12 32 13 33
REMARK SMILES IDX 14 34 15 35 73 36 16 37 72 38 17 39 18 40 19 41 66 42 20 43
REMARK SMILES IDX 71 44 65 45 67 46 21 47 70 48 64 49 63 50 22 52 52 53 33 54
REMARK SMILES IDX 51 55 34 56 37 57 50 58 68 59 35 60 36 61 49 63 69 64 38 65
REMARK SMILES IDX 23 66 24 67 32 68 25 69 31 70 26 71 27 72 28 73 29 74 30 75
REMARK SMILES IDX 53 76 54 77 62 78 55 79 61 80 56 81 57 82 58 83 59 84 60 85
REMARK SMILES IDX 39 86 40 87 48 88 41 89 47 90 42 91 43 92 44 93 45 94 46 95
REMARK H PARENT 67 51 37 62
REMARK Flexibility Score: inf
ROOT
ATOM      1  O   UNL     1       1.320   3.848   2.746  1.00  0.00    -0.374 OA
ENDROOT
BRANCH   1   2
ATOM      2  C   UNL     1       2.526   3.201   3.166  1.00  0.00     0.202 C 
BRANCH   2   3
ATOM      3  C   UNL     1       2.404   1.760   3.674  1.00  0.00     0.261 C 
BRANCH   3   4
ATOM      4  O   UNL     1       2.055   0.875   2.592  1.00  0.00    -0.463 OA
BRANCH   4   5
ATOM      5  C   UNL     1       0.920   0.151   2.765  1.00  0.00     0.313 C 
ATOM      6  O   UNL     1       0.308   0.073   3.826  1.00  0.00    -0.252 OA
BRANCH   5   7
ATOM      7  C   UNL     1       0.457  -0.548   1.478  1.00  0.00     0.126 C 
ATOM      8  C   UNL     1       1.121  -0.109   0.173  1.00  0.00     0.025 C 
BRANCH   7   9
ATOM      9  C   UNL     1      -1.067  -0.488   1.378  1.00  0.00    -0.033 A 
ATOM     10  C   UNL     1      -1.779   0.721   1.454  1.00  0.00     0.012 A 
ATOM     11  C   UNL     1      -1.791  -1.676   1.360  1.00  0.00     0.016 A 
ATOM     12  C   UNL     1      -3.170   0.765   1.639  1.00  0.00    -0.024 A 
ATOM     13  C   UNL     1      -3.179  -1.669   1.548  1.00  0.00     0.023 A 
ATOM     14  C   UNL     1      -3.864  -0.450   1.678  1.00  0.00     0.020 A 
BRANCH  12  15
ATOM     15  C   UNL     1      -3.905   2.034   1.837  1.00  0.00     0.020 C 
ATOM     16  C   UNL     1      -3.326   3.192   2.194  1.00  0.00     0.106 C 
BRANCH  16  17
ATOM     17  S   UNL     1      -4.274   4.620   2.466  1.00  0.00     0.168 S 
ATOM     18  C   UNL     1      -3.401   5.362   3.828  1.00  0.00     0.163 C 
ATOM     19  O   UNL     1      -4.117   5.500   1.324  1.00  0.00    -0.225 OA
ATOM     20  O   UNL     1      -5.594   4.258   2.945  1.00  0.00    -0.225 OA
ENDBRANCH  16  17
ENDBRANCH  12  15
BRANCH  13  21
ATOM     21  C   UNL     1      -3.938  -2.949   1.639  1.00  0.00     0.193 C 
ATOM     22  O   UNL     1      -5.161  -2.962   1.552  1.00  0.00    -0.289 OA
BRANCH  21  23
ATOM     23  C   UNL     1      -3.209  -4.232   1.778  1.00  0.00     0.022 A 
ATOM     24  C   UNL     1      -3.407  -5.211   0.801  1.00  0.00     0.012 A 
ATOM     25  C   UNL     1      -2.275  -4.429   2.804  1.00  0.00     0.012 A 
ATOM     26  C   UNL     1      -2.629  -6.367   0.820  1.00  0.00     0.001 A 
ATOM     27  C   UNL     1      -1.491  -5.583   2.810  1.00  0.00     0.001 A 
ATOM     28  C   UNL     1      -1.664  -6.546   1.814  1.00  0.00     0.000 A 
ENDBRANCH  21  23
ENDBRANCH  13  21
ENDBRANCH   7   9
ENDBRANCH   5   7
ENDBRANCH   4   5
ENDBRANCH   3   4
ENDBRANCH   2   3
ENDBRANCH   1   2
BRANCH   1  29
ATOM     29  C   UNL     1       0.754   3.427   1.511  1.00  0.00     0.202 C 
BRANCH  29  30
ATOM     30  C   UNL     1       1.312   3.979   0.198  1.00  0.00     0.261 C 
BRANCH  30  31
ATOM     31  O   UNL     1       2.710   3.729   0.057  1.00  0.00    -0.460 OA
BRANCH  31  32
ATOM     32  C   UNL     1       3.474   4.794   0.393  1.00  0.00     0.338 C 
ATOM     33  O   UNL     1       3.089   5.915   0.694  1.00  0.00    -0.246 OA
BRANCH  32  34
ATOM     34  C   UNL     1       4.866   4.357   0.558  1.00  0.00     0.060 A 
ATOM     35  C   UNL     1       5.514   4.749   1.736  1.00  0.00     0.016 A 
ATOM     36  C   UNL     1       5.530   3.611  -0.417  1.00  0.00     0.016 A 
ATOM     37  C   UNL     1       6.857   4.454   1.915  1.00  0.00     0.010 A 
ATOM     38  C   UNL     1       6.883   3.322  -0.240  1.00  0.00     0.010 A 
ATOM     39  C   UNL     1       7.557   3.784   0.905  1.00  0.00    -0.014 A 
BRANCH  39  40
ATOM     40  C   UNL     1       9.031   3.733   0.977  1.00  0.00     0.031 A 
ATOM     41  C   UNL     1       9.822   4.723   0.168  1.00  0.00     0.074 A 
ATOM     42  C   UNL     1       9.643   2.857   1.792  1.00  0.00     0.049 A 
ATOM     43  N   UNL     1      11.117   4.865   0.075  1.00  0.00    -0.248 NA
ATOM     44  C   UNL     1       9.050   5.681  -0.643  1.00  0.00     0.031 C 
ATOM     45  C   UNL     1       8.965   1.895   2.661  1.00  0.00     0.029 A 
ATOM     46  N   UNL     1      10.976   2.643   2.024  1.00  0.00    -0.354 N 
ATOM     47  C   UNL     1      11.316   5.915  -0.814  1.00  0.00     0.074 A 
ATOM     48  C   UNL     1      10.012   6.357  -1.253  1.00  0.00     0.031 C 
ATOM     49  C   UNL     1       9.891   1.191   3.334  1.00  0.00     0.029 A 
ATOM     50  C   UNL     1      11.220   1.627   2.916  1.00  0.00     0.049 A 
ATOM     51  H   UNL     1      11.689   3.166   1.593  1.00  0.00     0.167 HD
ATOM     52  C   UNL     1      12.484   6.463  -1.222  1.00  0.00     0.031 A 
ATOM     53  C   UNL     1      12.389   1.100   3.329  1.00  0.00     0.031 A 
ATOM     54  C   UNL     1      13.775   6.008  -0.782  1.00  0.00     0.049 A 
ATOM     55  C   UNL     1      13.675   1.678   2.801  1.00  0.00     0.074 A 
ATOM     56  C   UNL     1      15.022   6.503  -1.118  1.00  0.00     0.029 A 
ATOM     57  N   UNL     1      13.986   4.945   0.084  1.00  0.00    -0.354 N 
ATOM     58  N   UNL     1      13.850   2.686   1.978  1.00  0.00    -0.248 NA
ATOM     59  C   UNL     1      14.921   1.053   3.263  1.00  0.00     0.031 C 
ATOM     60  C   UNL     1      15.988   5.698  -0.507  1.00  0.00     0.029 A 
ATOM     61  C   UNL     1      15.343   4.746   0.268  1.00  0.00     0.049 A 
ATOM     62  H   UNL     1      13.274   4.410   0.506  1.00  0.00     0.167 HD
ATOM     63  C   UNL     1      15.227   2.835   1.849  1.00  0.00     0.074 A 
ATOM     64  C   UNL     1      15.836   1.823   2.689  1.00  0.00     0.031 C 
ATOM     65  C   UNL     1      15.926   3.730   1.108  1.00  0.00     0.031 A 
BRANCH  52  66
ATOM     66  C   UNL     1      12.419   7.582  -2.227  1.00  0.00    -0.014 A 
ATOM     67  C   UNL     1      11.933   8.856  -1.879  1.00  0.00     0.010 A 
ATOM     68  C   UNL     1      12.888   7.364  -3.535  1.00  0.00     0.010 A 
ATOM     69  C   UNL     1      11.888   9.880  -2.830  1.00  0.00     0.020 A 
ATOM     70  C   UNL     1      12.872   8.393  -4.481  1.00  0.00     0.020 A 
ATOM     71  C   UNL     1      12.358   9.641  -4.125  1.00  0.00     0.054 A 
BRANCH  71  72
ATOM     72  S   UNL     1      12.316  10.996  -5.330  1.00  0.00     0.124 S 
ATOM     73  O   UNL     1      10.885  11.118  -5.596  1.00  0.00    -0.237 OA
ATOM     74  O   UNL     1      12.913  12.102  -4.587  1.00  0.00    -0.237 OA
ATOM     75  O   UNL     1      13.115  10.494  -6.446  1.00  0.00    -0.744 OA
ENDBRANCH  71  72
ENDBRANCH  52  66
BRANCH  53  76
ATOM     76  C   UNL     1      12.393  -0.046   4.278  1.00  0.00    -0.014 A 
ATOM     77  C   UNL     1      12.875   0.108   5.589  1.00  0.00     0.010 A 
ATOM     78  C   UNL     1      11.910  -1.303   3.871  1.00  0.00     0.010 A 
ATOM     79  C   UNL     1      12.890  -0.978   6.470  1.00  0.00     0.020 A 
ATOM     80  C   UNL     1      11.895  -2.383   4.757  1.00  0.00     0.020 A 
ATOM     81  C   UNL     1      12.397  -2.216   6.048  1.00  0.00     0.054 A 
BRANCH  81  82
ATOM     82  S   UNL     1      12.382  -3.599   7.223  1.00  0.00     0.124 S 
ATOM     83  O   UNL     1      13.800  -3.932   7.317  1.00  0.00    -0.237 OA
ATOM     84  O   UNL     1      11.792  -2.992   8.413  1.00  0.00    -0.237 OA
ATOM     85  O   UNL     1      11.545  -4.598   6.563  1.00  0.00    -0.744 OA
ENDBRANCH  81  82
ENDBRANCH  53  76
BRANCH  65  86
ATOM     86  C   UNL     1      17.429   3.683   1.199  1.00  0.00    -0.014 A 
ATOM     87  C   UNL     1      18.165   2.633   0.625  1.00  0.00     0.010 A 
ATOM     88  C   UNL     1      18.116   4.742   1.823  1.00  0.00     0.010 A 
ATOM     89  C   UNL     1      19.560   2.625   0.702  1.00  0.00     0.020 A 
ATOM     90  C   UNL     1      19.511   4.754   1.873  1.00  0.00     0.020 A 
ATOM     91  C   UNL     1      20.224   3.686   1.325  1.00  0.00     0.054 A 
BRANCH  91  92
ATOM     92  S   UNL     1      22.037   3.673   1.374  1.00  0.00     0.124 S 
ATOM     93  O   UNL     1      22.306   2.628   2.357  1.00  0.00    -0.237 OA
ATOM     94  O   UNL     1      22.391   3.346  -0.005  1.00  0.00    -0.237 OA
ATOM     95  O   UNL     1      22.383   5.029   1.795  1.00  0.00    -0.744 OA
ENDBRANCH  91  92
ENDBRANCH  65  86
ENDBRANCH  39  40
ENDBRANCH  32  34
ENDBRANCH  31  32
ENDBRANCH  30  31
ENDBRANCH  29  30
ENDBRANCH   1  29
TORSDOF 22
