REMARK SMILES CCCc1cc(O[C@@H]2CCOC3(CCC3)C2)c(C(=O)OCCOCCOC(=O)c2ccc(-c3c4nc(c(-c5ccc(S(=O)(=O)[O-])cc5)c5ccc([nH]5)c(-c5ccc(S(=O)(=O)[O-])cc5)c5nc(c(-c6ccc(S(=O)(=O)[O-])cc6)c6ccc3[nH]6)C=C5)C=C4)cc2)s1
REMARK SMILES IDX 24 1 23 2 22 3 21 4 20 5 18 6 19 7 17 8 4 9 5 10 89 11 6 12
REMARK SMILES IDX 3 13 2 14 1 15 7 16 8 17 9 18 16 19 10 20 12 21 11 22 13 23
REMARK SMILES IDX 15 24 14 25 25 26 26 27 27 28 28 29 29 30 30 31 88 32 31 33
REMARK SMILES IDX 87 34 32 35 33 36 34 37 81 38 35 39 86 40 80 41 82 42 36 43
REMARK SMILES IDX 85 44 79 45 78 46 37 48 67 49 48 50 66 51 49 52 52 53 65 54
REMARK SMILES IDX 83 55 50 56 51 57 64 59 84 60 53 61 38 62 39 63 47 64 40 65
REMARK SMILES IDX 46 66 41 67 42 68 43 69 44 70 45 71 68 72 69 73 77 74 70 75
REMARK SMILES IDX 76 76 71 77 72 78 73 79 74 80 75 81 54 82 55 83 63 84 56 85
REMARK SMILES IDX 62 86 57 87 58 88 59 89 60 90 61 91
REMARK H PARENT 82 47 52 58
REMARK Flexibility Score: inf
ROOT
ATOM      1  C   UNL     1       0.426  -1.643   5.859  1.00  0.00     0.202 C 
ENDROOT
BRANCH   1   2
ATOM      2  O   UNL     1      -0.606  -1.496   6.839  1.00  0.00    -0.374 OA
BRANCH   2   3
ATOM      3  C   UNL     1      -1.270  -2.702   7.235  1.00  0.00     0.202 C 
BRANCH   3   4
ATOM      4  C   UNL     1      -2.442  -3.110   6.336  1.00  0.00     0.261 C 
BRANCH   4   5
ATOM      5  O   UNL     1      -1.918  -3.564   5.077  1.00  0.00    -0.459 OA
BRANCH   5   6
ATOM      6  C   UNL     1      -2.307  -2.851   3.979  1.00  0.00     0.352 C 
ATOM      7  O   UNL     1      -3.313  -2.173   3.926  1.00  0.00    -0.245 OA
BRANCH   6   8
ATOM      8  C   UNL     1      -1.240  -2.886   2.989  1.00  0.00     0.155 A 
ATOM      9  C   UNL     1       0.300  -2.146   1.201  1.00  0.00     0.009 A 
ATOM     10  C   UNL     1       0.793  -3.192   1.955  1.00  0.00     0.062 A 
ATOM     11  S   UNL     1      -1.131  -1.548   1.902  1.00  0.00    -0.130 S 
ATOM     12  C   UNL     1      -0.213  -3.789   2.763  1.00  0.00     0.145 A 
BRANCH   9  13
ATOM     13  C   UNL     1       0.884  -1.701  -0.111  1.00  0.00     0.046 C 
BRANCH  13  14
ATOM     14  C   UNL     1       0.371  -0.405  -0.723  1.00  0.00     0.002 C 
ATOM     15  C   UNL     1       0.999   0.823  -0.087  1.00  0.00     0.004 C 
ENDBRANCH  13  14
ENDBRANCH   9  13
BRANCH  12  16
ATOM     16  O   UNL     1      -0.158  -4.996   3.386  1.00  0.00    -0.488 OA
BRANCH  16  17
ATOM     17  C   UNL     1       0.260  -6.159   2.631  1.00  0.00     0.178 C 
ATOM     18  C   UNL     1       1.713  -6.186   2.147  1.00  0.00     0.074 C 
ATOM     19  C   UNL     1      -0.703  -6.675   1.546  1.00  0.00     0.080 C 
ATOM     20  C   UNL     1       1.822  -6.032   0.628  1.00  0.00     0.165 C 
ATOM     21  C   UNL     1      -0.602  -5.863   0.252  1.00  0.00     0.072 C 
ATOM     22  O   UNL     1       0.727  -5.291   0.094  1.00  0.00    -0.375 OA
ATOM     23  C   UNL     1      -1.123  -6.528  -1.069  1.00  0.00     0.036 C 
ATOM     24  C   UNL     1      -1.817  -4.893   0.082  1.00  0.00     0.036 C 
ATOM     25  C   UNL     1      -1.781  -5.178  -1.418  1.00  0.00     0.006 C 
ENDBRANCH  16  17
ENDBRANCH  12  16
ENDBRANCH   6   8
ENDBRANCH   5   6
ENDBRANCH   4   5
ENDBRANCH   3   4
ENDBRANCH   2   3
ENDBRANCH   1   2
BRANCH   1  26
ATOM     26  C   UNL     1       1.815  -1.991   6.404  1.00  0.00     0.261 C 
BRANCH  26  27
ATOM     27  O   UNL     1       1.850  -3.339   6.905  1.00  0.00    -0.460 OA
BRANCH  27  28
ATOM     28  C   UNL     1       1.831  -3.441   8.255  1.00  0.00     0.338 C 
ATOM     29  O   UNL     1       1.917  -2.531   9.063  1.00  0.00    -0.246 OA
BRANCH  28  30
ATOM     30  C   UNL     1       1.489  -4.824   8.644  1.00  0.00     0.060 A 
ATOM     31  C   UNL     1       0.478  -4.985   9.599  1.00  0.00     0.016 A 
ATOM     32  C   UNL     1       2.162  -5.935   8.129  1.00  0.00     0.016 A 
ATOM     33  C   UNL     1       0.172  -6.253  10.085  1.00  0.00     0.010 A 
ATOM     34  C   UNL     1       1.859  -7.208   8.625  1.00  0.00     0.010 A 
ATOM     35  C   UNL     1       0.890  -7.367   9.632  1.00  0.00    -0.014 A 
BRANCH  35  36
ATOM     36  C   UNL     1       0.722  -8.665  10.330  1.00  0.00     0.031 A 
ATOM     37  C   UNL     1       1.737  -9.073  11.364  1.00  0.00     0.074 A 
ATOM     38  C   UNL     1      -0.349  -9.442  10.090  1.00  0.00     0.049 A 
ATOM     39  N   UNL     1       1.772 -10.145  12.112  1.00  0.00    -0.248 NA
ATOM     40  C   UNL     1       2.862  -8.149  11.582  1.00  0.00     0.031 C 
ATOM     41  C   UNL     1      -1.421  -9.136   9.143  1.00  0.00     0.029 A 
ATOM     42  N   UNL     1      -0.712 -10.649  10.632  1.00  0.00    -0.354 N 
ATOM     43  C   UNL     1       2.920 -10.028  12.887  1.00  0.00     0.074 A 
ATOM     44  C   UNL     1       3.572  -8.797  12.494  1.00  0.00     0.031 C 
ATOM     45  C   UNL     1      -2.324 -10.132   9.172  1.00  0.00     0.029 A 
ATOM     46  C   UNL     1      -1.880 -11.156  10.116  1.00  0.00     0.049 A 
ATOM     47  H   UNL     1      -0.185 -11.109  11.325  1.00  0.00     0.167 HD
ATOM     48  C   UNL     1       3.387 -10.864  13.845  1.00  0.00     0.031 A 
ATOM     49  C   UNL     1      -2.513 -12.319  10.367  1.00  0.00     0.031 A 
ATOM     50  C   UNL     1       2.744 -12.094  14.225  1.00  0.00     0.049 A 
ATOM     51  C   UNL     1      -1.939 -13.266  11.389  1.00  0.00     0.074 A 
ATOM     52  C   UNL     1       3.129 -13.001  15.197  1.00  0.00     0.029 A 
ATOM     53  N   UNL     1       1.588 -12.595  13.646  1.00  0.00    -0.354 N 
ATOM     54  N   UNL     1      -0.868 -13.126  12.133  1.00  0.00    -0.248 NA
ATOM     55  C   UNL     1      -2.667 -14.523  11.610  1.00  0.00     0.031 C 
ATOM     56  C   UNL     1       2.237 -14.079  15.165  1.00  0.00     0.029 A 
ATOM     57  C   UNL     1       1.262 -13.814  14.217  1.00  0.00     0.049 A 
ATOM     58  H   UNL     1       1.074 -12.149  12.935  1.00  0.00     0.167 HD
ATOM     59  C   UNL     1      -0.806 -14.268  12.926  1.00  0.00     0.074 A 
ATOM     60  C   UNL     1      -1.958 -15.077  12.583  1.00  0.00     0.031 C 
ATOM     61  C   UNL     1       0.120 -14.615  13.855  1.00  0.00     0.031 A 
BRANCH  48  62
ATOM     62  C   UNL     1       4.679 -10.489  14.522  1.00  0.00    -0.014 A 
ATOM     63  C   UNL     1       4.746  -9.412  15.424  1.00  0.00     0.010 A 
ATOM     64  C   UNL     1       5.839 -11.245  14.271  1.00  0.00     0.010 A 
ATOM     65  C   UNL     1       5.959  -9.072  16.031  1.00  0.00     0.020 A 
ATOM     66  C   UNL     1       7.047 -10.926  14.897  1.00  0.00     0.020 A 
ATOM     67  C   UNL     1       7.103  -9.829  15.760  1.00  0.00     0.054 A 
BRANCH  67  68
ATOM     68  S   UNL     1       8.660  -9.376  16.571  1.00  0.00     0.124 S 
ATOM     69  O   UNL     1       9.027  -8.155  15.857  1.00  0.00    -0.237 OA
ATOM     70  O   UNL     1       8.255  -9.191  17.962  1.00  0.00    -0.237 OA
ATOM     71  O   UNL     1       9.528 -10.525  16.325  1.00  0.00    -0.744 OA
ENDBRANCH  67  68
ENDBRANCH  48  62
BRANCH  49  72
ATOM     72  C   UNL     1      -3.756 -12.662   9.624  1.00  0.00    -0.014 A 
ATOM     73  C   UNL     1      -5.001 -12.694  10.275  1.00  0.00     0.010 A 
ATOM     74  C   UNL     1      -3.696 -12.959   8.249  1.00  0.00     0.010 A 
ATOM     75  C   UNL     1      -6.161 -13.027   9.569  1.00  0.00     0.020 A 
ATOM     76  C   UNL     1      -4.857 -13.266   7.534  1.00  0.00     0.020 A 
ATOM     77  C   UNL     1      -6.082 -13.307   8.202  1.00  0.00     0.054 A 
BRANCH  77  78
ATOM     78  S   UNL     1      -7.607 -13.681   7.293  1.00  0.00     0.124 S 
ATOM     79  O   UNL     1      -7.911 -15.032   7.751  1.00  0.00    -0.237 OA
ATOM     80  O   UNL     1      -8.514 -12.634   7.756  1.00  0.00    -0.237 OA
ATOM     81  O   UNL     1      -7.205 -13.569   5.892  1.00  0.00    -0.744 OA
ENDBRANCH  77  78
ENDBRANCH  49  72
BRANCH  61  82
ATOM     82  C   UNL     1      -0.085 -15.919  14.582  1.00  0.00    -0.014 A 
ATOM     83  C   UNL     1       0.100 -17.153  13.933  1.00  0.00     0.010 A 
ATOM     84  C   UNL     1      -0.431 -15.909  15.946  1.00  0.00     0.010 A 
ATOM     85  C   UNL     1      -0.099 -18.352  14.623  1.00  0.00     0.020 A 
ATOM     86  C   UNL     1      -0.601 -17.106  16.647  1.00  0.00     0.020 A 
ATOM     87  C   UNL     1      -0.452 -18.321  15.976  1.00  0.00     0.054 A 
BRANCH  87  88
ATOM     88  S   UNL     1      -0.679 -19.890  16.856  1.00  0.00     0.124 S 
ATOM     89  O   UNL     1      -1.965 -20.346  16.336  1.00  0.00    -0.237 OA
ATOM     90  O   UNL     1       0.482 -20.669  16.431  1.00  0.00    -0.237 OA
ATOM     91  O   UNL     1      -0.678 -19.501  18.264  1.00  0.00    -0.744 OA
ENDBRANCH  87  88
ENDBRANCH  61  82
ENDBRANCH  35  36
ENDBRANCH  28  30
ENDBRANCH  27  28
ENDBRANCH  26  27
ENDBRANCH   1  26
TORSDOF 21
