REMARK SMILES O=C(OCCOCCOC(=O)[C@H]1C[C@](O)(c2ccc(F)cc2)[C@@H](c2ccc(F)cc2)O1)c1ccc(-c2c3nc(c(-c4ccc(S(=O)(=O)[O-])cc4)c4ccc([nH]4)c(-c4ccc(S(=O)(=O)[O-])cc4)c4nc(c(-c5ccc(S(=O)(=O)[O-])cc5)c5ccc2[nH]5)C=C4)C=C3)cc1
REMARK SMILES IDX 5 1 4 2 3 3 2 4 1 5 32 6 33 7 91 8 34 9 90 10 35 11 36 12
REMARK SMILES IDX 37 13 84 14 38 15 89 16 83 17 85 18 39 19 88 20 82 21 81 22
REMARK SMILES IDX 40 24 70 25 51 26 69 27 52 28 55 29 68 30 86 31 53 32 54 33
REMARK SMILES IDX 67 35 87 36 56 37 41 38 42 39 50 40 43 41 49 42 44 43 45 44
REMARK SMILES IDX 46 45 47 46 48 47 71 48 72 49 80 50 73 51 79 52 74 53 75 54
REMARK SMILES IDX 76 55 77 56 78 57 57 58 58 59 66 60 59 61 65 62 60 63 61 64
REMARK SMILES IDX 62 65 63 66 64 67 6 68 7 69 8 70 9 71 10 72 11 73 12 74
REMARK SMILES IDX 13 75 31 76 14 77 23 78 16 79 17 80 22 81 18 82 21 83 19 84
REMARK SMILES IDX 20 85 15 86 24 88 25 89 30 90 26 91 29 92 27 93 28 94
REMARK H PARENT 85 23 55 34 15 87
REMARK Flexibility Score: inf
ROOT
ATOM      1  C   UNL     1       2.893   0.781  -4.742  1.00  0.00     0.202 C 
ENDROOT
BRANCH   1   2
ATOM      2  C   UNL     1       2.468  -0.328  -5.737  1.00  0.00     0.261 C 
BRANCH   2   3
ATOM      3  O   UNL     1       2.860  -0.021  -7.102  1.00  0.00    -0.460 OA
BRANCH   3   4
ATOM      4  C   UNL     1       2.076   0.161  -8.195  1.00  0.00     0.338 C 
ATOM      5  O   UNL     1       2.541  -0.022  -9.316  1.00  0.00    -0.246 OA
BRANCH   4   6
ATOM      6  C   UNL     1       0.690   0.682  -8.065  1.00  0.00     0.060 A 
ATOM      7  C   UNL     1       0.219   1.182  -6.865  1.00  0.00     0.016 A 
ATOM      8  C   UNL     1      -0.167   0.730  -9.173  1.00  0.00     0.016 A 
ATOM      9  C   UNL     1      -1.060   1.626  -6.691  1.00  0.00     0.010 A 
ATOM     10  C   UNL     1      -1.470   1.231  -9.034  1.00  0.00     0.010 A 
ATOM     11  C   UNL     1      -1.913   1.659  -7.776  1.00  0.00    -0.014 A 
BRANCH  11  12
ATOM     12  C   UNL     1      -3.296   1.983  -7.421  1.00  0.00     0.031 A 
ATOM     13  C   UNL     1      -4.243   0.837  -7.256  1.00  0.00     0.074 A 
ATOM     14  C   UNL     1      -3.559   3.216  -6.946  1.00  0.00     0.049 A 
ATOM     15  N   UNL     1      -5.492   0.850  -6.892  1.00  0.00    -0.248 NA
ATOM     16  C   UNL     1      -3.697  -0.513  -7.499  1.00  0.00     0.031 C 
ATOM     17  C   UNL     1      -2.577   4.308  -6.843  1.00  0.00     0.029 A 
ATOM     18  N   UNL     1      -4.686   3.735  -6.380  1.00  0.00    -0.354 N 
ATOM     19  C   UNL     1      -5.897  -0.478  -6.916  1.00  0.00     0.074 A 
ATOM     20  C   UNL     1      -4.760  -1.277  -7.305  1.00  0.00     0.031 C 
ATOM     21  C   UNL     1      -3.142   5.349  -6.213  1.00  0.00     0.029 A 
ATOM     22  C   UNL     1      -4.541   5.037  -5.963  1.00  0.00     0.049 A 
ATOM     23  H   UNL     1      -5.523   3.226  -6.281  1.00  0.00     0.167 HD
ATOM     24  C   UNL     1      -7.130  -0.967  -6.660  1.00  0.00     0.031 A 
ATOM     25  C   UNL     1      -5.464   5.887  -5.480  1.00  0.00     0.031 A 
ATOM     26  C   UNL     1      -8.226  -0.116  -6.288  1.00  0.00     0.049 A 
ATOM     27  C   UNL     1      -6.864   5.356  -5.351  1.00  0.00     0.074 A 
ATOM     28  C   UNL     1      -9.557  -0.436  -6.119  1.00  0.00     0.029 A 
ATOM     29  N   UNL     1      -8.096   1.244  -6.023  1.00  0.00    -0.354 N 
ATOM     30  N   UNL     1      -7.293   4.126  -5.527  1.00  0.00    -0.248 NA
ATOM     31  C   UNL     1      -7.907   6.319  -4.989  1.00  0.00     0.031 C 
ATOM     32  C   UNL     1     -10.242   0.744  -5.805  1.00  0.00     0.029 A 
ATOM     33  C   UNL     1      -9.326   1.785  -5.712  1.00  0.00     0.049 A 
ATOM     34  H   UNL     1      -7.250   1.746  -6.053  1.00  0.00     0.167 HD
ATOM     35  C   UNL     1      -8.659   4.162  -5.288  1.00  0.00     0.074 A 
ATOM     36  C   UNL     1      -8.975   5.534  -4.930  1.00  0.00     0.031 C 
ATOM     37  C   UNL     1      -9.574   3.163  -5.361  1.00  0.00     0.031 A 
BRANCH  24  38
ATOM     38  C   UNL     1      -7.350  -2.432  -6.915  1.00  0.00    -0.014 A 
ATOM     39  C   UNL     1      -6.814  -3.426  -6.077  1.00  0.00     0.010 A 
ATOM     40  C   UNL     1      -8.056  -2.819  -8.069  1.00  0.00     0.010 A 
ATOM     41  C   UNL     1      -6.941  -4.779  -6.415  1.00  0.00     0.020 A 
ATOM     42  C   UNL     1      -8.207  -4.169  -8.397  1.00  0.00     0.020 A 
ATOM     43  C   UNL     1      -7.629  -5.140  -7.578  1.00  0.00     0.054 A 
BRANCH  43  44
ATOM     44  S   UNL     1      -7.766  -6.898  -8.005  1.00  0.00     0.124 S 
ATOM     45  O   UNL     1      -6.406  -7.209  -8.438  1.00  0.00    -0.237 OA
ATOM     46  O   UNL     1      -8.175  -7.504  -6.740  1.00  0.00    -0.237 OA
ATOM     47  O   UNL     1      -8.776  -6.922  -9.060  1.00  0.00    -0.744 OA
ENDBRANCH  43  44
ENDBRANCH  24  38
BRANCH  25  48
ATOM     48  C   UNL     1      -5.119   7.311  -5.207  1.00  0.00    -0.014 A 
ATOM     49  C   UNL     1      -5.229   7.859  -3.919  1.00  0.00     0.010 A 
ATOM     50  C   UNL     1      -4.673   8.139  -6.258  1.00  0.00     0.010 A 
ATOM     51  C   UNL     1      -4.919   9.207  -3.691  1.00  0.00     0.020 A 
ATOM     52  C   UNL     1      -4.331   9.475  -6.029  1.00  0.00     0.020 A 
ATOM     53  C   UNL     1      -4.473  10.005  -4.748  1.00  0.00     0.054 A 
BRANCH  53  54
ATOM     54  S   UNL     1      -4.053  11.742  -4.428  1.00  0.00     0.124 S 
ATOM     55  O   UNL     1      -5.369  12.340  -4.228  1.00  0.00    -0.237 OA
ATOM     56  O   UNL     1      -3.212  11.649  -3.237  1.00  0.00    -0.237 OA
ATOM     57  O   UNL     1      -3.355  12.156  -5.643  1.00  0.00    -0.744 OA
ENDBRANCH  53  54
ENDBRANCH  25  48
BRANCH  37  58
ATOM     58  C   UNL     1     -10.985   3.524  -5.004  1.00  0.00    -0.014 A 
ATOM     59  C   UNL     1     -11.784   4.281  -5.876  1.00  0.00     0.010 A 
ATOM     60  C   UNL     1     -11.528   3.042  -3.800  1.00  0.00     0.010 A 
ATOM     61  C   UNL     1     -13.103   4.577  -5.533  1.00  0.00     0.020 A 
ATOM     62  C   UNL     1     -12.854   3.309  -3.470  1.00  0.00     0.020 A 
ATOM     63  C   UNL     1     -13.629   4.087  -4.333  1.00  0.00     0.054 A 
BRANCH  63  64
ATOM     64  S   UNL     1     -15.360   4.439  -3.934  1.00  0.00     0.124 S 
ATOM     65  O   UNL     1     -15.300   5.844  -3.541  1.00  0.00    -0.237 OA
ATOM     66  O   UNL     1     -16.042   4.167  -5.197  1.00  0.00    -0.237 OA
ATOM     67  O   UNL     1     -15.664   3.502  -2.855  1.00  0.00    -0.744 OA
ENDBRANCH  63  64
ENDBRANCH  37  58
ENDBRANCH  11  12
ENDBRANCH   4   6
ENDBRANCH   3   4
ENDBRANCH   2   3
ENDBRANCH   1   2
BRANCH   1  68
ATOM     68  O   UNL     1       2.258   2.061  -4.812  1.00  0.00    -0.374 OA
BRANCH  68  69
ATOM     69  C   UNL     1       2.776   2.989  -5.773  1.00  0.00     0.202 C 
BRANCH  69  70
ATOM     70  C   UNL     1       3.777   3.977  -5.175  1.00  0.00     0.261 C 
BRANCH  70  71
ATOM     71  O   UNL     1       4.999   3.315  -4.815  1.00  0.00    -0.461 OA
BRANCH  71  72
ATOM     72  C   UNL     1       5.101   2.884  -3.533  1.00  0.00     0.335 C 
ATOM     73  O   UNL     1       4.265   3.062  -2.652  1.00  0.00    -0.249 OA
BRANCH  72  74
ATOM     74  C   UNL     1       6.374   2.057  -3.316  1.00  0.00     0.232 C 
ATOM     75  C   UNL     1       6.044   0.582  -3.160  1.00  0.00     0.087 C 
ATOM     76  O   UNL     1       7.404   2.184  -4.291  1.00  0.00    -0.355 OA
ATOM     77  C   UNL     1       6.680  -0.127  -4.361  1.00  0.00     0.123 C 
ATOM     78  C   UNL     1       7.433   1.013  -5.132  1.00  0.00     0.186 C 
BRANCH  77  79
ATOM     79  C   UNL     1       7.535  -1.272  -3.793  1.00  0.00    -0.013 A 
ATOM     80  C   UNL     1       6.925  -2.510  -3.482  1.00  0.00     0.010 A 
ATOM     81  C   UNL     1       8.889  -1.109  -3.457  1.00  0.00     0.010 A 
ATOM     82  C   UNL     1       7.650  -3.551  -2.902  1.00  0.00     0.039 A 
ATOM     83  C   UNL     1       9.618  -2.156  -2.888  1.00  0.00     0.039 A 
ATOM     84  C   UNL     1       8.994  -3.366  -2.618  1.00  0.00     0.123 A 
ATOM     85  F   UNL     1       9.696  -4.360  -2.058  1.00  0.00    -0.207 F 
ENDBRANCH  77  79
BRANCH  77  86
ATOM     86  O   UNL     1       5.659  -0.746  -5.144  1.00  0.00    -0.382 OA
ATOM     87  H   UNL     1       5.087  -0.063  -5.528  1.00  0.00     0.212 HD
ENDBRANCH  77  86
BRANCH  78  88
ATOM     88  C   UNL     1       7.092   1.462  -6.552  1.00  0.00    -0.016 A 
ATOM     89  C   UNL     1       5.823   1.377  -7.130  1.00  0.00     0.009 A 
ATOM     90  C   UNL     1       8.100   2.074  -7.325  1.00  0.00     0.009 A 
ATOM     91  C   UNL     1       5.550   1.874  -8.410  1.00  0.00     0.039 A 
ATOM     92  C   UNL     1       7.840   2.564  -8.611  1.00  0.00     0.039 A 
ATOM     93  C   UNL     1       6.563   2.466  -9.140  1.00  0.00     0.123 A 
ATOM     94  F   UNL     1       6.307   2.954 -10.360  1.00  0.00    -0.207 F 
ENDBRANCH  78  88
ENDBRANCH  72  74
ENDBRANCH  71  72
ENDBRANCH  70  71
ENDBRANCH  69  70
ENDBRANCH  68  69
ENDBRANCH   1  68
TORSDOF 20
