REMARK SMILES CC(C)CCNC(=O)[C@@H](C)Oc1ccc(N)cc1C(=O)OCCOCCOC(=O)c1ccc(-c2c3nc(c(-c4ccc(S(=O)(=O)[O-])cc4)c4ccc([nH]4)c(-c4ccc(S(=O)(=O)[O-])cc4)c4nc(c(-c5ccc(S(=O)(=O)[O-])cc5)c5ccc2[nH]5)C=C4)C=C3)cc1
REMARK SMILES IDX 22 1 21 2 19 3 20 4 18 5 12 6 13 7 14 8 17 9 15 10 11 11
REMARK SMILES IDX 9 12 10 13 7 14 6 15 8 17 5 18 4 19 2 20 1 21 3 22 16 23
REMARK SMILES IDX 23 26 24 27 25 28 26 29 27 30 28 31 29 32 30 33 31 34 89 35
REMARK SMILES IDX 32 36 88 37 33 38 34 39 35 40 82 41 36 42 87 43 81 44 83 45
REMARK SMILES IDX 37 46 86 47 80 48 79 49 38 51 68 52 49 53 67 54 50 55 53 56
REMARK SMILES IDX 66 57 84 58 51 59 52 60 65 62 85 63 54 64 39 65 40 66 48 67
REMARK SMILES IDX 41 68 47 69 42 70 43 71 44 72 45 73 46 74 69 75 70 76 78 77
REMARK SMILES IDX 71 78 77 79 72 80 73 81 74 82 75 83 76 84 55 85 56 86 64 87
REMARK SMILES IDX 57 88 63 89 58 90 59 91 60 92 61 93 62 94
REMARK H PARENT 6 16 16 24 16 25 83 50 53 61
REMARK Flexibility Score: inf
ROOT
ATOM      1  C   UNL     1      -7.482  -2.095   2.639  1.00  0.00     0.261 C 
ENDROOT
BRANCH   1   2
ATOM      2  O   UNL     1      -6.064  -1.867   2.562  1.00  0.00    -0.460 OA
BRANCH   2   3
ATOM      3  C   UNL     1      -5.418  -2.715   1.732  1.00  0.00     0.342 C 
ATOM      4  O   UNL     1      -5.928  -3.654   1.134  1.00  0.00    -0.246 OA
BRANCH   3   5
ATOM      5  C   UNL     1      -4.001  -2.352   1.490  1.00  0.00     0.104 A 
ATOM      6  C   UNL     1      -3.133  -1.749   2.404  1.00  0.00     0.135 A 
ATOM      7  C   UNL     1      -1.766  -1.927   2.207  1.00  0.00     0.049 A 
ATOM      8  C   UNL     1      -1.278  -2.406   0.984  1.00  0.00     0.029 A 
ATOM      9  C   UNL     1      -3.502  -2.767   0.240  1.00  0.00     0.045 A 
ATOM     10  C   UNL     1      -2.148  -2.696  -0.059  1.00  0.00     0.032 A 
BRANCH   6  11
ATOM     11  O   UNL     1      -3.567  -1.096   3.516  1.00  0.00    -0.480 OA
BRANCH  11  12
ATOM     12  C   UNL     1      -3.242   0.302   3.609  1.00  0.00     0.258 C 
ATOM     13  C   UNL     1      -4.171   1.175   2.758  1.00  0.00     0.064 C 
BRANCH  12  14
ATOM     14  C   UNL     1      -1.781   0.875   3.703  1.00  0.00     0.260 C 
ATOM     15  N   UNL     1      -1.060   1.325   2.630  1.00  0.00    -0.353 N 
ATOM     16  H   UNL     1      -0.320   1.936   2.848  1.00  0.00     0.163 HD
ATOM     17  O   UNL     1      -1.215   0.955   4.801  1.00  0.00    -0.271 OA
BRANCH  15  18
ATOM     18  C   UNL     1      -1.227   1.037   1.223  1.00  0.00     0.116 C 
BRANCH  18  19
ATOM     19  C   UNL     1      -0.526   1.998   0.269  1.00  0.00     0.024 C 
BRANCH  19  20
ATOM     20  C   UNL     1       1.008   1.839   0.160  1.00  0.00    -0.016 C 
ATOM     21  C   UNL     1       1.462   0.404  -0.136  1.00  0.00     0.007 C 
ATOM     22  C   UNL     1       1.526   2.760  -0.949  1.00  0.00     0.007 C 
ENDBRANCH  19  20
ENDBRANCH  18  19
ENDBRANCH  15  18
ENDBRANCH  12  14
ENDBRANCH  11  12
ENDBRANCH   6  11
BRANCH  10  23
ATOM     23  N   UNL     1      -1.679  -3.062  -1.307  1.00  0.00    -0.399 N 
ATOM     24  H   UNL     1      -0.716  -3.007  -1.506  1.00  0.00     0.156 HD
ATOM     25  H   UNL     1      -2.307  -3.377  -1.996  1.00  0.00     0.156 HD
ENDBRANCH  10  23
ENDBRANCH   3   5
ENDBRANCH   2   3
ENDBRANCH   1   2
BRANCH   1  26
ATOM     26  C   UNL     1      -8.250  -1.034   1.849  1.00  0.00     0.202 C 
BRANCH  26  27
ATOM     27  O   UNL     1      -8.011  -1.013   0.440  1.00  0.00    -0.374 OA
BRANCH  27  28
ATOM     28  C   UNL     1      -6.866  -0.283  -0.003  1.00  0.00     0.202 C 
BRANCH  28  29
ATOM     29  C   UNL     1      -7.049   1.234  -0.123  1.00  0.00     0.261 C 
BRANCH  29  30
ATOM     30  O   UNL     1      -7.146   1.853   1.174  1.00  0.00    -0.460 OA
BRANCH  30  31
ATOM     31  C   UNL     1      -8.385   2.285   1.505  1.00  0.00     0.338 C 
ATOM     32  O   UNL     1      -9.370   2.312   0.775  1.00  0.00    -0.246 OA
BRANCH  31  33
ATOM     33  C   UNL     1      -8.466   2.547   2.955  1.00  0.00     0.060 A 
ATOM     34  C   UNL     1      -9.576   2.029   3.635  1.00  0.00     0.016 A 
ATOM     35  C   UNL     1      -7.520   3.320   3.635  1.00  0.00     0.016 A 
ATOM     36  C   UNL     1      -9.784   2.342   4.974  1.00  0.00     0.010 A 
ATOM     37  C   UNL     1      -7.732   3.635   4.984  1.00  0.00     0.010 A 
ATOM     38  C   UNL     1      -8.890   3.188   5.646  1.00  0.00    -0.014 A 
BRANCH  38  39
ATOM     39  C   UNL     1      -9.284   3.725   6.973  1.00  0.00     0.031 A 
ATOM     40  C   UNL     1      -9.863   5.115   7.054  1.00  0.00     0.074 A 
ATOM     41  C   UNL     1      -9.227   2.953   8.074  1.00  0.00     0.049 A 
ATOM     42  N   UNL     1     -10.357   5.747   8.088  1.00  0.00    -0.248 NA
ATOM     43  C   UNL     1      -9.898   5.891   5.803  1.00  0.00     0.031 C 
ATOM     44  C   UNL     1      -8.722   1.581   8.122  1.00  0.00     0.029 A 
ATOM     45  N   UNL     1      -9.618   3.212   9.365  1.00  0.00    -0.354 N 
ATOM     46  C   UNL     1     -10.775   6.985   7.611  1.00  0.00     0.074 A 
ATOM     47  C   UNL     1     -10.431   7.035   6.207  1.00  0.00     0.031 C 
ATOM     48  C   UNL     1      -8.842   1.115   9.378  1.00  0.00     0.029 A 
ATOM     49  C   UNL     1      -9.415   2.159  10.225  1.00  0.00     0.049 A 
ATOM     50  H   UNL     1     -10.007   4.071   9.647  1.00  0.00     0.167 HD
ATOM     51  C   UNL     1     -11.408   7.983   8.272  1.00  0.00     0.031 A 
ATOM     52  C   UNL     1      -9.660   2.052  11.546  1.00  0.00     0.031 A 
ATOM     53  C   UNL     1     -11.737   7.945   9.672  1.00  0.00     0.049 A 
ATOM     54  C   UNL     1     -10.301   3.206  12.275  1.00  0.00     0.074 A 
ATOM     55  C   UNL     1     -12.361   8.915  10.438  1.00  0.00     0.029 A 
ATOM     56  N   UNL     1     -11.472   6.879  10.518  1.00  0.00    -0.354 N 
ATOM     57  N   UNL     1     -10.702   4.363  11.802  1.00  0.00    -0.248 NA
ATOM     58  C   UNL     1     -10.540   3.030  13.714  1.00  0.00     0.031 C 
ATOM     59  C   UNL     1     -12.435   8.453  11.756  1.00  0.00     0.029 A 
ATOM     60  C   UNL     1     -11.908   7.172  11.799  1.00  0.00     0.049 A 
ATOM     61  H   UNL     1     -11.037   6.038  10.247  1.00  0.00     0.167 HD
ATOM     62  C   UNL     1     -11.267   5.037  12.880  1.00  0.00     0.074 A 
ATOM     63  C   UNL     1     -11.176   4.151  14.022  1.00  0.00     0.031 C 
ATOM     64  C   UNL     1     -11.812   6.279  12.925  1.00  0.00     0.031 A 
BRANCH  51  65
ATOM     65  C   UNL     1     -11.784   9.209   7.483  1.00  0.00    -0.014 A 
ATOM     66  C   UNL     1     -12.835   9.170   6.548  1.00  0.00     0.010 A 
ATOM     67  C   UNL     1     -11.115  10.425   7.710  1.00  0.00     0.010 A 
ATOM     68  C   UNL     1     -13.192  10.317   5.836  1.00  0.00     0.020 A 
ATOM     69  C   UNL     1     -11.486  11.582   7.018  1.00  0.00     0.020 A 
ATOM     70  C   UNL     1     -12.515  11.517   6.075  1.00  0.00     0.054 A 
BRANCH  70  71
ATOM     71  S   UNL     1     -13.025  12.999   5.162  1.00  0.00     0.124 S 
ATOM     72  O   UNL     1     -12.524  12.713   3.820  1.00  0.00    -0.237 OA
ATOM     73  O   UNL     1     -14.478  12.981   5.307  1.00  0.00    -0.237 OA
ATOM     74  O   UNL     1     -12.345  14.088   5.861  1.00  0.00    -0.744 OA
ENDBRANCH  70  71
ENDBRANCH  51  65
BRANCH  52  75
ATOM     75  C   UNL     1      -9.289   0.811  12.283  1.00  0.00    -0.014 A 
ATOM     76  C   UNL     1     -10.274  -0.030  12.829  1.00  0.00     0.010 A 
ATOM     77  C   UNL     1      -7.933   0.492  12.481  1.00  0.00     0.010 A 
ATOM     78  C   UNL     1      -9.911  -1.143  13.595  1.00  0.00     0.020 A 
ATOM     79  C   UNL     1      -7.566  -0.636  13.219  1.00  0.00     0.020 A 
ATOM     80  C   UNL     1      -8.558  -1.435  13.790  1.00  0.00     0.054 A 
BRANCH  80  81
ATOM     81  S   UNL     1      -8.105  -2.886  14.781  1.00  0.00     0.124 S 
ATOM     82  O   UNL     1      -8.368  -2.420  16.138  1.00  0.00    -0.237 OA
ATOM     83  O   UNL     1      -9.016  -3.911  14.276  1.00  0.00    -0.237 OA
ATOM     84  O   UNL     1      -6.698  -3.098  14.451  1.00  0.00    -0.744 OA
ENDBRANCH  80  81
ENDBRANCH  52  75
BRANCH  64  85
ATOM     85  C   UNL     1     -12.388   6.733  14.241  1.00  0.00    -0.014 A 
ATOM     86  C   UNL     1     -11.560   7.040  15.336  1.00  0.00     0.010 A 
ATOM     87  C   UNL     1     -13.782   6.869  14.378  1.00  0.00     0.010 A 
ATOM     88  C   UNL     1     -12.118   7.421  16.559  1.00  0.00     0.020 A 
ATOM     89  C   UNL     1     -14.342   7.279  15.590  1.00  0.00     0.020 A 
ATOM     90  C   UNL     1     -13.507   7.530  16.681  1.00  0.00     0.054 A 
BRANCH  90  91
ATOM     91  S   UNL     1     -14.210   8.031  18.276  1.00  0.00     0.124 S 
ATOM     92  O   UNL     1     -14.072   6.809  19.065  1.00  0.00    -0.237 OA
ATOM     93  O   UNL     1     -13.344   9.138  18.677  1.00  0.00    -0.237 OA
ATOM     94  O   UNL     1     -15.582   8.410  17.947  1.00  0.00    -0.744 OA
ENDBRANCH  90  91
ENDBRANCH  64  85
ENDBRANCH  38  39
ENDBRANCH  31  33
ENDBRANCH  30  31
ENDBRANCH  29  30
ENDBRANCH  28  29
ENDBRANCH  27  28
ENDBRANCH  26  27
ENDBRANCH   1  26
TORSDOF 24
