REMARK SMILES CC[C@H](NC(=O)N1CCO[C@@H](CC(=O)OCCOCCOC(=O)c2ccc(-c3c4nc(c(-c5ccc(S(=O)(=O)[O-])cc5)c5ccc([nH]5)c(-c5ccc(S(=O)(=O)[O-])cc5)c5nc(c(-c6ccc(S(=O)(=O)[O-])cc6)c6ccc3[nH]6)C=C5)C=C4)cc2)C1)c1cccs1
REMARK SMILES IDX 17 1 16 2 15 3 13 4 14 5 12 6 11 7 7 8 8 9 84 10 9 11 10 12
REMARK SMILES IDX 5 13 4 14 6 16 3 17 2 18 1 19 85 20 86 21 89 22 87 23 88 24
REMARK SMILES IDX 18 25 19 26 20 27 21 28 22 29 23 30 24 31 25 32 83 33 26 34
REMARK SMILES IDX 82 35 27 36 28 37 29 38 76 39 30 40 81 41 75 42 77 43 31 44
REMARK SMILES IDX 80 45 74 46 73 47 32 49 62 50 43 51 61 52 44 53 47 54 60 55
REMARK SMILES IDX 78 56 45 57 46 58 59 60 79 61 48 62 33 63 34 64 42 65 35 66
REMARK SMILES IDX 41 67 36 68 37 69 38 70 39 71 40 72 63 73 64 74 72 75 65 76
REMARK SMILES IDX 71 77 66 78 67 79 68 80 69 81 70 82 49 83 50 84 58 85 51 86
REMARK SMILES IDX 57 87 52 88 53 89 54 90 55 91 56 92
REMARK H PARENT 4 15 77 48 47 59
REMARK Flexibility Score: inf
ROOT
ATOM      1  C   UNL     1       3.062  -4.849  -0.086  1.00  0.00     0.202 C 
ENDROOT
BRANCH   1   2
ATOM      2  C   UNL     1       4.133  -4.821   1.007  1.00  0.00     0.261 C 
BRANCH   2   3
ATOM      3  O   UNL     1       4.429  -3.473   1.428  1.00  0.00    -0.463 OA
BRANCH   3   4
ATOM      4  C   UNL     1       5.662  -2.997   1.122  1.00  0.00     0.308 C 
ATOM      5  O   UNL     1       6.524  -3.614   0.508  1.00  0.00    -0.252 OA
BRANCH   4   6
ATOM      6  C   UNL     1       5.885  -1.614   1.675  1.00  0.00     0.156 C 
BRANCH   6   7
ATOM      7  C   UNL     1       4.908  -0.535   1.206  1.00  0.00     0.149 C 
ATOM      8  N   UNL     1       2.756   0.614   1.658  1.00  0.00    -0.320 N 
ATOM      9  C   UNL     1       3.482   1.846   1.938  1.00  0.00     0.150 C 
ATOM     10  C   UNL     1       3.546  -0.590   1.938  1.00  0.00     0.154 C 
ATOM     11  C   UNL     1       4.761   1.861   1.114  1.00  0.00     0.182 C 
ATOM     12  O   UNL     1       5.580   0.730   1.448  1.00  0.00    -0.374 OA
BRANCH   8  13
ATOM     13  C   UNL     1       1.400   0.516   1.641  1.00  0.00     0.318 C 
ATOM     14  N   UNL     1       0.655   1.385   0.927  1.00  0.00    -0.330 N 
ATOM     15  H   UNL     1      -0.314   1.256   1.043  1.00  0.00     0.166 HD
ATOM     16  O   UNL     1       0.812  -0.399   2.214  1.00  0.00    -0.249 OA
BRANCH  14  17
ATOM     17  C   UNL     1       0.989   2.474   0.019  1.00  0.00     0.124 C 
BRANCH  17  18
ATOM     18  C   UNL     1       0.292   2.303  -1.345  1.00  0.00     0.027 C 
ATOM     19  C   UNL     1       0.946   1.221  -2.192  1.00  0.00     0.006 C 
ENDBRANCH  17  18
BRANCH  17  20
ATOM     20  C   UNL     1       0.564   3.772   0.674  1.00  0.00     0.027 A 
ATOM     21  C   UNL     1      -0.372   3.993   1.670  1.00  0.00     0.017 A 
ATOM     22  S   UNL     1       1.304   5.248   0.190  1.00  0.00    -0.147 S 
ATOM     23  C   UNL     1      -0.488   5.368   2.021  1.00  0.00     0.012 A 
ATOM     24  C   UNL     1       0.358   6.160   1.280  1.00  0.00     0.065 A 
ENDBRANCH  17  20
ENDBRANCH  14  17
ENDBRANCH   8  13
ENDBRANCH   6   7
ENDBRANCH   4   6
ENDBRANCH   3   4
ENDBRANCH   2   3
ENDBRANCH   1   2
BRANCH   1  25
ATOM     25  O   UNL     1       3.503  -4.437  -1.381  1.00  0.00    -0.374 OA
BRANCH  25  26
ATOM     26  C   UNL     1       3.582  -3.032  -1.604  1.00  0.00     0.202 C 
BRANCH  26  27
ATOM     27  C   UNL     1       2.265  -2.345  -1.973  1.00  0.00     0.261 C 
BRANCH  27  28
ATOM     28  O   UNL     1       1.311  -2.388  -0.898  1.00  0.00    -0.460 OA
BRANCH  28  29
ATOM     29  C   UNL     1       0.255  -3.215  -1.097  1.00  0.00     0.338 C 
ATOM     30  O   UNL     1      -0.003  -3.841  -2.119  1.00  0.00    -0.246 OA
BRANCH  29  31
ATOM     31  C   UNL     1      -0.492  -3.409   0.159  1.00  0.00     0.060 A 
ATOM     32  C   UNL     1      -0.731  -4.718   0.594  1.00  0.00     0.016 A 
ATOM     33  C   UNL     1      -1.000  -2.331   0.881  1.00  0.00     0.016 A 
ATOM     34  C   UNL     1      -1.504  -4.949   1.734  1.00  0.00     0.010 A 
ATOM     35  C   UNL     1      -1.752  -2.561   2.039  1.00  0.00     0.010 A 
ATOM     36  C   UNL     1      -2.045  -3.872   2.451  1.00  0.00    -0.014 A 
BRANCH  36  37
ATOM     37  C   UNL     1      -3.036  -4.117   3.533  1.00  0.00     0.031 A 
ATOM     38  C   UNL     1      -4.493  -3.838   3.264  1.00  0.00     0.074 A 
ATOM     39  C   UNL     1      -2.659  -4.602   4.731  1.00  0.00     0.049 A 
ATOM     40  N   UNL     1      -5.524  -3.973   4.058  1.00  0.00    -0.248 NA
ATOM     41  C   UNL     1      -4.832  -3.334   1.922  1.00  0.00     0.031 C 
ATOM     42  C   UNL     1      -1.287  -4.927   5.120  1.00  0.00     0.029 A 
ATOM     43  N   UNL     1      -3.404  -4.906   5.845  1.00  0.00    -0.354 N 
ATOM     44  C   UNL     1      -6.627  -3.557   3.321  1.00  0.00     0.074 A 
ATOM     45  C   UNL     1      -6.136  -3.132   2.028  1.00  0.00     0.031 C 
ATOM     46  C   UNL     1      -1.289  -5.391   6.382  1.00  0.00     0.029 A 
ATOM     47  C   UNL     1      -2.656  -5.369   6.902  1.00  0.00     0.049 A 
ATOM     48  H   UNL     1      -4.382  -4.803   5.883  1.00  0.00     0.167 HD
ATOM     49  C   UNL     1      -7.934  -3.542   3.677  1.00  0.00     0.031 A 
ATOM     50  C   UNL     1      -3.026  -5.722   8.149  1.00  0.00     0.031 A 
ATOM     51  C   UNL     1      -8.428  -3.969   4.959  1.00  0.00     0.049 A 
ATOM     52  C   UNL     1      -4.481  -5.659   8.539  1.00  0.00     0.074 A 
ATOM     53  C   UNL     1      -9.739  -4.021   5.400  1.00  0.00     0.029 A 
ATOM     54  N   UNL     1      -7.635  -4.413   6.005  1.00  0.00    -0.354 N 
ATOM     55  N   UNL     1      -5.514  -5.301   7.814  1.00  0.00    -0.248 NA
ATOM     56  C   UNL     1      -4.820  -6.058   9.913  1.00  0.00     0.031 C 
ATOM     57  C   UNL     1      -9.734  -4.449   6.732  1.00  0.00     0.029 A 
ATOM     58  C   UNL     1      -8.425  -4.719   7.100  1.00  0.00     0.049 A 
ATOM     59  H   UNL     1      -6.654  -4.499   5.974  1.00  0.00     0.167 HD
ATOM     60  C   UNL     1      -6.627  -5.457   8.636  1.00  0.00     0.074 A 
ATOM     61  C   UNL     1      -6.142  -5.954   9.907  1.00  0.00     0.031 C 
ATOM     62  C   UNL     1      -7.932  -5.214   8.360  1.00  0.00     0.031 A 
BRANCH  49  63
ATOM     63  C   UNL     1      -8.922  -3.021   2.668  1.00  0.00    -0.014 A 
ATOM     64  C   UNL     1      -9.243  -3.760   1.514  1.00  0.00     0.010 A 
ATOM     65  C   UNL     1      -9.562  -1.789   2.892  1.00  0.00     0.010 A 
ATOM     66  C   UNL     1     -10.155  -3.255   0.583  1.00  0.00     0.020 A 
ATOM     67  C   UNL     1     -10.495  -1.294   1.977  1.00  0.00     0.020 A 
ATOM     68  C   UNL     1     -10.772  -2.023   0.818  1.00  0.00     0.054 A 
BRANCH  68  69
ATOM     69  S   UNL     1     -11.964  -1.399  -0.398  1.00  0.00     0.124 S 
ATOM     70  O   UNL     1     -11.088  -0.985  -1.492  1.00  0.00    -0.237 OA
ATOM     71  O   UNL     1     -12.792  -2.571  -0.667  1.00  0.00    -0.237 OA
ATOM     72  O   UNL     1     -12.639  -0.310   0.304  1.00  0.00    -0.744 OA
ENDBRANCH  68  69
ENDBRANCH  49  63
BRANCH  50  73
ATOM     73  C   UNL     1      -1.998  -6.163   9.133  1.00  0.00    -0.014 A 
ATOM     74  C   UNL     1      -1.931  -7.505   9.550  1.00  0.00     0.010 A 
ATOM     75  C   UNL     1      -1.080  -5.237   9.662  1.00  0.00     0.010 A 
ATOM     76  C   UNL     1      -0.975  -7.909  10.487  1.00  0.00     0.020 A 
ATOM     77  C   UNL     1      -0.106  -5.643  10.578  1.00  0.00     0.020 A 
ATOM     78  C   UNL     1      -0.066  -6.975  10.993  1.00  0.00     0.054 A 
BRANCH  78  79
ATOM     79  S   UNL     1       1.203  -7.532  12.166  1.00  0.00     0.124 S 
ATOM     80  O   UNL     1       0.428  -7.714  13.389  1.00  0.00    -0.237 OA
ATOM     81  O   UNL     1       1.696  -8.757  11.540  1.00  0.00    -0.237 OA
ATOM     82  O   UNL     1       2.157  -6.426  12.187  1.00  0.00    -0.744 OA
ENDBRANCH  78  79
ENDBRANCH  50  73
BRANCH  62  83
ATOM     83  C   UNL     1      -8.942  -5.511   9.437  1.00  0.00    -0.014 A 
ATOM     84  C   UNL     1      -9.064  -4.689  10.571  1.00  0.00     0.010 A 
ATOM     85  C   UNL     1      -9.827  -6.594   9.278  1.00  0.00     0.010 A 
ATOM     86  C   UNL     1     -10.034  -4.961  11.540  1.00  0.00     0.020 A 
ATOM     87  C   UNL     1     -10.815  -6.854  10.231  1.00  0.00     0.020 A 
ATOM     88  C   UNL     1     -10.903  -6.043  11.364  1.00  0.00     0.054 A 
BRANCH  88  89
ATOM     89  S   UNL     1     -12.185  -6.348  12.612  1.00  0.00     0.124 S 
ATOM     90  O   UNL     1     -11.410  -6.916  13.711  1.00  0.00    -0.237 OA
ATOM     91  O   UNL     1     -12.726  -5.012  12.850  1.00  0.00    -0.237 OA
ATOM     92  O   UNL     1     -13.100  -7.275  11.950  1.00  0.00    -0.744 OA
ENDBRANCH  88  89
ENDBRANCH  62  83
ENDBRANCH  36  37
ENDBRANCH  29  31
ENDBRANCH  28  29
ENDBRANCH  27  28
ENDBRANCH  26  27
ENDBRANCH  25  26
ENDBRANCH   1  25
TORSDOF 22
