REMARK SMILES O=C(OCCOCCOC(=O)c1ccc(-c2c3nc(c(-c4ccc(S(=O)(=O)[O-])cc4)c4ccc([nH]4)c(-c4ccc(S(=O)(=O)[O-])cc4)c4nc(c(-c5ccc(S(=O)(=O)[O-])cc5)c5ccc2[nH]5)C=C4)C=C3)cc1)c1ccc(Oc2cc(-c3ccccc3)nc(-c3cnccn3)n2)cc1
REMARK SMILES IDX 6 1 5 2 4 3 3 4 2 5 1 6 72 7 73 8 96 9 74 10 95 11 75 12
REMARK SMILES IDX 76 13 77 14 78 15 94 16 79 17 87 18 86 19 80 20 81 21 85 22
REMARK SMILES IDX 82 23 84 24 83 25 88 26 89 27 93 28 90 29 92 30 91 31 7 32
REMARK SMILES IDX 8 33 9 34 10 35 11 36 12 37 13 38 71 39 14 40 70 41 15 42
REMARK SMILES IDX 16 43 17 44 64 45 18 46 69 47 63 48 65 49 19 50 68 51 62 52
REMARK SMILES IDX 61 53 20 55 50 56 31 57 49 58 32 59 35 60 48 61 66 62 33 63
REMARK SMILES IDX 34 64 47 66 67 67 36 68 21 69 22 70 30 71 23 72 29 73 24 74
REMARK SMILES IDX 25 75 26 76 27 77 28 78 51 79 52 80 60 81 53 82 59 83 54 84
REMARK SMILES IDX 55 85 56 86 57 87 58 88 37 89 38 90 46 91 39 92 45 93 40 94
REMARK SMILES IDX 41 95 42 96 43 97 44 98
REMARK H PARENT 65 54 35 65
REMARK Flexibility Score: inf
ROOT
ATOM      1  O   UNL     1       3.952  -0.055  -1.826  1.00  0.00    -0.374 OA
ENDROOT
BRANCH   1   2
ATOM      2  C   UNL     1       4.221  -1.286  -1.150  1.00  0.00     0.202 C 
BRANCH   2   3
ATOM      3  C   UNL     1       3.970  -1.218   0.356  1.00  0.00     0.261 C 
BRANCH   3   4
ATOM      4  O   UNL     1       2.595  -0.880   0.605  1.00  0.00    -0.460 OA
BRANCH   4   5
ATOM      5  C   UNL     1       2.093   0.329   0.934  1.00  0.00     0.338 C 
ATOM      6  O   UNL     1       0.874   0.478   1.001  1.00  0.00    -0.246 OA
BRANCH   5   7
ATOM      7  C   UNL     1       2.951   1.494   1.290  1.00  0.00     0.060 A 
ATOM      8  C   UNL     1       4.110   1.885   0.612  1.00  0.00     0.019 A 
ATOM      9  C   UNL     1       2.470   2.324   2.309  1.00  0.00     0.019 A 
ATOM     10  C   UNL     1       4.822   3.021   0.996  1.00  0.00     0.048 A 
ATOM     11  C   UNL     1       3.154   3.487   2.665  1.00  0.00     0.048 A 
ATOM     12  C   UNL     1       4.360   3.815   2.037  1.00  0.00     0.129 A 
BRANCH  12  13
ATOM     13  O   UNL     1       5.159   4.896   2.331  1.00  0.00    -0.439 OA
BRANCH  13  14
ATOM     14  C   UNL     1       4.875   5.604   3.470  1.00  0.00     0.223 A 
ATOM     15  C   UNL     1       4.935   5.007   4.706  1.00  0.00     0.098 A 
ATOM     16  N   UNL     1       4.543   6.880   3.269  1.00  0.00    -0.191 NA
ATOM     17  C   UNL     1       4.490   5.770   5.762  1.00  0.00     0.078 A 
ATOM     18  C   UNL     1       4.192   7.575   4.360  1.00  0.00     0.184 A 
ATOM     19  N   UNL     1       4.139   7.069   5.612  1.00  0.00    -0.226 NA
BRANCH  17  20
ATOM     20  C   UNL     1       4.267   5.166   7.085  1.00  0.00     0.000 A 
ATOM     21  C   UNL     1       3.053   5.368   7.765  1.00  0.00     0.010 A 
ATOM     22  C   UNL     1       5.211   4.302   7.670  1.00  0.00     0.010 A 
ATOM     23  C   UNL     1       2.785   4.719   8.973  1.00  0.00     0.001 A 
ATOM     24  C   UNL     1       4.946   3.657   8.881  1.00  0.00     0.001 A 
ATOM     25  C   UNL     1       3.731   3.862   9.529  1.00  0.00     0.000 A 
ENDBRANCH  17  20
BRANCH  18  26
ATOM     26  C   UNL     1       3.954   9.007   4.166  1.00  0.00     0.126 A 
ATOM     27  C   UNL     1       4.709   9.953   4.852  1.00  0.00     0.143 A 
ATOM     28  N   UNL     1       3.052   9.391   3.215  1.00  0.00    -0.250 NA
ATOM     29  N   UNL     1       4.622  11.289   4.617  1.00  0.00    -0.261 NA
ATOM     30  C   UNL     1       2.966  10.719   2.979  1.00  0.00     0.132 A 
ATOM     31  C   UNL     1       3.739  11.644   3.657  1.00  0.00     0.131 A 
ENDBRANCH  18  26
ENDBRANCH  13  14
ENDBRANCH  12  13
ENDBRANCH   5   7
ENDBRANCH   4   5
ENDBRANCH   3   4
ENDBRANCH   2   3
ENDBRANCH   1   2
BRANCH   1  32
ATOM     32  C   UNL     1       2.601   0.121  -2.276  1.00  0.00     0.202 C 
BRANCH  32  33
ATOM     33  C   UNL     1       2.603   0.560  -3.743  1.00  0.00     0.261 C 
BRANCH  33  34
ATOM     34  O   UNL     1       3.148  -0.509  -4.526  1.00  0.00    -0.460 OA
BRANCH  34  35
ATOM     35  C   UNL     1       4.503  -0.506  -4.603  1.00  0.00     0.338 C 
ATOM     36  O   UNL     1       5.244   0.460  -4.511  1.00  0.00    -0.246 OA
BRANCH  35  37
ATOM     37  C   UNL     1       4.962  -1.913  -4.580  1.00  0.00     0.060 A 
ATOM     38  C   UNL     1       6.186  -2.200  -3.960  1.00  0.00     0.016 A 
ATOM     39  C   UNL     1       4.171  -2.947  -5.092  1.00  0.00     0.016 A 
ATOM     40  C   UNL     1       6.632  -3.517  -3.870  1.00  0.00     0.010 A 
ATOM     41  C   UNL     1       4.617  -4.262  -5.005  1.00  0.00     0.010 A 
ATOM     42  C   UNL     1       5.860  -4.548  -4.419  1.00  0.00    -0.014 A 
BRANCH  42  43
ATOM     43  C   UNL     1       6.417  -5.909  -4.564  1.00  0.00     0.031 A 
ATOM     44  C   UNL     1       7.032  -6.274  -5.885  1.00  0.00     0.074 A 
ATOM     45  C   UNL     1       6.328  -6.804  -3.565  1.00  0.00     0.049 A 
ATOM     46  N   UNL     1       7.489  -7.427  -6.293  1.00  0.00    -0.248 NA
ATOM     47  C   UNL     1       7.132  -5.195  -6.885  1.00  0.00     0.031 C 
ATOM     48  C   UNL     1       5.764  -6.546  -2.240  1.00  0.00     0.029 A 
ATOM     49  N   UNL     1       6.695  -8.124  -3.524  1.00  0.00    -0.354 N 
ATOM     50  C   UNL     1       7.919  -7.217  -7.597  1.00  0.00     0.074 A 
ATOM     51  C   UNL     1       7.649  -5.835  -7.923  1.00  0.00     0.031 C 
ATOM     52  C   UNL     1       5.805  -7.682  -1.521  1.00  0.00     0.029 A 
ATOM     53  C   UNL     1       6.367  -8.750  -2.345  1.00  0.00     0.049 A 
ATOM     54  H   UNL     1       7.151  -8.581  -4.268  1.00  0.00     0.167 HD
ATOM     55  C   UNL     1       8.491  -8.100  -8.447  1.00  0.00     0.031 A 
ATOM     56  C   UNL     1       6.484 -10.045  -1.989  1.00  0.00     0.031 A 
ATOM     57  C   UNL     1       8.739  -9.476  -8.119  1.00  0.00     0.049 A 
ATOM     58  C   UNL     1       7.074 -11.021  -2.975  1.00  0.00     0.074 A 
ATOM     59  C   UNL     1       9.337 -10.451  -8.896  1.00  0.00     0.029 A 
ATOM     60  N   UNL     1       8.394 -10.073  -6.916  1.00  0.00    -0.354 N 
ATOM     61  N   UNL     1       7.521 -10.799  -4.190  1.00  0.00    -0.248 NA
ATOM     62  C   UNL     1       7.180 -12.421  -2.542  1.00  0.00     0.031 C 
ATOM     63  C   UNL     1       9.307 -11.652  -8.181  1.00  0.00     0.029 A 
ATOM     64  C   UNL     1       8.741 -11.411  -6.938  1.00  0.00     0.049 A 
ATOM     65  H   UNL     1       7.965  -9.613  -6.159  1.00  0.00     0.167 HD
ATOM     66  C   UNL     1       7.982 -12.026  -4.655  1.00  0.00     0.074 A 
ATOM     67  C   UNL     1       7.775 -12.982  -3.586  1.00  0.00     0.031 C 
ATOM     68  C   UNL     1       8.526 -12.339  -5.857  1.00  0.00     0.031 A 
BRANCH  55  69
ATOM     69  C   UNL     1       8.859  -7.608  -9.819  1.00  0.00    -0.014 A 
ATOM     70  C   UNL     1       9.956  -6.749 -10.011  1.00  0.00     0.010 A 
ATOM     71  C   UNL     1       8.126  -8.047 -10.936  1.00  0.00     0.010 A 
ATOM     72  C   UNL     1      10.300  -6.320 -11.295  1.00  0.00     0.020 A 
ATOM     73  C   UNL     1       8.482  -7.639 -12.224  1.00  0.00     0.020 A 
ATOM     74  C   UNL     1       9.561  -6.769 -12.394  1.00  0.00     0.054 A 
BRANCH  74  75
ATOM     75  S   UNL     1      10.062  -6.236 -14.054  1.00  0.00     0.124 S 
ATOM     76  O   UNL     1       9.638  -4.838 -14.062  1.00  0.00    -0.237 OA
ATOM     77  O   UNL     1      11.506  -6.454 -14.038  1.00  0.00    -0.237 OA
ATOM     78  O   UNL     1       9.311  -7.120 -14.943  1.00  0.00    -0.744 OA
ENDBRANCH  74  75
ENDBRANCH  55  69
BRANCH  56  79
ATOM     79  C   UNL     1       6.012 -10.505  -0.654  1.00  0.00    -0.014 A 
ATOM     80  C   UNL     1       6.928 -10.932   0.323  1.00  0.00     0.010 A 
ATOM     81  C   UNL     1       4.636 -10.542  -0.361  1.00  0.00     0.010 A 
ATOM     82  C   UNL     1       6.478 -11.410   1.558  1.00  0.00     0.020 A 
ATOM     83  C   UNL     1       4.183 -10.994   0.882  1.00  0.00     0.020 A 
ATOM     84  C   UNL     1       5.107 -11.439   1.829  1.00  0.00     0.054 A 
BRANCH  84  85
ATOM     85  S   UNL     1       4.545 -12.031   3.450  1.00  0.00     0.124 S 
ATOM     86  O   UNL     1       4.721 -13.474   3.323  1.00  0.00    -0.237 OA
ATOM     87  O   UNL     1       5.463 -11.359   4.367  1.00  0.00    -0.237 OA
ATOM     88  O   UNL     1       3.160 -11.571   3.519  1.00  0.00    -0.744 OA
ENDBRANCH  84  85
ENDBRANCH  56  79
BRANCH  68  89
ATOM     89  C   UNL     1       8.965 -13.762  -6.069  1.00  0.00    -0.014 A 
ATOM     90  C   UNL     1       8.027 -14.789  -6.270  1.00  0.00     0.010 A 
ATOM     91  C   UNL     1      10.339 -14.061  -6.129  1.00  0.00     0.010 A 
ATOM     92  C   UNL     1       8.456 -16.099  -6.499  1.00  0.00     0.020 A 
ATOM     93  C   UNL     1      10.771 -15.364  -6.385  1.00  0.00     0.020 A 
ATOM     94  C   UNL     1       9.826 -16.378  -6.553  1.00  0.00     0.054 A 
BRANCH  94  95
ATOM     95  S   UNL     1      10.359 -18.077  -6.895  1.00  0.00     0.124 S 
ATOM     96  O   UNL     1      10.104 -18.737  -5.618  1.00  0.00    -0.237 OA
ATOM     97  O   UNL     1       9.482 -18.474  -7.994  1.00  0.00    -0.237 OA
ATOM     98  O   UNL     1      11.768 -17.932  -7.253  1.00  0.00    -0.744 OA
ENDBRANCH  94  95
ENDBRANCH  68  89
ENDBRANCH  42  43
ENDBRANCH  35  37
ENDBRANCH  34  35
ENDBRANCH  33  34
ENDBRANCH  32  33
ENDBRANCH   1  32
TORSDOF 21
