REMARK SMILES CC(=O)N[C@H](CC(=O)NCC(=O)OCCOCCOC(=O)c1ccc(-c2c3nc(c(-c4ccc(S(=O)(=O)[O-])cc4)c4ccc([nH]4)c(-c4ccc(S(=O)(=O)[O-])cc4)c4nc(c(-c5ccc(S(=O)(=O)[O-])cc5)c5ccc2[nH]5)C=C4)C=C3)cc1)c1cccs1
REMARK SMILES IDX 15 1 14 2 13 3 11 4 12 5 10 6 9 7 7 8 8 9 6 11 5 12 4 13
REMARK SMILES IDX 1 14 2 15 3 16 82 18 83 19 86 20 84 21 85 22 16 23 17 24
REMARK SMILES IDX 18 25 19 26 20 27 21 28 22 29 23 30 81 31 24 32 80 33 25 34
REMARK SMILES IDX 26 35 27 36 74 37 28 38 79 39 73 40 75 41 29 42 78 43 72 44
REMARK SMILES IDX 71 45 30 47 60 48 41 49 59 50 42 51 45 52 58 53 76 54 43 55
REMARK SMILES IDX 44 56 57 58 77 59 46 60 31 61 32 62 40 63 33 64 39 65 34 66
REMARK SMILES IDX 35 67 36 68 37 69 38 70 61 71 62 72 70 73 63 74 69 75 64 76
REMARK SMILES IDX 65 77 66 78 67 79 68 80 47 81 48 82 56 83 49 84 55 85 50 86
REMARK SMILES IDX 51 87 52 88 53 89 54 90
REMARK H PARENT 9 10 4 17 75 46 45 57
REMARK Flexibility Score: inf
ROOT
ATOM      1  C   UNL     1       1.429  -4.264   1.903  1.00  0.00     0.202 C 
ENDROOT
BRANCH   1   2
ATOM      2  C   UNL     1       2.420  -3.100   2.009  1.00  0.00     0.261 C 
BRANCH   2   3
ATOM      3  O   UNL     1       1.797  -1.881   1.566  1.00  0.00    -0.462 OA
BRANCH   3   4
ATOM      4  C   UNL     1       2.450  -1.189   0.594  1.00  0.00     0.325 C 
ATOM      5  O   UNL     1       3.601  -1.391   0.230  1.00  0.00    -0.250 OA
BRANCH   4   6
ATOM      6  C   UNL     1       1.530  -0.181  -0.100  1.00  0.00     0.238 C 
BRANCH   6   7
ATOM      7  N   UNL     1       0.227   0.036   0.515  1.00  0.00    -0.345 N 
ATOM      8  C   UNL     1      -0.202   1.058   1.306  1.00  0.00     0.222 C 
ATOM      9  O   UNL     1      -1.379   1.061   1.662  1.00  0.00    -0.275 OA
ATOM     10  H   UNL     1      -0.444  -0.660   0.331  1.00  0.00     0.164 HD
BRANCH   8  11
ATOM     11  C   UNL     1       0.752   2.165   1.697  1.00  0.00     0.130 C 
BRANCH  11  12
ATOM     12  C   UNL     1       1.766   1.688   2.742  1.00  0.00     0.131 C 
BRANCH  12  13
ATOM     13  N   UNL     1       2.838   2.650   2.995  1.00  0.00    -0.348 N 
ATOM     14  C   UNL     1       4.044   2.457   0.843  1.00  0.00     0.114 C 
ATOM     15  C   UNL     1       3.910   3.004   2.235  1.00  0.00     0.217 C 
ATOM     16  O   UNL     1       4.745   3.784   2.690  1.00  0.00    -0.275 OA
ATOM     17  H   UNL     1       2.774   3.120   3.858  1.00  0.00     0.164 HD
ENDBRANCH  12  13
BRANCH  12  18
ATOM     18  C   UNL     1       1.082   1.375   4.059  1.00  0.00     0.027 A 
ATOM     19  C   UNL     1       0.767   0.132   4.578  1.00  0.00     0.017 A 
ATOM     20  S   UNL     1       0.535   2.632   5.101  1.00  0.00    -0.147 S 
ATOM     21  C   UNL     1       0.072   0.216   5.819  1.00  0.00     0.012 A 
ATOM     22  C   UNL     1      -0.117   1.519   6.218  1.00  0.00     0.065 A 
ENDBRANCH  12  18
ENDBRANCH  11  12
ENDBRANCH   8  11
ENDBRANCH   6   7
ENDBRANCH   4   6
ENDBRANCH   3   4
ENDBRANCH   2   3
ENDBRANCH   1   2
BRANCH   1  23
ATOM     23  O   UNL     1       1.059  -4.655   0.579  1.00  0.00    -0.374 OA
BRANCH  23  24
ATOM     24  C   UNL     1       0.226  -3.780  -0.176  1.00  0.00     0.202 C 
BRANCH  24  25
ATOM     25  C   UNL     1      -1.262  -3.717   0.187  1.00  0.00     0.261 C 
BRANCH  25  26
ATOM     26  O   UNL     1      -1.499  -3.354   1.556  1.00  0.00    -0.460 OA
BRANCH  26  27
ATOM     27  C   UNL     1      -1.956  -4.379   2.314  1.00  0.00     0.338 C 
ATOM     28  O   UNL     1      -2.208  -5.516   1.927  1.00  0.00    -0.246 OA
BRANCH  27  29
ATOM     29  C   UNL     1      -1.984  -4.037   3.747  1.00  0.00     0.060 A 
ATOM     30  C   UNL     1      -1.423  -4.974   4.624  1.00  0.00     0.016 A 
ATOM     31  C   UNL     1      -2.664  -2.921   4.243  1.00  0.00     0.016 A 
ATOM     32  C   UNL     1      -1.626  -4.856   5.994  1.00  0.00     0.010 A 
ATOM     33  C   UNL     1      -2.871  -2.807   5.625  1.00  0.00     0.010 A 
ATOM     34  C   UNL     1      -2.405  -3.807   6.499  1.00  0.00    -0.014 A 
BRANCH  34  35
ATOM     35  C   UNL     1      -2.881  -3.903   7.902  1.00  0.00     0.031 A 
ATOM     36  C   UNL     1      -4.263  -4.448   8.167  1.00  0.00     0.074 A 
ATOM     37  C   UNL     1      -2.062  -3.618   8.930  1.00  0.00     0.049 A 
ATOM     38  N   UNL     1      -4.837  -4.730   9.309  1.00  0.00    -0.248 NA
ATOM     39  C   UNL     1      -5.104  -4.720   6.990  1.00  0.00     0.031 C 
ATOM     40  C   UNL     1      -0.688  -3.133   8.808  1.00  0.00     0.029 A 
ATOM     41  N   UNL     1      -2.264  -3.721  10.284  1.00  0.00    -0.354 N 
ATOM     42  C   UNL     1      -6.103  -5.208   8.989  1.00  0.00     0.074 A 
ATOM     43  C   UNL     1      -6.226  -5.149   7.549  1.00  0.00     0.031 C 
ATOM     44  C   UNL     1      -0.166  -2.990  10.039  1.00  0.00     0.029 A 
ATOM     45  C   UNL     1      -1.171  -3.361  11.034  1.00  0.00     0.049 A 
ATOM     46  H   UNL     1      -3.113  -4.025  10.680  1.00  0.00     0.167 HD
ATOM     47  C   UNL     1      -7.075  -5.666   9.814  1.00  0.00     0.031 A 
ATOM     48  C   UNL     1      -0.998  -3.338  12.370  1.00  0.00     0.031 A 
ATOM     49  C   UNL     1      -6.960  -5.722  11.247  1.00  0.00     0.049 A 
ATOM     50  C   UNL     1      -2.110  -3.807  13.271  1.00  0.00     0.074 A 
ATOM     51  C   UNL     1      -7.885  -6.182  12.168  1.00  0.00     0.029 A 
ATOM     52  N   UNL     1      -5.853  -5.302  11.968  1.00  0.00    -0.354 N 
ATOM     53  N   UNL     1      -3.289  -4.282  12.948  1.00  0.00    -0.248 NA
ATOM     54  C   UNL     1      -1.857  -3.755  14.718  1.00  0.00     0.031 C 
ATOM     55  C   UNL     1      -7.356  -5.995  13.450  1.00  0.00     0.029 A 
ATOM     56  C   UNL     1      -6.079  -5.471  13.323  1.00  0.00     0.049 A 
ATOM     57  H   UNL     1      -5.028  -4.936  11.574  1.00  0.00     0.167 HD
ATOM     58  C   UNL     1      -3.904  -4.618  14.150  1.00  0.00     0.074 A 
ATOM     59  C   UNL     1      -2.964  -4.299  15.205  1.00  0.00     0.031 C 
ATOM     60  C   UNL     1      -5.134  -5.150  14.362  1.00  0.00     0.031 A 
BRANCH  47  61
ATOM     61  C   UNL     1      -8.367  -6.111   9.182  1.00  0.00    -0.014 A 
ATOM     62  C   UNL     1      -8.450  -7.312   8.454  1.00  0.00     0.010 A 
ATOM     63  C   UNL     1      -9.523  -5.325   9.340  1.00  0.00     0.010 A 
ATOM     64  C   UNL     1      -9.655  -7.697   7.861  1.00  0.00     0.020 A 
ATOM     65  C   UNL     1     -10.736  -5.720   8.769  1.00  0.00     0.020 A 
ATOM     66  C   UNL     1     -10.790  -6.895   8.017  1.00  0.00     0.054 A 
BRANCH  66  67
ATOM     67  S   UNL     1     -12.345  -7.422   7.246  1.00  0.00     0.124 S 
ATOM     68  O   UNL     1     -12.101  -7.117   5.838  1.00  0.00    -0.237 OA
ATOM     69  O   UNL     1     -12.405  -8.843   7.579  1.00  0.00    -0.237 OA
ATOM     70  O   UNL     1     -13.354  -6.590   7.897  1.00  0.00    -0.744 OA
ENDBRANCH  66  67
ENDBRANCH  47  61
BRANCH  48  71
ATOM     71  C   UNL     1       0.291  -2.862  12.942  1.00  0.00    -0.014 A 
ATOM     72  C   UNL     1       1.179  -3.760  13.559  1.00  0.00     0.010 A 
ATOM     73  C   UNL     1       0.633  -1.499  12.873  1.00  0.00     0.010 A 
ATOM     74  C   UNL     1       2.379  -3.301  14.111  1.00  0.00     0.020 A 
ATOM     75  C   UNL     1       1.842  -1.041  13.402  1.00  0.00     0.020 A 
ATOM     76  C   UNL     1       2.703  -1.944  14.028  1.00  0.00     0.054 A 
BRANCH  76  77
ATOM     77  S   UNL     1       4.287  -1.377  14.706  1.00  0.00     0.124 S 
ATOM     78  O   UNL     1       4.025  -1.390  16.142  1.00  0.00    -0.237 OA
ATOM     79  O   UNL     1       5.220  -2.392  14.222  1.00  0.00    -0.237 OA
ATOM     80  O   UNL     1       4.457  -0.053  14.111  1.00  0.00    -0.744 OA
ENDBRANCH  76  77
ENDBRANCH  48  71
BRANCH  60  81
ATOM     81  C   UNL     1      -5.517  -5.465  15.784  1.00  0.00    -0.014 A 
ATOM     82  C   UNL     1      -5.821  -4.447  16.704  1.00  0.00     0.010 A 
ATOM     83  C   UNL     1      -5.607  -6.808  16.194  1.00  0.00     0.010 A 
ATOM     84  C   UNL     1      -6.165  -4.765  18.022  1.00  0.00     0.020 A 
ATOM     85  C   UNL     1      -5.975  -7.131  17.502  1.00  0.00     0.020 A 
ATOM     86  C   UNL     1      -6.233  -6.106  18.414  1.00  0.00     0.054 A 
BRANCH  86  87
ATOM     87  S   UNL     1      -6.699  -6.498  20.123  1.00  0.00     0.124 S 
ATOM     88  O   UNL     1      -5.464  -6.210  20.847  1.00  0.00    -0.237 OA
ATOM     89  O   UNL     1      -7.806  -5.579  20.376  1.00  0.00    -0.237 OA
ATOM     90  O   UNL     1      -7.072  -7.910  20.063  1.00  0.00    -0.744 OA
ENDBRANCH  86  87
ENDBRANCH  60  81
ENDBRANCH  34  35
ENDBRANCH  27  29
ENDBRANCH  26  27
ENDBRANCH  25  26
ENDBRANCH  24  25
ENDBRANCH  23  24
ENDBRANCH   1  23
TORSDOF 22
