REMARK SMILES O=C(OCCOCCOC(=O)c1[nH]nc2ncc(F)cc12)c1ccc(-c2c3nc(c(-c4ccc(S(=O)(=O)[O-])cc4)c4ccc([nH]4)c(-c4ccc(S(=O)(=O)[O-])cc4)c4nc(c(-c5ccc(S(=O)(=O)[O-])cc5)c5ccc2[nH]5)C=C4)C=C3)cc1
REMARK SMILES IDX 4 1 3 2 2 3 1 4 22 5 23 6 81 7 24 8 80 9 25 10 26 11 27 12
REMARK SMILES IDX 74 13 28 14 79 15 73 16 75 17 29 18 78 19 72 20 71 21 30 23
REMARK SMILES IDX 60 24 41 25 59 26 42 27 45 28 58 29 76 30 43 31 44 32 57 34
REMARK SMILES IDX 77 35 46 36 31 37 32 38 40 39 33 40 39 41 34 42 35 43 36 44
REMARK SMILES IDX 37 45 38 46 61 47 62 48 70 49 63 50 69 51 64 52 65 53 66 54
REMARK SMILES IDX 67 55 68 56 47 57 48 58 56 59 49 60 55 61 50 62 51 63 52 64
REMARK SMILES IDX 53 65 54 66 5 67 6 68 7 69 8 70 9 71 10 72 11 73 12 74 13 75
REMARK SMILES IDX 21 76 14 77 15 79 20 80 16 81 18 82 17 83 19 84
REMARK H PARENT 75 22 45 33 13 78
REMARK Flexibility Score: inf
ROOT
ATOM      1  C   UNL     1       4.330  -0.532   1.027  1.00  0.00     0.261 C 
ENDROOT
BRANCH   1   2
ATOM      2  O   UNL     1       2.933  -0.827   1.056  1.00  0.00    -0.460 OA
BRANCH   2   3
ATOM      3  C   UNL     1       1.882  -0.006   0.835  1.00  0.00     0.338 C 
ATOM      4  O   UNL     1       0.762  -0.520   0.824  1.00  0.00    -0.246 OA
BRANCH   3   5
ATOM      5  C   UNL     1       1.975   1.463   0.553  1.00  0.00     0.060 A 
ATOM      6  C   UNL     1       3.124   2.252   0.599  1.00  0.00     0.016 A 
ATOM      7  C   UNL     1       0.751   2.102   0.264  1.00  0.00     0.016 A 
ATOM      8  C   UNL     1       3.036   3.635   0.549  1.00  0.00     0.010 A 
ATOM      9  C   UNL     1       0.661   3.486   0.161  1.00  0.00     0.010 A 
ATOM     10  C   UNL     1       1.798   4.250   0.384  1.00  0.00    -0.014 A 
BRANCH  10  11
ATOM     11  C   UNL     1       1.781   5.703   0.445  1.00  0.00     0.031 A 
ATOM     12  C   UNL     1       2.603   6.407  -0.576  1.00  0.00     0.074 A 
ATOM     13  C   UNL     1       1.064   6.387   1.353  1.00  0.00     0.049 A 
ATOM     14  N   UNL     1       3.667   7.121  -0.398  1.00  0.00    -0.248 NA
ATOM     15  C   UNL     1       2.246   6.192  -1.984  1.00  0.00     0.031 C 
ATOM     16  C   UNL     1       0.014   5.889   2.245  1.00  0.00     0.029 A 
ATOM     17  N   UNL     1       1.069   7.726   1.591  1.00  0.00    -0.354 N 
ATOM     18  C   UNL     1       4.018   7.603  -1.657  1.00  0.00     0.074 A 
ATOM     19  C   UNL     1       3.195   6.892  -2.605  1.00  0.00     0.031 C 
ATOM     20  C   UNL     1      -0.672   6.940   2.745  1.00  0.00     0.029 A 
ATOM     21  C   UNL     1      -0.018   8.169   2.328  1.00  0.00     0.049 A 
ATOM     22  H   UNL     1       1.779   8.327   1.270  1.00  0.00     0.167 HD
ATOM     23  C   UNL     1       4.818   8.693  -1.827  1.00  0.00     0.031 A 
ATOM     24  C   UNL     1      -0.396   9.457   2.504  1.00  0.00     0.031 A 
ATOM     25  C   UNL     1       5.559   9.020  -0.638  1.00  0.00     0.049 A 
ATOM     26  C   UNL     1       0.791  10.310   2.251  1.00  0.00     0.074 A 
ATOM     27  C   UNL     1       6.509   8.377   0.129  1.00  0.00     0.029 A 
ATOM     28  N   UNL     1       5.105  10.068   0.126  1.00  0.00    -0.354 N 
ATOM     29  N   UNL     1       1.852  10.314   3.009  1.00  0.00    -0.248 NA
ATOM     30  C   UNL     1       0.979  10.870   0.921  1.00  0.00     0.031 C 
ATOM     31  C   UNL     1       6.234   8.777   1.470  1.00  0.00     0.029 A 
ATOM     32  C   UNL     1       5.156   9.664   1.435  1.00  0.00     0.049 A 
ATOM     33  H   UNL     1       4.801  10.944  -0.204  1.00  0.00     0.167 HD
ATOM     34  C   UNL     1       2.918  10.492   2.140  1.00  0.00     0.074 A 
ATOM     35  C   UNL     1       2.312  10.938   0.888  1.00  0.00     0.031 C 
ATOM     36  C   UNL     1       4.162  10.007   2.432  1.00  0.00     0.031 A 
BRANCH  23  37
ATOM     37  C   UNL     1       4.639   9.684  -2.955  1.00  0.00    -0.014 A 
ATOM     38  C   UNL     1       5.524  10.778  -3.055  1.00  0.00     0.010 A 
ATOM     39  C   UNL     1       3.466   9.741  -3.736  1.00  0.00     0.010 A 
ATOM     40  C   UNL     1       5.199  11.911  -3.815  1.00  0.00     0.020 A 
ATOM     41  C   UNL     1       3.155  10.843  -4.533  1.00  0.00     0.020 A 
ATOM     42  C   UNL     1       4.001  11.942  -4.530  1.00  0.00     0.054 A 
BRANCH  42  43
ATOM     43  S   UNL     1       3.503  13.467  -5.367  1.00  0.00     0.124 S 
ATOM     44  O   UNL     1       3.291  14.370  -4.240  1.00  0.00    -0.237 OA
ATOM     45  O   UNL     1       4.665  13.756  -6.203  1.00  0.00    -0.237 OA
ATOM     46  O   UNL     1       2.297  13.079  -6.096  1.00  0.00    -0.744 OA
ENDBRANCH  42  43
ENDBRANCH  23  37
BRANCH  24  47
ATOM     47  C   UNL     1      -1.787   9.968   2.502  1.00  0.00    -0.014 A 
ATOM     48  C   UNL     1      -2.080  11.282   2.904  1.00  0.00     0.010 A 
ATOM     49  C   UNL     1      -2.804   9.240   1.846  1.00  0.00     0.010 A 
ATOM     50  C   UNL     1      -3.325  11.864   2.610  1.00  0.00     0.020 A 
ATOM     51  C   UNL     1      -4.048   9.807   1.560  1.00  0.00     0.020 A 
ATOM     52  C   UNL     1      -4.294  11.128   1.921  1.00  0.00     0.054 A 
BRANCH  52  53
ATOM     53  S   UNL     1      -5.830  11.940   1.396  1.00  0.00     0.124 S 
ATOM     54  O   UNL     1      -6.505  12.180   2.668  1.00  0.00    -0.237 OA
ATOM     55  O   UNL     1      -5.339  13.129   0.706  1.00  0.00    -0.237 OA
ATOM     56  O   UNL     1      -6.469  10.946   0.534  1.00  0.00    -0.744 OA
ENDBRANCH  52  53
ENDBRANCH  24  47
BRANCH  36  57
ATOM     57  C   UNL     1       4.435   9.521   3.837  1.00  0.00    -0.014 A 
ATOM     58  C   UNL     1       3.758   8.428   4.415  1.00  0.00     0.010 A 
ATOM     59  C   UNL     1       5.529  10.072   4.527  1.00  0.00     0.010 A 
ATOM     60  C   UNL     1       4.157   7.912   5.655  1.00  0.00     0.020 A 
ATOM     61  C   UNL     1       5.943   9.550   5.756  1.00  0.00     0.020 A 
ATOM     62  C   UNL     1       5.253   8.474   6.316  1.00  0.00     0.054 A 
BRANCH  62  63
ATOM     63  S   UNL     1       5.813   7.746   7.883  1.00  0.00     0.124 S 
ATOM     64  O   UNL     1       4.720   8.071   8.794  1.00  0.00    -0.237 OA
ATOM     65  O   UNL     1       5.955   6.330   7.549  1.00  0.00    -0.237 OA
ATOM     66  O   UNL     1       7.073   8.436   8.157  1.00  0.00    -0.744 OA
ENDBRANCH  62  63
ENDBRANCH  36  57
ENDBRANCH  10  11
ENDBRANCH   3   5
ENDBRANCH   2   3
ENDBRANCH   1   2
BRANCH   1  67
ATOM     67  C   UNL     1       4.968  -0.597  -0.368  1.00  0.00     0.202 C 
BRANCH  67  68
ATOM     68  O   UNL     1       4.225  -0.166  -1.497  1.00  0.00    -0.374 OA
BRANCH  68  69
ATOM     69  C   UNL     1       3.125  -0.946  -1.967  1.00  0.00     0.202 C 
BRANCH  69  70
ATOM     70  C   UNL     1       3.288  -2.451  -2.223  1.00  0.00     0.261 C 
BRANCH  70  71
ATOM     71  O   UNL     1       3.550  -3.221  -1.034  1.00  0.00    -0.459 OA
BRANCH  71  72
ATOM     72  C   UNL     1       4.740  -3.888  -1.004  1.00  0.00     0.357 C 
ATOM     73  O   UNL     1       5.575  -3.895  -1.885  1.00  0.00    -0.244 OA
BRANCH  72  74
ATOM     74  C   UNL     1       4.894  -4.511   0.275  1.00  0.00     0.153 A 
ATOM     75  N   UNL     1       4.107  -5.539   0.724  1.00  0.00    -0.269 N 
ATOM     76  C   UNL     1       5.784  -4.288   1.301  1.00  0.00     0.056 A 
ATOM     77  N   UNL     1       4.446  -6.025   1.935  1.00  0.00    -0.154 NA
ATOM     78  H   UNL     1       3.352  -5.895   0.203  1.00  0.00     0.190 HD
ATOM     79  C   UNL     1       5.443  -5.231   2.325  1.00  0.00     0.181 A 
ATOM     80  C   UNL     1       6.766  -3.303   1.356  1.00  0.00     0.055 A 
ATOM     81  N   UNL     1       6.089  -5.251   3.521  1.00  0.00    -0.232 NA
ATOM     82  C   UNL     1       7.373  -3.311   2.613  1.00  0.00     0.142 A 
ATOM     83  C   UNL     1       7.025  -4.252   3.607  1.00  0.00     0.152 A 
ATOM     84  F   UNL     1       8.302  -2.384   2.887  1.00  0.00    -0.205 F 
ENDBRANCH  72  74
ENDBRANCH  71  72
ENDBRANCH  70  71
ENDBRANCH  69  70
ENDBRANCH  68  69
ENDBRANCH  67  68
ENDBRANCH   1  67
TORSDOF 17
