REMARK SMILES Cc1cc(F)c([C@](C)(NC=O)C(=O)OCCOCCOC(=O)c2ccc(-c3c4nc(c(-c5ccc(S(=O)(=O)[O-])cc5)c5ccc([nH]5)c(-c5ccc(S(=O)(=O)[O-])cc5)c5nc(c(-c6ccc(S(=O)(=O)[O-])cc6)c6ccc3[nH]6)C=C5)C=C4)cc2)cc1F
REMARK SMILES IDX 18 1 17 2 16 3 15 4 14 5 12 6 13 7 7 8 8 9 6 10 1 11 2 12
REMARK SMILES IDX 3 13 84 14 4 15 83 16 85 17 5 18 9 19 10 20 11 22 19 23
REMARK SMILES IDX 20 24 21 25 22 26 23 27 24 28 82 29 25 30 81 31 26 32 27 33
REMARK SMILES IDX 28 34 75 35 29 36 80 37 74 38 76 39 30 40 79 41 73 42 72 43
REMARK SMILES IDX 31 45 61 46 42 47 60 48 43 49 46 50 59 51 77 52 44 53 45 54
REMARK SMILES IDX 58 56 78 57 47 58 32 59 33 60 41 61 34 62 40 63 35 64 36 65
REMARK SMILES IDX 37 66 38 67 39 68 62 69 63 70 71 71 64 72 70 73 65 74 66 75
REMARK SMILES IDX 67 76 68 77 69 78 48 79 49 80 57 81 50 82 56 83 51 84 52 85
REMARK SMILES IDX 53 86 54 87 55 88
REMARK H PARENT 9 21 76 44 46 55
REMARK Flexibility Score: inf
ROOT
ATOM      1  C   UNL     1      -0.180   0.003   6.834  1.00  0.00     0.202 C 
ENDROOT
BRANCH   1   2
ATOM      2  O   UNL     1      -1.413   0.653   7.144  1.00  0.00    -0.374 OA
BRANCH   2   3
ATOM      3  C   UNL     1      -2.441  -0.125   7.757  1.00  0.00     0.202 C 
BRANCH   3   4
ATOM      4  C   UNL     1      -3.323  -0.957   6.825  1.00  0.00     0.261 C 
BRANCH   4   5
ATOM      5  O   UNL     1      -2.565  -1.982   6.167  1.00  0.00    -0.461 OA
BRANCH   5   6
ATOM      6  C   UNL     1      -2.104  -1.653   4.926  1.00  0.00     0.336 C 
ATOM      7  O   UNL     1      -2.375  -0.601   4.356  1.00  0.00    -0.249 OA
BRANCH   6   8
ATOM      8  C   UNL     1      -1.256  -2.814   4.296  1.00  0.00     0.163 C 
ATOM      9  C   UNL     1      -0.440  -2.167   3.149  1.00  0.00     0.053 C 
BRANCH   8  10
ATOM     10  C   UNL     1      -2.201  -3.878   3.732  1.00  0.00     0.027 A 
ATOM     11  C   UNL     1      -5.200  -6.681   2.332  1.00  0.00     0.047 C 
ATOM     12  C   UNL     1      -4.129  -5.733   2.771  1.00  0.00    -0.012 A 
ATOM     13  C   UNL     1      -4.222  -4.383   2.438  1.00  0.00     0.046 A 
ATOM     14  C   UNL     1      -3.054  -6.149   3.558  1.00  0.00     0.126 A 
ATOM     15  C   UNL     1      -3.266  -3.485   2.900  1.00  0.00     0.129 A 
ATOM     16  C   UNL     1      -2.098  -5.245   4.031  1.00  0.00     0.049 A 
ATOM     17  F   UNL     1      -2.927  -7.443   3.884  1.00  0.00    -0.207 F 
ATOM     18  F   UNL     1      -3.398  -2.206   2.530  1.00  0.00    -0.207 F 
ENDBRANCH   8  10
BRANCH   8  19
ATOM     19  N   UNL     1      -0.222  -3.375   5.213  1.00  0.00    -0.339 N 
ATOM     20  C   UNL     1      -0.335  -3.878   6.470  1.00  0.00     0.338 C 
ATOM     21  H   UNL     1       0.692  -3.382   4.847  1.00  0.00     0.164 HD
ATOM     22  O   UNL     1       0.621  -4.408   7.022  1.00  0.00    -0.279 OA
ENDBRANCH   8  19
ENDBRANCH   6   8
ENDBRANCH   5   6
ENDBRANCH   4   5
ENDBRANCH   3   4
ENDBRANCH   2   3
ENDBRANCH   1   2
BRANCH   1  23
ATOM     23  C   UNL     1       0.798  -0.233   7.988  1.00  0.00     0.261 C 
BRANCH  23  24
ATOM     24  O   UNL     1       0.295  -1.216   8.908  1.00  0.00    -0.460 OA
BRANCH  24  25
ATOM     25  C   UNL     1      -0.180  -0.717  10.074  1.00  0.00     0.338 C 
ATOM     26  O   UNL     1      -0.147   0.451  10.436  1.00  0.00    -0.246 OA
BRANCH  25  27
ATOM     27  C   UNL     1      -0.964  -1.755  10.777  1.00  0.00     0.060 A 
ATOM     28  C   UNL     1      -0.536  -3.081  10.863  1.00  0.00     0.016 A 
ATOM     29  C   UNL     1      -2.171  -1.363  11.373  1.00  0.00     0.016 A 
ATOM     30  C   UNL     1      -1.296  -3.999  11.597  1.00  0.00     0.010 A 
ATOM     31  C   UNL     1      -2.921  -2.277  12.112  1.00  0.00     0.010 A 
ATOM     32  C   UNL     1      -2.476  -3.598  12.254  1.00  0.00    -0.014 A 
BRANCH  32  33
ATOM     33  C   UNL     1      -3.154  -4.518  13.203  1.00  0.00     0.031 A 
ATOM     34  C   UNL     1      -4.494  -5.123  12.902  1.00  0.00     0.074 A 
ATOM     35  C   UNL     1      -2.545  -4.787  14.376  1.00  0.00     0.049 A 
ATOM     36  N   UNL     1      -5.157  -6.018  13.588  1.00  0.00    -0.248 NA
ATOM     37  C   UNL     1      -5.184  -4.664  11.687  1.00  0.00     0.031 C 
ATOM     38  C   UNL     1      -1.266  -4.215  14.802  1.00  0.00     0.029 A 
ATOM     39  N   UNL     1      -2.901  -5.615  15.412  1.00  0.00    -0.354 N 
ATOM     40  C   UNL     1      -6.328  -6.252  12.879  1.00  0.00     0.074 A 
ATOM     41  C   UNL     1      -6.314  -5.358  11.741  1.00  0.00     0.031 C 
ATOM     42  C   UNL     1      -0.919  -4.748  15.982  1.00  0.00     0.029 A 
ATOM     43  C   UNL     1      -1.963  -5.672  16.418  1.00  0.00     0.049 A 
ATOM     44  H   UNL     1      -3.745  -6.120  15.433  1.00  0.00     0.167 HD
ATOM     45  C   UNL     1      -7.307  -7.150  13.143  1.00  0.00     0.031 A 
ATOM     46  C   UNL     1      -1.929  -6.396  17.555  1.00  0.00     0.031 A 
ATOM     47  C   UNL     1      -7.317  -8.022  14.293  1.00  0.00     0.049 A 
ATOM     48  C   UNL     1      -3.038  -7.372  17.836  1.00  0.00     0.074 A 
ATOM     49  C   UNL     1      -8.251  -8.990  14.623  1.00  0.00     0.029 A 
ATOM     50  N   UNL     1      -6.360  -8.036  15.298  1.00  0.00    -0.354 N 
ATOM     51  N   UNL     1      -4.096  -7.644  17.110  1.00  0.00    -0.248 NA
ATOM     52  C   UNL     1      -2.938  -8.162  19.071  1.00  0.00     0.031 C 
ATOM     53  C   UNL     1      -7.903  -9.530  15.863  1.00  0.00     0.029 A 
ATOM     54  C   UNL     1      -6.697  -8.975  16.260  1.00  0.00     0.049 A 
ATOM     55  H   UNL     1      -5.559  -7.463  15.324  1.00  0.00     0.167 HD
ATOM     56  C   UNL     1      -4.766  -8.664  17.779  1.00  0.00     0.074 A 
ATOM     57  C   UNL     1      -3.988  -8.966  18.963  1.00  0.00     0.031 C 
ATOM     58  C   UNL     1      -5.917  -9.291  17.433  1.00  0.00     0.031 A 
BRANCH  45  59
ATOM     59  C   UNL     1      -8.450  -7.279  12.164  1.00  0.00    -0.014 A 
ATOM     60  C   UNL     1      -9.767  -7.000  12.574  1.00  0.00     0.010 A 
ATOM     61  C   UNL     1      -8.237  -7.822  10.883  1.00  0.00     0.010 A 
ATOM     62  C   UNL     1     -10.850  -7.301  11.743  1.00  0.00     0.020 A 
ATOM     63  C   UNL     1      -9.315  -8.093  10.036  1.00  0.00     0.020 A 
ATOM     64  C   UNL     1     -10.617  -7.856  10.482  1.00  0.00     0.054 A 
BRANCH  64  65
ATOM     65  S   UNL     1     -12.036  -8.284   9.437  1.00  0.00     0.124 S 
ATOM     66  O   UNL     1     -12.580  -9.455  10.117  1.00  0.00    -0.237 OA
ATOM     67  O   UNL     1     -12.855  -7.076   9.504  1.00  0.00    -0.237 OA
ATOM     68  O   UNL     1     -11.434  -8.544   8.130  1.00  0.00    -0.744 OA
ENDBRANCH  64  65
ENDBRANCH  45  59
BRANCH  46  69
ATOM     69  C   UNL     1      -0.750  -6.269  18.459  1.00  0.00    -0.014 A 
ATOM     70  C   UNL     1      -0.485  -5.056  19.122  1.00  0.00     0.010 A 
ATOM     71  C   UNL     1       0.167  -7.328  18.588  1.00  0.00     0.010 A 
ATOM     72  C   UNL     1       0.699  -4.884  19.844  1.00  0.00     0.020 A 
ATOM     73  C   UNL     1       1.335  -7.173  19.341  1.00  0.00     0.020 A 
ATOM     74  C   UNL     1       1.608  -5.940  19.937  1.00  0.00     0.054 A 
BRANCH  74  75
ATOM     75  S   UNL     1       3.166  -5.668  20.825  1.00  0.00     0.124 S 
ATOM     76  O   UNL     1       3.892  -4.802  19.899  1.00  0.00    -0.237 OA
ATOM     77  O   UNL     1       2.720  -5.034  22.062  1.00  0.00    -0.237 OA
ATOM     78  O   UNL     1       3.713  -7.014  20.980  1.00  0.00    -0.744 OA
ENDBRANCH  74  75
ENDBRANCH  46  69
BRANCH  58  79
ATOM     79  C   UNL     1      -6.424 -10.409  18.315  1.00  0.00    -0.014 A 
ATOM     80  C   UNL     1      -6.523 -11.712  17.787  1.00  0.00     0.010 A 
ATOM     81  C   UNL     1      -6.928 -10.159  19.603  1.00  0.00     0.010 A 
ATOM     82  C   UNL     1      -7.153 -12.729  18.508  1.00  0.00     0.020 A 
ATOM     83  C   UNL     1      -7.526 -11.184  20.345  1.00  0.00     0.020 A 
ATOM     84  C   UNL     1      -7.660 -12.456  19.780  1.00  0.00     0.054 A 
BRANCH  84  85
ATOM     85  S   UNL     1      -8.510 -13.780  20.683  1.00  0.00     0.124 S 
ATOM     86  O   UNL     1      -9.782 -13.869  19.974  1.00  0.00    -0.237 OA
ATOM     87  O   UNL     1      -7.609 -14.917  20.507  1.00  0.00    -0.237 OA
ATOM     88  O   UNL     1      -8.592 -13.266  22.049  1.00  0.00    -0.744 OA
ENDBRANCH  84  85
ENDBRANCH  58  79
ENDBRANCH  32  33
ENDBRANCH  25  27
ENDBRANCH  24  25
ENDBRANCH  23  24
ENDBRANCH   1  23
TORSDOF 19
