REMARK SMILES NS(=O)(=O)c1ccc(-n2nc(C(=O)OCCOCCOC(=O)c3ccc(-c4c5nc(c(-c6ccc(S(=O)(=O)[O-])cc6)c6ccc([nH]6)c(-c6ccc(S(=O)(=O)[O-])cc6)c6nc(c(-c7ccc(S(=O)(=O)[O-])cc7)c7ccc4[nH]7)C=C6)C=C5)cc3)cc2-c2ccc(Cl)s2)cc1
REMARK SMILES IDX 17 1 16 2 15 3 14 4 12 5 13 6 11 7 9 8 10 9 84 10 83 11 8 12
REMARK SMILES IDX 5 13 6 14 92 15 7 16 91 17 2 18 3 19 4 20 1 21 85 24 86 25
REMARK SMILES IDX 90 26 87 27 88 28 89 29 18 30 19 31 20 32 21 33 22 34 23 35
REMARK SMILES IDX 24 36 82 37 25 38 81 39 26 40 27 41 28 42 75 43 29 44 80 45
REMARK SMILES IDX 74 46 76 47 30 48 79 49 73 50 72 51 31 53 61 54 42 55 60 56
REMARK SMILES IDX 43 57 46 58 59 59 77 60 44 61 45 62 58 64 78 65 47 66 32 67
REMARK SMILES IDX 33 68 41 69 34 70 40 71 35 72 36 73 37 74 38 75 39 76 62 77
REMARK SMILES IDX 63 78 71 79 64 80 70 81 65 82 66 83 67 84 68 85 69 86 48 87
REMARK SMILES IDX 49 88 57 89 50 90 56 91 51 92 52 93 53 94 54 95 55 96
REMARK H PARENT 1 22 1 23 76 52 46 63
REMARK Flexibility Score: inf
ROOT
ATOM      1  O   UNL     1      -1.085  11.279   3.977  1.00  0.00    -0.374 OA
ENDROOT
BRANCH   1   2
ATOM      2  C   UNL     1      -0.380  11.569   5.182  1.00  0.00     0.202 C 
BRANCH   2   3
ATOM      3  C   UNL     1      -0.023  10.428   6.135  1.00  0.00     0.261 C 
BRANCH   3   4
ATOM      4  O   UNL     1       0.869   9.472   5.548  1.00  0.00    -0.458 OA
BRANCH   4   5
ATOM      5  C   UNL     1       0.263   8.320   5.131  1.00  0.00     0.358 C 
ATOM      6  O   UNL     1      -0.910   8.035   5.349  1.00  0.00    -0.244 OA
BRANCH   5   7
ATOM      7  C   UNL     1       1.154   7.492   4.315  1.00  0.00     0.171 A 
ATOM      8  N   UNL     1       1.712   6.031   2.858  1.00  0.00    -0.231 N 
ATOM      9  N   UNL     1       0.702   6.852   3.221  1.00  0.00    -0.160 NA
ATOM     10  C   UNL     1       2.856   6.254   3.607  1.00  0.00     0.085 A 
ATOM     11  C   UNL     1       2.533   7.245   4.509  1.00  0.00     0.068 A 
BRANCH   8  12
ATOM     12  C   UNL     1       1.429   4.961   1.979  1.00  0.00     0.065 A 
ATOM     13  C   UNL     1       0.856   2.848   0.276  1.00  0.00     0.082 A 
ATOM     14  C   UNL     1       1.388   2.588   1.542  1.00  0.00     0.024 A 
ATOM     15  C   UNL     1       0.599   4.161  -0.139  1.00  0.00     0.024 A 
ATOM     16  C   UNL     1       1.691   3.649   2.391  1.00  0.00     0.030 A 
ATOM     17  C   UNL     1       0.855   5.224   0.730  1.00  0.00     0.030 A 
BRANCH  13  18
ATOM     18  S   UNL     1       0.519   1.528  -0.849  1.00  0.00     0.238 S 
ATOM     19  O   UNL     1       1.233   1.764  -2.075  1.00  0.00    -0.207 OA
ATOM     20  O   UNL     1      -0.901   1.244  -0.808  1.00  0.00    -0.207 OA
BRANCH  18  21
ATOM     21  N   UNL     1       1.260   0.184  -0.157  1.00  0.00    -0.225 NA
ATOM     22  H   UNL     1       1.111  -0.631  -0.752  1.00  0.00     0.137 HD
ATOM     23  H   UNL     1       0.857   0.011   0.764  1.00  0.00     0.137 HD
ENDBRANCH  18  21
ENDBRANCH  13  18
ENDBRANCH   8  12
BRANCH  10  24
ATOM     24  C   UNL     1       4.094   5.548   3.462  1.00  0.00     0.054 A 
ATOM     25  C   UNL     1       4.779   4.894   4.468  1.00  0.00     0.024 A 
ATOM     26  S   UNL     1       4.903   5.409   1.956  1.00  0.00    -0.122 S 
ATOM     27  C   UNL     1       5.934   4.215   3.980  1.00  0.00     0.033 A 
ATOM     28  C   UNL     1       6.092   4.416   2.633  1.00  0.00     0.094 A 
ATOM     29  Cl  UNL     1       7.328   3.758   1.642  1.00  0.00    -0.072 Cl
ENDBRANCH  10  24
ENDBRANCH   5   7
ENDBRANCH   4   5
ENDBRANCH   3   4
ENDBRANCH   2   3
ENDBRANCH   1   2
BRANCH   1  30
ATOM     30  C   UNL     1      -0.468  10.573   2.901  1.00  0.00     0.202 C 
BRANCH  30  31
ATOM     31  C   UNL     1       0.638  11.245   2.098  1.00  0.00     0.261 C 
BRANCH  31  32
ATOM     32  O   UNL     1       1.720  11.611   2.935  1.00  0.00    -0.460 OA
BRANCH  32  33
ATOM     33  C   UNL     1       1.693  12.907   3.321  1.00  0.00     0.338 C 
ATOM     34  O   UNL     1       0.819  13.726   3.097  1.00  0.00    -0.246 OA
BRANCH  33  35
ATOM     35  C   UNL     1       2.954  13.211   4.012  1.00  0.00     0.060 A 
ATOM     36  C   UNL     1       3.208  14.576   4.131  1.00  0.00     0.016 A 
ATOM     37  C   UNL     1       3.974  12.249   4.003  1.00  0.00     0.016 A 
ATOM     38  C   UNL     1       4.458  14.999   3.771  1.00  0.00     0.010 A 
ATOM     39  C   UNL     1       5.228  12.674   3.663  1.00  0.00     0.010 A 
ATOM     40  C   UNL     1       5.391  14.028   3.397  1.00  0.00    -0.014 A 
BRANCH  40  41
ATOM     41  C   UNL     1       6.577  14.468   2.710  1.00  0.00     0.031 A 
ATOM     42  C   UNL     1       7.566  15.023   3.646  1.00  0.00     0.074 A 
ATOM     43  C   UNL     1       6.758  14.280   1.391  1.00  0.00     0.049 A 
ATOM     44  N   UNL     1       7.822  16.269   3.858  1.00  0.00    -0.248 NA
ATOM     45  C   UNL     1       8.132  14.100   4.643  1.00  0.00     0.031 C 
ATOM     46  C   UNL     1       5.970  13.499   0.433  1.00  0.00     0.029 A 
ATOM     47  N   UNL     1       7.802  14.693   0.639  1.00  0.00    -0.354 N 
ATOM     48  C   UNL     1       8.765  16.266   4.874  1.00  0.00     0.074 A 
ATOM     49  C   UNL     1       8.703  14.961   5.482  1.00  0.00     0.031 C 
ATOM     50  C   UNL     1       6.719  13.277  -0.676  1.00  0.00     0.029 A 
ATOM     51  C   UNL     1       7.972  14.005  -0.551  1.00  0.00     0.049 A 
ATOM     52  H   UNL     1       8.396  15.428   0.915  1.00  0.00     0.167 HD
ATOM     53  C   UNL     1       9.742  17.208   4.942  1.00  0.00     0.031 A 
ATOM     54  C   UNL     1       9.127  13.958  -1.270  1.00  0.00     0.031 A 
ATOM     55  C   UNL     1       9.465  18.334   4.088  1.00  0.00     0.049 A 
ATOM     56  C   UNL     1       9.936  15.139  -0.839  1.00  0.00     0.074 A 
ATOM     57  C   UNL     1       8.441  19.259   4.017  1.00  0.00     0.029 A 
ATOM     58  N   UNL     1      10.079  18.356   2.855  1.00  0.00    -0.354 N 
ATOM     59  N   UNL     1       9.545  16.373  -1.034  1.00  0.00    -0.248 NA
ATOM     60  C   UNL     1      10.868  14.957   0.270  1.00  0.00     0.031 C 
ATOM     61  C   UNL     1       8.182  19.412   2.623  1.00  0.00     0.029 A 
ATOM     62  C   UNL     1       9.110  18.639   1.921  1.00  0.00     0.049 A 
ATOM     63  H   UNL     1      11.034  18.199   2.676  1.00  0.00     0.167 HD
ATOM     64  C   UNL     1       9.838  17.044   0.147  1.00  0.00     0.074 A 
ATOM     65  C   UNL     1      10.706  16.130   0.895  1.00  0.00     0.031 C 
ATOM     66  C   UNL     1       9.117  18.131   0.562  1.00  0.00     0.031 A 
BRANCH  53  67
ATOM     67  C   UNL     1      11.119  16.892   5.453  1.00  0.00    -0.014 A 
ATOM     68  C   UNL     1      12.033  17.941   5.643  1.00  0.00     0.010 A 
ATOM     69  C   UNL     1      11.627  15.574   5.512  1.00  0.00     0.010 A 
ATOM     70  C   UNL     1      13.396  17.679   5.835  1.00  0.00     0.020 A 
ATOM     71  C   UNL     1      12.969  15.301   5.752  1.00  0.00     0.020 A 
ATOM     72  C   UNL     1      13.853  16.360   5.878  1.00  0.00     0.054 A 
BRANCH  72  73
ATOM     73  S   UNL     1      15.624  16.036   6.025  1.00  0.00     0.124 S 
ATOM     74  O   UNL     1      16.131  16.574   4.766  1.00  0.00    -0.237 OA
ATOM     75  O   UNL     1      15.975  16.788   7.226  1.00  0.00    -0.237 OA
ATOM     76  O   UNL     1      15.696  14.583   6.161  1.00  0.00    -0.744 OA
ENDBRANCH  72  73
ENDBRANCH  53  67
BRANCH  54  77
ATOM     77  C   UNL     1       9.717  12.712  -1.849  1.00  0.00    -0.014 A 
ATOM     78  C   UNL     1      10.821  12.731  -2.724  1.00  0.00     0.010 A 
ATOM     79  C   UNL     1       9.331  11.454  -1.336  1.00  0.00     0.010 A 
ATOM     80  C   UNL     1      11.524  11.547  -3.039  1.00  0.00     0.020 A 
ATOM     81  C   UNL     1      10.017  10.274  -1.647  1.00  0.00     0.020 A 
ATOM     82  C   UNL     1      11.124  10.326  -2.485  1.00  0.00     0.054 A 
BRANCH  82  83
ATOM     83  S   UNL     1      12.110   8.823  -2.768  1.00  0.00     0.124 S 
ATOM     84  O   UNL     1      11.874   8.556  -4.184  1.00  0.00    -0.237 OA
ATOM     85  O   UNL     1      13.460   9.258  -2.422  1.00  0.00    -0.237 OA
ATOM     86  O   UNL     1      11.523   7.848  -1.849  1.00  0.00    -0.744 OA
ENDBRANCH  82  83
ENDBRANCH  54  77
BRANCH  66  87
ATOM     87  C   UNL     1       8.073  18.718  -0.369  1.00  0.00    -0.014 A 
ATOM     88  C   UNL     1       6.917  18.024  -0.789  1.00  0.00     0.010 A 
ATOM     89  C   UNL     1       8.164  20.089  -0.662  1.00  0.00     0.010 A 
ATOM     90  C   UNL     1       5.895  18.684  -1.494  1.00  0.00     0.020 A 
ATOM     91  C   UNL     1       7.144  20.755  -1.349  1.00  0.00     0.020 A 
ATOM     92  C   UNL     1       6.016  20.049  -1.768  1.00  0.00     0.054 A 
BRANCH  92  93
ATOM     93  S   UNL     1       4.673  20.915  -2.634  1.00  0.00     0.124 S 
ATOM     94  O   UNL     1       4.726  20.328  -3.970  1.00  0.00    -0.237 OA
ATOM     95  O   UNL     1       3.497  20.567  -1.839  1.00  0.00    -0.237 OA
ATOM     96  O   UNL     1       5.063  22.323  -2.562  1.00  0.00    -0.744 OA
ENDBRANCH  92  93
ENDBRANCH  66  87
ENDBRANCH  40  41
ENDBRANCH  33  35
ENDBRANCH  32  33
ENDBRANCH  31  32
ENDBRANCH  30  31
ENDBRANCH   1  30
TORSDOF 21
