REMARK SMILES CC(C)n1c([C@H](O)CC(=O)OCCOCCOC(=O)c2ccc(-c3c4nc(c(-c5ccc(S(=O)(=O)[O-])cc5)c5ccc([nH]5)c(-c5ccc(S(=O)(=O)[O-])cc5)c5nc(c(-c6ccc(S(=O)(=O)[O-])cc6)c6ccc3[nH]6)C=C5)C=C4)cc2)nc2cc(Cl)ccc21
REMARK SMILES IDX 14 1 13 2 12 3 11 4 9 5 10 6 8 7 6 8 5 9 4 10 87 11 80 12
REMARK SMILES IDX 81 13 86 14 82 15 85 16 83 17 84 18 2 19 1 20 3 21 7 22
REMARK SMILES IDX 15 24 16 25 17 26 18 27 19 28 20 29 21 30 79 31 22 32 78 33
REMARK SMILES IDX 23 34 24 35 25 36 72 37 26 38 77 39 71 40 73 41 27 42 76 43
REMARK SMILES IDX 70 44 69 45 28 47 58 48 39 49 57 50 40 51 43 52 56 53 74 54
REMARK SMILES IDX 41 55 42 56 55 58 75 59 44 60 29 61 30 62 38 63 31 64 37 65
REMARK SMILES IDX 32 66 33 67 34 68 35 69 36 70 59 71 60 72 68 73 61 74 67 75
REMARK SMILES IDX 62 76 63 77 64 78 65 79 66 80 45 81 46 82 54 83 47 84 53 85
REMARK SMILES IDX 48 86 49 87 50 88 51 89 52 90
REMARK H PARENT 7 23 73 46 43 57
REMARK Flexibility Score: inf
ROOT
ATOM      1  O   UNL     1       1.673  -3.793   3.520  1.00  0.00    -0.374 OA
ENDROOT
BRANCH   1   2
ATOM      2  C   UNL     1       0.526  -4.592   3.237  1.00  0.00     0.202 C 
BRANCH   2   3
ATOM      3  C   UNL     1      -0.874  -3.990   3.428  1.00  0.00     0.261 C 
BRANCH   3   4
ATOM      4  O   UNL     1      -0.951  -2.644   2.939  1.00  0.00    -0.463 OA
BRANCH   4   5
ATOM      5  C   UNL     1      -1.224  -1.693   3.873  1.00  0.00     0.308 C 
ATOM      6  O   UNL     1      -1.525  -1.917   5.038  1.00  0.00    -0.252 OA
BRANCH   5   7
ATOM      7  C   UNL     1      -0.904  -0.306   3.379  1.00  0.00     0.162 C 
BRANCH   7   8
ATOM      8  C   UNL     1      -1.328   0.096   1.975  1.00  0.00     0.191 C 
BRANCH   8   9
ATOM      9  C   UNL     1      -2.452   1.096   1.906  1.00  0.00     0.139 A 
ATOM     10  N   UNL     1      -3.746   0.996   2.405  1.00  0.00    -0.323 N 
ATOM     11  C   UNL     1      -4.389   2.196   2.118  1.00  0.00     0.069 A 
ATOM     12  N   UNL     1      -2.274   2.271   1.317  1.00  0.00    -0.230 NA
ATOM     13  C   UNL     1      -3.455   2.942   1.414  1.00  0.00     0.090 A 
ATOM     14  C   UNL     1      -5.673   2.685   2.397  1.00  0.00     0.030 A 
ATOM     15  C   UNL     1      -3.791   4.212   0.924  1.00  0.00     0.051 A 
ATOM     16  C   UNL     1      -6.000   3.953   1.905  1.00  0.00     0.023 A 
ATOM     17  C   UNL     1      -5.075   4.698   1.175  1.00  0.00     0.043 A 
ATOM     18  Cl  UNL     1      -5.524   6.249   0.572  1.00  0.00    -0.084 Cl
BRANCH  10  19
ATOM     19  C   UNL     1      -4.402  -0.078   3.151  1.00  0.00     0.083 C 
ATOM     20  C   UNL     1      -4.340  -1.464   2.514  1.00  0.00     0.031 C 
ATOM     21  C   UNL     1      -4.071  -0.042   4.646  1.00  0.00     0.031 C 
ENDBRANCH  10  19
ENDBRANCH   8   9
BRANCH   8  22
ATOM     22  O   UNL     1      -1.587  -0.935   1.036  1.00  0.00    -0.385 OA
ATOM     23  H   UNL     1      -2.414  -1.385   1.271  1.00  0.00     0.211 HD
ENDBRANCH   8  22
ENDBRANCH   7   8
ENDBRANCH   5   7
ENDBRANCH   4   5
ENDBRANCH   3   4
ENDBRANCH   2   3
ENDBRANCH   1   2
BRANCH   1  24
ATOM     24  C   UNL     1       1.931  -2.642   2.716  1.00  0.00     0.202 C 
BRANCH  24  25
ATOM     25  C   UNL     1       2.104  -2.785   1.195  1.00  0.00     0.261 C 
BRANCH  25  26
ATOM     26  O   UNL     1       0.939  -3.341   0.576  1.00  0.00    -0.460 OA
BRANCH  26  27
ATOM     27  C   UNL     1       1.215  -4.292  -0.366  1.00  0.00     0.338 C 
ATOM     28  O   UNL     1       2.237  -4.425  -0.999  1.00  0.00    -0.246 OA
BRANCH  27  29
ATOM     29  C   UNL     1       0.199  -5.345  -0.168  1.00  0.00     0.060 A 
ATOM     30  C   UNL     1      -1.160  -5.035  -0.162  1.00  0.00     0.016 A 
ATOM     31  C   UNL     1       0.664  -6.593   0.281  1.00  0.00     0.016 A 
ATOM     32  C   UNL     1      -2.053  -5.978   0.334  1.00  0.00     0.010 A 
ATOM     33  C   UNL     1      -0.230  -7.519   0.812  1.00  0.00     0.010 A 
ATOM     34  C   UNL     1      -1.591  -7.211   0.843  1.00  0.00    -0.014 A 
BRANCH  34  35
ATOM     35  C   UNL     1      -2.600  -8.250   1.065  1.00  0.00     0.031 A 
ATOM     36  C   UNL     1      -3.228  -8.669  -0.212  1.00  0.00     0.074 A 
ATOM     37  C   UNL     1      -2.915  -8.940   2.179  1.00  0.00     0.049 A 
ATOM     38  N   UNL     1      -4.434  -8.432  -0.606  1.00  0.00    -0.248 NA
ATOM     39  C   UNL     1      -2.360  -9.290  -1.225  1.00  0.00     0.031 C 
ATOM     40  C   UNL     1      -2.195  -8.974   3.451  1.00  0.00     0.029 A 
ATOM     41  N   UNL     1      -3.928  -9.849   2.366  1.00  0.00    -0.354 N 
ATOM     42  C   UNL     1      -4.543  -9.070  -1.834  1.00  0.00     0.074 A 
ATOM     43  C   UNL     1      -3.204  -9.406  -2.249  1.00  0.00     0.031 C 
ATOM     44  C   UNL     1      -2.655 -10.013   4.191  1.00  0.00     0.029 A 
ATOM     45  C   UNL     1      -3.800 -10.612   3.519  1.00  0.00     0.049 A 
ATOM     46  H   UNL     1      -4.679  -9.950   1.738  1.00  0.00     0.167 HD
ATOM     47  C   UNL     1      -5.737  -9.534  -2.282  1.00  0.00     0.031 A 
ATOM     48  C   UNL     1      -4.554 -11.680   3.882  1.00  0.00     0.031 A 
ATOM     49  C   UNL     1      -6.845  -9.002  -1.537  1.00  0.00     0.049 A 
ATOM     50  C   UNL     1      -5.878 -11.587   3.226  1.00  0.00     0.074 A 
ATOM     51  C   UNL     1      -7.560  -7.828  -1.490  1.00  0.00     0.029 A 
ATOM     52  N   UNL     1      -7.136  -9.703  -0.400  1.00  0.00    -0.354 N 
ATOM     53  N   UNL     1      -6.749 -10.652   3.486  1.00  0.00    -0.248 NA
ATOM     54  C   UNL     1      -6.192 -12.435   2.080  1.00  0.00     0.031 C 
ATOM     55  C   UNL     1      -8.195  -7.792  -0.211  1.00  0.00     0.029 A 
ATOM     56  C   UNL     1      -7.869  -8.954   0.484  1.00  0.00     0.049 A 
ATOM     57  H   UNL     1      -6.854 -10.632  -0.236  1.00  0.00     0.167 HD
ATOM     58  C   UNL     1      -7.482 -10.537   2.324  1.00  0.00     0.074 A 
ATOM     59  C   UNL     1      -7.227 -11.759   1.578  1.00  0.00     0.031 C 
ATOM     60  C   UNL     1      -7.924  -9.323   1.889  1.00  0.00     0.031 A 
BRANCH  47  61
ATOM     61  C   UNL     1      -5.868 -10.808  -3.082  1.00  0.00    -0.014 A 
ATOM     62  C   UNL     1      -4.860 -11.795  -3.122  1.00  0.00     0.010 A 
ATOM     63  C   UNL     1      -7.125 -11.161  -3.610  1.00  0.00     0.010 A 
ATOM     64  C   UNL     1      -5.061 -13.040  -3.717  1.00  0.00     0.020 A 
ATOM     65  C   UNL     1      -7.353 -12.426  -4.170  1.00  0.00     0.020 A 
ATOM     66  C   UNL     1      -6.310 -13.349  -4.238  1.00  0.00     0.054 A 
BRANCH  66  67
ATOM     67  S   UNL     1      -6.548 -14.996  -4.946  1.00  0.00     0.124 S 
ATOM     68  O   UNL     1      -5.735 -14.918  -6.158  1.00  0.00    -0.237 OA
ATOM     69  O   UNL     1      -6.029 -15.867  -3.896  1.00  0.00    -0.237 OA
ATOM     70  O   UNL     1      -7.990 -15.071  -5.165  1.00  0.00    -0.744 OA
ENDBRANCH  66  67
ENDBRANCH  47  61
BRANCH  48  71
ATOM     71  C   UNL     1      -4.127 -12.937   4.550  1.00  0.00    -0.014 A 
ATOM     72  C   UNL     1      -2.808 -13.399   4.389  1.00  0.00     0.010 A 
ATOM     73  C   UNL     1      -5.090 -13.844   5.040  1.00  0.00     0.010 A 
ATOM     74  C   UNL     1      -2.482 -14.743   4.606  1.00  0.00     0.020 A 
ATOM     75  C   UNL     1      -4.772 -15.195   5.252  1.00  0.00     0.020 A 
ATOM     76  C   UNL     1      -3.477 -15.642   4.991  1.00  0.00     0.054 A 
BRANCH  76  77
ATOM     77  S   UNL     1      -3.067 -17.410   5.035  1.00  0.00     0.124 S 
ATOM     78  O   UNL     1      -2.828 -17.699   3.624  1.00  0.00    -0.237 OA
ATOM     79  O   UNL     1      -1.883 -17.437   5.889  1.00  0.00    -0.237 OA
ATOM     80  O   UNL     1      -4.260 -18.029   5.608  1.00  0.00    -0.744 OA
ENDBRANCH  76  77
ENDBRANCH  48  71
BRANCH  60  81
ATOM     81  C   UNL     1      -8.281  -8.271   2.904  1.00  0.00    -0.014 A 
ATOM     82  C   UNL     1      -9.572  -7.715   2.820  1.00  0.00     0.010 A 
ATOM     83  C   UNL     1      -7.401  -7.768   3.879  1.00  0.00     0.010 A 
ATOM     84  C   UNL     1      -9.965  -6.668   3.653  1.00  0.00     0.020 A 
ATOM     85  C   UNL     1      -7.798  -6.733   4.740  1.00  0.00     0.020 A 
ATOM     86  C   UNL     1      -9.071  -6.174   4.604  1.00  0.00     0.054 A 
BRANCH  86  87
ATOM     87  S   UNL     1      -9.608  -4.789   5.643  1.00  0.00     0.124 S 
ATOM     88  O   UNL     1      -9.614  -3.677   4.694  1.00  0.00    -0.237 OA
ATOM     89  O   UNL     1     -10.925  -5.222   6.105  1.00  0.00    -0.237 OA
ATOM     90  O   UNL     1      -8.584  -4.708   6.682  1.00  0.00    -0.744 OA
ENDBRANCH  86  87
ENDBRANCH  60  81
ENDBRANCH  34  35
ENDBRANCH  27  29
ENDBRANCH  26  27
ENDBRANCH  25  26
ENDBRANCH  24  25
ENDBRANCH   1  24
TORSDOF 21
