REMARK SMILES O=C(CCC(=O)OCCOCCOC(=O)c1ccc(-c2c3nc(c(-c4ccc(S(=O)(=O)[O-])cc4)c4ccc([nH]4)c(-c4ccc(S(=O)(=O)[O-])cc4)c4nc(c(-c5ccc(S(=O)(=O)[O-])cc5)c5ccc2[nH]5)C=C4)C=C3)cc1)Nc1ccc2nc(-c3ccccc3)oc2c1
REMARK SMILES IDX 9 1 8 2 7 3 5 4 6 5 4 6 3 7 2 8 1 9 76 10 77 12 78 13 91 14
REMARK SMILES IDX 79 15 90 16 80 17 89 18 81 19 82 20 83 21 84 22 88 23 85 24
REMARK SMILES IDX 87 25 86 26 10 27 11 28 12 29 13 30 14 31 15 32 16 33 17 34
REMARK SMILES IDX 75 35 18 36 74 37 19 38 20 39 21 40 68 41 22 42 73 43 67 44
REMARK SMILES IDX 69 45 23 46 72 47 66 48 65 49 24 51 54 52 35 53 53 54 36 55
REMARK SMILES IDX 39 56 52 57 70 58 37 59 38 60 51 62 71 63 40 64 25 65 26 66
REMARK SMILES IDX 34 67 27 68 33 69 28 70 29 71 30 72 31 73 32 74 55 75 56 76
REMARK SMILES IDX 64 77 57 78 63 79 58 80 59 81 60 82 61 83 62 84 41 85 42 86
REMARK SMILES IDX 50 87 43 88 49 89 44 90 45 91 46 92 47 93 48 94
REMARK H PARENT 76 11 69 50 39 61
REMARK Flexibility Score: inf
ROOT
ATOM      1  C   UNL     1       6.524  -1.683  -1.245  1.00  0.00     0.202 C 
ENDROOT
BRANCH   1   2
ATOM      2  C   UNL     1       5.779  -2.465  -0.160  1.00  0.00     0.261 C 
BRANCH   2   3
ATOM      3  O   UNL     1       4.606  -1.751   0.301  1.00  0.00    -0.463 OA
BRANCH   3   4
ATOM      4  C   UNL     1       4.567  -1.440   1.627  1.00  0.00     0.306 C 
ATOM      5  O   UNL     1       5.445  -1.710   2.434  1.00  0.00    -0.252 OA
BRANCH   4   6
ATOM      6  C   UNL     1       3.268  -0.757   2.013  1.00  0.00     0.132 C 
BRANCH   6   7
ATOM      7  C   UNL     1       2.887   0.481   1.195  1.00  0.00     0.112 C 
BRANCH   7   8
ATOM      8  C   UNL     1       1.860   0.183   0.112  1.00  0.00     0.224 C 
ATOM      9  O   UNL     1       0.705   0.582   0.194  1.00  0.00    -0.275 OA
ATOM     10  N   UNL     1       2.375  -0.621  -0.879  1.00  0.00    -0.326 N 
ATOM     11  H   UNL     1       3.354  -0.708  -0.925  1.00  0.00     0.169 HD
BRANCH  10  12
ATOM     12  C   UNL     1       1.621  -1.327  -1.828  1.00  0.00     0.045 A 
ATOM     13  C   UNL     1       2.036  -2.655  -1.999  1.00  0.00     0.028 A 
ATOM     14  C   UNL     1       0.535  -0.789  -2.547  1.00  0.00     0.075 A 
ATOM     15  C   UNL     1       1.324  -3.528  -2.807  1.00  0.00     0.034 A 
ATOM     16  C   UNL     1      -0.071  -1.668  -3.451  1.00  0.00     0.157 A 
ATOM     17  C   UNL     1       0.269  -3.008  -3.551  1.00  0.00     0.110 A 
ATOM     18  O   UNL     1      -1.050  -1.429  -4.400  1.00  0.00    -0.436 OA
ATOM     19  N   UNL     1      -0.536  -3.639  -4.435  1.00  0.00    -0.209 NA
ATOM     20  C   UNL     1      -1.254  -2.672  -4.966  1.00  0.00     0.227 A 
BRANCH  20  21
ATOM     21  C   UNL     1      -2.244  -2.863  -6.017  1.00  0.00     0.037 A 
ATOM     22  C   UNL     1      -2.264  -2.130  -7.207  1.00  0.00     0.014 A 
ATOM     23  C   UNL     1      -3.081  -3.987  -5.904  1.00  0.00     0.014 A 
ATOM     24  C   UNL     1      -3.083  -2.545  -8.269  1.00  0.00     0.001 A 
ATOM     25  C   UNL     1      -3.889  -4.403  -6.958  1.00  0.00     0.001 A 
ATOM     26  C   UNL     1      -3.883  -3.684  -8.147  1.00  0.00     0.000 A 
ENDBRANCH  20  21
ENDBRANCH  10  12
ENDBRANCH   7   8
ENDBRANCH   6   7
ENDBRANCH   4   6
ENDBRANCH   3   4
ENDBRANCH   2   3
ENDBRANCH   1   2
BRANCH   1  27
ATOM     27  O   UNL     1       7.221  -0.516  -0.813  1.00  0.00    -0.374 OA
BRANCH  27  28
ATOM     28  C   UNL     1       6.441   0.630  -0.490  1.00  0.00     0.202 C 
BRANCH  28  29
ATOM     29  C   UNL     1       5.905   1.458  -1.666  1.00  0.00     0.261 C 
BRANCH  29  30
ATOM     30  O   UNL     1       5.019   0.717  -2.525  1.00  0.00    -0.460 OA
BRANCH  30  31
ATOM     31  C   UNL     1       5.551   0.368  -3.723  1.00  0.00     0.338 C 
ATOM     32  O   UNL     1       6.681   0.629  -4.126  1.00  0.00    -0.246 OA
BRANCH  31  33
ATOM     33  C   UNL     1       4.648  -0.542  -4.451  1.00  0.00     0.060 A 
ATOM     34  C   UNL     1       5.156  -1.775  -4.885  1.00  0.00     0.016 A 
ATOM     35  C   UNL     1       3.350  -0.165  -4.783  1.00  0.00     0.016 A 
ATOM     36  C   UNL     1       4.380  -2.622  -5.684  1.00  0.00     0.010 A 
ATOM     37  C   UNL     1       2.576  -1.018  -5.580  1.00  0.00     0.010 A 
ATOM     38  C   UNL     1       3.088  -2.242  -6.064  1.00  0.00    -0.014 A 
BRANCH  38  39
ATOM     39  C   UNL     1       2.302  -3.006  -7.080  1.00  0.00     0.031 A 
ATOM     40  C   UNL     1       1.993  -2.331  -8.392  1.00  0.00     0.074 A 
ATOM     41  C   UNL     1       1.820  -4.246  -6.851  1.00  0.00     0.049 A 
ATOM     42  N   UNL     1       1.142  -2.671  -9.323  1.00  0.00    -0.248 NA
ATOM     43  C   UNL     1       2.755  -1.105  -8.695  1.00  0.00     0.031 C 
ATOM     44  C   UNL     1       2.107  -5.072  -5.682  1.00  0.00     0.029 A 
ATOM     45  N   UNL     1       0.907  -4.995  -7.563  1.00  0.00    -0.354 N 
ATOM     46  C   UNL     1       1.272  -1.713 -10.321  1.00  0.00     0.074 A 
ATOM     47  C   UNL     1       2.230  -0.737  -9.854  1.00  0.00     0.031 C 
ATOM     48  C   UNL     1       1.279  -6.132  -5.674  1.00  0.00     0.029 A 
ATOM     49  C   UNL     1       0.415  -6.068  -6.847  1.00  0.00     0.049 A 
ATOM     50  H   UNL     1       0.634  -4.786  -8.486  1.00  0.00     0.167 HD
ATOM     51  C   UNL     1       0.679  -1.672 -11.536  1.00  0.00     0.031 A 
ATOM     52  C   UNL     1      -0.645  -6.871  -7.079  1.00  0.00     0.031 A 
ATOM     53  C   UNL     1      -0.242  -2.666 -12.015  1.00  0.00     0.049 A 
ATOM     54  C   UNL     1      -1.405  -6.722  -8.375  1.00  0.00     0.074 A 
ATOM     55  C   UNL     1      -0.829  -2.756 -13.265  1.00  0.00     0.029 A 
ATOM     56  N   UNL     1      -0.708  -3.738 -11.273  1.00  0.00    -0.354 N 
ATOM     57  N   UNL     1      -1.210  -5.867  -9.351  1.00  0.00    -0.248 NA
ATOM     58  C   UNL     1      -2.497  -7.676  -8.630  1.00  0.00     0.031 C 
ATOM     59  C   UNL     1      -1.694  -3.853 -13.262  1.00  0.00     0.029 A 
ATOM     60  C   UNL     1      -1.597  -4.479 -12.030  1.00  0.00     0.049 A 
ATOM     61  H   UNL     1      -0.446  -3.942 -10.346  1.00  0.00     0.167 HD
ATOM     62  C   UNL     1      -2.105  -6.223 -10.353  1.00  0.00     0.074 A 
ATOM     63  C   UNL     1      -2.846  -7.367  -9.871  1.00  0.00     0.031 C 
ATOM     64  C   UNL     1      -2.286  -5.655 -11.570  1.00  0.00     0.031 A 
BRANCH  51  65
ATOM     65  C   UNL     1       1.024  -0.533 -12.455  1.00  0.00    -0.014 A 
ATOM     66  C   UNL     1       2.285  -0.461 -13.074  1.00  0.00     0.010 A 
ATOM     67  C   UNL     1       0.043   0.421 -12.782  1.00  0.00     0.010 A 
ATOM     68  C   UNL     1       2.564   0.554 -13.992  1.00  0.00     0.020 A 
ATOM     69  C   UNL     1       0.310   1.421 -13.720  1.00  0.00     0.020 A 
ATOM     70  C   UNL     1       1.572   1.485 -14.314  1.00  0.00     0.054 A 
BRANCH  70  71
ATOM     71  S   UNL     1       1.940   2.744 -15.566  1.00  0.00     0.124 S 
ATOM     72  O   UNL     1       2.874   3.613 -14.853  1.00  0.00    -0.237 OA
ATOM     73  O   UNL     1       2.519   1.956 -16.651  1.00  0.00    -0.237 OA
ATOM     74  O   UNL     1       0.637   3.337 -15.856  1.00  0.00    -0.744 OA
ENDBRANCH  70  71
ENDBRANCH  51  65
BRANCH  52  75
ATOM     75  C   UNL     1      -1.100  -7.860  -6.053  1.00  0.00    -0.014 A 
ATOM     76  C   UNL     1      -1.050  -9.244  -6.294  1.00  0.00     0.010 A 
ATOM     77  C   UNL     1      -1.676  -7.408  -4.850  1.00  0.00     0.010 A 
ATOM     78  C   UNL     1      -1.629 -10.145  -5.393  1.00  0.00     0.020 A 
ATOM     79  C   UNL     1      -2.242  -8.304  -3.938  1.00  0.00     0.020 A 
ATOM     80  C   UNL     1      -2.235  -9.668  -4.226  1.00  0.00     0.054 A 
BRANCH  80  81
ATOM     81  S   UNL     1      -3.010 -10.857  -3.094  1.00  0.00     0.124 S 
ATOM     82  O   UNL     1      -4.130 -11.351  -3.888  1.00  0.00    -0.237 OA
ATOM     83  O   UNL     1      -1.930 -11.812  -2.859  1.00  0.00    -0.237 OA
ATOM     84  O   UNL     1      -3.375 -10.043  -1.936  1.00  0.00    -0.744 OA
ENDBRANCH  80  81
ENDBRANCH  52  75
BRANCH  64  85
ATOM     85  C   UNL     1      -3.231  -6.324 -12.530  1.00  0.00    -0.014 A 
ATOM     86  C   UNL     1      -4.624  -6.239 -12.377  1.00  0.00     0.010 A 
ATOM     87  C   UNL     1      -2.702  -6.976 -13.661  1.00  0.00     0.010 A 
ATOM     88  C   UNL     1      -5.472  -6.807 -13.333  1.00  0.00     0.020 A 
ATOM     89  C   UNL     1      -3.545  -7.519 -14.632  1.00  0.00     0.020 A 
ATOM     90  C   UNL     1      -4.927  -7.438 -14.457  1.00  0.00     0.054 A 
BRANCH  90  91
ATOM     91  S   UNL     1      -6.050  -8.103 -15.716  1.00  0.00     0.124 S 
ATOM     92  O   UNL     1      -6.602  -9.276 -15.043  1.00  0.00    -0.237 OA
ATOM     93  O   UNL     1      -6.985  -7.000 -15.926  1.00  0.00    -0.237 OA
ATOM     94  O   UNL     1      -5.171  -8.391 -16.848  1.00  0.00    -0.744 OA
ENDBRANCH  90  91
ENDBRANCH  64  85
ENDBRANCH  38  39
ENDBRANCH  31  33
ENDBRANCH  30  31
ENDBRANCH  29  30
ENDBRANCH  28  29
ENDBRANCH  27  28
ENDBRANCH   1  27
TORSDOF 21
