REMARK SMILES Cc1cccc(-n2c(C)cc(/C=N\c3ccc(O)c(C(=O)OCCOCCOC(=O)c4ccc(-c5c6nc(c(-c7ccc(S(=O)(=O)[O-])cc7)c7ccc([nH]7)c(-c7ccc(S(=O)(=O)[O-])cc7)c7nc(c(-c8ccc(S(=O)(=O)[O-])cc8)c8ccc5[nH]8)C=C7)C=C6)cc4)c3)c2C)c1
REMARK SMILES IDX 25 1 24 2 23 3 22 4 20 5 21 6 19 7 14 8 15 9 91 10 16 11
REMARK SMILES IDX 17 12 13 13 12 14 11 15 7 16 8 17 92 18 9 19 10 20 93 21
REMARK SMILES IDX 6 22 1 23 2 24 3 25 94 26 4 27 5 28 18 29 26 31 27 32 28 33
REMARK SMILES IDX 29 34 30 35 31 36 32 37 90 38 33 39 89 40 34 41 35 42 36 43
REMARK SMILES IDX 83 44 37 45 88 46 82 47 84 48 38 49 87 50 81 51 80 52 39 54
REMARK SMILES IDX 69 55 50 56 68 57 51 58 54 59 67 60 85 61 52 62 53 63 66 65
REMARK SMILES IDX 86 66 55 67 40 68 41 69 49 70 42 71 48 72 43 73 44 74 45 75
REMARK SMILES IDX 46 76 47 77 70 78 71 79 79 80 72 81 78 82 73 83 74 84 75 85
REMARK SMILES IDX 76 86 77 87 56 88 57 89 65 90 58 91 64 92 59 93 60 94 61 95
REMARK SMILES IDX 62 96 63 97
REMARK H PARENT 18 30 84 53 54 64
REMARK Flexibility Score: inf
ROOT
ATOM      1  O   UNL     1      -6.671   1.710   6.573  1.00  0.00    -0.374 OA
ENDROOT
BRANCH   1   2
ATOM      2  C   UNL     1      -6.323   0.360   6.655  1.00  0.00     0.202 C 
BRANCH   2   3
ATOM      3  C   UNL     1      -6.318  -0.374   5.386  1.00  0.00     0.261 C 
BRANCH   3   4
ATOM      4  O   UNL     1      -5.110  -0.162   4.699  1.00  0.00    -0.460 OA
BRANCH   4   5
ATOM      5  C   UNL     1      -5.320   0.801   3.793  1.00  0.00     0.342 C 
ATOM      6  O   UNL     1      -6.217   0.828   2.948  1.00  0.00    -0.246 OA
BRANCH   5   7
ATOM      7  C   UNL     1      -4.403   1.901   4.073  1.00  0.00     0.103 A 
ATOM      8  C   UNL     1      -3.789   4.066   3.268  1.00  0.00     0.064 A 
ATOM      9  C   UNL     1      -2.570   3.971   3.940  1.00  0.00     0.032 A 
ATOM     10  C   UNL     1      -4.759   3.102   3.465  1.00  0.00     0.048 A 
ATOM     11  C   UNL     1      -2.257   2.818   4.668  1.00  0.00     0.049 A 
ATOM     12  C   UNL     1      -3.149   1.752   4.677  1.00  0.00     0.130 A 
BRANCH   8  13
ATOM     13  N   UNL     1      -4.078   5.072   2.362  1.00  0.00    -0.256 NA
ATOM     14  C   UNL     1      -3.749   4.998   1.105  1.00  0.00     0.121 C 
BRANCH  14  15
ATOM     15  C   UNL     1      -2.935   4.067   0.310  1.00  0.00     0.014 A 
ATOM     16  N   UNL     1      -1.680   2.410  -0.617  1.00  0.00    -0.318 N 
ATOM     17  C   UNL     1      -1.494   3.535  -1.392  1.00  0.00     0.021 A 
ATOM     18  C   UNL     1      -2.619   2.706   0.372  1.00  0.00     0.029 A 
ATOM     19  C   UNL     1      -0.642   3.566  -2.606  1.00  0.00     0.065 C 
ATOM     20  C   UNL     1      -2.275   4.539  -0.866  1.00  0.00     0.033 A 
ATOM     21  C   UNL     1      -3.042   1.646   1.314  1.00  0.00     0.065 C 
BRANCH  16  22
ATOM     22  C   UNL     1      -0.940   1.196  -0.707  1.00  0.00     0.046 A 
ATOM     23  C   UNL     1       2.615   0.032  -0.006  1.00  0.00     0.044 C 
ATOM     24  C   UNL     1       1.145   0.028  -0.302  1.00  0.00    -0.049 A 
ATOM     25  C   UNL     1       0.458  -1.192  -0.382  1.00  0.00     0.003 A 
ATOM     26  C   UNL     1       0.439   1.228  -0.468  1.00  0.00     0.030 A 
ATOM     27  C   UNL     1      -0.907  -1.221  -0.662  1.00  0.00     0.002 A 
ATOM     28  C   UNL     1      -1.604  -0.028  -0.850  1.00  0.00     0.026 A 
ENDBRANCH  16  22
ENDBRANCH  14  15
ENDBRANCH   8  13
BRANCH  12  29
ATOM     29  O   UNL     1      -2.658   0.572   5.155  1.00  0.00    -0.507 OA
ATOM     30  H   UNL     1      -1.808   0.543   5.549  1.00  0.00     0.293 HD
ENDBRANCH  12  29
ENDBRANCH   5   7
ENDBRANCH   4   5
ENDBRANCH   3   4
ENDBRANCH   2   3
ENDBRANCH   1   2
BRANCH   1  31
ATOM     31  C   UNL     1      -6.881   2.220   7.900  1.00  0.00     0.202 C 
BRANCH  31  32
ATOM     32  C   UNL     1      -6.998   1.196   9.101  1.00  0.00     0.261 C 
BRANCH  32  33
ATOM     33  O   UNL     1      -8.174   0.337   8.950  1.00  0.00    -0.460 OA
BRANCH  33  34
ATOM     34  C   UNL     1      -8.097  -1.002   9.285  1.00  0.00     0.338 C 
ATOM     35  O   UNL     1      -7.649  -1.449  10.322  1.00  0.00    -0.246 OA
BRANCH  34  36
ATOM     36  C   UNL     1      -8.595  -1.828   8.118  1.00  0.00     0.060 A 
ATOM     37  C   UNL     1      -8.018  -3.064   7.753  1.00  0.00     0.016 A 
ATOM     38  C   UNL     1      -9.367  -1.152   7.187  1.00  0.00     0.016 A 
ATOM     39  C   UNL     1      -8.036  -3.497   6.403  1.00  0.00     0.010 A 
ATOM     40  C   UNL     1      -9.207  -1.485   5.860  1.00  0.00     0.010 A 
ATOM     41  C   UNL     1      -8.530  -2.635   5.426  1.00  0.00    -0.014 A 
BRANCH  41  42
ATOM     42  C   UNL     1      -8.262  -2.690   3.965  1.00  0.00     0.031 A 
ATOM     43  C   UNL     1      -9.450  -2.663   3.072  1.00  0.00     0.074 A 
ATOM     44  C   UNL     1      -7.005  -2.618   3.435  1.00  0.00     0.049 A 
ATOM     45  N   UNL     1      -9.579  -3.408   2.028  1.00  0.00    -0.248 NA
ATOM     46  C   UNL     1     -10.675  -1.897   3.343  1.00  0.00     0.031 C 
ATOM     47  C   UNL     1      -6.578  -2.337   2.063  1.00  0.00     0.029 A 
ATOM     48  N   UNL     1      -5.786  -2.816   4.080  1.00  0.00    -0.354 N 
ATOM     49  C   UNL     1     -10.659  -2.899   1.334  1.00  0.00     0.074 A 
ATOM     50  C   UNL     1     -11.447  -2.212   2.308  1.00  0.00     0.031 C 
ATOM     51  C   UNL     1      -5.267  -2.634   1.919  1.00  0.00     0.029 A 
ATOM     52  C   UNL     1      -4.770  -3.136   3.187  1.00  0.00     0.049 A 
ATOM     53  H   UNL     1      -5.659  -2.738   5.053  1.00  0.00     0.167 HD
ATOM     54  C   UNL     1     -10.621  -2.803  -0.025  1.00  0.00     0.031 A 
ATOM     55  C   UNL     1      -4.030  -4.230   3.492  1.00  0.00     0.031 A 
ATOM     56  C   UNL     1      -9.308  -3.248  -0.521  1.00  0.00     0.049 A 
ATOM     57  C   UNL     1      -4.589  -5.291   2.582  1.00  0.00     0.074 A 
ATOM     58  C   UNL     1      -8.238  -2.583  -1.097  1.00  0.00     0.029 A 
ATOM     59  N   UNL     1      -8.808  -4.482  -0.105  1.00  0.00    -0.354 N 
ATOM     60  N   UNL     1      -5.791  -5.216   2.060  1.00  0.00    -0.248 NA
ATOM     61  C   UNL     1      -3.769  -6.322   1.960  1.00  0.00     0.031 C 
ATOM     62  C   UNL     1      -7.083  -3.420  -0.975  1.00  0.00     0.029 A 
ATOM     63  C   UNL     1      -7.446  -4.588  -0.314  1.00  0.00     0.049 A 
ATOM     64  H   UNL     1      -9.360  -5.195   0.292  1.00  0.00     0.167 HD
ATOM     65  C   UNL     1      -5.825  -5.963   0.922  1.00  0.00     0.074 A 
ATOM     66  C   UNL     1      -4.567  -6.701   0.945  1.00  0.00     0.031 C 
ATOM     67  C   UNL     1      -6.771  -5.860  -0.059  1.00  0.00     0.031 A 
BRANCH  54  68
ATOM     68  C   UNL     1     -11.643  -2.025  -0.848  1.00  0.00    -0.014 A 
ATOM     69  C   UNL     1     -11.386  -1.739  -2.201  1.00  0.00     0.010 A 
ATOM     70  C   UNL     1     -12.898  -1.579  -0.370  1.00  0.00     0.010 A 
ATOM     71  C   UNL     1     -12.307  -1.046  -3.012  1.00  0.00     0.020 A 
ATOM     72  C   UNL     1     -13.811  -0.853  -1.150  1.00  0.00     0.020 A 
ATOM     73  C   UNL     1     -13.518  -0.607  -2.479  1.00  0.00     0.054 A 
BRANCH  73  74
ATOM     74  S   UNL     1     -14.732   0.208  -3.548  1.00  0.00     0.124 S 
ATOM     75  O   UNL     1     -13.994   1.366  -4.043  1.00  0.00    -0.237 OA
ATOM     76  O   UNL     1     -15.022  -0.827  -4.536  1.00  0.00    -0.237 OA
ATOM     77  O   UNL     1     -15.838   0.523  -2.644  1.00  0.00    -0.744 OA
ENDBRANCH  73  74
ENDBRANCH  54  68
BRANCH  55  78
ATOM     78  C   UNL     1      -3.602  -4.189   4.951  1.00  0.00    -0.014 A 
ATOM     79  C   UNL     1      -2.535  -3.292   5.235  1.00  0.00     0.010 A 
ATOM     80  C   UNL     1      -4.462  -4.494   6.029  1.00  0.00     0.010 A 
ATOM     81  C   UNL     1      -2.423  -2.617   6.466  1.00  0.00     0.020 A 
ATOM     82  C   UNL     1      -4.361  -3.806   7.267  1.00  0.00     0.020 A 
ATOM     83  C   UNL     1      -3.368  -2.841   7.461  1.00  0.00     0.054 A 
BRANCH  83  84
ATOM     84  S   UNL     1      -3.389  -1.722   8.905  1.00  0.00     0.124 S 
ATOM     85  O   UNL     1      -2.192  -2.120   9.636  1.00  0.00    -0.237 OA
ATOM     86  O   UNL     1      -3.337  -0.403   8.277  1.00  0.00    -0.237 OA
ATOM     87  O   UNL     1      -4.661  -2.030   9.547  1.00  0.00    -0.744 OA
ENDBRANCH  83  84
ENDBRANCH  55  78
BRANCH  67  88
ATOM     88  C   UNL     1      -7.158  -7.035  -0.917  1.00  0.00    -0.014 A 
ATOM     89  C   UNL     1      -6.721  -8.341  -0.665  1.00  0.00     0.010 A 
ATOM     90  C   UNL     1      -8.165  -6.867  -1.899  1.00  0.00     0.010 A 
ATOM     91  C   UNL     1      -7.210  -9.417  -1.400  1.00  0.00     0.020 A 
ATOM     92  C   UNL     1      -8.721  -7.943  -2.579  1.00  0.00     0.020 A 
ATOM     93  C   UNL     1      -8.212  -9.211  -2.347  1.00  0.00     0.054 A 
BRANCH  93  94
ATOM     94  S   UNL     1      -8.858 -10.633  -3.240  1.00  0.00     0.124 S 
ATOM     95  O   UNL     1      -7.786 -10.889  -4.197  1.00  0.00    -0.237 OA
ATOM     96  O   UNL     1      -9.008 -11.631  -2.183  1.00  0.00    -0.237 OA
ATOM     97  O   UNL     1     -10.110 -10.145  -3.812  1.00  0.00    -0.744 OA
ENDBRANCH  93  94
ENDBRANCH  67  88
ENDBRANCH  41  42
ENDBRANCH  34  36
ENDBRANCH  33  34
ENDBRANCH  32  33
ENDBRANCH  31  32
ENDBRANCH   1  31
TORSDOF 21
