REMARK SMILES Cc1cc2c(c(C)c1Br)C=C(C(=O)OCCOCCOC(=O)c1ccc(-c3c4nc(c(-c5ccc(S(=O)(=O)[O-])cc5)c5ccc([nH]5)c(-c5ccc(S(=O)(=O)[O-])cc5)c5nc(c(-c6ccc(S(=O)(=O)[O-])cc6)c6ccc3[nH]6)C=C5)C=C4)cc1)[C@@H](C(F)(F)F)O2
REMARK SMILES IDX 18 1 17 2 16 3 15 4 14 5 12 6 13 7 11 8 1 9 2 10 3 11 8 12
REMARK SMILES IDX 4 13 6 14 9 15 5 16 88 17 7 18 10 19 83 20 84 21 85 22 86 23
REMARK SMILES IDX 87 24 19 25 20 26 21 27 22 28 23 29 24 30 82 31 25 32 81 33
REMARK SMILES IDX 26 34 27 35 28 36 75 37 29 38 80 39 74 40 76 41 30 42 79 43
REMARK SMILES IDX 73 44 72 45 31 47 61 48 42 49 60 50 43 51 46 52 59 53 77 54
REMARK SMILES IDX 44 55 45 56 58 58 78 59 47 60 32 61 33 62 41 63 34 64 40 65
REMARK SMILES IDX 35 66 36 67 37 68 38 69 39 70 62 71 63 72 71 73 64 74 70 75
REMARK SMILES IDX 65 76 66 77 67 78 68 79 69 80 48 81 49 82 57 83 50 84 56 85
REMARK SMILES IDX 51 86 52 87 53 88 54 89 55 90
REMARK H PARENT 76 46 46 57
REMARK Flexibility Score: inf
ROOT
ATOM      1  C   UNL     1      -2.748   7.850  -2.068  1.00  0.00     0.202 C 
ENDROOT
BRANCH   1   2
ATOM      2  O   UNL     1      -2.413   8.937  -2.933  1.00  0.00    -0.374 OA
BRANCH   2   3
ATOM      3  C   UNL     1      -2.804   8.842  -4.302  1.00  0.00     0.202 C 
BRANCH   3   4
ATOM      4  C   UNL     1      -1.938   7.963  -5.208  1.00  0.00     0.261 C 
BRANCH   4   5
ATOM      5  O   UNL     1      -1.838   6.620  -4.708  1.00  0.00    -0.460 OA
BRANCH   5   6
ATOM      6  C   UNL     1      -0.605   6.274  -4.275  1.00  0.00     0.338 C 
ATOM      7  O   UNL     1       0.423   6.928  -4.382  1.00  0.00    -0.246 OA
BRANCH   6   8
ATOM      8  C   UNL     1      -0.677   5.019  -3.504  1.00  0.00     0.087 C 
ATOM      9  C   UNL     1       0.818  -0.175   0.029  1.00  0.00     0.046 C 
ATOM     10  C   UNL     1       0.563   1.221  -0.475  1.00  0.00    -0.033 A 
ATOM     11  C   UNL     1      -0.326   1.389  -1.545  1.00  0.00     0.051 A 
ATOM     12  C   UNL     1       1.192   2.357   0.076  1.00  0.00     0.024 A 
ATOM     13  C   UNL     1      -0.526   2.641  -2.119  1.00  0.00     0.128 A 
ATOM     14  C   UNL     1       0.978   3.643  -0.475  1.00  0.00    -0.026 A 
ATOM     15  Br  UNL     1       2.367   2.115   1.569  1.00  0.00    -0.050 Br
ATOM     16  C   UNL     1       0.151   3.759  -1.623  1.00  0.00     0.021 A 
ATOM     17  O   UNL     1      -1.406   2.671  -3.164  1.00  0.00    -0.475 OA
ATOM     18  C   UNL     1       1.612   4.889   0.100  1.00  0.00     0.046 C 
ATOM     19  C   UNL     1       0.037   5.006  -2.371  1.00  0.00     0.027 C 
ATOM     20  C   UNL     1      -1.474   3.854  -4.007  1.00  0.00     0.316 C 
BRANCH  20  21
ATOM     21  C   UNL     1      -1.099   3.446  -5.439  1.00  0.00     0.430 C 
ATOM     22  F   UNL     1      -1.809   2.364  -5.839  1.00  0.00    -0.167 F 
ATOM     23  F   UNL     1      -1.355   4.434  -6.326  1.00  0.00    -0.167 F 
ATOM     24  F   UNL     1       0.213   3.132  -5.545  1.00  0.00    -0.167 F 
ENDBRANCH  20  21
ENDBRANCH   6   8
ENDBRANCH   5   6
ENDBRANCH   4   5
ENDBRANCH   3   4
ENDBRANCH   2   3
ENDBRANCH   1   2
BRANCH   1  25
ATOM     25  C   UNL     1      -4.221   7.681  -1.678  1.00  0.00     0.261 C 
BRANCH  25  26
ATOM     26  O   UNL     1      -5.042   7.292  -2.794  1.00  0.00    -0.460 OA
BRANCH  26  27
ATOM     27  C   UNL     1      -5.969   8.209  -3.162  1.00  0.00     0.338 C 
ATOM     28  O   UNL     1      -6.208   9.277  -2.612  1.00  0.00    -0.246 OA
BRANCH  27  29
ATOM     29  C   UNL     1      -6.555   7.843  -4.462  1.00  0.00     0.060 A 
ATOM     30  C   UNL     1      -6.445   8.769  -5.507  1.00  0.00     0.016 A 
ATOM     31  C   UNL     1      -7.278   6.661  -4.632  1.00  0.00     0.016 A 
ATOM     32  C   UNL     1      -7.097   8.537  -6.715  1.00  0.00     0.010 A 
ATOM     33  C   UNL     1      -7.944   6.437  -5.842  1.00  0.00     0.010 A 
ATOM     34  C   UNL     1      -7.885   7.390  -6.874  1.00  0.00    -0.014 A 
BRANCH  34  35
ATOM     35  C   UNL     1      -8.766   7.274  -8.060  1.00  0.00     0.031 A 
ATOM     36  C   UNL     1     -10.211   7.675  -7.935  1.00  0.00     0.074 A 
ATOM     37  C   UNL     1      -8.276   6.866  -9.245  1.00  0.00     0.049 A 
ATOM     38  N   UNL     1     -11.157   7.652  -8.838  1.00  0.00    -0.248 NA
ATOM     39  C   UNL     1     -10.647   8.174  -6.619  1.00  0.00     0.031 C 
ATOM     40  C   UNL     1      -6.883   6.506  -9.505  1.00  0.00     0.029 A 
ATOM     41  N   UNL     1      -8.900   6.692 -10.455  1.00  0.00    -0.354 N 
ATOM     42  C   UNL     1     -12.296   8.134  -8.204  1.00  0.00     0.074 A 
ATOM     43  C   UNL     1     -11.934   8.413  -6.832  1.00  0.00     0.031 C 
ATOM     44  C   UNL     1      -6.757   6.155 -10.797  1.00  0.00     0.029 A 
ATOM     45  C   UNL     1      -8.065   6.235 -11.445  1.00  0.00     0.049 A 
ATOM     46  H   UNL     1      -9.856   6.878 -10.599  1.00  0.00     0.167 HD
ATOM     47  C   UNL     1     -13.531   8.335  -8.720  1.00  0.00     0.031 A 
ATOM     48  C   UNL     1      -8.328   5.904 -12.725  1.00  0.00     0.031 A 
ATOM     49  C   UNL     1     -13.894   8.044 -10.082  1.00  0.00     0.049 A 
ATOM     50  C   UNL     1      -9.733   6.047 -13.251  1.00  0.00     0.074 A 
ATOM     51  C   UNL     1     -15.121   8.214 -10.698  1.00  0.00     0.029 A 
ATOM     52  N   UNL     1     -13.034   7.521 -11.035  1.00  0.00    -0.354 N 
ATOM     53  N   UNL     1     -10.798   6.509 -12.639  1.00  0.00    -0.248 NA
ATOM     54  C   UNL     1      -9.970   5.626 -14.639  1.00  0.00     0.031 C 
ATOM     55  C   UNL     1     -15.018   7.743 -12.011  1.00  0.00     0.029 A 
ATOM     56  C   UNL     1     -13.711   7.335 -12.228  1.00  0.00     0.049 A 
ATOM     57  H   UNL     1     -12.084   7.313 -10.886  1.00  0.00     0.167 HD
ATOM     58  C   UNL     1     -11.826   6.452 -13.575  1.00  0.00     0.074 A 
ATOM     59  C   UNL     1     -11.253   5.926 -14.797  1.00  0.00     0.031 C 
ATOM     60  C   UNL     1     -13.128   6.805 -13.434  1.00  0.00     0.031 A 
BRANCH  47  61
ATOM     61  C   UNL     1     -14.594   8.876  -7.803  1.00  0.00    -0.014 A 
ATOM     62  C   UNL     1     -14.587  10.224  -7.404  1.00  0.00     0.010 A 
ATOM     63  C   UNL     1     -15.648   8.043  -7.387  1.00  0.00     0.010 A 
ATOM     64  C   UNL     1     -15.604  10.724  -6.587  1.00  0.00     0.020 A 
ATOM     65  C   UNL     1     -16.680   8.545  -6.589  1.00  0.00     0.020 A 
ATOM     66  C   UNL     1     -16.646   9.881  -6.187  1.00  0.00     0.054 A 
BRANCH  66  67
ATOM     67  S   UNL     1     -17.976  10.570  -5.163  1.00  0.00     0.124 S 
ATOM     68  O   UNL     1     -17.294  10.786  -3.889  1.00  0.00    -0.237 OA
ATOM     69  O   UNL     1     -18.343  11.782  -5.891  1.00  0.00    -0.237 OA
ATOM     70  O   UNL     1     -18.989   9.519  -5.156  1.00  0.00    -0.744 OA
ENDBRANCH  66  67
ENDBRANCH  47  61
BRANCH  48  71
ATOM     71  C   UNL     1      -7.239   5.388 -13.598  1.00  0.00    -0.014 A 
ATOM     72  C   UNL     1      -6.747   6.161 -14.664  1.00  0.00     0.010 A 
ATOM     73  C   UNL     1      -6.683   4.117 -13.362  1.00  0.00     0.010 A 
ATOM     74  C   UNL     1      -5.727   5.668 -15.484  1.00  0.00     0.020 A 
ATOM     75  C   UNL     1      -5.646   3.632 -14.163  1.00  0.00     0.020 A 
ATOM     76  C   UNL     1      -5.180   4.408 -15.226  1.00  0.00     0.054 A 
BRANCH  76  77
ATOM     77  S   UNL     1      -3.821   3.814 -16.271  1.00  0.00     0.124 S 
ATOM     78  O   UNL     1      -4.506   3.528 -17.527  1.00  0.00    -0.237 OA
ATOM     79  O   UNL     1      -2.916   4.961 -16.289  1.00  0.00    -0.237 OA
ATOM     80  O   UNL     1      -3.320   2.647 -15.549  1.00  0.00    -0.744 OA
ENDBRANCH  76  77
ENDBRANCH  48  71
BRANCH  60  81
ATOM     81  C   UNL     1     -14.027   6.654 -14.632  1.00  0.00    -0.014 A 
ATOM     82  C   UNL     1     -14.463   5.386 -15.054  1.00  0.00     0.010 A 
ATOM     83  C   UNL     1     -14.508   7.800 -15.292  1.00  0.00     0.010 A 
ATOM     84  C   UNL     1     -15.350   5.266 -16.128  1.00  0.00     0.020 A 
ATOM     85  C   UNL     1     -15.414   7.685 -16.349  1.00  0.00     0.020 A 
ATOM     86  C   UNL     1     -15.822   6.417 -16.767  1.00  0.00     0.054 A 
BRANCH  86  87
ATOM     87  S   UNL     1     -17.017   6.234 -18.119  1.00  0.00     0.124 S 
ATOM     88  O   UNL     1     -16.184   5.693 -19.190  1.00  0.00    -0.237 OA
ATOM     89  O   UNL     1     -17.997   5.308 -17.557  1.00  0.00    -0.237 OA
ATOM     90  O   UNL     1     -17.506   7.593 -18.337  1.00  0.00    -0.744 OA
ENDBRANCH  86  87
ENDBRANCH  60  81
ENDBRANCH  34  35
ENDBRANCH  27  29
ENDBRANCH  26  27
ENDBRANCH  25  26
ENDBRANCH   1  25
TORSDOF 18
