REMARK SMILES CCn1ccc([C@@H](C)NC(=O)c2cnn([C@H](C)C(=O)OCCOCCOC(=O)c3ccc(-c4c5nc(c(-c6ccc(S(=O)(=O)[O-])cc6)c6ccc([nH]6)c(-c6ccc(S(=O)(=O)[O-])cc6)c6nc(c(-c7ccc(S(=O)(=O)[O-])cc7)c7ccc4[nH]7)C=C6)C=C5)cc3)c2)n1
REMARK SMILES IDX 22 1 21 2 20 3 18 4 19 5 16 6 17 7 15 8 12 9 13 10 89 11
REMARK SMILES IDX 14 12 10 13 9 14 11 16 7 17 8 18 6 19 3 20 4 21 90 22 5 23
REMARK SMILES IDX 2 24 1 25 23 26 24 27 25 28 26 29 27 30 28 31 29 32 30 33
REMARK SMILES IDX 88 34 31 35 87 36 32 37 33 38 34 39 81 40 35 41 86 42 80 43
REMARK SMILES IDX 82 44 36 45 85 46 79 47 78 48 37 50 67 51 48 52 66 53 49 54
REMARK SMILES IDX 52 55 65 56 83 57 50 58 51 59 64 61 84 62 53 63 38 64 39 65
REMARK SMILES IDX 47 66 40 67 46 68 41 69 42 70 43 71 44 72 45 73 68 74 69 75
REMARK SMILES IDX 77 76 70 77 76 78 71 79 72 80 73 81 74 82 75 83 54 84 55 85
REMARK SMILES IDX 63 86 56 87 62 88 57 89 58 90 59 91 60 92 61 93
REMARK H PARENT 9 15 82 49 52 60
REMARK Flexibility Score: inf
ROOT
ATOM      1  C   UNL     1       8.953  -0.643  -7.856  1.00  0.00     0.202 C 
ENDROOT
BRANCH   1   2
ATOM      2  C   UNL     1       8.012  -1.617  -7.150  1.00  0.00     0.261 C 
BRANCH   2   3
ATOM      3  O   UNL     1       7.146  -0.948  -6.221  1.00  0.00    -0.462 OA
BRANCH   3   4
ATOM      4  C   UNL     1       7.389  -1.207  -4.907  1.00  0.00     0.330 C 
ATOM      5  O   UNL     1       8.291  -1.931  -4.495  1.00  0.00    -0.250 OA
BRANCH   4   6
ATOM      6  C   UNL     1       6.461  -0.457  -3.974  1.00  0.00     0.213 C 
ATOM      7  C   UNL     1       5.754   0.765  -4.543  1.00  0.00     0.046 C 
BRANCH   6   8
ATOM      8  N   UNL     1       5.533  -1.404  -3.390  1.00  0.00    -0.258 N 
ATOM      9  C   UNL     1       4.616  -2.815  -1.990  1.00  0.00     0.077 A 
ATOM     10  C   UNL     1       4.226  -3.054  -3.326  1.00  0.00     0.149 A 
ATOM     11  C   UNL     1       5.390  -1.676  -2.062  1.00  0.00     0.123 A 
ATOM     12  N   UNL     1       4.769  -2.184  -4.180  1.00  0.00    -0.180 NA
BRANCH   9  13
ATOM     13  C   UNL     1       4.321  -3.555  -0.791  1.00  0.00     0.254 C 
ATOM     14  N   UNL     1       4.644  -4.883  -0.753  1.00  0.00    -0.344 N 
ATOM     15  H   UNL     1       4.301  -5.385   0.021  1.00  0.00     0.164 HD
ATOM     16  O   UNL     1       3.828  -3.026   0.205  1.00  0.00    -0.269 OA
BRANCH  14  17
ATOM     17  C   UNL     1       5.434  -5.653  -1.712  1.00  0.00     0.130 C 
ATOM     18  C   UNL     1       4.583  -6.769  -2.307  1.00  0.00     0.038 C 
BRANCH  17  19
ATOM     19  C   UNL     1       6.667  -6.179  -1.023  1.00  0.00     0.084 A 
ATOM     20  N   UNL     1       8.737  -6.530  -0.694  1.00  0.00    -0.273 N 
ATOM     21  C   UNL     1       8.110  -7.165   0.341  1.00  0.00     0.109 A 
ATOM     22  N   UNL     1       7.880  -5.939  -1.542  1.00  0.00    -0.176 NA
ATOM     23  C   UNL     1       6.763  -6.956   0.159  1.00  0.00     0.047 A 
BRANCH  20  24
ATOM     24  C   UNL     1      10.169  -6.510  -0.928  1.00  0.00     0.141 C 
ATOM     25  C   UNL     1      10.644  -5.620  -2.068  1.00  0.00     0.029 C 
ENDBRANCH  20  24
ENDBRANCH  17  19
ENDBRANCH  14  17
ENDBRANCH   9  13
ENDBRANCH   6   8
ENDBRANCH   4   6
ENDBRANCH   3   4
ENDBRANCH   2   3
ENDBRANCH   1   2
BRANCH   1  26
ATOM     26  O   UNL     1       9.925   0.033  -7.060  1.00  0.00    -0.374 OA
BRANCH  26  27
ATOM     27  C   UNL     1       9.518   1.029  -6.127  1.00  0.00     0.202 C 
BRANCH  27  28
ATOM     28  C   UNL     1       8.967   2.340  -6.670  1.00  0.00     0.261 C 
BRANCH  28  29
ATOM     29  O   UNL     1       7.725   2.154  -7.335  1.00  0.00    -0.460 OA
BRANCH  29  30
ATOM     30  C   UNL     1       7.806   2.235  -8.682  1.00  0.00     0.338 C 
ATOM     31  O   UNL     1       8.819   2.195  -9.360  1.00  0.00    -0.246 OA
BRANCH  30  32
ATOM     32  C   UNL     1       6.476   2.540  -9.216  1.00  0.00     0.060 A 
ATOM     33  C   UNL     1       6.437   2.875 -10.570  1.00  0.00     0.016 A 
ATOM     34  C   UNL     1       5.407   2.807  -8.347  1.00  0.00     0.016 A 
ATOM     35  C   UNL     1       5.439   3.716 -10.994  1.00  0.00     0.010 A 
ATOM     36  C   UNL     1       4.415   3.656  -8.771  1.00  0.00     0.010 A 
ATOM     37  C   UNL     1       4.504   4.175 -10.059  1.00  0.00    -0.014 A 
BRANCH  37  38
ATOM     38  C   UNL     1       3.543   5.152 -10.511  1.00  0.00     0.031 A 
ATOM     39  C   UNL     1       2.521   4.544 -11.379  1.00  0.00     0.074 A 
ATOM     40  C   UNL     1       3.567   6.441 -10.128  1.00  0.00     0.049 A 
ATOM     41  N   UNL     1       2.471   4.578 -12.667  1.00  0.00    -0.248 NA
ATOM     42  C   UNL     1       1.595   3.583 -10.758  1.00  0.00     0.031 C 
ATOM     43  C   UNL     1       4.363   7.043  -9.053  1.00  0.00     0.029 A 
ATOM     44  N   UNL     1       2.795   7.474 -10.556  1.00  0.00    -0.354 N 
ATOM     45  C   UNL     1       1.331   3.858 -12.995  1.00  0.00     0.074 A 
ATOM     46  C   UNL     1       1.006   3.067 -11.836  1.00  0.00     0.031 C 
ATOM     47  C   UNL     1       3.857   8.264  -8.758  1.00  0.00     0.029 A 
ATOM     48  C   UNL     1       2.816   8.584  -9.721  1.00  0.00     0.049 A 
ATOM     49  H   UNL     1       2.268   7.439 -11.387  1.00  0.00     0.167 HD
ATOM     50  C   UNL     1       0.543   4.249 -14.032  1.00  0.00     0.031 A 
ATOM     51  C   UNL     1       1.984   9.653  -9.794  1.00  0.00     0.031 A 
ATOM     52  C   UNL     1       1.212   5.216 -14.862  1.00  0.00     0.049 A 
ATOM     53  C   UNL     1       1.443   9.695 -11.174  1.00  0.00     0.074 A 
ATOM     54  C   UNL     1       2.239   5.208 -15.779  1.00  0.00     0.029 A 
ATOM     55  N   UNL     1       1.035   6.514 -14.449  1.00  0.00    -0.354 N 
ATOM     56  N   UNL     1       2.186   9.910 -12.225  1.00  0.00    -0.248 NA
ATOM     57  C   UNL     1       0.128   9.126 -11.447  1.00  0.00     0.031 C 
ATOM     58  C   UNL     1       2.805   6.517 -15.745  1.00  0.00     0.029 A 
ATOM     59  C   UNL     1       2.083   7.301 -14.843  1.00  0.00     0.049 A 
ATOM     60  H   UNL     1       0.258   6.836 -13.938  1.00  0.00     0.167 HD
ATOM     61  C   UNL     1       1.620   9.129 -13.217  1.00  0.00     0.074 A 
ATOM     62  C   UNL     1       0.282   8.809 -12.736  1.00  0.00     0.031 C 
ATOM     63  C   UNL     1       2.389   8.558 -14.187  1.00  0.00     0.031 A 
BRANCH  50  64
ATOM     64  C   UNL     1      -0.968   4.188 -13.977  1.00  0.00    -0.014 A 
ATOM     65  C   UNL     1      -1.700   4.605 -15.106  1.00  0.00     0.010 A 
ATOM     66  C   UNL     1      -1.691   4.017 -12.777  1.00  0.00     0.010 A 
ATOM     67  C   UNL     1      -3.073   4.879 -15.021  1.00  0.00     0.020 A 
ATOM     68  C   UNL     1      -3.063   4.248 -12.691  1.00  0.00     0.020 A 
ATOM     69  C   UNL     1      -3.742   4.704 -13.809  1.00  0.00     0.054 A 
BRANCH  69  70
ATOM     70  S   UNL     1      -5.495   5.126 -13.686  1.00  0.00     0.124 S 
ATOM     71  O   UNL     1      -5.472   6.571 -13.889  1.00  0.00    -0.237 OA
ATOM     72  O   UNL     1      -6.077   4.340 -14.769  1.00  0.00    -0.237 OA
ATOM     73  O   UNL     1      -5.858   4.687 -12.340  1.00  0.00    -0.744 OA
ENDBRANCH  69  70
ENDBRANCH  50  64
BRANCH  51  74
ATOM     74  C   UNL     1       1.382  10.424  -8.678  1.00  0.00    -0.014 A 
ATOM     75  C   UNL     1       0.731  11.650  -8.916  1.00  0.00     0.010 A 
ATOM     76  C   UNL     1       1.180   9.806  -7.427  1.00  0.00     0.010 A 
ATOM     77  C   UNL     1      -0.149  12.198  -7.966  1.00  0.00     0.020 A 
ATOM     78  C   UNL     1       0.309  10.350  -6.474  1.00  0.00     0.020 A 
ATOM     79  C   UNL     1      -0.373  11.530  -6.760  1.00  0.00     0.054 A 
BRANCH  79  80
ATOM     80  S   UNL     1      -1.654  12.142  -5.623  1.00  0.00     0.124 S 
ATOM     81  O   UNL     1      -1.053  13.370  -5.110  1.00  0.00    -0.237 OA
ATOM     82  O   UNL     1      -2.803  12.322  -6.506  1.00  0.00    -0.237 OA
ATOM     83  O   UNL     1      -1.790  11.063  -4.646  1.00  0.00    -0.744 OA
ENDBRANCH  79  80
ENDBRANCH  51  74
BRANCH  63  84
ATOM     84  C   UNL     1       3.712   9.199 -14.507  1.00  0.00    -0.014 A 
ATOM     85  C   UNL     1       4.816   9.241 -13.636  1.00  0.00     0.010 A 
ATOM     86  C   UNL     1       3.863   9.694 -15.815  1.00  0.00     0.010 A 
ATOM     87  C   UNL     1       6.040   9.777 -14.069  1.00  0.00     0.020 A 
ATOM     88  C   UNL     1       5.080  10.210 -16.255  1.00  0.00     0.020 A 
ATOM     89  C   UNL     1       6.163  10.255 -15.379  1.00  0.00     0.054 A 
BRANCH  89  90
ATOM     90  S   UNL     1       7.758  10.901 -15.956  1.00  0.00     0.124 S 
ATOM     91  O   UNL     1       7.895  12.138 -15.192  1.00  0.00    -0.237 OA
ATOM     92  O   UNL     1       8.689   9.833 -15.598  1.00  0.00    -0.237 OA
ATOM     93  O   UNL     1       7.561  11.081 -17.394  1.00  0.00    -0.744 OA
ENDBRANCH  89  90
ENDBRANCH  63  84
ENDBRANCH  37  38
ENDBRANCH  30  32
ENDBRANCH  29  30
ENDBRANCH  28  29
ENDBRANCH  27  28
ENDBRANCH  26  27
ENDBRANCH   1  26
TORSDOF 22
