REMARK SMILES Cc1cccc(CNC(=O)N[C@@H](CC2=c3ccccc3=NC2)C(=O)OCCOCCOC(=O)c2ccc(-c3c4nc(c(-c5ccc(S(=O)(=O)[O-])cc5)c5ccc([nH]5)c(-c5ccc(S(=O)(=O)[O-])cc5)c5nc(c(-c6ccc(S(=O)(=O)[O-])cc6)c6ccc3[nH]6)C=C5)C=C4)cc2)c1
REMARK SMILES IDX 28 1 27 2 26 3 25 4 23 5 24 6 12 7 11 8 8 9 9 10 10 12 7 14
REMARK SMILES IDX 6 15 1 16 2 17 3 18 94 19 4 20 5 21 13 22 14 23 15 24 22 25
REMARK SMILES IDX 16 26 20 27 21 28 17 29 19 30 18 31 29 32 30 33 31 34 32 35
REMARK SMILES IDX 33 36 34 37 35 38 93 39 36 40 92 41 37 42 38 43 39 44 86 45
REMARK SMILES IDX 40 46 91 47 85 48 87 49 41 50 90 51 84 52 83 53 42 55 72 56
REMARK SMILES IDX 53 57 71 58 54 59 57 60 70 61 88 62 55 63 56 64 69 66 89 67
REMARK SMILES IDX 58 68 43 69 44 70 52 71 45 72 51 73 46 74 47 75 48 76 49 77
REMARK SMILES IDX 50 78 73 79 74 80 82 81 75 82 81 83 76 84 77 85 78 86 79 87
REMARK SMILES IDX 80 88 59 89 60 90 68 91 61 92 67 93 62 94 63 95 64 96 65 97
REMARK SMILES IDX 66 98
REMARK H PARENT 8 11 11 13 87 54 57 65
REMARK Flexibility Score: inf
ROOT
ATOM      1  O   UNL     1      -3.831  -0.602   1.596  1.00  0.00    -0.374 OA
ENDROOT
BRANCH   1   2
ATOM      2  C   UNL     1      -4.780   0.351   2.035  1.00  0.00     0.202 C 
BRANCH   2   3
ATOM      3  C   UNL     1      -4.266   1.198   3.173  1.00  0.00     0.261 C 
BRANCH   3   4
ATOM      4  O   UNL     1      -4.100   2.550   2.784  1.00  0.00    -0.462 OA
BRANCH   4   5
ATOM      5  C   UNL     1      -2.997   2.747   2.044  1.00  0.00     0.329 C 
ATOM      6  O   UNL     1      -2.041   1.985   2.027  1.00  0.00    -0.250 OA
BRANCH   5   7
ATOM      7  C   UNL     1      -3.200   3.945   1.105  1.00  0.00     0.198 C 
BRANCH   7   8
ATOM      8  N   UNL     1      -3.804   3.607  -0.187  1.00  0.00    -0.324 N 
ATOM      9  N   UNL     1      -2.220   2.637  -1.619  1.00  0.00    -0.334 N 
ATOM     10  C   UNL     1      -3.450   3.042  -1.332  1.00  0.00     0.315 C 
ATOM     11  H   UNL     1      -2.109   2.331  -2.548  1.00  0.00     0.165 HD
ATOM     12  O   UNL     1      -4.323   2.909  -2.192  1.00  0.00    -0.249 OA
ATOM     13  H   UNL     1      -4.750   3.881  -0.212  1.00  0.00     0.166 HD
BRANCH   9  14
ATOM     14  C   UNL     1      -1.023   2.561  -0.835  1.00  0.00     0.153 C 
BRANCH  14  15
ATOM     15  C   UNL     1      -0.384   1.202  -0.835  1.00  0.00    -0.028 A 
ATOM     16  C   UNL     1       2.976  -0.219   0.209  1.00  0.00     0.044 C 
ATOM     17  C   UNL     1       1.537  -0.138  -0.189  1.00  0.00    -0.051 A 
ATOM     18  C   UNL     1       0.786  -1.302  -0.377  1.00  0.00     0.003 A 
ATOM     19  C   UNL     1       0.935   1.106  -0.387  1.00  0.00     0.009 A 
ATOM     20  C   UNL     1      -0.519  -1.221  -0.850  1.00  0.00     0.001 A 
ATOM     21  C   UNL     1      -1.087   0.025  -1.110  1.00  0.00     0.005 A 
ENDBRANCH  14  15
ENDBRANCH   9  14
ENDBRANCH   7   8
BRANCH   7  22
ATOM     22  C   UNL     1      -3.975   5.089   1.782  1.00  0.00     0.070 C 
BRANCH  22  23
ATOM     23  C   UNL     1      -5.478   5.132   1.824  1.00  0.00    -0.037 C 
ATOM     24  C   UNL     1      -6.438   4.244   1.560  1.00  0.00     0.001 A 
ATOM     25  C   UNL     1      -6.069   6.376   2.433  1.00  0.00     0.174 C 
ATOM     26  C   UNL     1      -6.574   2.927   1.014  1.00  0.00     0.010 A 
ATOM     27  C   UNL     1      -7.520   4.813   2.381  1.00  0.00     0.065 A 
ATOM     28  N   UNL     1      -7.452   6.043   2.787  1.00  0.00    -0.280 NA
ATOM     29  C   UNL     1      -7.478   2.102   1.546  1.00  0.00     0.001 A 
ATOM     30  C   UNL     1      -8.488   3.861   2.906  1.00  0.00     0.028 A 
ATOM     31  C   UNL     1      -8.304   2.570   2.611  1.00  0.00     0.002 A 
ENDBRANCH  22  23
ENDBRANCH   7  22
ENDBRANCH   5   7
ENDBRANCH   4   5
ENDBRANCH   3   4
ENDBRANCH   2   3
ENDBRANCH   1   2
BRANCH   1  32
ATOM     32  C   UNL     1      -4.037  -0.930   0.228  1.00  0.00     0.202 C 
BRANCH  32  33
ATOM     33  C   UNL     1      -5.392  -1.547  -0.186  1.00  0.00     0.261 C 
BRANCH  33  34
ATOM     34  O   UNL     1      -6.254  -1.841   0.919  1.00  0.00    -0.460 OA
BRANCH  34  35
ATOM     35  C   UNL     1      -6.269  -3.107   1.404  1.00  0.00     0.338 C 
ATOM     36  O   UNL     1      -5.994  -4.139   0.798  1.00  0.00    -0.246 OA
BRANCH  35  37
ATOM     37  C   UNL     1      -6.136  -2.931   2.862  1.00  0.00     0.060 A 
ATOM     38  C   UNL     1      -7.183  -2.524   3.698  1.00  0.00     0.016 A 
ATOM     39  C   UNL     1      -4.817  -2.759   3.250  1.00  0.00     0.016 A 
ATOM     40  C   UNL     1      -6.902  -1.789   4.859  1.00  0.00     0.010 A 
ATOM     41  C   UNL     1      -4.567  -1.904   4.299  1.00  0.00     0.010 A 
ATOM     42  C   UNL     1      -5.597  -1.384   5.107  1.00  0.00    -0.014 A 
BRANCH  42  43
ATOM     43  C   UNL     1      -5.185  -0.320   6.047  1.00  0.00     0.031 A 
ATOM     44  C   UNL     1      -3.954  -0.583   6.850  1.00  0.00     0.074 A 
ATOM     45  C   UNL     1      -5.721   0.930   5.925  1.00  0.00     0.049 A 
ATOM     46  N   UNL     1      -3.397   0.282   7.612  1.00  0.00    -0.248 NA
ATOM     47  C   UNL     1      -3.224  -1.861   6.868  1.00  0.00     0.031 C 
ATOM     48  C   UNL     1      -5.085   2.233   6.200  1.00  0.00     0.029 A 
ATOM     49  N   UNL     1      -6.938   1.311   5.346  1.00  0.00    -0.354 N 
ATOM     50  C   UNL     1      -2.169  -0.201   8.015  1.00  0.00     0.074 A 
ATOM     51  C   UNL     1      -2.123  -1.561   7.564  1.00  0.00     0.031 C 
ATOM     52  C   UNL     1      -5.971   3.231   5.987  1.00  0.00     0.029 A 
ATOM     53  C   UNL     1      -7.278   2.624   5.712  1.00  0.00     0.049 A 
ATOM     54  H   UNL     1      -7.483   0.736   4.761  1.00  0.00     0.167 HD
ATOM     55  C   UNL     1      -1.310   0.667   8.612  1.00  0.00     0.031 A 
ATOM     56  C   UNL     1      -8.434   2.866   6.417  1.00  0.00     0.031 A 
ATOM     57  C   UNL     1      -2.005   1.939   8.859  1.00  0.00     0.049 A 
ATOM     58  C   UNL     1      -7.943   3.139   7.850  1.00  0.00     0.074 A 
ATOM     59  C   UNL     1      -1.955   3.181   8.256  1.00  0.00     0.029 A 
ATOM     60  N   UNL     1      -3.199   1.909   9.585  1.00  0.00    -0.354 N 
ATOM     61  N   UNL     1      -6.850   2.598   8.351  1.00  0.00    -0.248 NA
ATOM     62  C   UNL     1      -8.471   4.198   8.713  1.00  0.00     0.031 C 
ATOM     63  C   UNL     1      -3.188   3.852   8.550  1.00  0.00     0.029 A 
ATOM     64  C   UNL     1      -3.979   3.028   9.346  1.00  0.00     0.049 A 
ATOM     65  H   UNL     1      -3.454   1.179  10.194  1.00  0.00     0.167 HD
ATOM     66  C   UNL     1      -6.441   3.315   9.441  1.00  0.00     0.074 A 
ATOM     67  C   UNL     1      -7.532   4.253   9.677  1.00  0.00     0.031 C 
ATOM     68  C   UNL     1      -5.234   3.209  10.081  1.00  0.00     0.031 A 
BRANCH  55  69
ATOM     69  C   UNL     1       0.175   0.442   8.841  1.00  0.00    -0.014 A 
ATOM     70  C   UNL     1       0.930   1.474   9.434  1.00  0.00     0.010 A 
ATOM     71  C   UNL     1       0.909  -0.702   8.450  1.00  0.00     0.010 A 
ATOM     72  C   UNL     1       2.319   1.377   9.627  1.00  0.00     0.020 A 
ATOM     73  C   UNL     1       2.299  -0.822   8.654  1.00  0.00     0.020 A 
ATOM     74  C   UNL     1       2.998   0.225   9.243  1.00  0.00     0.054 A 
BRANCH  74  75
ATOM     75  S   UNL     1       4.787   0.119   9.532  1.00  0.00     0.124 S 
ATOM     76  O   UNL     1       5.302   1.219   8.720  1.00  0.00    -0.237 OA
ATOM     77  O   UNL     1       4.884   0.304  10.977  1.00  0.00    -0.237 OA
ATOM     78  O   UNL     1       5.141  -1.217   9.055  1.00  0.00    -0.744 OA
ENDBRANCH  74  75
ENDBRANCH  55  69
BRANCH  56  79
ATOM     79  C   UNL     1      -9.684   2.094   5.919  1.00  0.00    -0.014 A 
ATOM     80  C   UNL     1     -10.582   2.664   4.969  1.00  0.00     0.010 A 
ATOM     81  C   UNL     1      -9.634   0.689   5.905  1.00  0.00     0.010 A 
ATOM     82  C   UNL     1     -11.108   1.909   3.867  1.00  0.00     0.020 A 
ATOM     83  C   UNL     1     -10.136  -0.067   4.812  1.00  0.00     0.020 A 
ATOM     84  C   UNL     1     -10.792   0.554   3.748  1.00  0.00     0.054 A 
BRANCH  84  85
ATOM     85  S   UNL     1     -10.771  -0.270   2.076  1.00  0.00     0.124 S 
ATOM     86  O   UNL     1     -12.145  -0.726   1.921  1.00  0.00    -0.237 OA
ATOM     87  O   UNL     1     -10.359   0.799   1.171  1.00  0.00    -0.237 OA
ATOM     88  O   UNL     1      -9.771  -1.323   2.241  1.00  0.00    -0.744 OA
ENDBRANCH  84  85
ENDBRANCH  56  79
BRANCH  68  89
ATOM     89  C   UNL     1      -5.184   3.237  11.590  1.00  0.00    -0.014 A 
ATOM     90  C   UNL     1      -6.344   3.191  12.378  1.00  0.00     0.010 A 
ATOM     91  C   UNL     1      -3.944   3.114  12.261  1.00  0.00     0.010 A 
ATOM     92  C   UNL     1      -6.272   3.132  13.767  1.00  0.00     0.020 A 
ATOM     93  C   UNL     1      -3.863   2.968  13.644  1.00  0.00     0.020 A 
ATOM     94  C   UNL     1      -5.032   3.028  14.390  1.00  0.00     0.054 A 
BRANCH  94  95
ATOM     95  S   UNL     1      -4.976   2.980  16.189  1.00  0.00     0.124 S 
ATOM     96  O   UNL     1      -5.221   4.380  16.525  1.00  0.00    -0.237 OA
ATOM     97  O   UNL     1      -6.060   2.057  16.518  1.00  0.00    -0.237 OA
ATOM     98  O   UNL     1      -3.633   2.489  16.483  1.00  0.00    -0.744 OA
ENDBRANCH  94  95
ENDBRANCH  68  89
ENDBRANCH  42  43
ENDBRANCH  35  37
ENDBRANCH  34  35
ENDBRANCH  33  34
ENDBRANCH  32  33
ENDBRANCH   1  32
TORSDOF 22
