REMARK SMILES O=C(OCCOCCOC(=O)[C@@]12CN(CC3CC3)C(=O)[C@@H]1CN(c1nc3ccccc3o1)C2)c1ccc(-c2c3nc(c(-c4ccc(S(=O)(=O)[O-])cc4)c4ccc([nH]4)c(-c4ccc(S(=O)(=O)[O-])cc4)c4nc(c(-c5ccc(S(=O)(=O)[O-])cc5)c5ccc2[nH]5)C=C4)C=C3)cc1
REMARK SMILES IDX 5 1 4 2 3 3 2 4 1 5 34 6 35 7 93 8 36 9 92 10 37 11 38 12
REMARK SMILES IDX 39 13 86 14 40 15 91 16 85 17 87 18 41 19 90 20 84 21 83 22
REMARK SMILES IDX 42 24 72 25 53 26 71 27 54 28 57 29 70 30 88 31 55 32 56 33
REMARK SMILES IDX 69 35 89 36 58 37 43 38 44 39 52 40 45 41 51 42 46 43 47 44
REMARK SMILES IDX 48 45 49 46 50 47 73 48 74 49 82 50 75 51 81 52 76 53 77 54
REMARK SMILES IDX 78 55 79 56 80 57 59 58 60 59 68 60 61 61 67 62 62 63 63 64
REMARK SMILES IDX 64 65 65 66 66 67 6 68 7 69 8 70 9 71 10 72 11 73 12 74
REMARK SMILES IDX 13 75 21 76 33 77 14 78 19 79 22 80 23 81 20 82 15 83 16 84
REMARK SMILES IDX 17 85 18 86 24 87 25 88 32 89 26 90 31 91 27 92 30 93 28 94
REMARK SMILES IDX 29 95
REMARK H PARENT 87 23 57 34
REMARK Flexibility Score: inf
ROOT
ATOM      1  C   UNL     1       3.927   1.020  -0.680  1.00  0.00     0.202 C 
ENDROOT
BRANCH   1   2
ATOM      2  C   UNL     1       3.587  -0.302  -1.380  1.00  0.00     0.261 C 
BRANCH   2   3
ATOM      3  O   UNL     1       2.216  -0.678  -1.154  1.00  0.00    -0.460 OA
BRANCH   3   4
ATOM      4  C   UNL     1       1.756  -1.598  -0.266  1.00  0.00     0.338 C 
ATOM      5  O   UNL     1       0.550  -1.811  -0.184  1.00  0.00    -0.246 OA
BRANCH   4   6
ATOM      6  C   UNL     1       2.677  -2.381   0.601  1.00  0.00     0.060 A 
ATOM      7  C   UNL     1       3.826  -1.838   1.165  1.00  0.00     0.016 A 
ATOM      8  C   UNL     1       2.344  -3.703   0.924  1.00  0.00     0.016 A 
ATOM      9  C   UNL     1       4.695  -2.585   1.919  1.00  0.00     0.010 A 
ATOM     10  C   UNL     1       3.170  -4.448   1.775  1.00  0.00     0.010 A 
ATOM     11  C   UNL     1       4.354  -3.882   2.264  1.00  0.00    -0.014 A 
BRANCH  11  12
ATOM     12  C   UNL     1       5.352  -4.603   3.062  1.00  0.00     0.031 A 
ATOM     13  C   UNL     1       6.149  -5.668   2.385  1.00  0.00     0.074 A 
ATOM     14  C   UNL     1       5.666  -4.131   4.286  1.00  0.00     0.049 A 
ATOM     15  N   UNL     1       7.051  -6.459   2.889  1.00  0.00    -0.248 NA
ATOM     16  C   UNL     1       5.913  -5.857   0.941  1.00  0.00     0.031 C 
ATOM     17  C   UNL     1       5.047  -2.961   4.928  1.00  0.00     0.029 A 
ATOM     18  N   UNL     1       6.617  -4.527   5.183  1.00  0.00    -0.354 N 
ATOM     19  C   UNL     1       7.460  -7.268   1.838  1.00  0.00     0.074 A 
ATOM     20  C   UNL     1       6.711  -6.877   0.668  1.00  0.00     0.031 C 
ATOM     21  C   UNL     1       5.661  -2.719   6.096  1.00  0.00     0.029 A 
ATOM     22  C   UNL     1       6.634  -3.773   6.333  1.00  0.00     0.049 A 
ATOM     23  H   UNL     1       7.230  -5.280   5.022  1.00  0.00     0.167 HD
ATOM     24  C   UNL     1       8.377  -8.258   1.871  1.00  0.00     0.031 A 
ATOM     25  C   UNL     1       7.323  -3.960   7.473  1.00  0.00     0.031 A 
ATOM     26  C   UNL     1       9.089  -8.611   3.066  1.00  0.00     0.049 A 
ATOM     27  C   UNL     1       8.235  -5.155   7.522  1.00  0.00     0.074 A 
ATOM     28  C   UNL     1       9.963  -9.658   3.280  1.00  0.00     0.029 A 
ATOM     29  N   UNL     1       9.007  -7.900   4.259  1.00  0.00    -0.354 N 
ATOM     30  N   UNL     1       8.527  -6.005   6.563  1.00  0.00    -0.248 NA
ATOM     31  C   UNL     1       8.897  -5.430   8.800  1.00  0.00     0.031 C 
ATOM     32  C   UNL     1      10.370  -9.608   4.618  1.00  0.00     0.029 A 
ATOM     33  C   UNL     1       9.803  -8.492   5.218  1.00  0.00     0.049 A 
ATOM     34  H   UNL     1       8.460  -7.093   4.398  1.00  0.00     0.167 HD
ATOM     35  C   UNL     1       9.415  -6.914   7.119  1.00  0.00     0.074 A 
ATOM     36  C   UNL     1       9.640  -6.482   8.487  1.00  0.00     0.031 C 
ATOM     37  C   UNL     1       9.987  -8.013   6.566  1.00  0.00     0.031 A 
BRANCH  24  38
ATOM     38  C   UNL     1       8.572  -9.054   0.612  1.00  0.00    -0.014 A 
ATOM     39  C   UNL     1       9.225  -8.511  -0.509  1.00  0.00     0.010 A 
ATOM     40  C   UNL     1       8.061 -10.362   0.542  1.00  0.00     0.010 A 
ATOM     41  C   UNL     1       9.340  -9.255  -1.687  1.00  0.00     0.020 A 
ATOM     42  C   UNL     1       8.197 -11.118  -0.625  1.00  0.00     0.020 A 
ATOM     43  C   UNL     1       8.827 -10.555  -1.736  1.00  0.00     0.054 A 
BRANCH  43  44
ATOM     44  S   UNL     1       9.023 -11.509  -3.265  1.00  0.00     0.124 S 
ATOM     45  O   UNL     1       8.102 -10.824  -4.169  1.00  0.00    -0.237 OA
ATOM     46  O   UNL     1      10.442 -11.338  -3.567  1.00  0.00    -0.237 OA
ATOM     47  O   UNL     1       8.629 -12.863  -2.884  1.00  0.00    -0.744 OA
ENDBRANCH  43  44
ENDBRANCH  24  38
BRANCH  25  48
ATOM     48  C   UNL     1       7.087  -3.095   8.666  1.00  0.00    -0.014 A 
ATOM     49  C   UNL     1       8.123  -2.344   9.246  1.00  0.00     0.010 A 
ATOM     50  C   UNL     1       5.809  -3.052   9.260  1.00  0.00     0.010 A 
ATOM     51  C   UNL     1       7.898  -1.605  10.415  1.00  0.00     0.020 A 
ATOM     52  C   UNL     1       5.569  -2.286  10.403  1.00  0.00     0.020 A 
ATOM     53  C   UNL     1       6.623  -1.586  10.989  1.00  0.00     0.054 A 
BRANCH  53  54
ATOM     54  S   UNL     1       6.354  -0.631  12.508  1.00  0.00     0.124 S 
ATOM     55  O   UNL     1       7.051  -1.442  13.502  1.00  0.00    -0.237 OA
ATOM     56  O   UNL     1       6.975   0.652  12.189  1.00  0.00    -0.237 OA
ATOM     57  O   UNL     1       4.899  -0.596  12.638  1.00  0.00    -0.744 OA
ENDBRANCH  53  54
ENDBRANCH  25  48
BRANCH  37  58
ATOM     58  C   UNL     1      10.932  -8.784   7.441  1.00  0.00    -0.014 A 
ATOM     59  C   UNL     1      10.462  -9.548   8.523  1.00  0.00     0.010 A 
ATOM     60  C   UNL     1      12.306  -8.766   7.147  1.00  0.00     0.010 A 
ATOM     61  C   UNL     1      11.361 -10.248   9.326  1.00  0.00     0.020 A 
ATOM     62  C   UNL     1      13.203  -9.494   7.926  1.00  0.00     0.020 A 
ATOM     63  C   UNL     1      12.726 -10.214   9.022  1.00  0.00     0.054 A 
BRANCH  63  64
ATOM     64  S   UNL     1      13.871 -11.154  10.064  1.00  0.00     0.124 S 
ATOM     65  O   UNL     1      13.911 -10.342  11.277  1.00  0.00    -0.237 OA
ATOM     66  O   UNL     1      13.200 -12.445  10.192  1.00  0.00    -0.237 OA
ATOM     67  O   UNL     1      15.108 -11.176   9.286  1.00  0.00    -0.744 OA
ENDBRANCH  63  64
ENDBRANCH  37  58
ENDBRANCH  11  12
ENDBRANCH   4   6
ENDBRANCH   3   4
ENDBRANCH   2   3
ENDBRANCH   1   2
BRANCH   1  68
ATOM     68  O   UNL     1       3.577   1.080   0.701  1.00  0.00    -0.374 OA
BRANCH  68  69
ATOM     69  C   UNL     1       2.212   1.384   1.003  1.00  0.00     0.202 C 
BRANCH  69  70
ATOM     70  C   UNL     1       2.125   2.722   1.734  1.00  0.00     0.261 C 
BRANCH  70  71
ATOM     71  O   UNL     1       2.986   3.679   1.081  1.00  0.00    -0.463 OA
BRANCH  71  72
ATOM     72  C   UNL     1       4.252   3.612   1.561  1.00  0.00     0.316 C 
ATOM     73  O   UNL     1       4.596   2.937   2.531  1.00  0.00    -0.251 OA
BRANCH  72  74
ATOM     74  C   UNL     1       5.256   4.483   0.871  1.00  0.00     0.116 C 
ATOM     75  C   UNL     1       6.463   3.570   0.690  1.00  0.00     0.141 C 
ATOM     76  C   UNL     1       5.098   5.109  -0.512  1.00  0.00     0.119 C 
ATOM     77  C   UNL     1       5.410   5.686   1.800  1.00  0.00     0.142 C 
ATOM     78  N   UNL     1       7.220   4.117  -0.400  1.00  0.00    -0.341 N 
ATOM     79  C   UNL     1       6.539   5.157  -1.008  1.00  0.00     0.228 C 
ATOM     80  C   UNL     1       4.531   6.506  -0.306  1.00  0.00     0.136 C 
ATOM     81  N   UNL     1       4.652   6.738   1.124  1.00  0.00    -0.324 N 
ATOM     82  O   UNL     1       6.983   5.950  -1.827  1.00  0.00    -0.274 OA
BRANCH  78  83
ATOM     83  C   UNL     1       8.604   3.712  -0.587  1.00  0.00     0.123 C 
BRANCH  83  84
ATOM     84  C   UNL     1       8.954   3.152  -1.936  1.00  0.00     0.008 C 
ATOM     85  C   UNL     1       8.180   3.318  -3.224  1.00  0.00     0.006 C 
ATOM     86  C   UNL     1       9.429   4.117  -2.996  1.00  0.00     0.006 C 
ENDBRANCH  83  84
ENDBRANCH  78  83
BRANCH  81  87
ATOM     87  C   UNL     1       3.730   7.469   1.781  1.00  0.00     0.298 A 
ATOM     88  N   UNL     1       2.654   8.073   1.314  1.00  0.00    -0.193 NA
ATOM     89  O   UNL     1       3.865   7.522   3.140  1.00  0.00    -0.423 OA
ATOM     90  C   UNL     1       1.983   8.461   2.449  1.00  0.00     0.111 A 
ATOM     91  C   UNL     1       2.728   8.128   3.565  1.00  0.00     0.156 A 
ATOM     92  C   UNL     1       0.733   9.066   2.635  1.00  0.00     0.032 A 
ATOM     93  C   UNL     1       2.346   8.344   4.881  1.00  0.00     0.049 A 
ATOM     94  C   UNL     1       0.295   9.284   3.953  1.00  0.00     0.003 A 
ATOM     95  C   UNL     1       1.088   8.929   5.052  1.00  0.00     0.004 A 
ENDBRANCH  81  87
ENDBRANCH  72  74
ENDBRANCH  71  72
ENDBRANCH  70  71
ENDBRANCH  69  70
ENDBRANCH  68  69
ENDBRANCH   1  68
TORSDOF 20
