REMARK SMILES Cc1nn(C)c2c1nc(SCC(=O)OCCOCCOC(=O)c1ccc(-c3c4nc(c(-c5ccc(S(=O)(=O)[O-])cc5)c5ccc([nH]5)c(-c5ccc(S(=O)(=O)[O-])cc5)c5nc(c(-c6ccc(S(=O)(=O)[O-])cc6)c6ccc3[nH]6)C=C5)C=C4)cc1)n2[C@H]1CC[N@@H+](C)C1
REMARK SMILES IDX 17 1 16 2 15 3 14 4 12 5 13 6 11 7 10 8 9 9 1 10 2 11 3 12
REMARK SMILES IDX 7 13 4 14 6 15 8 16 5 17 83 18 84 19 85 20 89 21 86 22 87 23
REMARK SMILES IDX 88 24 18 26 19 27 20 28 21 29 22 30 23 31 24 32 82 33 25 34
REMARK SMILES IDX 81 35 26 36 27 37 28 38 75 39 29 40 80 41 74 42 76 43 30 44
REMARK SMILES IDX 79 45 73 46 72 47 31 49 61 50 42 51 60 52 43 53 46 54 59 55
REMARK SMILES IDX 77 56 44 57 45 58 58 60 78 61 47 62 32 63 33 64 41 65 34 66
REMARK SMILES IDX 40 67 35 68 36 69 37 70 38 71 39 72 62 73 63 74 71 75 64 76
REMARK SMILES IDX 70 77 65 78 66 79 67 80 68 81 69 82 48 83 49 84 57 85 50 86
REMARK SMILES IDX 56 87 51 88 52 89 53 90 54 91 55 92
REMARK H PARENT 87 25 76 48 46 59
REMARK Flexibility Score: inf
ROOT
ATOM      1  O   UNL     1       1.321   5.145   1.483  1.00  0.00    -0.374 OA
ENDROOT
BRANCH   1   2
ATOM      2  C   UNL     1       1.004   3.823   1.907  1.00  0.00     0.202 C 
BRANCH   2   3
ATOM      3  C   UNL     1      -0.463   3.375   1.816  1.00  0.00     0.261 C 
BRANCH   3   4
ATOM      4  O   UNL     1      -1.064   3.596   0.524  1.00  0.00    -0.463 OA
BRANCH   4   5
ATOM      5  C   UNL     1      -2.072   4.510   0.473  1.00  0.00     0.316 C 
ATOM      6  O   UNL     1      -2.547   5.061   1.464  1.00  0.00    -0.251 OA
BRANCH   5   7
ATOM      7  C   UNL     1      -2.542   4.881  -0.924  1.00  0.00     0.200 C 
BRANCH   7   8
ATOM      8  S   UNL     1      -2.065   3.765  -2.252  1.00  0.00    -0.076 SA
BRANCH   8   9
ATOM      9  C   UNL     1      -1.029   4.678  -3.325  1.00  0.00     0.171 A 
ATOM     10  C   UNL     1       2.492   7.553  -3.486  1.00  0.00     0.071 C 
ATOM     11  C   UNL     1       1.737   6.565  -4.282  1.00  0.00     0.087 A 
ATOM     12  N   UNL     1       2.291   6.110  -5.416  1.00  0.00    -0.174 NA
ATOM     13  C   UNL     1       0.550   5.868  -4.026  1.00  0.00     0.132 A 
ATOM     14  N   UNL     1       1.512   5.068  -5.792  1.00  0.00    -0.250 N 
ATOM     15  C   UNL     1       0.444   4.889  -4.956  1.00  0.00     0.159 A 
ATOM     16  N   UNL     1      -0.374   5.789  -3.032  1.00  0.00    -0.219 NA
ATOM     17  C   UNL     1       2.008   4.272  -6.888  1.00  0.00     0.176 C 
ATOM     18  N   UNL     1      -0.649   4.153  -4.574  1.00  0.00    -0.295 N 
BRANCH  18  19
ATOM     19  C   UNL     1      -1.288   2.998  -5.192  1.00  0.00     0.152 C 
ATOM     20  C   UNL     1      -2.763   3.252  -5.561  1.00  0.00     0.093 C 
ATOM     21  C   UNL     1      -0.683   2.487  -6.496  1.00  0.00     0.288 C 
ATOM     22  C   UNL     1      -2.800   3.203  -7.080  1.00  0.00     0.264 C 
ATOM     23  N   UNL     1      -1.810   2.168  -7.373  1.00  0.00    -0.336 N 
ATOM     24  C   UNL     1      -1.392   2.197  -8.775  1.00  0.00     0.332 C 
ATOM     25  H   UNL     1      -2.184   1.232  -7.215  1.00  0.00     0.347 HD
ENDBRANCH  18  19
ENDBRANCH   8   9
ENDBRANCH   7   8
ENDBRANCH   5   7
ENDBRANCH   4   5
ENDBRANCH   3   4
ENDBRANCH   2   3
ENDBRANCH   1   2
BRANCH   1  26
ATOM     26  C   UNL     1       1.126   5.474   0.111  1.00  0.00     0.202 C 
BRANCH  26  27
ATOM     27  C   UNL     1       1.808   4.605  -0.934  1.00  0.00     0.261 C 
BRANCH  27  28
ATOM     28  O   UNL     1       1.464   3.228  -0.884  1.00  0.00    -0.460 OA
BRANCH  28  29
ATOM     29  C   UNL     1       2.553   2.438  -0.738  1.00  0.00     0.338 C 
ATOM     30  O   UNL     1       3.548   2.691  -0.088  1.00  0.00    -0.246 OA
BRANCH  29  31
ATOM     31  C   UNL     1       2.455   1.330  -1.698  1.00  0.00     0.060 A 
ATOM     32  C   UNL     1       3.597   0.545  -1.837  1.00  0.00     0.016 A 
ATOM     33  C   UNL     1       1.373   1.223  -2.589  1.00  0.00     0.016 A 
ATOM     34  C   UNL     1       3.723  -0.236  -2.964  1.00  0.00     0.010 A 
ATOM     35  C   UNL     1       1.500   0.434  -3.715  1.00  0.00     0.010 A 
ATOM     36  C   UNL     1       2.700  -0.235  -3.923  1.00  0.00    -0.014 A 
BRANCH  36  37
ATOM     37  C   UNL     1       2.856  -1.135  -5.048  1.00  0.00     0.031 A 
ATOM     38  C   UNL     1       2.791  -2.547  -4.623  1.00  0.00     0.074 A 
ATOM     39  C   UNL     1       3.023  -0.756  -6.327  1.00  0.00     0.049 A 
ATOM     40  N   UNL     1       3.800  -3.332  -4.449  1.00  0.00    -0.248 NA
ATOM     41  C   UNL     1       1.518  -3.066  -4.101  1.00  0.00     0.031 C 
ATOM     42  C   UNL     1       2.914   0.575  -6.909  1.00  0.00     0.029 A 
ATOM     43  N   UNL     1       3.273  -1.534  -7.410  1.00  0.00    -0.354 N 
ATOM     44  C   UNL     1       3.261  -4.534  -4.019  1.00  0.00     0.074 A 
ATOM     45  C   UNL     1       1.905  -4.249  -3.622  1.00  0.00     0.031 C 
ATOM     46  C   UNL     1       2.839   0.476  -8.260  1.00  0.00     0.029 A 
ATOM     47  C   UNL     1       3.075  -0.910  -8.636  1.00  0.00     0.049 A 
ATOM     48  H   UNL     1       3.571  -2.469  -7.334  1.00  0.00     0.167 HD
ATOM     49  C   UNL     1       3.882  -5.711  -4.300  1.00  0.00     0.031 A 
ATOM     50  C   UNL     1       3.090  -1.509  -9.856  1.00  0.00     0.031 A 
ATOM     51  C   UNL     1       5.251  -5.505  -4.705  1.00  0.00     0.049 A 
ATOM     52  C   UNL     1       3.866  -2.766  -9.706  1.00  0.00     0.074 A 
ATOM     53  C   UNL     1       6.370  -4.956  -4.111  1.00  0.00     0.029 A 
ATOM     54  N   UNL     1       5.504  -5.519  -6.058  1.00  0.00    -0.354 N 
ATOM     55  N   UNL     1       5.145  -2.779  -9.452  1.00  0.00    -0.248 NA
ATOM     56  C   UNL     1       3.146  -3.978  -9.348  1.00  0.00     0.031 C 
ATOM     57  C   UNL     1       7.033  -4.248  -5.156  1.00  0.00     0.029 A 
ATOM     58  C   UNL     1       6.332  -4.465  -6.344  1.00  0.00     0.049 A 
ATOM     59  H   UNL     1       5.152  -6.171  -6.706  1.00  0.00     0.167 HD
ATOM     60  C   UNL     1       5.309  -3.790  -8.515  1.00  0.00     0.074 A 
ATOM     61  C   UNL     1       4.057  -4.547  -8.553  1.00  0.00     0.031 C 
ATOM     62  C   UNL     1       6.327  -3.751  -7.604  1.00  0.00     0.031 A 
BRANCH  49  63
ATOM     63  C   UNL     1       3.119  -6.961  -4.654  1.00  0.00    -0.014 A 
ATOM     64  C   UNL     1       3.843  -8.133  -4.942  1.00  0.00     0.010 A 
ATOM     65  C   UNL     1       1.750  -6.953  -4.994  1.00  0.00     0.010 A 
ATOM     66  C   UNL     1       3.243  -9.208  -5.608  1.00  0.00     0.020 A 
ATOM     67  C   UNL     1       1.131  -8.034  -5.618  1.00  0.00     0.020 A 
ATOM     68  C   UNL     1       1.892  -9.143  -5.952  1.00  0.00     0.054 A 
BRANCH  68  69
ATOM     69  S   UNL     1       1.150 -10.495  -6.893  1.00  0.00     0.124 S 
ATOM     70  O   UNL     1       1.868 -10.407  -8.160  1.00  0.00    -0.237 OA
ATOM     71  O   UNL     1       1.464 -11.654  -6.061  1.00  0.00    -0.237 OA
ATOM     72  O   UNL     1      -0.266 -10.137  -6.946  1.00  0.00    -0.744 OA
ENDBRANCH  68  69
ENDBRANCH  49  63
BRANCH  50  73
ATOM     73  C   UNL     1       2.184  -1.272 -11.012  1.00  0.00    -0.014 A 
ATOM     74  C   UNL     1       2.436  -1.853 -12.271  1.00  0.00     0.010 A 
ATOM     75  C   UNL     1       0.902  -0.731 -10.792  1.00  0.00     0.010 A 
ATOM     76  C   UNL     1       1.424  -1.948 -13.245  1.00  0.00     0.020 A 
ATOM     77  C   UNL     1      -0.109  -0.815 -11.759  1.00  0.00     0.020 A 
ATOM     78  C   UNL     1       0.149  -1.446 -12.973  1.00  0.00     0.054 A 
BRANCH  78  79
ATOM     79  S   UNL     1      -1.204  -1.733 -14.157  1.00  0.00     0.124 S 
ATOM     80  O   UNL     1      -0.826  -0.875 -15.275  1.00  0.00    -0.237 OA
ATOM     81  O   UNL     1      -1.113  -3.169 -14.402  1.00  0.00    -0.237 OA
ATOM     82  O   UNL     1      -2.395  -1.306 -13.425  1.00  0.00    -0.744 OA
ENDBRANCH  78  79
ENDBRANCH  50  73
BRANCH  62  83
ATOM     83  C   UNL     1       7.446  -2.756  -7.816  1.00  0.00    -0.014 A 
ATOM     84  C   UNL     1       7.277  -1.357  -7.834  1.00  0.00     0.010 A 
ATOM     85  C   UNL     1       8.752  -3.272  -7.860  1.00  0.00     0.010 A 
ATOM     86  C   UNL     1       8.390  -0.503  -7.924  1.00  0.00     0.020 A 
ATOM     87  C   UNL     1       9.863  -2.430  -7.930  1.00  0.00     0.020 A 
ATOM     88  C   UNL     1       9.678  -1.049  -7.974  1.00  0.00     0.054 A 
BRANCH  88  89
ATOM     89  S   UNL     1      11.120   0.050  -8.068  1.00  0.00     0.124 S 
ATOM     90  O   UNL     1      10.984   0.637  -9.398  1.00  0.00    -0.237 OA
ATOM     91  O   UNL     1      10.903   0.965  -6.950  1.00  0.00    -0.237 OA
ATOM     92  O   UNL     1      12.258  -0.854  -7.905  1.00  0.00    -0.744 OA
ENDBRANCH  88  89
ENDBRANCH  62  83
ENDBRANCH  36  37
ENDBRANCH  29  31
ENDBRANCH  28  29
ENDBRANCH  27  28
ENDBRANCH  26  27
ENDBRANCH   1  26
TORSDOF 20
