REMARK SMILES O=C1O[C@@H](c2ccc(O)c(O)c2)[C@H](C(=O)OCCOCCOC(=O)c2ccc(-c3c4nc(c(-c5ccc(S(=O)(=O)[O-])cc5)c5ccc([nH]5)c(-c5ccc(S(=O)(=O)[O-])cc5)c5nc(c(-c6ccc(S(=O)(=O)[O-])cc6)c6ccc3[nH]6)C=C5)C=C4)cc2)/C1=C\c1ccc(O)c(O)c1
REMARK SMILES IDX 20 1 19 2 18 3 17 4 16 5 14 6 15 7 13 8 1 9 2 10 3 11 85 12
REMARK SMILES IDX 4 13 86 14 5 15 6 16 12 17 7 18 10 19 8 20 11 21 9 23 87 25
REMARK SMILES IDX 88 26 94 27 89 28 92 29 90 30 93 31 91 33 21 35 22 36 23 37
REMARK SMILES IDX 24 38 25 39 26 40 84 41 27 42 83 43 28 44 29 45 30 46 77 47
REMARK SMILES IDX 31 48 82 49 76 50 78 51 32 52 81 53 75 54 74 55 33 57 63 58
REMARK SMILES IDX 44 59 62 60 45 61 48 62 61 63 79 64 46 65 47 66 60 68 80 69
REMARK SMILES IDX 49 70 34 71 35 72 43 73 36 74 42 75 37 76 38 77 39 78 40 79
REMARK SMILES IDX 41 80 64 81 65 82 73 83 66 84 72 85 67 86 68 87 69 88 70 89
REMARK SMILES IDX 71 90 50 91 51 92 59 93 52 94 58 95 53 96 54 97 55 98 56 99
REMARK SMILES IDX 57 100
REMARK H PARENT 11 22 9 24 93 32 91 34 78 56 48 67
REMARK Flexibility Score: inf
ROOT
ATOM      1  C   UNL     1       1.680   3.874   2.360  1.00  0.00     0.202 C 
ENDROOT
BRANCH   1   2
ATOM      2  O   UNL     1       1.839   3.553   3.735  1.00  0.00    -0.374 OA
BRANCH   2   3
ATOM      3  C   UNL     1       2.765   2.536   4.103  1.00  0.00     0.202 C 
BRANCH   3   4
ATOM      4  C   UNL     1       2.421   1.085   3.766  1.00  0.00     0.261 C 
BRANCH   4   5
ATOM      5  O   UNL     1       2.353   0.889   2.343  1.00  0.00    -0.463 OA
BRANCH   5   6
ATOM      6  C   UNL     1       1.112   0.593   1.861  1.00  0.00     0.317 C 
ATOM      7  O   UNL     1       0.133   0.343   2.550  1.00  0.00    -0.251 OA
BRANCH   6   8
ATOM      8  C   UNL     1       1.116   0.684   0.343  1.00  0.00     0.182 C 
ATOM      9  O   UNL     1      -1.860  -1.076  -0.450  1.00  0.00    -0.247 OA
ATOM     10  C   UNL     1      -0.719  -0.679  -0.288  1.00  0.00     0.335 C 
ATOM     11  O   UNL     1       0.394  -1.463  -0.233  1.00  0.00    -0.453 OA
ATOM     12  C   UNL     1      -0.293   0.730  -0.136  1.00  0.00     0.056 C 
ATOM     13  C   UNL     1       1.584  -0.650  -0.207  1.00  0.00     0.226 C 
ATOM     14  C   UNL     1      -1.129   1.742  -0.413  1.00  0.00     0.020 C 
BRANCH  13  15
ATOM     15  C   UNL     1       2.236  -0.576  -1.584  1.00  0.00    -0.002 A 
ATOM     16  C   UNL     1       3.362   0.245  -1.803  1.00  0.00     0.012 A 
ATOM     17  C   UNL     1       1.778  -1.373  -2.647  1.00  0.00     0.057 A 
ATOM     18  C   UNL     1       3.997   0.288  -3.053  1.00  0.00     0.050 A 
ATOM     19  C   UNL     1       2.413  -1.326  -3.881  1.00  0.00     0.157 A 
ATOM     20  C   UNL     1       3.514  -0.503  -4.087  1.00  0.00     0.157 A 
BRANCH  19  21
ATOM     21  O   UNL     1       1.952  -2.116  -4.894  1.00  0.00    -0.504 OA
ATOM     22  H   UNL     1       2.371  -2.095  -5.732  1.00  0.00     0.293 HD
ENDBRANCH  19  21
BRANCH  20  23
ATOM     23  O   UNL     1       4.098  -0.520  -5.323  1.00  0.00    -0.504 OA
ATOM     24  H   UNL     1       4.842   0.022  -5.497  1.00  0.00     0.293 HD
ENDBRANCH  20  23
ENDBRANCH  13  15
BRANCH  14  25
ATOM     25  C   UNL     1      -0.816   3.173  -0.341  1.00  0.00    -0.021 A 
ATOM     26  C   UNL     1       0.096   3.757  -1.236  1.00  0.00     0.012 A 
ATOM     27  C   UNL     1      -1.485   3.987   0.582  1.00  0.00     0.058 A 
ATOM     28  C   UNL     1       0.359   5.133  -1.196  1.00  0.00     0.051 A 
ATOM     29  C   UNL     1      -1.211   5.351   0.620  1.00  0.00     0.157 A 
ATOM     30  C   UNL     1      -0.290   5.921  -0.255  1.00  0.00     0.157 A 
BRANCH  29  31
ATOM     31  O   UNL     1      -1.832   6.130   1.554  1.00  0.00    -0.504 OA
ATOM     32  H   UNL     1      -1.655   7.050   1.589  1.00  0.00     0.293 HD
ENDBRANCH  29  31
BRANCH  30  33
ATOM     33  O   UNL     1      -0.042   7.259  -0.132  1.00  0.00    -0.504 OA
ATOM     34  H   UNL     1       0.573   7.676  -0.704  1.00  0.00     0.293 HD
ENDBRANCH  30  33
ENDBRANCH  14  25
ENDBRANCH   6   8
ENDBRANCH   5   6
ENDBRANCH   4   5
ENDBRANCH   3   4
ENDBRANCH   2   3
ENDBRANCH   1   2
BRANCH   1  35
ATOM     35  C   UNL     1       2.783   4.652   1.631  1.00  0.00     0.261 C 
BRANCH  35  36
ATOM     36  O   UNL     1       4.091   4.098   1.788  1.00  0.00    -0.460 OA
BRANCH  36  37
ATOM     37  C   UNL     1       4.845   4.743   2.715  1.00  0.00     0.338 C 
ATOM     38  O   UNL     1       4.545   5.732   3.359  1.00  0.00    -0.246 OA
BRANCH  37  39
ATOM     39  C   UNL     1       6.055   3.950   2.971  1.00  0.00     0.060 A 
ATOM     40  C   UNL     1       6.273   3.493   4.278  1.00  0.00     0.016 A 
ATOM     41  C   UNL     1       6.975   3.696   1.955  1.00  0.00     0.016 A 
ATOM     42  C   UNL     1       7.438   2.799   4.582  1.00  0.00     0.010 A 
ATOM     43  C   UNL     1       8.150   3.014   2.266  1.00  0.00     0.010 A 
ATOM     44  C   UNL     1       8.398   2.592   3.585  1.00  0.00    -0.014 A 
BRANCH  44  45
ATOM     45  C   UNL     1       9.735   2.075   3.946  1.00  0.00     0.031 A 
ATOM     46  C   UNL     1      10.873   3.049   4.054  1.00  0.00     0.074 A 
ATOM     47  C   UNL     1       9.925   0.763   4.162  1.00  0.00     0.049 A 
ATOM     48  N   UNL     1      12.143   2.816   4.250  1.00  0.00    -0.248 NA
ATOM     49  C   UNL     1      10.534   4.476   3.915  1.00  0.00     0.031 C 
ATOM     50  C   UNL     1       8.879  -0.260   4.136  1.00  0.00     0.029 A 
ATOM     51  N   UNL     1      11.074   0.065   4.431  1.00  0.00    -0.354 N 
ATOM     52  C   UNL     1      12.759   4.061   4.237  1.00  0.00     0.074 A 
ATOM     53  C   UNL     1      11.728   5.045   3.990  1.00  0.00     0.031 C 
ATOM     54  C   UNL     1       9.440  -1.460   4.365  1.00  0.00     0.029 A 
ATOM     55  C   UNL     1      10.884  -1.294   4.506  1.00  0.00     0.049 A 
ATOM     56  H   UNL     1      11.950   0.496   4.559  1.00  0.00     0.167 HD
ATOM     57  C   UNL     1      14.068   4.355   4.417  1.00  0.00     0.031 A 
ATOM     58  C   UNL     1      11.782  -2.290   4.639  1.00  0.00     0.031 A 
ATOM     59  C   UNL     1      15.082   3.363   4.652  1.00  0.00     0.049 A 
ATOM     60  C   UNL     1      13.244  -1.946   4.755  1.00  0.00     0.074 A 
ATOM     61  C   UNL     1      16.435   3.552   4.865  1.00  0.00     0.029 A 
ATOM     62  N   UNL     1      14.855   1.995   4.696  1.00  0.00    -0.354 N 
ATOM     63  N   UNL     1      13.813  -0.763   4.760  1.00  0.00    -0.248 NA
ATOM     64  C   UNL     1      14.184  -3.067   4.887  1.00  0.00     0.031 C 
ATOM     65  C   UNL     1      17.038   2.295   4.969  1.00  0.00     0.029 A 
ATOM     66  C   UNL     1      16.049   1.326   4.900  1.00  0.00     0.049 A 
ATOM     67  H   UNL     1      13.976   1.564   4.597  1.00  0.00     0.167 HD
ATOM     68  C   UNL     1      15.174  -0.998   4.932  1.00  0.00     0.074 A 
ATOM     69  C   UNL     1      15.340  -2.433   5.032  1.00  0.00     0.031 C 
ATOM     70  C   UNL     1      16.192  -0.105   5.007  1.00  0.00     0.031 A 
BRANCH  57  71
ATOM     71  C   UNL     1      14.481   5.800   4.322  1.00  0.00    -0.014 A 
ATOM     72  C   UNL     1      14.111   6.736   5.305  1.00  0.00     0.010 A 
ATOM     73  C   UNL     1      15.290   6.218   3.250  1.00  0.00     0.010 A 
ATOM     74  C   UNL     1      14.510   8.071   5.196  1.00  0.00     0.020 A 
ATOM     75  C   UNL     1      15.717   7.545   3.154  1.00  0.00     0.020 A 
ATOM     76  C   UNL     1      15.311   8.467   4.120  1.00  0.00     0.054 A 
BRANCH  76  77
ATOM     77  S   UNL     1      15.834  10.200   4.018  1.00  0.00     0.124 S 
ATOM     78  O   UNL     1      14.581  10.873   3.686  1.00  0.00    -0.237 OA
ATOM     79  O   UNL     1      16.349  10.457   5.360  1.00  0.00    -0.237 OA
ATOM     80  O   UNL     1      16.838  10.198   2.956  1.00  0.00    -0.744 OA
ENDBRANCH  76  77
ENDBRANCH  57  71
BRANCH  58  81
ATOM     81  C   UNL     1      11.323  -3.706   4.643  1.00  0.00    -0.014 A 
ATOM     82  C   UNL     1      11.418  -4.488   5.806  1.00  0.00     0.010 A 
ATOM     83  C   UNL     1      10.778  -4.278   3.478  1.00  0.00     0.010 A 
ATOM     84  C   UNL     1      10.991  -5.820   5.801  1.00  0.00     0.020 A 
ATOM     85  C   UNL     1      10.321  -5.598   3.477  1.00  0.00     0.020 A 
ATOM     86  C   UNL     1      10.441  -6.364   4.637  1.00  0.00     0.054 A 
BRANCH  86  87
ATOM     87  S   UNL     1       9.849  -8.078   4.670  1.00  0.00     0.124 S 
ATOM     88  O   UNL     1      11.098  -8.830   4.741  1.00  0.00    -0.237 OA
ATOM     89  O   UNL     1       9.025  -8.101   5.877  1.00  0.00    -0.237 OA
ATOM     90  O   UNL     1       9.109  -8.208   3.417  1.00  0.00    -0.744 OA
ENDBRANCH  86  87
ENDBRANCH  58  81
BRANCH  70  91
ATOM     91  C   UNL     1      17.578  -0.640   5.257  1.00  0.00    -0.014 A 
ATOM     92  C   UNL     1      18.294  -1.320   4.258  1.00  0.00     0.010 A 
ATOM     93  C   UNL     1      18.207  -0.367   6.487  1.00  0.00     0.010 A 
ATOM     94  C   UNL     1      19.610  -1.729   4.488  1.00  0.00     0.020 A 
ATOM     95  C   UNL     1      19.532  -0.746   6.710  1.00  0.00     0.020 A 
ATOM     96  C   UNL     1      20.224  -1.432   5.710  1.00  0.00     0.054 A 
BRANCH  96  97
ATOM     97  S   UNL     1      21.958  -1.902   5.952  1.00  0.00     0.124 S 
ATOM     98  O   UNL     1      21.867  -3.356   6.060  1.00  0.00    -0.237 OA
ATOM     99  O   UNL     1      22.596  -1.401   4.737  1.00  0.00    -0.237 OA
ATOM    100  O   UNL     1      22.339  -1.208   7.180  1.00  0.00    -0.744 OA
ENDBRANCH  96  97
ENDBRANCH  70  91
ENDBRANCH  44  45
ENDBRANCH  37  39
ENDBRANCH  36  37
ENDBRANCH  35  36
ENDBRANCH   1  35
TORSDOF 23
