REMARK SMILES C[C@@H]1[C@H](C)CC[C@@H]1NC(=O)N1CCO[C@H](CC(=O)OCCOCCOC(=O)c2ccc(-c3c4nc(c(-c5ccc(S(=O)(=O)[O-])cc5)c5ccc([nH]5)c(-c5ccc(S(=O)(=O)[O-])cc5)c5nc(c(-c6ccc(S(=O)(=O)[O-])cc6)c6ccc3[nH]6)C=C5)C=C4)cc2)C1
REMARK SMILES IDX 22 1 21 2 20 3 19 4 17 5 18 6 16 7 15 8 11 9 12 10 88 11
REMARK SMILES IDX 13 12 14 13 9 14 8 15 10 17 7 18 1 19 2 20 3 21 4 22 5 23
REMARK SMILES IDX 6 24 23 25 24 26 25 27 26 28 27 29 28 30 29 31 87 32 30 33
REMARK SMILES IDX 86 34 31 35 32 36 33 37 80 38 34 39 85 40 79 41 81 42 35 43
REMARK SMILES IDX 84 44 78 45 77 46 36 48 66 49 47 50 65 51 48 52 51 53 64 54
REMARK SMILES IDX 82 55 49 56 50 57 63 59 83 60 52 61 37 62 38 63 46 64 39 65
REMARK SMILES IDX 45 66 40 67 41 68 42 69 43 70 44 71 67 72 68 73 76 74 69 75
REMARK SMILES IDX 75 76 70 77 71 78 72 79 73 80 74 81 53 82 54 83 62 84 55 85
REMARK SMILES IDX 61 86 56 87 57 88 58 89 59 90 60 91
REMARK H PARENT 8 16 81 47 51 58
REMARK Flexibility Score: inf
ROOT
ATOM      1  O   UNL     1      -1.788   3.064  -4.418  1.00  0.00    -0.374 OA
ENDROOT
BRANCH   1   2
ATOM      2  C   UNL     1      -2.186   3.395  -3.082  1.00  0.00     0.202 C 
BRANCH   2   3
ATOM      3  C   UNL     1      -2.682   2.222  -2.229  1.00  0.00     0.261 C 
BRANCH   3   4
ATOM      4  O   UNL     1      -1.544   1.509  -1.710  1.00  0.00    -0.463 OA
BRANCH   4   5
ATOM      5  C   UNL     1      -1.209   0.349  -2.312  1.00  0.00     0.308 C 
ATOM      6  O   UNL     1      -1.967  -0.318  -3.007  1.00  0.00    -0.252 OA
BRANCH   5   7
ATOM      7  C   UNL     1       0.218  -0.072  -2.036  1.00  0.00     0.156 C 
BRANCH   7   8
ATOM      8  C   UNL     1       1.353   0.976  -1.984  1.00  0.00     0.149 C 
ATOM      9  N   UNL     1       2.414   0.317   0.161  1.00  0.00    -0.320 N 
ATOM     10  C   UNL     1       1.939   1.577   0.735  1.00  0.00     0.150 C 
ATOM     11  C   UNL     1       2.608   0.429  -1.281  1.00  0.00     0.154 C 
ATOM     12  C   UNL     1       0.839   2.292  -0.054  1.00  0.00     0.182 C 
ATOM     13  O   UNL     1       1.037   2.269  -1.461  1.00  0.00    -0.374 OA
BRANCH   9  14
ATOM     14  C   UNL     1       3.266  -0.528   0.828  1.00  0.00     0.317 C 
ATOM     15  N   UNL     1       2.980  -1.085   2.030  1.00  0.00    -0.335 N 
ATOM     16  H   UNL     1       3.778  -1.138   2.603  1.00  0.00     0.165 HD
ATOM     17  O   UNL     1       4.358  -0.838   0.341  1.00  0.00    -0.249 OA
BRANCH  15  18
ATOM     18  C   UNL     1       1.782  -1.635   2.711  1.00  0.00     0.087 C 
ATOM     19  C   UNL     1      -0.192  -0.472   1.639  1.00  0.00     0.010 C 
ATOM     20  C   UNL     1       0.606  -0.703   2.900  1.00  0.00     0.011 C 
ATOM     21  C   UNL     1       1.118   0.300   3.983  1.00  0.00    -0.009 C 
ATOM     22  C   UNL     1       2.414   1.153   3.918  1.00  0.00     0.008 C 
ATOM     23  C   UNL     1       1.478  -0.771   5.038  1.00  0.00     0.006 C 
ATOM     24  C   UNL     1       2.056  -1.955   4.212  1.00  0.00     0.025 C 
ENDBRANCH  15  18
ENDBRANCH   9  14
ENDBRANCH   7   8
ENDBRANCH   5   7
ENDBRANCH   4   5
ENDBRANCH   3   4
ENDBRANCH   2   3
ENDBRANCH   1   2
BRANCH   1  25
ATOM     25  C   UNL     1      -0.465   2.560  -4.578  1.00  0.00     0.202 C 
BRANCH  25  26
ATOM     26  C   UNL     1       0.669   3.584  -4.712  1.00  0.00     0.261 C 
BRANCH  26  27
ATOM     27  O   UNL     1       0.796   4.416  -3.548  1.00  0.00    -0.460 OA
BRANCH  27  28
ATOM     28  C   UNL     1       0.159   5.599  -3.655  1.00  0.00     0.338 C 
ATOM     29  O   UNL     1      -0.379   6.050  -4.664  1.00  0.00    -0.246 OA
BRANCH  28  30
ATOM     30  C   UNL     1       0.011   6.253  -2.342  1.00  0.00     0.060 A 
ATOM     31  C   UNL     1      -1.249   6.796  -2.062  1.00  0.00     0.016 A 
ATOM     32  C   UNL     1       1.076   6.445  -1.459  1.00  0.00     0.016 A 
ATOM     33  C   UNL     1      -1.422   7.634  -0.968  1.00  0.00     0.010 A 
ATOM     34  C   UNL     1       0.900   7.291  -0.354  1.00  0.00     0.010 A 
ATOM     35  C   UNL     1      -0.331   7.945  -0.149  1.00  0.00    -0.014 A 
BRANCH  35  36
ATOM     36  C   UNL     1      -0.444   9.121   0.752  1.00  0.00     0.031 A 
ATOM     37  C   UNL     1       0.190  10.423   0.326  1.00  0.00     0.074 A 
ATOM     38  C   UNL     1      -1.193   9.075   1.869  1.00  0.00     0.049 A 
ATOM     39  N   UNL     1       0.180  11.586   0.925  1.00  0.00    -0.248 NA
ATOM     40  C   UNL     1       0.929  10.412  -0.948  1.00  0.00     0.031 C 
ATOM     41  C   UNL     1      -1.923   7.902   2.350  1.00  0.00     0.029 A 
ATOM     42  N   UNL     1      -1.478  10.051   2.791  1.00  0.00    -0.354 N 
ATOM     43  C   UNL     1       0.916  12.439   0.108  1.00  0.00     0.074 A 
ATOM     44  C   UNL     1       1.391  11.652  -1.007  1.00  0.00     0.031 C 
ATOM     45  C   UNL     1      -2.580   8.231   3.476  1.00  0.00     0.029 A 
ATOM     46  C   UNL     1      -2.289   9.624   3.815  1.00  0.00     0.049 A 
ATOM     47  H   UNL     1      -1.134  10.971   2.725  1.00  0.00     0.167 HD
ATOM     48  C   UNL     1       1.166  13.762   0.263  1.00  0.00     0.031 A 
ATOM     49  C   UNL     1      -2.736  10.275   4.907  1.00  0.00     0.031 A 
ATOM     50  C   UNL     1       0.698  14.546   1.374  1.00  0.00     0.049 A 
ATOM     51  C   UNL     1      -2.369  11.724   5.106  1.00  0.00     0.074 A 
ATOM     52  C   UNL     1       0.899  15.893   1.621  1.00  0.00     0.029 A 
ATOM     53  N   UNL     1      -0.064  14.056   2.424  1.00  0.00    -0.354 N 
ATOM     54  N   UNL     1      -1.671  12.514   4.326  1.00  0.00    -0.248 NA
ATOM     55  C   UNL     1      -2.863  12.371   6.330  1.00  0.00     0.031 C 
ATOM     56  C   UNL     1       0.314  16.203   2.853  1.00  0.00     0.029 A 
ATOM     57  C   UNL     1      -0.318  15.068   3.336  1.00  0.00     0.049 A 
ATOM     58  H   UNL     1      -0.377  13.127   2.510  1.00  0.00     0.167 HD
ATOM     59  C   UNL     1      -1.676  13.761   4.945  1.00  0.00     0.074 A 
ATOM     60  C   UNL     1      -2.453  13.620   6.159  1.00  0.00     0.031 C 
ATOM     61  C   UNL     1      -1.097  14.919   4.540  1.00  0.00     0.031 A 
BRANCH  48  62
ATOM     62  C   UNL     1       2.023  14.435  -0.779  1.00  0.00    -0.014 A 
ATOM     63  C   UNL     1       1.556  14.650  -2.089  1.00  0.00     0.010 A 
ATOM     64  C   UNL     1       3.310  14.887  -0.432  1.00  0.00     0.010 A 
ATOM     65  C   UNL     1       2.376  15.263  -3.042  1.00  0.00     0.020 A 
ATOM     66  C   UNL     1       4.120  15.529  -1.372  1.00  0.00     0.020 A 
ATOM     67  C   UNL     1       3.655  15.696  -2.677  1.00  0.00     0.054 A 
BRANCH  67  68
ATOM     68  S   UNL     1       4.691  16.501  -3.929  1.00  0.00     0.124 S 
ATOM     69  O   UNL     1       5.036  15.380  -4.800  1.00  0.00    -0.237 OA
ATOM     70  O   UNL     1       3.785  17.490  -4.507  1.00  0.00    -0.237 OA
ATOM     71  O   UNL     1       5.803  17.053  -3.158  1.00  0.00    -0.744 OA
ENDBRANCH  67  68
ENDBRANCH  48  62
BRANCH  49  72
ATOM     72  C   UNL     1      -3.571   9.559   5.910  1.00  0.00    -0.014 A 
ATOM     73  C   UNL     1      -4.921   9.902   6.104  1.00  0.00     0.010 A 
ATOM     74  C   UNL     1      -3.011   8.526   6.686  1.00  0.00     0.010 A 
ATOM     75  C   UNL     1      -5.689   9.238   7.066  1.00  0.00     0.020 A 
ATOM     76  C   UNL     1      -3.784   7.840   7.626  1.00  0.00     0.020 A 
ATOM     77  C   UNL     1      -5.116   8.208   7.818  1.00  0.00     0.054 A 
BRANCH  77  78
ATOM     78  S   UNL     1      -6.146   7.326   9.024  1.00  0.00     0.124 S 
ATOM     79  O   UNL     1      -6.315   8.329  10.070  1.00  0.00    -0.237 OA
ATOM     80  O   UNL     1      -7.342   7.014   8.245  1.00  0.00    -0.237 OA
ATOM     81  O   UNL     1      -5.330   6.170   9.389  1.00  0.00    -0.744 OA
ENDBRANCH  77  78
ENDBRANCH  49  72
BRANCH  61  82
ATOM     82  C   UNL     1      -1.324  16.149   5.383  1.00  0.00    -0.014 A 
ATOM     83  C   UNL     1      -0.739  16.292   6.654  1.00  0.00     0.010 A 
ATOM     84  C   UNL     1      -2.098  17.205   4.865  1.00  0.00     0.010 A 
ATOM     85  C   UNL     1      -0.956  17.452   7.405  1.00  0.00     0.020 A 
ATOM     86  C   UNL     1      -2.289  18.379   5.598  1.00  0.00     0.020 A 
ATOM     87  C   UNL     1      -1.729  18.488   6.871  1.00  0.00     0.054 A 
BRANCH  87  88
ATOM     88  S   UNL     1      -1.964  19.997   7.851  1.00  0.00     0.124 S 
ATOM     89  O   UNL     1      -2.870  19.540   8.901  1.00  0.00    -0.237 OA
ATOM     90  O   UNL     1      -0.605  20.310   8.286  1.00  0.00    -0.237 OA
ATOM     91  O   UNL     1      -2.541  20.943   6.899  1.00  0.00    -0.744 OA
ENDBRANCH  87  88
ENDBRANCH  61  82
ENDBRANCH  35  36
ENDBRANCH  28  30
ENDBRANCH  27  28
ENDBRANCH  26  27
ENDBRANCH  25  26
ENDBRANCH   1  25
TORSDOF 20
