REMARK SMILES CC(C)(C)OC(=O)N1CCC[C@H]1C(=O)N[C@@H](Cc1ccccc1)C(=O)OCCOCCOC(=O)c1ccc(-c2c3nc(c(-c4ccc(S(=O)(=O)[O-])cc4)c4ccc([nH]4)c(-c4ccc(S(=O)(=O)[O-])cc4)c4nc(c(-c5ccc(S(=O)(=O)[O-])cc5)c5ccc2[nH]5)C=C4)C=C3)cc1
REMARK SMILES IDX 28 1 27 2 26 3 24 4 25 5 16 6 15 7 13 8 14 9 12 11 8 12 9 13
REMARK SMILES IDX 10 14 11 15 6 16 7 17 5 18 2 19 1 20 3 21 4 22 17 23 18 24
REMARK SMILES IDX 19 25 23 26 20 27 22 28 21 29 29 30 30 31 31 32 32 33 33 34
REMARK SMILES IDX 34 35 35 36 36 37 94 38 37 39 93 40 38 41 39 42 40 43 87 44
REMARK SMILES IDX 41 45 92 46 86 47 88 48 42 49 91 50 85 51 84 52 43 54 73 55
REMARK SMILES IDX 54 56 72 57 55 58 58 59 71 60 89 61 56 62 57 63 70 65 90 66
REMARK SMILES IDX 59 67 44 68 45 69 53 70 46 71 52 72 47 73 48 74 49 75 50 76
REMARK SMILES IDX 51 77 74 78 75 79 83 80 76 81 82 82 77 83 78 84 79 85 80 86
REMARK SMILES IDX 81 87 60 88 61 89 69 90 62 91 68 92 63 93 64 94 65 95 66 96
REMARK SMILES IDX 67 97
REMARK H PARENT 15 10 88 53 58 64
REMARK Flexibility Score: inf
ROOT
ATOM      1  C   UNL     1      -4.644   2.045  -5.581  1.00  0.00     0.202 C 
ENDROOT
BRANCH   1   2
ATOM      2  C   UNL     1      -5.170   3.345  -4.954  1.00  0.00     0.261 C 
BRANCH   2   3
ATOM      3  O   UNL     1      -4.145   4.358  -5.044  1.00  0.00    -0.462 OA
BRANCH   3   4
ATOM      4  C   UNL     1      -3.758   5.028  -3.930  1.00  0.00     0.329 C 
ATOM      5  O   UNL     1      -4.352   4.995  -2.858  1.00  0.00    -0.250 OA
BRANCH   4   6
ATOM      6  C   UNL     1      -2.527   5.945  -4.191  1.00  0.00     0.196 C 
BRANCH   6   7
ATOM      7  N   UNL     1      -1.315   5.394  -4.840  1.00  0.00    -0.341 N 
ATOM      8  C   UNL     1      -0.052   5.128  -4.381  1.00  0.00     0.243 C 
ATOM      9  O   UNL     1       0.787   4.787  -5.222  1.00  0.00    -0.273 OA
ATOM     10  H   UNL     1      -1.443   5.173  -5.791  1.00  0.00     0.164 HD
BRANCH   8  11
ATOM     11  C   UNL     1       0.339   5.287  -2.890  1.00  0.00     0.178 C 
ATOM     12  N   UNL     1       1.174   4.180  -2.394  1.00  0.00    -0.296 N 
ATOM     13  C   UNL     1       2.488   4.606  -1.979  1.00  0.00     0.124 C 
ATOM     14  C   UNL     1       2.291   6.080  -1.676  1.00  0.00     0.024 C 
ATOM     15  C   UNL     1       1.230   6.521  -2.689  1.00  0.00     0.037 C 
BRANCH  12  16
ATOM     16  C   UNL     1       0.638   2.933  -2.284  1.00  0.00     0.410 C 
ATOM     17  O   UNL     1      -0.393   2.663  -2.878  1.00  0.00    -0.224 OA
BRANCH  16  18
ATOM     18  O   UNL     1       1.274   2.085  -1.437  1.00  0.00    -0.444 OA
BRANCH  18  19
ATOM     19  C   UNL     1       0.719   0.746  -1.238  1.00  0.00     0.106 C 
ATOM     20  C   UNL     1       1.339   0.217   0.063  1.00  0.00     0.056 C 
ATOM     21  C   UNL     1       1.148  -0.148  -2.406  1.00  0.00     0.056 C 
ATOM     22  C   UNL     1      -0.810   0.701  -1.042  1.00  0.00     0.056 C 
ENDBRANCH  18  19
ENDBRANCH  16  18
ENDBRANCH  12  16
ENDBRANCH   8  11
ENDBRANCH   6   7
BRANCH   6  23
ATOM     23  C   UNL     1      -3.006   7.219  -4.929  1.00  0.00     0.072 C 
BRANCH  23  24
ATOM     24  C   UNL     1      -3.483   7.193  -6.376  1.00  0.00    -0.045 A 
ATOM     25  C   UNL     1      -3.993   8.396  -6.897  1.00  0.00     0.004 A 
ATOM     26  C   UNL     1      -3.485   6.077  -7.226  1.00  0.00     0.004 A 
ATOM     27  C   UNL     1      -4.533   8.463  -8.185  1.00  0.00     0.000 A 
ATOM     28  C   UNL     1      -4.048   6.134  -8.506  1.00  0.00     0.000 A 
ATOM     29  C   UNL     1      -4.580   7.325  -8.982  1.00  0.00     0.000 A 
ENDBRANCH  23  24
ENDBRANCH   6  23
ENDBRANCH   4   6
ENDBRANCH   3   4
ENDBRANCH   2   3
ENDBRANCH   1   2
BRANCH   1  30
ATOM     30  O   UNL     1      -3.674   1.343  -4.807  1.00  0.00    -0.374 OA
BRANCH  30  31
ATOM     31  C   UNL     1      -2.429   2.006  -4.624  1.00  0.00     0.202 C 
BRANCH  31  32
ATOM     32  C   UNL     1      -1.270   1.543  -5.502  1.00  0.00     0.261 C 
BRANCH  32  33
ATOM     33  O   UNL     1      -1.588   1.777  -6.878  1.00  0.00    -0.460 OA
BRANCH  33  34
ATOM     34  C   UNL     1      -2.101   0.693  -7.495  1.00  0.00     0.338 C 
ATOM     35  O   UNL     1      -2.202  -0.441  -7.059  1.00  0.00    -0.246 OA
BRANCH  34  36
ATOM     36  C   UNL     1      -2.696   1.118  -8.766  1.00  0.00     0.060 A 
ATOM     37  C   UNL     1      -3.997   0.680  -9.027  1.00  0.00     0.016 A 
ATOM     38  C   UNL     1      -1.979   1.869  -9.701  1.00  0.00     0.016 A 
ATOM     39  C   UNL     1      -4.563   0.922 -10.269  1.00  0.00     0.010 A 
ATOM     40  C   UNL     1      -2.550   2.112 -10.949  1.00  0.00     0.010 A 
ATOM     41  C   UNL     1      -3.822   1.594 -11.249  1.00  0.00    -0.014 A 
BRANCH  41  42
ATOM     42  C   UNL     1      -4.331   1.617 -12.635  1.00  0.00     0.031 A 
ATOM     43  C   UNL     1      -3.727   0.680 -13.644  1.00  0.00     0.074 A 
ATOM     44  C   UNL     1      -5.348   2.434 -12.961  1.00  0.00     0.049 A 
ATOM     45  N   UNL     1      -4.015   0.539 -14.911  1.00  0.00    -0.248 NA
ATOM     46  C   UNL     1      -2.656  -0.214 -13.168  1.00  0.00     0.031 C 
ATOM     47  C   UNL     1      -6.021   3.352 -12.041  1.00  0.00     0.029 A 
ATOM     48  N   UNL     1      -5.988   2.622 -14.156  1.00  0.00    -0.354 N 
ATOM     49  C   UNL     1      -3.149  -0.438 -15.387  1.00  0.00     0.074 A 
ATOM     50  C   UNL     1      -2.312  -0.845 -14.282  1.00  0.00     0.031 C 
ATOM     51  C   UNL     1      -6.977   4.016 -12.713  1.00  0.00     0.029 A 
ATOM     52  C   UNL     1      -6.955   3.597 -14.111  1.00  0.00     0.049 A 
ATOM     53  H   UNL     1      -5.776   2.109 -14.969  1.00  0.00     0.167 HD
ATOM     54  C   UNL     1      -3.064  -0.946 -16.638  1.00  0.00     0.031 A 
ATOM     55  C   UNL     1      -7.712   4.112 -15.098  1.00  0.00     0.031 A 
ATOM     56  C   UNL     1      -3.912  -0.533 -17.725  1.00  0.00     0.049 A 
ATOM     57  C   UNL     1      -7.566   3.556 -16.490  1.00  0.00     0.074 A 
ATOM     58  C   UNL     1      -3.941  -1.017 -19.020  1.00  0.00     0.029 A 
ATOM     59  N   UNL     1      -4.870   0.466 -17.646  1.00  0.00    -0.354 N 
ATOM     60  N   UNL     1      -6.779   2.595 -16.915  1.00  0.00    -0.248 NA
ATOM     61  C   UNL     1      -8.418   4.143 -17.532  1.00  0.00     0.031 C 
ATOM     62  C   UNL     1      -4.865  -0.259 -19.745  1.00  0.00     0.029 A 
ATOM     63  C   UNL     1      -5.469   0.642 -18.881  1.00  0.00     0.049 A 
ATOM     64  H   UNL     1      -5.091   0.975 -16.833  1.00  0.00     0.167 HD
ATOM     65  C   UNL     1      -7.063   2.444 -18.268  1.00  0.00     0.074 A 
ATOM     66  C   UNL     1      -8.107   3.396 -18.583  1.00  0.00     0.031 C 
ATOM     67  C   UNL     1      -6.511   1.595 -19.170  1.00  0.00     0.031 A 
BRANCH  54  68
ATOM     68  C   UNL     1      -1.999  -1.972 -16.922  1.00  0.00    -0.014 A 
ATOM     69  C   UNL     1      -2.087  -3.284 -16.427  1.00  0.00     0.010 A 
ATOM     70  C   UNL     1      -0.934  -1.634 -17.778  1.00  0.00     0.010 A 
ATOM     71  C   UNL     1      -1.126  -4.238 -16.776  1.00  0.00     0.020 A 
ATOM     72  C   UNL     1       0.014  -2.590 -18.151  1.00  0.00     0.020 A 
ATOM     73  C   UNL     1      -0.086  -3.886 -17.644  1.00  0.00     0.054 A 
BRANCH  73  74
ATOM     74  S   UNL     1       1.103  -5.163 -18.141  1.00  0.00     0.124 S 
ATOM     75  O   UNL     1       1.842  -5.388 -16.902  1.00  0.00    -0.237 OA
ATOM     76  O   UNL     1       0.234  -6.259 -18.562  1.00  0.00    -0.237 OA
ATOM     77  O   UNL     1       1.866  -4.530 -19.214  1.00  0.00    -0.744 OA
ENDBRANCH  73  74
ENDBRANCH  54  68
BRANCH  55  78
ATOM     78  C   UNL     1      -8.637   5.244 -14.815  1.00  0.00    -0.014 A 
ATOM     79  C   UNL     1     -10.030   5.091 -14.927  1.00  0.00     0.010 A 
ATOM     80  C   UNL     1      -8.116   6.499 -14.448  1.00  0.00     0.010 A 
ATOM     81  C   UNL     1     -10.880   6.181 -14.714  1.00  0.00     0.020 A 
ATOM     82  C   UNL     1      -8.963   7.580 -14.200  1.00  0.00     0.020 A 
ATOM     83  C   UNL     1     -10.340   7.419 -14.354  1.00  0.00     0.054 A 
BRANCH  83  84
ATOM     84  S   UNL     1     -11.461   8.816 -14.069  1.00  0.00     0.124 S 
ATOM     85  O   UNL     1     -11.899   9.134 -15.424  1.00  0.00    -0.237 OA
ATOM     86  O   UNL     1     -12.475   8.232 -13.195  1.00  0.00    -0.237 OA
ATOM     87  O   UNL     1     -10.605   9.817 -13.435  1.00  0.00    -0.744 OA
ENDBRANCH  83  84
ENDBRANCH  55  78
BRANCH  67  88
ATOM     88  C   UNL     1      -7.056   1.624 -20.574  1.00  0.00    -0.014 A 
ATOM     89  C   UNL     1      -6.817   2.713 -21.431  1.00  0.00     0.010 A 
ATOM     90  C   UNL     1      -7.771   0.513 -21.058  1.00  0.00     0.010 A 
ATOM     91  C   UNL     1      -7.318   2.706 -22.735  1.00  0.00     0.020 A 
ATOM     92  C   UNL     1      -8.243   0.488 -22.372  1.00  0.00     0.020 A 
ATOM     93  C   UNL     1      -8.027   1.592 -23.198  1.00  0.00     0.054 A 
BRANCH  93  94
ATOM     94  S   UNL     1      -8.632   1.593 -24.907  1.00  0.00     0.124 S 
ATOM     95  O   UNL     1      -9.720   2.566 -24.843  1.00  0.00    -0.237 OA
ATOM     96  O   UNL     1      -7.455   2.013 -25.662  1.00  0.00    -0.237 OA
ATOM     97  O   UNL     1      -9.047   0.209 -25.129  1.00  0.00    -0.744 OA
ENDBRANCH  93  94
ENDBRANCH  67  88
ENDBRANCH  41  42
ENDBRANCH  34  36
ENDBRANCH  33  34
ENDBRANCH  32  33
ENDBRANCH  31  32
ENDBRANCH  30  31
ENDBRANCH   1  30
TORSDOF 24
