REMARK SMILES O=C(OCCOCCOC(=O)[C@@H]1[C@@H](C(=O)Nc2cccc(C(F)(F)F)c2)[C@@H]2C=C[C@H]1O2)c1ccc(-c2c3nc(c(-c4ccc(S(=O)(=O)[O-])cc4)c4ccc([nH]4)c(-c4ccc(S(=O)(=O)[O-])cc4)c4nc(c(-c5ccc(S(=O)(=O)[O-])cc5)c5ccc2[nH]5)C=C4)C=C3)cc1
REMARK SMILES IDX 6 1 5 2 4 3 3 4 2 5 1 6 32 7 33 8 91 9 34 10 90 11 35 12
REMARK SMILES IDX 36 13 37 14 84 15 38 16 89 17 83 18 85 19 39 20 88 21 82 22
REMARK SMILES IDX 81 23 40 25 70 26 51 27 69 28 52 29 55 30 68 31 86 32 53 33
REMARK SMILES IDX 54 34 67 36 87 37 56 38 41 39 42 40 50 41 43 42 49 43 44 44
REMARK SMILES IDX 45 45 46 46 47 47 48 48 71 49 72 50 80 51 73 52 79 53 74 54
REMARK SMILES IDX 75 55 76 56 77 57 78 58 57 59 58 60 66 61 59 62 65 63 60 64
REMARK SMILES IDX 61 65 62 66 63 67 64 68 7 69 8 70 9 71 10 72 11 73 12 74
REMARK SMILES IDX 13 75 30 76 27 77 29 78 31 79 28 80 14 81 15 82 16 83 17 85
REMARK SMILES IDX 18 86 26 87 19 88 21 89 20 90 22 91 23 92 24 93 25 94
REMARK H PARENT 85 24 55 35 16 84
REMARK Flexibility Score: inf
ROOT
ATOM      1  O   UNL     1       4.363   0.654  -0.961  1.00  0.00    -0.374 OA
ENDROOT
BRANCH   1   2
ATOM      2  C   UNL     1       4.646  -0.718  -0.724  1.00  0.00     0.202 C 
BRANCH   2   3
ATOM      3  C   UNL     1       4.053  -1.400   0.514  1.00  0.00     0.261 C 
BRANCH   3   4
ATOM      4  O   UNL     1       2.629  -1.208   0.600  1.00  0.00    -0.460 OA
BRANCH   4   5
ATOM      5  C   UNL     1       1.973  -0.395   1.471  1.00  0.00     0.338 C 
ATOM      6  O   UNL     1       0.751  -0.462   1.562  1.00  0.00    -0.246 OA
BRANCH   5   7
ATOM      7  C   UNL     1       2.704   0.603   2.301  1.00  0.00     0.060 A 
ATOM      8  C   UNL     1       3.892   1.182   1.881  1.00  0.00     0.016 A 
ATOM      9  C   UNL     1       2.175   1.025   3.523  1.00  0.00     0.016 A 
ATOM     10  C   UNL     1       4.619   2.049   2.640  1.00  0.00     0.010 A 
ATOM     11  C   UNL     1       2.880   1.952   4.306  1.00  0.00     0.010 A 
ATOM     12  C   UNL     1       4.119   2.436   3.863  1.00  0.00    -0.014 A 
BRANCH  12  13
ATOM     13  C   UNL     1       5.093   3.147   4.690  1.00  0.00     0.031 A 
ATOM     14  C   UNL     1       5.802   2.340   5.730  1.00  0.00     0.074 A 
ATOM     15  C   UNL     1       5.526   4.357   4.287  1.00  0.00     0.049 A 
ATOM     16  N   UNL     1       6.694   2.718   6.597  1.00  0.00    -0.248 NA
ATOM     17  C   UNL     1       5.482   0.898   5.783  1.00  0.00     0.031 C 
ATOM     18  C   UNL     1       5.059   5.070   3.087  1.00  0.00     0.029 A 
ATOM     19  N   UNL     1       6.502   5.165   4.788  1.00  0.00    -0.354 N 
ATOM     20  C   UNL     1       6.983   1.585   7.346  1.00  0.00     0.074 A 
ATOM     21  C   UNL     1       6.201   0.495   6.817  1.00  0.00     0.031 C 
ATOM     22  C   UNL     1       5.769   6.199   2.941  1.00  0.00     0.029 A 
ATOM     23  C   UNL     1       6.660   6.334   4.083  1.00  0.00     0.049 A 
ATOM     24  H   UNL     1       7.041   4.935   5.579  1.00  0.00     0.167 HD
ATOM     25  C   UNL     1       7.810   1.495   8.409  1.00  0.00     0.031 A 
ATOM     26  C   UNL     1       7.409   7.411   4.378  1.00  0.00     0.031 A 
ATOM     27  C   UNL     1       8.556   2.625   8.885  1.00  0.00     0.049 A 
ATOM     28  C   UNL     1       8.210   7.338   5.649  1.00  0.00     0.074 A 
ATOM     29  C   UNL     1       9.347   2.734  10.010  1.00  0.00     0.029 A 
ATOM     30  N   UNL     1       8.595   3.855   8.236  1.00  0.00    -0.354 N 
ATOM     31  N   UNL     1       8.365   6.318   6.464  1.00  0.00    -0.248 NA
ATOM     32  C   UNL     1       8.918   8.554   6.055  1.00  0.00     0.031 C 
ATOM     33  C   UNL     1       9.815   4.051  10.072  1.00  0.00     0.029 A 
ATOM     34  C   UNL     1       9.379   4.740   8.946  1.00  0.00     0.049 A 
ATOM     35  H   UNL     1       8.130   4.064   7.394  1.00  0.00     0.167 HD
ATOM     36  C   UNL     1       9.211   6.759   7.470  1.00  0.00     0.074 A 
ATOM     37  C   UNL     1       9.545   8.135   7.146  1.00  0.00     0.031 C 
ATOM     38  C   UNL     1       9.675   6.099   8.561  1.00  0.00     0.031 A 
BRANCH  25  39
ATOM     39  C   UNL     1       7.804   0.199   9.169  1.00  0.00    -0.014 A 
ATOM     40  C   UNL     1       8.367  -0.980   8.650  1.00  0.00     0.010 A 
ATOM     41  C   UNL     1       7.145   0.153  10.411  1.00  0.00     0.010 A 
ATOM     42  C   UNL     1       8.232  -2.190   9.339  1.00  0.00     0.020 A 
ATOM     43  C   UNL     1       7.032  -1.047  11.116  1.00  0.00     0.020 A 
ATOM     44  C   UNL     1       7.560  -2.216  10.566  1.00  0.00     0.054 A 
BRANCH  44  45
ATOM     45  S   UNL     1       7.396  -3.796  11.441  1.00  0.00     0.124 S 
ATOM     46  O   UNL     1       6.416  -4.498  10.615  1.00  0.00    -0.237 OA
ATOM     47  O   UNL     1       8.754  -4.330  11.393  1.00  0.00    -0.237 OA
ATOM     48  O   UNL     1       6.927  -3.411  12.770  1.00  0.00    -0.744 OA
ENDBRANCH  44  45
ENDBRANCH  25  39
BRANCH  26  49
ATOM     49  C   UNL     1       7.354   8.639   3.536  1.00  0.00    -0.014 A 
ATOM     50  C   UNL     1       8.499   9.127   2.884  1.00  0.00     0.010 A 
ATOM     51  C   UNL     1       6.142   9.344   3.388  1.00  0.00     0.010 A 
ATOM     52  C   UNL     1       8.440  10.305   2.128  1.00  0.00     0.020 A 
ATOM     53  C   UNL     1       6.070  10.501   2.608  1.00  0.00     0.020 A 
ATOM     54  C   UNL     1       7.225  10.985   1.996  1.00  0.00     0.054 A 
BRANCH  54  55
ATOM     55  S   UNL     1       7.170  12.502   1.001  1.00  0.00     0.124 S 
ATOM     56  O   UNL     1       7.907  13.442   1.840  1.00  0.00    -0.237 OA
ATOM     57  O   UNL     1       7.838  12.095  -0.232  1.00  0.00    -0.237 OA
ATOM     58  O   UNL     1       5.740  12.773   0.867  1.00  0.00    -0.744 OA
ENDBRANCH  54  55
ENDBRANCH  26  49
BRANCH  38  59
ATOM     59  C   UNL     1      10.639   6.847   9.433  1.00  0.00    -0.014 A 
ATOM     60  C   UNL     1      10.213   7.897  10.262  1.00  0.00     0.010 A 
ATOM     61  C   UNL     1      11.984   6.439   9.458  1.00  0.00     0.010 A 
ATOM     62  C   UNL     1      11.132   8.557  11.077  1.00  0.00     0.020 A 
ATOM     63  C   UNL     1      12.897   7.071  10.298  1.00  0.00     0.020 A 
ATOM     64  C   UNL     1      12.467   8.138  11.089  1.00  0.00     0.054 A 
BRANCH  64  65
ATOM     65  S   UNL     1      13.633   8.982  12.188  1.00  0.00     0.124 S 
ATOM     66  O   UNL     1      13.832  10.253  11.497  1.00  0.00    -0.237 OA
ATOM     67  O   UNL     1      12.891   9.057  13.444  1.00  0.00    -0.237 OA
ATOM     68  O   UNL     1      14.793   8.094  12.209  1.00  0.00    -0.744 OA
ENDBRANCH  64  65
ENDBRANCH  38  59
ENDBRANCH  12  13
ENDBRANCH   5   7
ENDBRANCH   4   5
ENDBRANCH   3   4
ENDBRANCH   2   3
ENDBRANCH   1   2
BRANCH   1  69
ATOM     69  C   UNL     1       3.029   0.991  -1.337  1.00  0.00     0.202 C 
BRANCH  69  70
ATOM     70  C   UNL     1       3.136   1.834  -2.584  1.00  0.00     0.261 C 
BRANCH  70  71
ATOM     71  O   UNL     1       3.709   0.964  -3.571  1.00  0.00    -0.463 OA
BRANCH  71  72
ATOM     72  C   UNL     1       5.039   1.039  -3.812  1.00  0.00     0.312 C 
ATOM     73  O   UNL     1       5.774   1.946  -3.443  1.00  0.00    -0.252 OA
BRANCH  72  74
ATOM     74  C   UNL     1       5.468  -0.113  -4.686  1.00  0.00     0.147 C 
ATOM     75  C   UNL     1       4.746  -1.462  -4.420  1.00  0.00     0.129 C 
ATOM     76  C   UNL     1       6.936  -0.468  -4.418  1.00  0.00     0.157 C 
ATOM     77  C   UNL     1       5.968  -2.396  -4.169  1.00  0.00     0.155 C 
ATOM     78  C   UNL     1       7.207  -0.891  -3.004  1.00  0.00     0.004 C 
ATOM     79  O   UNL     1       6.955  -1.780  -5.045  1.00  0.00    -0.365 OA
ATOM     80  C   UNL     1       6.628  -2.089  -2.856  1.00  0.00     0.004 C 
BRANCH  75  81
ATOM     81  C   UNL     1       3.861  -2.061  -5.519  1.00  0.00     0.231 C 
ATOM     82  O   UNL     1       4.117  -3.167  -6.008  1.00  0.00    -0.274 OA
ATOM     83  N   UNL     1       2.611  -1.568  -5.798  1.00  0.00    -0.326 N 
ATOM     84  H   UNL     1       2.000  -2.246  -6.168  1.00  0.00     0.169 HD
BRANCH  83  85
ATOM     85  C   UNL     1       2.020  -0.306  -5.667  1.00  0.00     0.041 A 
ATOM     86  C   UNL     1       0.709  -0.235  -5.188  1.00  0.00     0.026 A 
ATOM     87  C   UNL     1       2.657   0.866  -6.066  1.00  0.00     0.039 A 
ATOM     88  C   UNL     1       0.091   1.004  -4.995  1.00  0.00     0.003 A 
ATOM     89  C   UNL     1       2.080   2.124  -5.806  1.00  0.00     0.058 A 
ATOM     90  C   UNL     1       0.779   2.181  -5.287  1.00  0.00     0.013 A 
BRANCH  89  91
ATOM     91  C   UNL     1       2.900   3.388  -5.938  1.00  0.00     0.416 C 
ATOM     92  F   UNL     1       2.415   4.236  -6.883  1.00  0.00    -0.166 F 
ATOM     93  F   UNL     1       2.931   4.095  -4.774  1.00  0.00    -0.166 F 
ATOM     94  F   UNL     1       4.200   3.151  -6.267  1.00  0.00    -0.166 F 
ENDBRANCH  89  91
ENDBRANCH  83  85
ENDBRANCH  75  81
ENDBRANCH  72  74
ENDBRANCH  71  72
ENDBRANCH  70  71
ENDBRANCH  69  70
ENDBRANCH   1  69
TORSDOF 20
