REMARK SMILES C[C@](Nc1ccc(C(N)=O)nn1)(C(=O)OCCOCCOC(=O)c1ccc(-c2c3nc(c(-c4ccc(S(=O)(=O)[O-])cc4)c4ccc([nH]4)c(-c4ccc(S(=O)(=O)[O-])cc4)c4nc(c(-c5ccc(S(=O)(=O)[O-])cc5)c5ccc2[nH]5)C=C4)C=C3)cc1)c1ccccc1
REMARK SMILES IDX 18 1 17 2 16 3 15 4 13 5 14 6 2 7 1 8 84 9 85 10 89 11 86 12
REMARK SMILES IDX 88 13 87 14 3 15 4 17 5 18 12 19 6 20 11 21 7 22 8 23 9 24
REMARK SMILES IDX 10 25 19 28 20 29 21 30 22 31 23 32 24 33 25 34 83 35 26 36
REMARK SMILES IDX 82 37 27 38 28 39 29 40 76 41 30 42 81 43 75 44 77 45 31 46
REMARK SMILES IDX 80 47 74 48 73 49 32 51 62 52 43 53 61 54 44 55 47 56 60 57
REMARK SMILES IDX 78 58 45 59 46 60 59 62 79 63 48 64 33 65 34 66 42 67 35 68
REMARK SMILES IDX 41 69 36 70 37 71 38 72 39 73 40 74 63 75 64 76 72 77 65 78
REMARK SMILES IDX 71 79 66 80 67 81 68 82 69 83 70 84 49 85 50 86 58 87 51 88
REMARK SMILES IDX 57 89 52 90 53 91 54 92 55 93 56 94
REMARK H PARENT 3 16 9 26 9 27 77 50 47 61
REMARK Flexibility Score: inf
ROOT
ATOM      1  O   UNL     1      -3.546   1.259  -0.964  1.00  0.00    -0.374 OA
ENDROOT
BRANCH   1   2
ATOM      2  C   UNL     1      -3.693  -0.143  -0.725  1.00  0.00     0.202 C 
BRANCH   2   3
ATOM      3  C   UNL     1      -2.870  -1.082  -1.609  1.00  0.00     0.261 C 
BRANCH   3   4
ATOM      4  O   UNL     1      -1.463  -0.995  -1.308  1.00  0.00    -0.461 OA
BRANCH   4   5
ATOM      5  C   UNL     1      -0.650  -0.660  -2.353  1.00  0.00     0.336 C 
ATOM      6  O   UNL     1      -1.048  -0.479  -3.500  1.00  0.00    -0.249 OA
BRANCH   5   7
ATOM      7  C   UNL     1       0.864  -0.568  -1.932  1.00  0.00     0.160 C 
ATOM      8  C   UNL     1       1.451  -1.864  -2.519  1.00  0.00     0.053 C 
BRANCH   7   9
ATOM      9  C   UNL     1       1.440   0.723  -2.574  1.00  0.00    -0.012 A 
ATOM     10  C   UNL     1       2.198   0.698  -3.759  1.00  0.00     0.007 A 
ATOM     11  C   UNL     1       1.109   1.993  -2.055  1.00  0.00     0.007 A 
ATOM     12  C   UNL     1       2.568   1.879  -4.413  1.00  0.00     0.000 A 
ATOM     13  C   UNL     1       1.461   3.173  -2.719  1.00  0.00     0.000 A 
ATOM     14  C   UNL     1       2.184   3.115  -3.904  1.00  0.00     0.000 A 
ENDBRANCH   7   9
BRANCH   7  15
ATOM     15  N   UNL     1       1.012  -0.458  -0.455  1.00  0.00    -0.350 N 
ATOM     16  H   UNL     1       0.762   0.420  -0.085  1.00  0.00     0.163 HD
BRANCH  15  17
ATOM     17  C   UNL     1       1.437  -1.367   0.479  1.00  0.00     0.149 A 
ATOM     18  C   UNL     1       2.503  -2.236   0.324  1.00  0.00     0.051 A 
ATOM     19  N   UNL     1       0.764  -1.364   1.653  1.00  0.00    -0.132 NA
ATOM     20  C   UNL     1       2.807  -3.165   1.321  1.00  0.00     0.040 A 
ATOM     21  N   UNL     1       1.065  -2.259   2.666  1.00  0.00    -0.143 NA
ATOM     22  C   UNL     1       2.057  -3.154   2.479  1.00  0.00     0.150 A 
BRANCH  22  23
ATOM     23  C   UNL     1       2.332  -4.130   3.569  1.00  0.00     0.269 C 
ATOM     24  N   UNL     1       1.601  -3.992   4.717  1.00  0.00    -0.364 N 
ATOM     25  O   UNL     1       3.175  -5.011   3.447  1.00  0.00    -0.268 OA
ATOM     26  H   UNL     1       0.929  -3.276   4.790  1.00  0.00     0.160 HD
ATOM     27  H   UNL     1       1.747  -4.608   5.471  1.00  0.00     0.160 HD
ENDBRANCH  22  23
ENDBRANCH  15  17
ENDBRANCH   7  15
ENDBRANCH   5   7
ENDBRANCH   4   5
ENDBRANCH   3   4
ENDBRANCH   2   3
ENDBRANCH   1   2
BRANCH   1  28
ATOM     28  C   UNL     1      -2.313   1.862  -0.588  1.00  0.00     0.202 C 
BRANCH  28  29
ATOM     29  C   UNL     1      -2.107   2.188   0.897  1.00  0.00     0.261 C 
BRANCH  29  30
ATOM     30  O   UNL     1      -2.302   1.048   1.746  1.00  0.00    -0.460 OA
BRANCH  30  31
ATOM     31  C   UNL     1      -3.477   1.069   2.417  1.00  0.00     0.338 C 
ATOM     32  O   UNL     1      -4.292   1.986   2.440  1.00  0.00    -0.246 OA
BRANCH  31  33
ATOM     33  C   UNL     1      -3.776  -0.247   3.007  1.00  0.00     0.060 A 
ATOM     34  C   UNL     1      -5.059  -0.759   2.777  1.00  0.00     0.016 A 
ATOM     35  C   UNL     1      -2.882  -0.917   3.846  1.00  0.00     0.016 A 
ATOM     36  C   UNL     1      -5.492  -1.886   3.462  1.00  0.00     0.010 A 
ATOM     37  C   UNL     1      -3.322  -2.050   4.543  1.00  0.00     0.010 A 
ATOM     38  C   UNL     1      -4.648  -2.498   4.399  1.00  0.00    -0.014 A 
BRANCH  38  39
ATOM     39  C   UNL     1      -5.256  -3.446   5.364  1.00  0.00     0.031 A 
ATOM     40  C   UNL     1      -5.677  -2.923   6.714  1.00  0.00     0.074 A 
ATOM     41  C   UNL     1      -5.533  -4.713   5.009  1.00  0.00     0.049 A 
ATOM     42  N   UNL     1      -6.328  -3.531   7.672  1.00  0.00    -0.248 NA
ATOM     43  C   UNL     1      -5.323  -1.527   7.022  1.00  0.00     0.031 C 
ATOM     44  C   UNL     1      -5.219  -5.316   3.715  1.00  0.00     0.029 A 
ATOM     45  N   UNL     1      -6.165  -5.712   5.704  1.00  0.00    -0.354 N 
ATOM     46  C   UNL     1      -6.459  -2.595   8.693  1.00  0.00     0.074 A 
ATOM     47  C   UNL     1      -5.791  -1.391   8.253  1.00  0.00     0.031 C 
ATOM     48  C   UNL     1      -5.674  -6.582   3.703  1.00  0.00     0.029 A 
ATOM     49  C   UNL     1      -6.294  -6.881   4.993  1.00  0.00     0.049 A 
ATOM     50  H   UNL     1      -6.495  -5.603   6.625  1.00  0.00     0.167 HD
ATOM     51  C   UNL     1      -7.087  -2.722   9.886  1.00  0.00     0.031 A 
ATOM     52  C   UNL     1      -6.853  -8.056   5.343  1.00  0.00     0.031 A 
ATOM     53  C   UNL     1      -7.747  -3.922  10.324  1.00  0.00     0.049 A 
ATOM     54  C   UNL     1      -7.504  -8.188   6.695  1.00  0.00     0.074 A 
ATOM     55  C   UNL     1      -8.420  -4.151  11.511  1.00  0.00     0.029 A 
ATOM     56  N   UNL     1      -7.813  -5.098   9.593  1.00  0.00    -0.354 N 
ATOM     57  N   UNL     1      -7.639  -7.286   7.638  1.00  0.00    -0.248 NA
ATOM     58  C   UNL     1      -8.098  -9.493   7.019  1.00  0.00     0.031 C 
ATOM     59  C   UNL     1      -8.851  -5.482  11.518  1.00  0.00     0.029 A 
ATOM     60  C   UNL     1      -8.497  -6.064  10.310  1.00  0.00     0.049 A 
ATOM     61  H   UNL     1      -7.429  -5.228   8.695  1.00  0.00     0.167 HD
ATOM     62  C   UNL     1      -8.364  -7.904   8.653  1.00  0.00     0.074 A 
ATOM     63  C   UNL     1      -8.646  -9.252   8.202  1.00  0.00     0.031 C 
ATOM     64  C   UNL     1      -8.769  -7.400   9.845  1.00  0.00     0.031 A 
BRANCH  51  65
ATOM     65  C   UNL     1      -7.053  -1.538  10.816  1.00  0.00    -0.014 A 
ATOM     66  C   UNL     1      -7.802  -0.376  10.552  1.00  0.00     0.010 A 
ATOM     67  C   UNL     1      -6.271  -1.597  11.984  1.00  0.00     0.010 A 
ATOM     68  C   UNL     1      -7.736   0.719  11.419  1.00  0.00     0.020 A 
ATOM     69  C   UNL     1      -6.224  -0.514  12.866  1.00  0.00     0.020 A 
ATOM     70  C   UNL     1      -6.943   0.645  12.568  1.00  0.00     0.054 A 
BRANCH  70  71
ATOM     71  S   UNL     1      -6.883   2.074  13.683  1.00  0.00     0.124 S 
ATOM     72  O   UNL     1      -6.051   3.009  12.929  1.00  0.00    -0.237 OA
ATOM     73  O   UNL     1      -8.291   2.445  13.806  1.00  0.00    -0.237 OA
ATOM     74  O   UNL     1      -6.274   1.540  14.899  1.00  0.00    -0.744 OA
ENDBRANCH  70  71
ENDBRANCH  51  65
BRANCH  52  75
ATOM     75  C   UNL     1      -6.832  -9.201   4.392  1.00  0.00    -0.014 A 
ATOM     76  C   UNL     1      -8.015  -9.653   3.781  1.00  0.00     0.010 A 
ATOM     77  C   UNL     1      -5.619  -9.850   4.095  1.00  0.00     0.010 A 
ATOM     78  C   UNL     1      -7.988 -10.743   2.905  1.00  0.00     0.020 A 
ATOM     79  C   UNL     1      -5.584 -10.922   3.200  1.00  0.00     0.020 A 
ATOM     80  C   UNL     1      -6.772 -11.370   2.619  1.00  0.00     0.054 A 
BRANCH  80  81
ATOM     81  S   UNL     1      -6.751 -12.749   1.440  1.00  0.00     0.124 S 
ATOM     82  O   UNL     1      -7.329 -13.832   2.230  1.00  0.00    -0.237 OA
ATOM     83  O   UNL     1      -7.582 -12.246   0.350  1.00  0.00    -0.237 OA
ATOM     84  O   UNL     1      -5.334 -12.898   1.115  1.00  0.00    -0.744 OA
ENDBRANCH  80  81
ENDBRANCH  52  75
BRANCH  64  85
ATOM     85  C   UNL     1      -9.603  -8.293  10.726  1.00  0.00    -0.014 A 
ATOM     86  C   UNL     1      -9.044  -9.396  11.394  1.00  0.00     0.010 A 
ATOM     87  C   UNL     1     -10.966  -7.995  10.914  1.00  0.00     0.010 A 
ATOM     88  C   UNL     1      -9.844 -10.215  12.197  1.00  0.00     0.020 A 
ATOM     89  C   UNL     1     -11.762  -8.794  11.738  1.00  0.00     0.020 A 
ATOM     90  C   UNL     1     -11.200  -9.912  12.358  1.00  0.00     0.054 A 
BRANCH  90  91
ATOM     91  S   UNL     1     -12.217 -10.977  13.417  1.00  0.00     0.124 S 
ATOM     92  O   UNL     1     -12.422 -12.145  12.564  1.00  0.00    -0.237 OA
ATOM     93  O   UNL     1     -11.358 -11.191  14.579  1.00  0.00    -0.237 OA
ATOM     94  O   UNL     1     -13.410 -10.174  13.672  1.00  0.00    -0.744 OA
ENDBRANCH  90  91
ENDBRANCH  64  85
ENDBRANCH  38  39
ENDBRANCH  31  33
ENDBRANCH  30  31
ENDBRANCH  29  30
ENDBRANCH  28  29
ENDBRANCH   1  28
TORSDOF 21
