REMARK SMILES C[C@H](Oc1ccc(C(=O)NCc2ccccc2)cc1)C(=O)OCCOCCOC(=O)c1ccc(-c2c3nc(c(-c4ccc(S(=O)(=O)[O-])cc4)c4ccc([nH]4)c(-c4ccc(S(=O)(=O)[O-])cc4)c4nc(c(-c5ccc(S(=O)(=O)[O-])cc5)c5ccc2[nH]5)C=C4)C=C3)cc1
REMARK SMILES IDX 24 1 23 2 22 3 20 4 21 5 2 6 1 7 3 8 4 9 5 10 19 11 6 12
REMARK SMILES IDX 18 13 7 14 8 15 9 16 10 17 11 19 12 20 13 21 17 22 14 23
REMARK SMILES IDX 16 24 15 25 25 26 26 27 27 28 28 29 29 30 30 31 31 32 32 33
REMARK SMILES IDX 90 34 33 35 89 36 34 37 35 38 36 39 83 40 37 41 88 42 82 43
REMARK SMILES IDX 84 44 38 45 87 46 81 47 80 48 39 50 69 51 50 52 68 53 51 54
REMARK SMILES IDX 54 55 67 56 85 57 52 58 53 59 66 61 86 62 55 63 40 64 41 65
REMARK SMILES IDX 49 66 42 67 48 68 43 69 44 70 45 71 46 72 47 73 70 74 71 75
REMARK SMILES IDX 79 76 72 77 78 78 73 79 74 80 75 81 76 82 77 83 56 84 57 85
REMARK SMILES IDX 65 86 58 87 64 88 59 89 60 90 61 91 62 92 63 93
REMARK H PARENT 10 18 84 49 54 60
REMARK Flexibility Score: inf
ROOT
ATOM      1  C   UNL     1      -3.575  -0.558   0.694  1.00  0.00     0.202 C 
ENDROOT
BRANCH   1   2
ATOM      2  C   UNL     1      -2.986  -0.085   2.023  1.00  0.00     0.261 C 
BRANCH   2   3
ATOM      3  O   UNL     1      -1.589   0.228   1.905  1.00  0.00    -0.461 OA
BRANCH   3   4
ATOM      4  C   UNL     1      -0.719  -0.644   2.491  1.00  0.00     0.347 C 
ATOM      5  O   UNL     1      -1.035  -1.652   3.113  1.00  0.00    -0.248 OA
BRANCH   4   6
ATOM      6  C   UNL     1       0.728  -0.171   2.335  1.00  0.00     0.279 C 
ATOM      7  C   UNL     1       0.922   0.958   3.351  1.00  0.00     0.066 C 
BRANCH   6   8
ATOM      8  O   UNL     1       0.951   0.193   0.965  1.00  0.00    -0.479 OA
BRANCH   8   9
ATOM      9  C   UNL     1       2.131   0.774   0.600  1.00  0.00     0.120 A 
ATOM     10  C   UNL     1       3.293   0.804   1.360  1.00  0.00     0.047 A 
ATOM     11  C   UNL     1       2.112   1.434  -0.631  1.00  0.00     0.047 A 
ATOM     12  C   UNL     1       4.368   1.606   0.958  1.00  0.00     0.017 A 
ATOM     13  C   UNL     1       3.196   2.224  -1.044  1.00  0.00     0.017 A 
ATOM     14  C   UNL     1       4.326   2.349  -0.233  1.00  0.00     0.040 A 
BRANCH  14  15
ATOM     15  C   UNL     1       5.433   3.327  -0.438  1.00  0.00     0.251 C 
ATOM     16  O   UNL     1       6.047   3.728   0.553  1.00  0.00    -0.269 OA
ATOM     17  N   UNL     1       5.821   3.829  -1.646  1.00  0.00    -0.348 N 
ATOM     18  H   UNL     1       6.472   4.564  -1.567  1.00  0.00     0.164 HD
BRANCH  17  19
ATOM     19  C   UNL     1       5.484   3.516  -3.016  1.00  0.00     0.152 C 
BRANCH  19  20
ATOM     20  C   UNL     1       4.849   4.700  -3.703  1.00  0.00    -0.029 A 
ATOM     21  C   UNL     1       5.375   5.190  -4.908  1.00  0.00     0.005 A 
ATOM     22  C   UNL     1       3.719   5.333  -3.162  1.00  0.00     0.005 A 
ATOM     23  C   UNL     1       4.785   6.282  -5.551  1.00  0.00     0.000 A 
ATOM     24  C   UNL     1       3.123   6.415  -3.811  1.00  0.00     0.000 A 
ATOM     25  C   UNL     1       3.656   6.890  -5.004  1.00  0.00     0.000 A 
ENDBRANCH  19  20
ENDBRANCH  17  19
ENDBRANCH  14  15
ENDBRANCH   8   9
ENDBRANCH   6   8
ENDBRANCH   4   6
ENDBRANCH   3   4
ENDBRANCH   2   3
ENDBRANCH   1   2
BRANCH   1  26
ATOM     26  O   UNL     1      -3.088  -1.810   0.212  1.00  0.00    -0.374 OA
BRANCH  26  27
ATOM     27  C   UNL     1      -1.838  -1.788  -0.479  1.00  0.00     0.202 C 
BRANCH  27  28
ATOM     28  C   UNL     1      -1.888  -1.342  -1.945  1.00  0.00     0.261 C 
BRANCH  28  29
ATOM     29  O   UNL     1      -2.193   0.059  -2.078  1.00  0.00    -0.460 OA
BRANCH  29  30
ATOM     30  C   UNL     1      -3.422   0.331  -2.576  1.00  0.00     0.338 C 
ATOM     31  O   UNL     1      -4.250  -0.477  -2.978  1.00  0.00    -0.246 OA
BRANCH  30  32
ATOM     32  C   UNL     1      -3.730   1.764  -2.418  1.00  0.00     0.060 A 
ATOM     33  C   UNL     1      -4.943   2.103  -1.804  1.00  0.00     0.016 A 
ATOM     34  C   UNL     1      -2.890   2.760  -2.922  1.00  0.00     0.016 A 
ATOM     35  C   UNL     1      -5.342   3.436  -1.733  1.00  0.00     0.010 A 
ATOM     36  C   UNL     1      -3.297   4.098  -2.857  1.00  0.00     0.010 A 
ATOM     37  C   UNL     1      -4.539   4.439  -2.291  1.00  0.00    -0.014 A 
BRANCH  37  38
ATOM     38  C   UNL     1      -5.058   5.825  -2.391  1.00  0.00     0.031 A 
ATOM     39  C   UNL     1      -5.627   6.304  -3.701  1.00  0.00     0.074 A 
ATOM     40  C   UNL     1      -5.047   6.641  -1.321  1.00  0.00     0.049 A 
ATOM     41  N   UNL     1      -6.108   7.479  -4.012  1.00  0.00    -0.248 NA
ATOM     42  C   UNL     1      -5.658   5.328  -4.803  1.00  0.00     0.031 C 
ATOM     43  C   UNL     1      -4.561   6.282   0.011  1.00  0.00     0.029 A 
ATOM     44  N   UNL     1      -5.456   7.944  -1.190  1.00  0.00    -0.354 N 
ATOM     45  C   UNL     1      -6.492   7.390  -5.346  1.00  0.00     0.074 A 
ATOM     46  C   UNL     1      -6.165   6.053  -5.792  1.00  0.00     0.031 C 
ATOM     47  C   UNL     1      -4.692   7.344   0.824  1.00  0.00     0.029 A 
ATOM     48  C   UNL     1      -5.239   8.466   0.064  1.00  0.00     0.049 A 
ATOM     49  H   UNL     1      -5.865   8.458  -1.923  1.00  0.00     0.167 HD
ATOM     50  C   UNL     1      -7.067   8.335  -6.127  1.00  0.00     0.031 A 
ATOM     51  C   UNL     1      -5.439   9.712   0.538  1.00  0.00     0.031 A 
ATOM     52  C   UNL     1      -7.385   9.667  -5.685  1.00  0.00     0.049 A 
ATOM     53  C   UNL     1      -6.018  10.765  -0.371  1.00  0.00     0.074 A 
ATOM     54  C   UNL     1      -7.987  10.688  -6.398  1.00  0.00     0.029 A 
ATOM     55  N   UNL     1      -7.121  10.165  -4.418  1.00  0.00    -0.354 N 
ATOM     56  N   UNL     1      -6.399  10.655  -1.622  1.00  0.00    -0.248 NA
ATOM     57  C   UNL     1      -6.198  12.108   0.198  1.00  0.00     0.031 C 
ATOM     58  C   UNL     1      -8.037  11.822  -5.581  1.00  0.00     0.029 A 
ATOM     59  C   UNL     1      -7.522  11.488  -4.339  1.00  0.00     0.049 A 
ATOM     60  H   UNL     1      -6.710   9.654  -3.684  1.00  0.00     0.167 HD
ATOM     61  C   UNL     1      -6.891  11.907  -1.979  1.00  0.00     0.074 A 
ATOM     62  C   UNL     1      -6.770  12.753  -0.810  1.00  0.00     0.031 C 
ATOM     63  C   UNL     1      -7.397  12.318  -3.168  1.00  0.00     0.031 A 
BRANCH  50  64
ATOM     64  C   UNL     1      -7.366   7.973  -7.558  1.00  0.00    -0.014 A 
ATOM     65  C   UNL     1      -8.423   7.104  -7.885  1.00  0.00     0.010 A 
ATOM     66  C   UNL     1      -6.616   8.559  -8.594  1.00  0.00     0.010 A 
ATOM     67  C   UNL     1      -8.706   6.808  -9.221  1.00  0.00     0.020 A 
ATOM     68  C   UNL     1      -6.912   8.285  -9.931  1.00  0.00     0.020 A 
ATOM     69  C   UNL     1      -7.948   7.401 -10.236  1.00  0.00     0.054 A 
BRANCH  69  70
ATOM     70  S   UNL     1      -8.363   7.029 -11.963  1.00  0.00     0.124 S 
ATOM     71  O   UNL     1      -7.885   5.655 -12.098  1.00  0.00    -0.237 OA
ATOM     72  O   UNL     1      -9.814   7.193 -11.987  1.00  0.00    -0.237 OA
ATOM     73  O   UNL     1      -7.613   8.026 -12.723  1.00  0.00    -0.744 OA
ENDBRANCH  69  70
ENDBRANCH  50  64
BRANCH  51  74
ATOM     74  C   UNL     1      -5.065  10.045   1.940  1.00  0.00    -0.014 A 
ATOM     75  C   UNL     1      -6.050  10.333   2.900  1.00  0.00     0.010 A 
ATOM     76  C   UNL     1      -3.709  10.092   2.316  1.00  0.00     0.010 A 
ATOM     77  C   UNL     1      -5.687  10.684   4.205  1.00  0.00     0.020 A 
ATOM     78  C   UNL     1      -3.343  10.414   3.626  1.00  0.00     0.020 A 
ATOM     79  C   UNL     1      -4.335  10.722   4.559  1.00  0.00     0.054 A 
BRANCH  79  80
ATOM     80  S   UNL     1      -3.886  11.141   6.266  1.00  0.00     0.124 S 
ATOM     81  O   UNL     1      -4.115  12.582   6.295  1.00  0.00    -0.237 OA
ATOM     82  O   UNL     1      -4.822  10.334   7.046  1.00  0.00    -0.237 OA
ATOM     83  O   UNL     1      -2.489  10.726   6.362  1.00  0.00    -0.744 OA
ENDBRANCH  79  80
ENDBRANCH  51  74
BRANCH  63  84
ATOM     84  C   UNL     1      -7.896  13.737  -3.258  1.00  0.00    -0.014 A 
ATOM     85  C   UNL     1      -7.005  14.823  -3.291  1.00  0.00     0.010 A 
ATOM     86  C   UNL     1      -9.278  13.979  -3.369  1.00  0.00     0.010 A 
ATOM     87  C   UNL     1      -7.489  16.130  -3.400  1.00  0.00     0.020 A 
ATOM     88  C   UNL     1      -9.764  15.282  -3.506  1.00  0.00     0.020 A 
ATOM     89  C   UNL     1      -8.866  16.351  -3.506  1.00  0.00     0.054 A 
BRANCH  89  90
ATOM     90  S   UNL     1      -9.467  18.053  -3.689  1.00  0.00     0.124 S 
ATOM     91  O   UNL     1      -9.300  18.581  -2.338  1.00  0.00    -0.237 OA
ATOM     92  O   UNL     1      -8.565  18.606  -4.697  1.00  0.00    -0.237 OA
ATOM     93  O   UNL     1     -10.851  17.887  -4.126  1.00  0.00    -0.744 OA
ENDBRANCH  89  90
ENDBRANCH  63  84
ENDBRANCH  37  38
ENDBRANCH  30  32
ENDBRANCH  29  30
ENDBRANCH  28  29
ENDBRANCH  27  28
ENDBRANCH  26  27
ENDBRANCH   1  26
TORSDOF 22
