REMARK SMILES O=C(OCCOCCOC(=O)c1ccn(Cc2c(Cl)cccc2Cl)c1)c1ccc(-c2c3nc(c(-c4ccc(S(=O)(=O)[O-])cc4)c4ccc([nH]4)c(-c4ccc(S(=O)(=O)[O-])cc4)c4nc(c(-c5ccc(S(=O)(=O)[O-])cc5)c5ccc2[nH]5)C=C4)C=C3)cc1
REMARK SMILES IDX 5 1 4 2 3 3 2 4 1 5 26 6 27 7 85 8 28 9 84 10 29 11 30 12
REMARK SMILES IDX 31 13 78 14 32 15 83 16 77 17 79 18 33 19 82 20 76 21 75 22
REMARK SMILES IDX 34 24 64 25 45 26 63 27 46 28 49 29 62 30 80 31 47 32 48 33
REMARK SMILES IDX 61 35 81 36 50 37 35 38 36 39 44 40 37 41 43 42 38 43 39 44
REMARK SMILES IDX 40 45 41 46 42 47 65 48 66 49 74 50 67 51 73 52 68 53 69 54
REMARK SMILES IDX 70 55 71 56 72 57 51 58 52 59 60 60 53 61 59 62 54 63 55 64
REMARK SMILES IDX 56 65 57 66 58 67 6 68 7 69 8 70 9 71 10 72 11 73 12 74
REMARK SMILES IDX 13 75 25 76 14 77 15 78 16 79 17 80 18 81 23 82 19 83 20 84
REMARK SMILES IDX 22 85 24 86 21 87
REMARK H PARENT 79 23 49 34
REMARK Flexibility Score: inf
ROOT
ATOM      1  C   UNL     1       4.669   0.287  -1.108  1.00  0.00     0.202 C 
ENDROOT
BRANCH   1   2
ATOM      2  C   UNL     1       4.226  -1.159  -0.909  1.00  0.00     0.261 C 
BRANCH   2   3
ATOM      3  O   UNL     1       2.793  -1.267  -1.041  1.00  0.00    -0.460 OA
BRANCH   3   4
ATOM      4  C   UNL     1       1.905  -0.834  -0.110  1.00  0.00     0.338 C 
ATOM      5  O   UNL     1       0.831  -0.336  -0.429  1.00  0.00    -0.246 OA
BRANCH   4   6
ATOM      6  C   UNL     1       2.139  -1.275   1.275  1.00  0.00     0.060 A 
ATOM      7  C   UNL     1       3.366  -1.144   1.923  1.00  0.00     0.016 A 
ATOM      8  C   UNL     1       1.078  -1.950   1.891  1.00  0.00     0.016 A 
ATOM      9  C   UNL     1       3.635  -1.930   3.020  1.00  0.00     0.010 A 
ATOM     10  C   UNL     1       1.309  -2.659   3.055  1.00  0.00     0.010 A 
ATOM     11  C   UNL     1       2.610  -2.708   3.562  1.00  0.00    -0.014 A 
BRANCH  11  12
ATOM     12  C   UNL     1       2.917  -3.432   4.799  1.00  0.00     0.031 A 
ATOM     13  C   UNL     1       3.055  -2.462   5.972  1.00  0.00     0.074 A 
ATOM     14  C   UNL     1       3.105  -4.779   4.680  1.00  0.00     0.049 A 
ATOM     15  N   UNL     1       3.759  -2.577   7.052  1.00  0.00    -0.248 NA
ATOM     16  C   UNL     1       2.413  -1.117   5.886  1.00  0.00     0.031 C 
ATOM     17  C   UNL     1       3.001  -5.542   3.413  1.00  0.00     0.029 A 
ATOM     18  N   UNL     1       3.427  -5.776   5.572  1.00  0.00    -0.354 N 
ATOM     19  C   UNL     1       3.502  -1.437   7.841  1.00  0.00     0.074 A 
ATOM     20  C   UNL     1       2.788  -0.514   7.015  1.00  0.00     0.031 C 
ATOM     21  C   UNL     1       3.308  -6.844   3.608  1.00  0.00     0.029 A 
ATOM     22  C   UNL     1       3.605  -7.064   5.009  1.00  0.00     0.049 A 
ATOM     23  H   UNL     1       3.528  -5.606   6.537  1.00  0.00     0.167 HD
ATOM     24  C   UNL     1       3.755  -1.386   9.179  1.00  0.00     0.031 A 
ATOM     25  C   UNL     1       3.992  -8.221   5.625  1.00  0.00     0.031 A 
ATOM     26  C   UNL     1       4.332  -2.612   9.620  1.00  0.00     0.049 A 
ATOM     27  C   UNL     1       4.025  -7.924   7.069  1.00  0.00     0.074 A 
ATOM     28  C   UNL     1       5.568  -3.175   9.443  1.00  0.00     0.029 A 
ATOM     29  N   UNL     1       3.446  -3.587  10.022  1.00  0.00    -0.354 N 
ATOM     30  N   UNL     1       2.983  -7.699   7.810  1.00  0.00    -0.248 NA
ATOM     31  C   UNL     1       5.326  -7.798   7.737  1.00  0.00     0.031 C 
ATOM     32  C   UNL     1       5.284  -4.548   9.280  1.00  0.00     0.029 A 
ATOM     33  C   UNL     1       3.930  -4.781   9.548  1.00  0.00     0.049 A 
ATOM     34  H   UNL     1       2.624  -3.453  10.547  1.00  0.00     0.167 HD
ATOM     35  C   UNL     1       3.519  -7.031   8.882  1.00  0.00     0.074 A 
ATOM     36  C   UNL     1       4.917  -7.406   8.941  1.00  0.00     0.031 C 
ATOM     37  C   UNL     1       2.985  -5.841   9.263  1.00  0.00     0.031 A 
BRANCH  24  38
ATOM     38  C   UNL     1       3.280  -0.426  10.230  1.00  0.00    -0.014 A 
ATOM     39  C   UNL     1       3.938  -0.477  11.484  1.00  0.00     0.010 A 
ATOM     40  C   UNL     1       2.053   0.249  10.163  1.00  0.00     0.010 A 
ATOM     41  C   UNL     1       3.330  -0.008  12.648  1.00  0.00     0.020 A 
ATOM     42  C   UNL     1       1.454   0.760  11.325  1.00  0.00     0.020 A 
ATOM     43  C   UNL     1       2.070   0.574  12.564  1.00  0.00     0.054 A 
BRANCH  43  44
ATOM     44  S   UNL     1       1.216   0.992  14.106  1.00  0.00     0.124 S 
ATOM     45  O   UNL     1       0.868  -0.326  14.629  1.00  0.00    -0.237 OA
ATOM     46  O   UNL     1       2.247   1.710  14.854  1.00  0.00    -0.237 OA
ATOM     47  O   UNL     1       0.092   1.814  13.665  1.00  0.00    -0.744 OA
ENDBRANCH  43  44
ENDBRANCH  24  38
BRANCH  25  48
ATOM     48  C   UNL     1       4.473  -9.595   5.221  1.00  0.00    -0.014 A 
ATOM     49  C   UNL     1       4.653 -10.056   3.911  1.00  0.00     0.010 A 
ATOM     50  C   UNL     1       4.946 -10.460   6.249  1.00  0.00     0.010 A 
ATOM     51  C   UNL     1       5.402 -11.228   3.647  1.00  0.00     0.020 A 
ATOM     52  C   UNL     1       5.735 -11.585   6.002  1.00  0.00     0.020 A 
ATOM     53  C   UNL     1       5.986 -11.950   4.692  1.00  0.00     0.054 A 
BRANCH  53  54
ATOM     54  S   UNL     1       7.195 -13.264   4.363  1.00  0.00     0.124 S 
ATOM     55  O   UNL     1       6.348 -14.445   4.237  1.00  0.00    -0.237 OA
ATOM     56  O   UNL     1       7.839 -12.814   3.131  1.00  0.00    -0.237 OA
ATOM     57  O   UNL     1       8.056 -13.234   5.545  1.00  0.00    -0.744 OA
ENDBRANCH  53  54
ENDBRANCH  25  48
BRANCH  37  58
ATOM     58  C   UNL     1       1.511  -5.641   8.918  1.00  0.00    -0.014 A 
ATOM     59  C   UNL     1       0.546  -6.553   9.383  1.00  0.00     0.010 A 
ATOM     60  C   UNL     1       1.055  -4.610   8.075  1.00  0.00     0.010 A 
ATOM     61  C   UNL     1      -0.807  -6.444   9.020  1.00  0.00     0.020 A 
ATOM     62  C   UNL     1      -0.296  -4.488   7.701  1.00  0.00     0.020 A 
ATOM     63  C   UNL     1      -1.223  -5.410   8.181  1.00  0.00     0.054 A 
BRANCH  63  64
ATOM     64  S   UNL     1      -2.980  -5.298   7.726  1.00  0.00     0.124 S 
ATOM     65  O   UNL     1      -3.242  -6.602   7.121  1.00  0.00    -0.237 OA
ATOM     66  O   UNL     1      -3.625  -5.068   9.016  1.00  0.00    -0.237 OA
ATOM     67  O   UNL     1      -3.032  -4.169   6.798  1.00  0.00    -0.744 OA
ENDBRANCH  63  64
ENDBRANCH  37  58
ENDBRANCH  11  12
ENDBRANCH   4   6
ENDBRANCH   3   4
ENDBRANCH   2   3
ENDBRANCH   1   2
BRANCH   1  68
ATOM     68  O   UNL     1       4.235   1.240  -0.139  1.00  0.00    -0.374 OA
BRANCH  68  69
ATOM     69  C   UNL     1       3.129   2.067  -0.534  1.00  0.00     0.202 C 
BRANCH  69  70
ATOM     70  C   UNL     1       3.429   3.201  -1.530  1.00  0.00     0.261 C 
BRANCH  70  71
ATOM     71  O   UNL     1       3.656   2.706  -2.863  1.00  0.00    -0.460 OA
BRANCH  71  72
ATOM     72  C   UNL     1       4.964   2.509  -3.217  1.00  0.00     0.339 C 
ATOM     73  O   UNL     1       5.926   2.938  -2.590  1.00  0.00    -0.246 OA
BRANCH  72  74
ATOM     74  C   UNL     1       5.088   1.546  -4.306  1.00  0.00     0.077 A 
ATOM     75  C   UNL     1       4.305   1.419  -5.481  1.00  0.00     0.035 A 
ATOM     76  C   UNL     1       5.993   0.493  -4.331  1.00  0.00     0.101 A 
ATOM     77  C   UNL     1       4.779   0.334  -6.188  1.00  0.00     0.087 A 
ATOM     78  N   UNL     1       5.785  -0.257  -5.468  1.00  0.00    -0.349 N 
BRANCH  78  79
ATOM     79  C   UNL     1       6.639  -1.376  -5.887  1.00  0.00     0.160 C 
BRANCH  79  80
ATOM     80  C   UNL     1       5.898  -2.649  -6.237  1.00  0.00     0.009 A 
ATOM     81  C   UNL     1       5.384  -2.872  -7.532  1.00  0.00     0.047 A 
ATOM     82  C   UNL     1       5.721  -3.686  -5.297  1.00  0.00     0.047 A 
ATOM     83  Cl  UNL     1       5.682  -1.788  -8.851  1.00  0.00    -0.084 Cl
ATOM     84  C   UNL     1       4.659  -4.030  -7.844  1.00  0.00     0.021 A 
ATOM     85  C   UNL     1       5.037  -4.866  -5.628  1.00  0.00     0.021 A 
ATOM     86  Cl  UNL     1       6.380  -3.603  -3.699  1.00  0.00    -0.084 Cl
ATOM     87  C   UNL     1       4.485  -5.028  -6.894  1.00  0.00     0.003 A 
ENDBRANCH  79  80
ENDBRANCH  78  79
ENDBRANCH  72  74
ENDBRANCH  71  72
ENDBRANCH  70  71
ENDBRANCH  69  70
ENDBRANCH  68  69
ENDBRANCH   1  68
TORSDOF 19
