REMARK SMILES Cc1ccc(Nc2c(Cl)cc(Cl)cc2Cl)c(CC(=O)OCCOCCOC(=O)c2ccc(-c3c4nc(c(-c5ccc(S(=O)(=O)[O-])cc5)c5ccc([nH]5)c(-c5ccc(S(=O)(=O)[O-])cc5)c5nc(c(-c6ccc(S(=O)(=O)[O-])cc6)c6ccc3[nH]6)C=C5)C=C4)cc2)c1
REMARK SMILES IDX 23 1 22 2 21 3 20 4 18 5 19 6 17 7 16 8 1 9 2 10 3 11 89 12
REMARK SMILES IDX 4 13 5 14 6 15 7 17 8 18 14 19 9 20 10 21 13 22 15 23 11 24
REMARK SMILES IDX 12 25 24 26 25 27 26 28 27 29 28 30 29 31 30 32 88 33 31 34
REMARK SMILES IDX 87 35 32 36 33 37 34 38 81 39 35 40 86 41 80 42 82 43 36 44
REMARK SMILES IDX 85 45 79 46 78 47 37 49 67 50 48 51 66 52 49 53 52 54 65 55
REMARK SMILES IDX 83 56 50 57 51 58 64 60 84 61 53 62 38 63 39 64 47 65 40 66
REMARK SMILES IDX 46 67 41 68 42 69 43 70 44 71 45 72 68 73 69 74 77 75 70 76
REMARK SMILES IDX 76 77 71 78 72 79 73 80 74 81 75 82 54 83 55 84 63 85 56 86
REMARK SMILES IDX 62 87 57 88 58 89 59 90 60 91 61 92
REMARK H PARENT 6 16 82 48 52 59
REMARK Flexibility Score: inf
ROOT
ATOM      1  O   UNL     1      -3.067   0.792  -2.975  1.00  0.00    -0.374 OA
ENDROOT
BRANCH   1   2
ATOM      2  C   UNL     1      -1.689   0.939  -3.241  1.00  0.00     0.202 C 
BRANCH   2   3
ATOM      3  C   UNL     1      -1.221   2.115  -2.414  1.00  0.00     0.261 C 
BRANCH   3   4
ATOM      4  O   UNL     1      -1.181   1.843  -1.023  1.00  0.00    -0.463 OA
BRANCH   4   5
ATOM      5  C   UNL     1      -2.043   2.528  -0.204  1.00  0.00     0.310 C 
ATOM      6  O   UNL     1      -2.858   3.366  -0.527  1.00  0.00    -0.252 OA
BRANCH   5   7
ATOM      7  C   UNL     1      -1.824   2.110   1.244  1.00  0.00     0.160 C 
BRANCH   7   8
ATOM      8  C   UNL     1      -1.135   0.757   1.289  1.00  0.00    -0.013 A 
ATOM      9  C   UNL     1       2.377  -0.192   0.107  1.00  0.00     0.044 C 
ATOM     10  C   UNL     1       0.953  -0.308   0.562  1.00  0.00    -0.051 A 
ATOM     11  C   UNL     1       0.252  -1.499   0.410  1.00  0.00     0.005 A 
ATOM     12  C   UNL     1       0.269   0.797   1.063  1.00  0.00     0.009 A 
ATOM     13  C   UNL     1      -1.116  -1.564   0.707  1.00  0.00     0.026 A 
ATOM     14  C   UNL     1      -1.856  -0.446   1.135  1.00  0.00     0.042 A 
BRANCH  14  15
ATOM     15  N   UNL     1      -3.262  -0.520   1.356  1.00  0.00    -0.353 N 
ATOM     16  H   UNL     1      -3.710   0.339   1.532  1.00  0.00     0.167 HD
BRANCH  15  17
ATOM     17  C   UNL     1      -4.109  -1.666   1.357  1.00  0.00     0.076 A 
ATOM     18  C   UNL     1      -3.746  -2.880   1.968  1.00  0.00     0.067 A 
ATOM     19  C   UNL     1      -5.282  -1.689   0.571  1.00  0.00     0.067 A 
ATOM     20  Cl  UNL     1      -2.607  -2.936   3.276  1.00  0.00    -0.082 Cl
ATOM     21  C   UNL     1      -4.357  -4.084   1.611  1.00  0.00     0.043 A 
ATOM     22  C   UNL     1      -5.868  -2.893   0.166  1.00  0.00     0.043 A 
ATOM     23  Cl  UNL     1      -6.118  -0.228   0.172  1.00  0.00    -0.082 Cl
ATOM     24  C   UNL     1      -5.369  -4.090   0.659  1.00  0.00     0.044 A 
ATOM     25  Cl  UNL     1      -6.048  -5.586   0.151  1.00  0.00    -0.084 Cl
ENDBRANCH  15  17
ENDBRANCH  14  15
ENDBRANCH   7   8
ENDBRANCH   5   7
ENDBRANCH   4   5
ENDBRANCH   3   4
ENDBRANCH   2   3
ENDBRANCH   1   2
BRANCH   1  26
ATOM     26  C   UNL     1      -3.402  -0.251  -2.097  1.00  0.00     0.202 C 
BRANCH  26  27
ATOM     27  C   UNL     1      -3.925  -1.419  -2.918  1.00  0.00     0.261 C 
BRANCH  27  28
ATOM     28  O   UNL     1      -5.279  -1.207  -3.394  1.00  0.00    -0.460 OA
BRANCH  28  29
ATOM     29  C   UNL     1      -5.420  -0.635  -4.630  1.00  0.00     0.338 C 
ATOM     30  O   UNL     1      -5.759  -1.260  -5.623  1.00  0.00    -0.246 OA
BRANCH  29  31
ATOM     31  C   UNL     1      -5.352   0.848  -4.578  1.00  0.00     0.060 A 
ATOM     32  C   UNL     1      -4.748   1.584  -5.610  1.00  0.00     0.016 A 
ATOM     33  C   UNL     1      -5.741   1.481  -3.400  1.00  0.00     0.016 A 
ATOM     34  C   UNL     1      -4.379   2.920  -5.395  1.00  0.00     0.010 A 
ATOM     35  C   UNL     1      -5.277   2.756  -3.154  1.00  0.00     0.010 A 
ATOM     36  C   UNL     1      -4.579   3.480  -4.138  1.00  0.00    -0.014 A 
BRANCH  36  37
ATOM     37  C   UNL     1      -4.134   4.798  -3.686  1.00  0.00     0.031 A 
ATOM     38  C   UNL     1      -5.178   5.754  -3.248  1.00  0.00     0.074 A 
ATOM     39  C   UNL     1      -2.834   5.051  -3.404  1.00  0.00     0.049 A 
ATOM     40  N   UNL     1      -4.924   6.942  -2.836  1.00  0.00    -0.248 NA
ATOM     41  C   UNL     1      -6.617   5.474  -3.267  1.00  0.00     0.031 C 
ATOM     42  C   UNL     1      -2.281   5.996  -2.428  1.00  0.00     0.029 A 
ATOM     43  N   UNL     1      -1.690   4.501  -3.937  1.00  0.00    -0.354 N 
ATOM     44  C   UNL     1      -6.039   7.404  -2.188  1.00  0.00     0.074 A 
ATOM     45  C   UNL     1      -7.103   6.521  -2.591  1.00  0.00     0.031 C 
ATOM     46  C   UNL     1      -0.956   6.130  -2.629  1.00  0.00     0.029 A 
ATOM     47  C   UNL     1      -0.626   5.387  -3.834  1.00  0.00     0.049 A 
ATOM     48  H   UNL     1      -1.633   3.603  -4.337  1.00  0.00     0.167 HD
ATOM     49  C   UNL     1      -5.870   8.403  -1.281  1.00  0.00     0.031 A 
ATOM     50  C   UNL     1      -0.034   5.871  -4.966  1.00  0.00     0.031 A 
ATOM     51  C   UNL     1      -4.513   8.968  -1.371  1.00  0.00     0.049 A 
ATOM     52  C   UNL     1      -0.384   7.344  -5.126  1.00  0.00     0.074 A 
ATOM     53  C   UNL     1      -3.396   8.965  -0.554  1.00  0.00     0.029 A 
ATOM     54  N   UNL     1      -4.064   9.388  -2.620  1.00  0.00    -0.354 N 
ATOM     55  N   UNL     1      -1.246   7.945  -4.349  1.00  0.00    -0.248 NA
ATOM     56  C   UNL     1       0.168   8.263  -6.115  1.00  0.00     0.031 C 
ATOM     57  C   UNL     1      -2.267   9.347  -1.353  1.00  0.00     0.029 A 
ATOM     58  C   UNL     1      -2.704   9.624  -2.639  1.00  0.00     0.049 A 
ATOM     59  H   UNL     1      -4.650   9.504  -3.402  1.00  0.00     0.167 HD
ATOM     60  C   UNL     1      -1.334   9.266  -4.636  1.00  0.00     0.074 A 
ATOM     61  C   UNL     1      -0.484   9.406  -5.813  1.00  0.00     0.031 C 
ATOM     62  C   UNL     1      -2.083  10.120  -3.871  1.00  0.00     0.031 A 
BRANCH  49  63
ATOM     63  C   UNL     1      -6.872   8.771  -0.211  1.00  0.00    -0.014 A 
ATOM     64  C   UNL     1      -6.580   9.840   0.658  1.00  0.00     0.010 A 
ATOM     65  C   UNL     1      -8.066   8.065   0.056  1.00  0.00     0.010 A 
ATOM     66  C   UNL     1      -7.421  10.183   1.729  1.00  0.00     0.020 A 
ATOM     67  C   UNL     1      -8.932   8.414   1.106  1.00  0.00     0.020 A 
ATOM     68  C   UNL     1      -8.597   9.468   1.946  1.00  0.00     0.054 A 
BRANCH  68  69
ATOM     69  S   UNL     1      -9.662   9.920   3.340  1.00  0.00     0.124 S 
ATOM     70  O   UNL     1      -8.805   9.644   4.490  1.00  0.00    -0.237 OA
ATOM     71  O   UNL     1      -9.938  11.331   3.083  1.00  0.00    -0.237 OA
ATOM     72  O   UNL     1     -10.814   9.031   3.201  1.00  0.00    -0.744 OA
ENDBRANCH  68  69
ENDBRANCH  49  63
BRANCH  50  73
ATOM     73  C   UNL     1       0.084   4.787  -6.008  1.00  0.00    -0.014 A 
ATOM     74  C   UNL     1       0.995   3.739  -5.708  1.00  0.00     0.010 A 
ATOM     75  C   UNL     1      -0.990   4.489  -6.870  1.00  0.00     0.010 A 
ATOM     76  C   UNL     1       0.751   2.416  -6.113  1.00  0.00     0.020 A 
ATOM     77  C   UNL     1      -1.230   3.159  -7.284  1.00  0.00     0.020 A 
ATOM     78  C   UNL     1      -0.381   2.125  -6.871  1.00  0.00     0.054 A 
BRANCH  78  79
ATOM     79  S   UNL     1      -0.835   0.370  -7.131  1.00  0.00     0.124 S 
ATOM     80  O   UNL     1       0.036  -0.013  -8.236  1.00  0.00    -0.237 OA
ATOM     81  O   UNL     1      -0.512  -0.244  -5.843  1.00  0.00    -0.237 OA
ATOM     82  O   UNL     1      -2.259   0.436  -7.439  1.00  0.00    -0.744 OA
ENDBRANCH  78  79
ENDBRANCH  50  73
BRANCH  62  83
ATOM     83  C   UNL     1      -2.335  11.544  -4.264  1.00  0.00    -0.014 A 
ATOM     84  C   UNL     1      -1.376  12.342  -4.895  1.00  0.00     0.010 A 
ATOM     85  C   UNL     1      -3.588  12.131  -3.978  1.00  0.00     0.010 A 
ATOM     86  C   UNL     1      -1.709  13.612  -5.371  1.00  0.00     0.020 A 
ATOM     87  C   UNL     1      -3.919  13.412  -4.407  1.00  0.00     0.020 A 
ATOM     88  C   UNL     1      -2.988  14.126  -5.145  1.00  0.00     0.054 A 
BRANCH  88  89
ATOM     89  S   UNL     1      -3.406  15.751  -5.801  1.00  0.00     0.124 S 
ATOM     90  O   UNL     1      -2.241  16.550  -5.429  1.00  0.00    -0.237 OA
ATOM     91  O   UNL     1      -3.546  15.470  -7.228  1.00  0.00    -0.237 OA
ATOM     92  O   UNL     1      -4.644  16.100  -5.108  1.00  0.00    -0.744 OA
ENDBRANCH  88  89
ENDBRANCH  62  83
ENDBRANCH  36  37
ENDBRANCH  29  31
ENDBRANCH  28  29
ENDBRANCH  27  28
ENDBRANCH  26  27
ENDBRANCH   1  26
TORSDOF 20
