REMARK SMILES O=C1NC(=S)S/C1=C\c1ccc(OCc2cn(-c3ccc(C(=O)OCCOCCOC(=O)c4ccc(-c5c6nc(c(-c7ccc(S(=O)(=O)[O-])cc7)c7ccc([nH]7)c(-c7ccc(S(=O)(=O)[O-])cc7)c7nc(c(-c8ccc(S(=O)(=O)[O-])cc8)c8ccc5[nH]8)C=C7)C=C6)cc4)cc3)nn2)cc1
REMARK SMILES IDX 26 1 25 2 24 3 22 4 23 5 21 6 18 7 19 8 94 9 20 10 93 11
REMARK SMILES IDX 17 12 15 13 16 14 96 15 95 16 14 17 13 18 12 19 9 20 10 21
REMARK SMILES IDX 98 22 11 23 97 24 8 25 1 26 2 27 3 28 7 29 4 30 6 32 5 33
REMARK SMILES IDX 27 34 28 35 29 36 30 37 31 38 32 39 33 40 34 41 92 42 35 43
REMARK SMILES IDX 91 44 36 45 37 46 38 47 85 48 39 49 90 50 84 51 86 52 40 53
REMARK SMILES IDX 89 54 83 55 82 56 41 58 71 59 52 60 70 61 53 62 56 63 69 64
REMARK SMILES IDX 87 65 54 66 55 67 68 69 88 70 57 71 42 72 43 73 51 74 44 75
REMARK SMILES IDX 50 76 45 77 46 78 47 79 48 80 49 81 72 82 73 83 81 84 74 85
REMARK SMILES IDX 80 86 75 87 76 88 77 89 78 90 79 91 58 92 59 93 67 94 60 95
REMARK SMILES IDX 66 96 61 97 62 98 63 99 64 100 65 101
REMARK H PARENT 3 31 86 57 56 68
REMARK Flexibility Score: inf
ROOT
ATOM      1  C   UNL     1       9.313   9.969  -0.751  1.00  0.00     0.202 C 
ENDROOT
BRANCH   1   2
ATOM      2  C   UNL     1       8.171  10.973  -0.916  1.00  0.00     0.261 C 
BRANCH   2   3
ATOM      3  O   UNL     1       6.883  10.402  -0.650  1.00  0.00    -0.460 OA
BRANCH   3   4
ATOM      4  C   UNL     1       6.132  10.201  -1.757  1.00  0.00     0.338 C 
ATOM      5  O   UNL     1       6.418  10.493  -2.908  1.00  0.00    -0.246 OA
BRANCH   4   6
ATOM      6  C   UNL     1       4.937   9.405  -1.427  1.00  0.00     0.060 A 
ATOM      7  C   UNL     1       2.522   8.070  -1.124  1.00  0.00     0.066 A 
ATOM      8  C   UNL     1       3.413   7.668  -2.129  1.00  0.00     0.029 A 
ATOM      9  C   UNL     1       2.887   9.063  -0.204  1.00  0.00     0.029 A 
ATOM     10  C   UNL     1       4.604   8.362  -2.300  1.00  0.00     0.018 A 
ATOM     11  C   UNL     1       4.115   9.717  -0.342  1.00  0.00     0.018 A 
BRANCH   7  12
ATOM     12  N   UNL     1       1.214   7.536  -1.139  1.00  0.00    -0.220 N 
ATOM     13  C   UNL     1      -0.956   7.308  -1.156  1.00  0.00     0.120 A 
ATOM     14  C   UNL     1       0.052   8.125  -0.690  1.00  0.00     0.144 A 
ATOM     15  N   UNL     1      -0.391   6.263  -1.837  1.00  0.00    -0.131 NA
ATOM     16  N   UNL     1       0.920   6.410  -1.825  1.00  0.00    -0.062 NA
BRANCH  13  17
ATOM     17  C   UNL     1      -2.440   7.479  -1.132  1.00  0.00     0.289 C 
BRANCH  17  18
ATOM     18  O   UNL     1      -3.134   6.739  -0.116  1.00  0.00    -0.487 OA
BRANCH  18  19
ATOM     19  C   UNL     1      -3.131   5.373  -0.197  1.00  0.00     0.119 A 
ATOM     20  C   UNL     1      -2.901   2.581  -0.016  1.00  0.00    -0.024 A 
ATOM     21  C   UNL     1      -3.382   3.316   1.069  1.00  0.00     0.012 A 
ATOM     22  C   UNL     1      -2.629   3.239  -1.218  1.00  0.00     0.012 A 
ATOM     23  C   UNL     1      -3.492   4.708   0.977  1.00  0.00     0.047 A 
ATOM     24  C   UNL     1      -2.771   4.624  -1.315  1.00  0.00     0.047 A 
BRANCH  20  25
ATOM     25  C   UNL     1      -2.663   1.141   0.097  1.00  0.00     0.029 C 
ATOM     26  O   UNL     1      -2.193  -1.731   0.111  1.00  0.00    -0.268 OA
ATOM     27  C   UNL     1      -1.286  -0.914   0.120  1.00  0.00     0.263 C 
ATOM     28  N   UNL     1       0.044  -1.226   0.095  1.00  0.00    -0.307 N 
ATOM     29  C   UNL     1      -1.454   0.563   0.088  1.00  0.00     0.080 C 
ATOM     30  C   UNL     1       0.943  -0.206   0.019  1.00  0.00     0.145 C 
ATOM     31  H   UNL     1       0.345  -2.163   0.131  1.00  0.00     0.171 HD
ATOM     32  S   UNL     1       0.097   1.323   0.009  1.00  0.00    -0.055 SA
ATOM     33  S   UNL     1       2.579  -0.434  -0.090  1.00  0.00    -0.052 S 
ENDBRANCH  20  25
ENDBRANCH  18  19
ENDBRANCH  17  18
ENDBRANCH  13  17
ENDBRANCH   7  12
ENDBRANCH   4   6
ENDBRANCH   3   4
ENDBRANCH   2   3
ENDBRANCH   1   2
BRANCH   1  34
ATOM     34  O   UNL     1       9.349   8.817  -1.592  1.00  0.00    -0.374 OA
BRANCH  34  35
ATOM     35  C   UNL     1       8.377   7.787  -1.451  1.00  0.00     0.202 C 
BRANCH  35  36
ATOM     36  C   UNL     1       8.384   6.920  -0.201  1.00  0.00     0.261 C 
BRANCH  36  37
ATOM     37  O   UNL     1       8.261   7.693   0.979  1.00  0.00    -0.460 OA
BRANCH  37  38
ATOM     38  C   UNL     1       9.433   7.905   1.611  1.00  0.00     0.338 C 
ATOM     39  O   UNL     1      10.562   7.733   1.158  1.00  0.00    -0.246 OA
BRANCH  38  40
ATOM     40  C   UNL     1       9.156   8.238   3.006  1.00  0.00     0.060 A 
ATOM     41  C   UNL     1      10.271   8.271   3.844  1.00  0.00     0.016 A 
ATOM     42  C   UNL     1       7.848   8.086   3.491  1.00  0.00     0.016 A 
ATOM     43  C   UNL     1      10.106   7.832   5.133  1.00  0.00     0.010 A 
ATOM     44  C   UNL     1       7.690   7.626   4.769  1.00  0.00     0.010 A 
ATOM     45  C   UNL     1       8.835   7.404   5.530  1.00  0.00    -0.014 A 
BRANCH  45  46
ATOM     46  C   UNL     1       8.695   6.827   6.843  1.00  0.00     0.031 A 
ATOM     47  C   UNL     1       8.754   7.874   7.883  1.00  0.00     0.074 A 
ATOM     48  C   UNL     1       8.437   5.520   7.035  1.00  0.00     0.049 A 
ATOM     49  N   UNL     1       9.741   8.132   8.674  1.00  0.00    -0.248 NA
ATOM     50  C   UNL     1       7.715   8.921   7.851  1.00  0.00     0.031 C 
ATOM     51  C   UNL     1       8.106   4.496   6.040  1.00  0.00     0.029 A 
ATOM     52  N   UNL     1       8.308   4.846   8.203  1.00  0.00    -0.354 N 
ATOM     53  C   UNL     1       9.317   9.218   9.426  1.00  0.00     0.074 A 
ATOM     54  C   UNL     1       8.225   9.812   8.701  1.00  0.00     0.031 C 
ATOM     55  C   UNL     1       7.562   3.425   6.668  1.00  0.00     0.029 A 
ATOM     56  C   UNL     1       7.629   3.637   8.106  1.00  0.00     0.049 A 
ATOM     57  H   UNL     1       8.666   5.187   9.055  1.00  0.00     0.167 HD
ATOM     58  C   UNL     1       9.649   9.328  10.740  1.00  0.00     0.031 A 
ATOM     59  C   UNL     1       7.096   2.930   9.139  1.00  0.00     0.031 A 
ATOM     60  C   UNL     1      10.750   8.462  11.079  1.00  0.00     0.049 A 
ATOM     61  C   UNL     1       7.751   3.425  10.381  1.00  0.00     0.074 A 
ATOM     62  C   UNL     1      12.053   8.336  10.640  1.00  0.00     0.029 A 
ATOM     63  N   UNL     1      10.434   7.273  11.695  1.00  0.00    -0.354 N 
ATOM     64  N   UNL     1       9.020   3.259  10.632  1.00  0.00    -0.248 NA
ATOM     65  C   UNL     1       7.119   4.535  11.082  1.00  0.00     0.031 C 
ATOM     66  C   UNL     1      12.297   6.933  10.605  1.00  0.00     0.029 A 
ATOM     67  C   UNL     1      11.168   6.278  11.102  1.00  0.00     0.049 A 
ATOM     68  H   UNL     1       9.793   7.157  12.433  1.00  0.00     0.167 HD
ATOM     69  C   UNL     1       9.443   4.474  11.156  1.00  0.00     0.074 A 
ATOM     70  C   UNL     1       8.212   5.196  11.480  1.00  0.00     0.031 C 
ATOM     71  C   UNL     1      10.733   4.899  11.001  1.00  0.00     0.031 A 
BRANCH  58  72
ATOM     72  C   UNL     1       8.678   9.841  11.774  1.00  0.00    -0.014 A 
ATOM     73  C   UNL     1       9.113   9.954  13.107  1.00  0.00     0.010 A 
ATOM     74  C   UNL     1       7.289   9.950  11.543  1.00  0.00     0.010 A 
ATOM     75  C   UNL     1       8.196  10.102  14.155  1.00  0.00     0.020 A 
ATOM     76  C   UNL     1       6.372  10.143  12.572  1.00  0.00     0.020 A 
ATOM     77  C   UNL     1       6.831  10.186  13.878  1.00  0.00     0.054 A 
BRANCH  77  78
ATOM     78  S   UNL     1       5.650  10.293  15.241  1.00  0.00     0.124 S 
ATOM     79  O   UNL     1       5.823   8.996  15.889  1.00  0.00    -0.237 OA
ATOM     80  O   UNL     1       6.146  11.447  15.984  1.00  0.00    -0.237 OA
ATOM     81  O   UNL     1       4.369  10.494  14.569  1.00  0.00    -0.744 OA
ENDBRANCH  77  78
ENDBRANCH  58  72
BRANCH  59  82
ATOM     82  C   UNL     1       5.812   2.174   9.163  1.00  0.00    -0.014 A 
ATOM     83  C   UNL     1       5.471   1.336  10.244  1.00  0.00     0.010 A 
ATOM     84  C   UNL     1       4.786   2.500   8.251  1.00  0.00     0.010 A 
ATOM     85  C   UNL     1       4.146   0.894  10.437  1.00  0.00     0.020 A 
ATOM     86  C   UNL     1       3.468   2.061   8.433  1.00  0.00     0.020 A 
ATOM     87  C   UNL     1       3.147   1.278   9.539  1.00  0.00     0.054 A 
BRANCH  87  88
ATOM     88  S   UNL     1       1.409   0.861   9.884  1.00  0.00     0.124 S 
ATOM     89  O   UNL     1       1.384  -0.582   9.664  1.00  0.00    -0.237 OA
ATOM     90  O   UNL     1       1.245   1.293  11.269  1.00  0.00    -0.237 OA
ATOM     91  O   UNL     1       0.665   1.649   8.902  1.00  0.00    -0.744 OA
ENDBRANCH  87  88
ENDBRANCH  59  82
BRANCH  71  92
ATOM     92  C   UNL     1      11.763   3.912  10.501  1.00  0.00    -0.014 A 
ATOM     93  C   UNL     1      11.731   3.297   9.232  1.00  0.00     0.010 A 
ATOM     94  C   UNL     1      12.900   3.723  11.306  1.00  0.00     0.010 A 
ATOM     95  C   UNL     1      12.800   2.495   8.798  1.00  0.00     0.020 A 
ATOM     96  C   UNL     1      13.973   2.943  10.873  1.00  0.00     0.020 A 
ATOM     97  C   UNL     1      13.915   2.323   9.625  1.00  0.00     0.054 A 
BRANCH  97  98
ATOM     98  S   UNL     1      15.312   1.311   9.059  1.00  0.00     0.124 S 
ATOM     99  O   UNL     1      14.742  -0.033   9.034  1.00  0.00    -0.237 OA
ATOM    100  O   UNL     1      15.623   1.888   7.753  1.00  0.00    -0.237 OA
ATOM    101  O   UNL     1      16.336   1.528  10.081  1.00  0.00    -0.744 OA
ENDBRANCH  97  98
ENDBRANCH  71  92
ENDBRANCH  45  46
ENDBRANCH  38  40
ENDBRANCH  37  38
ENDBRANCH  36  37
ENDBRANCH  35  36
ENDBRANCH  34  35
ENDBRANCH   1  34
TORSDOF 22
