REMARK SMILES O=C(OCCOCCOC(=O)c1ccc(S(=O)(=O)NC[C@H]2CCS(=O)(=O)C2)cc1)c1ccc(-c2c3nc(c(-c4ccc(S(=O)(=O)[O-])cc4)c4ccc([nH]4)c(-c4ccc(S(=O)(=O)[O-])cc4)c4nc(c(-c5ccc(S(=O)(=O)[O-])cc5)c5ccc2[nH]5)C=C4)C=C3)cc1
REMARK SMILES IDX 7 1 6 2 5 3 4 4 3 5 2 6 1 7 30 8 31 9 89 10 32 11 88 12
REMARK SMILES IDX 33 13 34 14 35 15 82 16 36 17 87 18 81 19 83 20 37 21 86 22
REMARK SMILES IDX 80 23 79 24 38 26 68 27 49 28 67 29 50 30 53 31 66 32 84 33
REMARK SMILES IDX 51 34 52 35 65 37 85 38 54 39 39 40 40 41 48 42 41 43 47 44
REMARK SMILES IDX 42 45 43 46 44 47 45 48 46 49 69 50 70 51 78 52 71 53 77 54
REMARK SMILES IDX 72 55 73 56 74 57 75 58 76 59 55 60 56 61 64 62 57 63 63 64
REMARK SMILES IDX 58 65 59 66 60 67 61 68 62 69 8 70 9 71 10 72 11 73 12 74
REMARK SMILES IDX 13 75 29 76 14 77 28 78 15 79 16 80 17 81 18 82 19 83 20 85
REMARK SMILES IDX 21 86 22 87 27 88 23 89 24 90 25 91 26 92
REMARK H PARENT 83 25 53 36 19 84
REMARK Flexibility Score: inf
ROOT
ATOM      1  C   UNL     1       9.736  -6.009  -5.495  1.00  0.00     0.202 C 
ENDROOT
BRANCH   1   2
ATOM      2  O   UNL     1       9.997  -7.405  -5.291  1.00  0.00    -0.374 OA
BRANCH   2   3
ATOM      3  C   UNL     1      11.233  -7.720  -4.647  1.00  0.00     0.202 C 
BRANCH   3   4
ATOM      4  C   UNL     1      12.434  -7.791  -5.593  1.00  0.00     0.261 C 
BRANCH   4   5
ATOM      5  O   UNL     1      12.676  -6.495  -6.165  1.00  0.00    -0.460 OA
BRANCH   5   6
ATOM      6  C   UNL     1      12.433  -6.062  -7.422  1.00  0.00     0.338 C 
ATOM      7  O   UNL     1      12.752  -4.909  -7.711  1.00  0.00    -0.246 OA
BRANCH   6   8
ATOM      8  C   UNL     1      11.796  -6.898  -8.485  1.00  0.00     0.060 A 
ATOM      9  C   UNL     1      10.871  -7.924  -8.264  1.00  0.00     0.016 A 
ATOM     10  C   UNL     1      12.077  -6.539  -9.813  1.00  0.00     0.016 A 
ATOM     11  C   UNL     1      10.290  -8.619  -9.321  1.00  0.00     0.010 A 
ATOM     12  C   UNL     1      11.473  -7.207 -10.880  1.00  0.00     0.010 A 
ATOM     13  C   UNL     1      10.590  -8.264 -10.633  1.00  0.00    -0.014 A 
BRANCH  13  14
ATOM     14  C   UNL     1      10.038  -9.056 -11.743  1.00  0.00     0.031 A 
ATOM     15  C   UNL     1      10.928 -10.046 -12.425  1.00  0.00     0.074 A 
ATOM     16  C   UNL     1       8.752  -8.902 -12.103  1.00  0.00     0.049 A 
ATOM     17  N   UNL     1      10.699 -10.768 -13.487  1.00  0.00    -0.248 NA
ATOM     18  C   UNL     1      12.257 -10.251 -11.823  1.00  0.00     0.031 C 
ATOM     19  C   UNL     1       7.790  -8.022 -11.436  1.00  0.00     0.029 A 
ATOM     20  N   UNL     1       8.037  -9.476 -13.120  1.00  0.00    -0.354 N 
ATOM     21  C   UNL     1      11.867 -11.488 -13.704  1.00  0.00     0.074 A 
ATOM     22  C   UNL     1      12.799 -11.121 -12.661  1.00  0.00     0.031 C 
ATOM     23  C   UNL     1       6.609  -8.109 -12.070  1.00  0.00     0.029 A 
ATOM     24  C   UNL     1       6.750  -9.003 -13.215  1.00  0.00     0.049 A 
ATOM     25  H   UNL     1       8.408 -10.160 -13.723  1.00  0.00     0.167 HD
ATOM     26  C   UNL     1      12.138 -12.360 -14.703  1.00  0.00     0.031 A 
ATOM     27  C   UNL     1       5.810  -9.235 -14.151  1.00  0.00     0.031 A 
ATOM     28  C   UNL     1      11.205 -12.677 -15.747  1.00  0.00     0.049 A 
ATOM     29  C   UNL     1       6.148 -10.159 -15.287  1.00  0.00     0.074 A 
ATOM     30  C   UNL     1      11.378 -13.497 -16.845  1.00  0.00     0.029 A 
ATOM     31  N   UNL     1       9.913 -12.170 -15.819  1.00  0.00    -0.354 N 
ATOM     32  N   UNL     1       7.268 -10.809 -15.508  1.00  0.00    -0.248 NA
ATOM     33  C   UNL     1       5.111 -10.377 -16.303  1.00  0.00     0.031 C 
ATOM     34  C   UNL     1      10.201 -13.455 -17.602  1.00  0.00     0.029 A 
ATOM     35  C   UNL     1       9.281 -12.645 -16.952  1.00  0.00     0.049 A 
ATOM     36  H   UNL     1       9.508 -11.561 -15.160  1.00  0.00     0.167 HD
ATOM     37  C   UNL     1       7.070 -11.520 -16.685  1.00  0.00     0.074 A 
ATOM     38  C   UNL     1       5.717 -11.229 -17.122  1.00  0.00     0.031 C 
ATOM     39  C   UNL     1       7.928 -12.335 -17.347  1.00  0.00     0.031 A 
BRANCH  26  40
ATOM     40  C   UNL     1      13.527 -12.932 -14.734  1.00  0.00    -0.014 A 
ATOM     41  C   UNL     1      13.944 -13.899 -13.801  1.00  0.00     0.010 A 
ATOM     42  C   UNL     1      14.457 -12.427 -15.660  1.00  0.00     0.010 A 
ATOM     43  C   UNL     1      15.284 -14.295 -13.746  1.00  0.00     0.020 A 
ATOM     44  C   UNL     1      15.792 -12.837 -15.623  1.00  0.00     0.020 A 
ATOM     45  C   UNL     1      16.203 -13.743 -14.643  1.00  0.00     0.054 A 
BRANCH  45  46
ATOM     46  S   UNL     1      17.951 -14.211 -14.508  1.00  0.00     0.124 S 
ATOM     47  O   UNL     1      18.389 -13.400 -13.374  1.00  0.00    -0.237 OA
ATOM     48  O   UNL     1      17.886 -15.649 -14.262  1.00  0.00    -0.237 OA
ATOM     49  O   UNL     1      18.512 -13.828 -15.802  1.00  0.00    -0.744 OA
ENDBRANCH  45  46
ENDBRANCH  26  40
BRANCH  27  50
ATOM     50  C   UNL     1       4.500  -8.536 -14.058  1.00  0.00    -0.014 A 
ATOM     51  C   UNL     1       3.338  -9.225 -13.674  1.00  0.00     0.010 A 
ATOM     52  C   UNL     1       4.429  -7.146 -14.272  1.00  0.00     0.010 A 
ATOM     53  C   UNL     1       2.133  -8.536 -13.492  1.00  0.00     0.020 A 
ATOM     54  C   UNL     1       3.234  -6.450 -14.070  1.00  0.00     0.020 A 
ATOM     55  C   UNL     1       2.091  -7.151 -13.681  1.00  0.00     0.054 A 
BRANCH  55  56
ATOM     56  S   UNL     1       0.549  -6.258 -13.333  1.00  0.00     0.124 S 
ATOM     57  O   UNL     1      -0.250  -6.557 -14.517  1.00  0.00    -0.237 OA
ATOM     58  O   UNL     1       0.095  -6.879 -12.090  1.00  0.00    -0.237 OA
ATOM     59  O   UNL     1       0.982  -4.868 -13.201  1.00  0.00    -0.744 OA
ENDBRANCH  55  56
ENDBRANCH  27  50
BRANCH  39  60
ATOM     60  C   UNL     1       7.428 -12.990 -18.602  1.00  0.00    -0.014 A 
ATOM     61  C   UNL     1       7.398 -12.286 -19.816  1.00  0.00     0.010 A 
ATOM     62  C   UNL     1       7.108 -14.359 -18.584  1.00  0.00     0.010 A 
ATOM     63  C   UNL     1       7.058 -12.944 -21.000  1.00  0.00     0.020 A 
ATOM     64  C   UNL     1       6.784 -15.024 -19.767  1.00  0.00     0.020 A 
ATOM     65  C   UNL     1       6.761 -14.311 -20.968  1.00  0.00     0.054 A 
BRANCH  65  66
ATOM     66  S   UNL     1       6.426 -15.170 -22.531  1.00  0.00     0.124 S 
ATOM     67  O   UNL     1       5.052 -14.765 -22.811  1.00  0.00    -0.237 OA
ATOM     68  O   UNL     1       7.440 -14.617 -23.426  1.00  0.00    -0.237 OA
ATOM     69  O   UNL     1       6.606 -16.580 -22.194  1.00  0.00    -0.744 OA
ENDBRANCH  65  66
ENDBRANCH  39  60
ENDBRANCH  13  14
ENDBRANCH   6   8
ENDBRANCH   5   6
ENDBRANCH   4   5
ENDBRANCH   3   4
ENDBRANCH   2   3
ENDBRANCH   1   2
BRANCH   1  70
ATOM     70  C   UNL     1       8.278  -5.709  -5.135  1.00  0.00     0.261 C 
BRANCH  70  71
ATOM     71  O   UNL     1       8.130  -5.943  -3.726  1.00  0.00    -0.460 OA
BRANCH  71  72
ATOM     72  C   UNL     1       7.842  -7.230  -3.417  1.00  0.00     0.338 C 
ATOM     73  O   UNL     1       7.208  -8.028  -4.084  1.00  0.00    -0.246 OA
BRANCH  72  74
ATOM     74  C   UNL     1       8.588  -7.595  -2.191  1.00  0.00     0.060 A 
ATOM     75  C   UNL     1       8.919  -8.944  -2.007  1.00  0.00     0.017 A 
ATOM     76  C   UNL     1       9.003  -6.633  -1.260  1.00  0.00     0.017 A 
ATOM     77  C   UNL     1       9.608  -9.341  -0.865  1.00  0.00     0.022 A 
ATOM     78  C   UNL     1       9.692  -7.026  -0.115  1.00  0.00     0.022 A 
ATOM     79  C   UNL     1       9.941  -8.385   0.099  1.00  0.00     0.082 A 
BRANCH  79  80
ATOM     80  S   UNL     1      10.513  -8.921   1.688  1.00  0.00     0.240 S 
ATOM     81  O   UNL     1      10.273 -10.341   1.805  1.00  0.00    -0.207 OA
ATOM     82  O   UNL     1      11.821  -8.346   1.901  1.00  0.00    -0.207 OA
BRANCH  80  83
ATOM     83  N   UNL     1       9.483  -8.149   2.776  1.00  0.00    -0.211 NA
ATOM     84  H   UNL     1       9.832  -7.193   2.848  1.00  0.00     0.141 HD
BRANCH  83  85
ATOM     85  C   UNL     1       8.028  -8.023   2.617  1.00  0.00     0.103 C 
BRANCH  85  86
ATOM     86  C   UNL     1       7.195  -9.289   2.776  1.00  0.00     0.020 C 
ATOM     87  C   UNL     1       7.036 -10.123   1.498  1.00  0.00     0.022 C 
ATOM     88  C   UNL     1       7.663 -10.237   3.875  1.00  0.00     0.142 C 
ATOM     89  C   UNL     1       6.399 -11.461   1.866  1.00  0.00     0.137 C 
ATOM     90  S   UNL     1       6.717 -11.722   3.603  1.00  0.00     0.150 S 
ATOM     91  O   UNL     1       5.462 -11.582   4.315  1.00  0.00    -0.229 OA
ATOM     92  O   UNL     1       7.573 -12.875   3.777  1.00  0.00    -0.229 OA
ENDBRANCH  85  86
ENDBRANCH  83  85
ENDBRANCH  80  83
ENDBRANCH  79  80
ENDBRANCH  72  74
ENDBRANCH  71  72
ENDBRANCH  70  71
ENDBRANCH   1  70
TORSDOF 21
