REMARK SMILES Cc1ccc(-c2cnnc(-n3nc(C)c4c3NC(=O)C[C@@H]4c3ccc(C(=O)OCCOCCOC(=O)c4ccc(-c5c6nc(c(-c7ccc(S(=O)(=O)[O-])cc7)c7ccc([nH]7)c(-c7ccc(S(=O)(=O)[O-])cc7)c7nc(c(-c8ccc(S(=O)(=O)[O-])cc8)c8ccc5[nH]8)C=C7)C=C6)cc4)cc3)n2)cc1
REMARK SMILES IDX 31 1 30 2 29 3 28 4 26 5 27 6 25 7 22 8 23 9 98 10 24 11
REMARK SMILES IDX 97 12 21 13 11 14 12 15 16 16 13 17 15 18 17 19 14 20 18 21
REMARK SMILES IDX 20 23 19 24 10 25 6 26 7 27 99 28 8 29 9 30 5 31 1 32 2 33
REMARK SMILES IDX 3 34 101 35 4 36 100 37 32 38 33 39 34 40 35 41 36 42 37 43
REMARK SMILES IDX 38 44 96 45 39 46 95 47 40 48 41 49 42 50 89 51 43 52 94 53
REMARK SMILES IDX 88 54 90 55 44 56 93 57 87 58 86 59 45 61 75 62 56 63 74 64
REMARK SMILES IDX 57 65 60 66 73 67 91 68 58 69 59 70 72 72 92 73 61 74 46 75
REMARK SMILES IDX 47 76 55 77 48 78 54 79 49 80 50 81 51 82 52 83 53 84 76 85
REMARK SMILES IDX 77 86 85 87 78 88 84 89 79 90 80 91 81 92 82 93 83 94 62 95
REMARK SMILES IDX 63 96 71 97 64 98 70 99 65 100 66 101 67 102 68 103 69 104
REMARK H PARENT 17 22 90 60 60 71
REMARK Flexibility Score: inf
ROOT
ATOM      1  O   UNL     1      -8.678   6.953 -10.682  1.00  0.00    -0.374 OA
ENDROOT
BRANCH   1   2
ATOM      2  C   UNL     1      -9.942   6.497 -11.124  1.00  0.00     0.202 C 
BRANCH   2   3
ATOM      3  C   UNL     1     -10.812   5.819 -10.095  1.00  0.00     0.261 C 
BRANCH   3   4
ATOM      4  O   UNL     1     -10.075   5.019  -9.201  1.00  0.00    -0.460 OA
BRANCH   4   5
ATOM      5  C   UNL     1      -9.948   3.734  -9.550  1.00  0.00     0.338 C 
ATOM      6  O   UNL     1     -10.354   3.191 -10.568  1.00  0.00    -0.246 OA
BRANCH   5   7
ATOM      7  C   UNL     1      -9.141   3.097  -8.502  1.00  0.00     0.060 A 
ATOM      8  C   UNL     1      -7.526   1.856  -6.596  1.00  0.00    -0.040 A 
ATOM      9  C   UNL     1      -7.876   1.197  -7.794  1.00  0.00     0.005 A 
ATOM     10  C   UNL     1      -7.970   3.166  -6.391  1.00  0.00     0.005 A 
ATOM     11  C   UNL     1      -8.666   1.816  -8.749  1.00  0.00     0.016 A 
ATOM     12  C   UNL     1      -8.811   3.765  -7.314  1.00  0.00     0.016 A 
BRANCH   8  13
ATOM     13  C   UNL     1      -6.697   1.069  -5.617  1.00  0.00     0.064 C 
ATOM     14  N   UNL     1      -5.812   2.218  -2.339  1.00  0.00    -0.180 N 
ATOM     15  N   UNL     1      -7.130   2.520  -2.194  1.00  0.00    -0.168 NA
ATOM     16  C   UNL     1      -5.514   2.169  -3.689  1.00  0.00     0.143 A 
ATOM     17  C   UNL     1      -7.683   2.095  -3.338  1.00  0.00     0.066 A 
ATOM     18  C   UNL     1      -6.678   1.709  -4.273  1.00  0.00     0.026 A 
ATOM     19  N   UNL     1      -4.381   2.411  -4.438  1.00  0.00    -0.310 N 
ATOM     20  C   UNL     1      -9.159   2.195  -3.477  1.00  0.00     0.069 C 
ATOM     21  C   UNL     1      -4.377   1.996  -5.809  1.00  0.00     0.226 C 
ATOM     22  H   UNL     1      -3.598   2.857  -4.042  1.00  0.00     0.171 HD
ATOM     23  C   UNL     1      -5.276   0.835  -6.145  1.00  0.00     0.113 C 
ATOM     24  O   UNL     1      -3.540   2.487  -6.545  1.00  0.00    -0.275 OA
BRANCH  14  25
ATOM     25  C   UNL     1      -5.110   1.511  -1.313  1.00  0.00     0.272 A 
ATOM     26  C   UNL     1      -3.284   0.382  -0.527  1.00  0.00     0.095 A 
ATOM     27  C   UNL     1      -4.093  -0.260   0.394  1.00  0.00     0.164 A 
ATOM     28  N   UNL     1      -3.789   1.251  -1.446  1.00  0.00    -0.208 NA
ATOM     29  N   UNL     1      -5.401   0.015   0.476  1.00  0.00    -0.153 NA
ATOM     30  N   UNL     1      -5.902   0.945  -0.364  1.00  0.00    -0.109 NA
BRANCH  26  31
ATOM     31  C   UNL     1      -1.824   0.247  -0.460  1.00  0.00     0.002 A 
ATOM     32  C   UNL     1       2.465  -0.046   0.066  1.00  0.00     0.044 C 
ATOM     33  C   UNL     1       0.979   0.061  -0.110  1.00  0.00    -0.051 A 
ATOM     34  C   UNL     1       0.195  -1.095  -0.182  1.00  0.00     0.004 A 
ATOM     35  C   UNL     1       0.360   1.308  -0.218  1.00  0.00     0.004 A 
ATOM     36  C   UNL     1      -1.191  -1.004  -0.354  1.00  0.00     0.011 A 
ATOM     37  C   UNL     1      -1.022   1.397  -0.396  1.00  0.00     0.011 A 
ENDBRANCH  26  31
ENDBRANCH  14  25
ENDBRANCH   8  13
ENDBRANCH   5   7
ENDBRANCH   4   5
ENDBRANCH   3   4
ENDBRANCH   2   3
ENDBRANCH   1   2
BRANCH   1  38
ATOM     38  C   UNL     1      -8.559   7.553  -9.391  1.00  0.00     0.202 C 
BRANCH  38  39
ATOM     39  C   UNL     1      -9.697   8.428  -8.795  1.00  0.00     0.261 C 
BRANCH  39  40
ATOM     40  O   UNL     1     -10.511   9.070  -9.803  1.00  0.00    -0.460 OA
BRANCH  40  41
ATOM     41  C   UNL     1     -11.679   9.655  -9.383  1.00  0.00     0.338 C 
ATOM     42  O   UNL     1     -11.826  10.838  -9.134  1.00  0.00    -0.246 OA
BRANCH  41  43
ATOM     43  C   UNL     1     -12.830   8.756  -9.661  1.00  0.00     0.060 A 
ATOM     44  C   UNL     1     -13.698   8.343  -8.653  1.00  0.00     0.016 A 
ATOM     45  C   UNL     1     -12.948   8.192 -10.927  1.00  0.00     0.016 A 
ATOM     46  C   UNL     1     -14.379   7.132  -8.801  1.00  0.00     0.010 A 
ATOM     47  C   UNL     1     -13.634   6.993 -11.072  1.00  0.00     0.010 A 
ATOM     48  C   UNL     1     -14.126   6.354  -9.930  1.00  0.00    -0.014 A 
BRANCH  48  49
ATOM     49  C   UNL     1     -13.979   4.879  -9.822  1.00  0.00     0.031 A 
ATOM     50  C   UNL     1     -14.369   4.027 -10.952  1.00  0.00     0.074 A 
ATOM     51  C   UNL     1     -13.323   4.293  -8.789  1.00  0.00     0.049 A 
ATOM     52  N   UNL     1     -15.477   3.368 -11.052  1.00  0.00    -0.248 NA
ATOM     53  C   UNL     1     -13.499   3.934 -12.127  1.00  0.00     0.031 C 
ATOM     54  C   UNL     1     -13.041   2.873  -8.577  1.00  0.00     0.029 A 
ATOM     55  N   UNL     1     -12.792   4.868  -7.648  1.00  0.00    -0.354 N 
ATOM     56  C   UNL     1     -15.305   2.575 -12.171  1.00  0.00     0.074 A 
ATOM     57  C   UNL     1     -14.244   3.192 -12.944  1.00  0.00     0.031 C 
ATOM     58  C   UNL     1     -12.704   2.688  -7.283  1.00  0.00     0.029 A 
ATOM     59  C   UNL     1     -12.789   3.970  -6.590  1.00  0.00     0.049 A 
ATOM     60  H   UNL     1     -12.460   5.793  -7.594  1.00  0.00     0.167 HD
ATOM     61  C   UNL     1     -15.547   1.229 -12.163  1.00  0.00     0.031 A 
ATOM     62  C   UNL     1     -13.581   4.224  -5.505  1.00  0.00     0.031 A 
ATOM     63  C   UNL     1     -15.601   0.714 -10.791  1.00  0.00     0.049 A 
ATOM     64  C   UNL     1     -14.888   3.452  -5.603  1.00  0.00     0.074 A 
ATOM     65  C   UNL     1     -14.715  -0.069 -10.065  1.00  0.00     0.029 A 
ATOM     66  N   UNL     1     -16.484   1.255  -9.861  1.00  0.00    -0.354 N 
ATOM     67  N   UNL     1     -15.242   2.805  -6.685  1.00  0.00    -0.248 NA
ATOM     68  C   UNL     1     -15.856   3.262  -4.526  1.00  0.00     0.031 C 
ATOM     69  C   UNL     1     -15.029   0.068  -8.685  1.00  0.00     0.029 A 
ATOM     70  C   UNL     1     -16.119   0.913  -8.569  1.00  0.00     0.049 A 
ATOM     71  H   UNL     1     -17.265   1.809 -10.091  1.00  0.00     0.167 HD
ATOM     72  C   UNL     1     -16.396   2.108  -6.478  1.00  0.00     0.074 A 
ATOM     73  C   UNL     1     -16.748   2.431  -5.105  1.00  0.00     0.031 C 
ATOM     74  C   UNL     1     -16.956   1.310  -7.437  1.00  0.00     0.031 A 
BRANCH  61  75
ATOM     75  C   UNL     1     -15.291   0.382 -13.402  1.00  0.00    -0.014 A 
ATOM     76  C   UNL     1     -15.103  -1.009 -13.316  1.00  0.00     0.010 A 
ATOM     77  C   UNL     1     -15.288   0.929 -14.708  1.00  0.00     0.010 A 
ATOM     78  C   UNL     1     -14.840  -1.792 -14.456  1.00  0.00     0.020 A 
ATOM     79  C   UNL     1     -14.968   0.173 -15.845  1.00  0.00     0.020 A 
ATOM     80  C   UNL     1     -14.753  -1.192 -15.712  1.00  0.00     0.054 A 
BRANCH  80  81
ATOM     81  S   UNL     1     -14.411  -2.214 -17.171  1.00  0.00     0.124 S 
ATOM     82  O   UNL     1     -13.174  -2.895 -16.799  1.00  0.00    -0.237 OA
ATOM     83  O   UNL     1     -15.600  -3.058 -17.242  1.00  0.00    -0.237 OA
ATOM     84  O   UNL     1     -14.275  -1.240 -18.253  1.00  0.00    -0.744 OA
ENDBRANCH  80  81
ENDBRANCH  61  75
BRANCH  62  85
ATOM     85  C   UNL     1     -13.237   5.534  -4.857  1.00  0.00    -0.014 A 
ATOM     86  C   UNL     1     -11.987   5.550  -4.193  1.00  0.00     0.010 A 
ATOM     87  C   UNL     1     -13.761   6.771  -5.273  1.00  0.00     0.010 A 
ATOM     88  C   UNL     1     -11.190   6.700  -4.154  1.00  0.00     0.020 A 
ATOM     89  C   UNL     1     -12.967   7.939  -5.215  1.00  0.00     0.020 A 
ATOM     90  C   UNL     1     -11.660   7.875  -4.726  1.00  0.00     0.054 A 
BRANCH  90  91
ATOM     91  S   UNL     1     -10.462   9.207  -5.064  1.00  0.00     0.124 S 
ATOM     92  O   UNL     1     -10.403   9.908  -3.789  1.00  0.00    -0.237 OA
ATOM     93  O   UNL     1      -9.260   8.459  -5.439  1.00  0.00    -0.237 OA
ATOM     94  O   UNL     1     -11.087   9.922  -6.170  1.00  0.00    -0.744 OA
ENDBRANCH  90  91
ENDBRANCH  62  85
BRANCH  74  95
ATOM     95  C   UNL     1     -18.348   0.733  -7.377  1.00  0.00    -0.014 A 
ATOM     96  C   UNL     1     -19.386   1.300  -6.625  1.00  0.00     0.010 A 
ATOM     97  C   UNL     1     -18.686  -0.335  -8.245  1.00  0.00     0.010 A 
ATOM     98  C   UNL     1     -20.687   0.790  -6.694  1.00  0.00     0.020 A 
ATOM     99  C   UNL     1     -19.991  -0.811  -8.366  1.00  0.00     0.020 A 
ATOM    100  C   UNL     1     -20.981  -0.260  -7.564  1.00  0.00     0.054 A 
BRANCH 100 101
ATOM    101  S   UNL     1     -22.682  -0.859  -7.683  1.00  0.00     0.124 S 
ATOM    102  O   UNL     1     -22.762  -1.749  -6.528  1.00  0.00    -0.237 OA
ATOM    103  O   UNL     1     -23.464   0.372  -7.582  1.00  0.00    -0.237 OA
ATOM    104  O   UNL     1     -22.728  -1.515  -8.986  1.00  0.00    -0.744 OA
ENDBRANCH 100 101
ENDBRANCH  74  95
ENDBRANCH  48  49
ENDBRANCH  41  43
ENDBRANCH  40  41
ENDBRANCH  39  40
ENDBRANCH  38  39
ENDBRANCH   1  38
TORSDOF 20
