REMARK SMILES CN(C(=O)c1cccn1CC(=O)OCCOCCOC(=O)c1ccc(-c2c3nc(c(-c4ccc(S(=O)(=O)[O-])cc4)c4ccc([nH]4)c(-c4ccc(S(=O)(=O)[O-])cc4)c4nc(c(-c5ccc(S(=O)(=O)[O-])cc5)c5ccc2[nH]5)C=C4)C=C3)cc1)c1ccc(F)cc1
REMARK SMILES IDX 15 1 14 2 13 3 11 4 12 5 10 6 9 7 5 8 6 9 7 10 8 11 3 12
REMARK SMILES IDX 4 13 2 14 1 15 82 16 83 17 88 18 84 19 87 20 85 21 86 22
REMARK SMILES IDX 16 23 17 24 18 25 19 26 20 27 21 28 22 29 23 30 81 31 24 32
REMARK SMILES IDX 80 33 25 34 26 35 27 36 74 37 28 38 79 39 73 40 75 41 29 42
REMARK SMILES IDX 78 43 72 44 71 45 30 47 60 48 41 49 59 50 42 51 45 52 58 53
REMARK SMILES IDX 76 54 43 55 44 56 57 58 77 59 46 60 31 61 32 62 40 63 33 64
REMARK SMILES IDX 39 65 34 66 35 67 36 68 37 69 38 70 61 71 62 72 70 73 63 74
REMARK SMILES IDX 69 75 64 76 65 77 66 78 67 79 68 80 47 81 48 82 56 83 49 84
REMARK SMILES IDX 55 85 50 86 51 87 52 88 53 89 54 90
REMARK H PARENT 75 46 45 57
REMARK Flexibility Score: inf
ROOT
ATOM      1  C   UNL     1       3.082  -5.126   4.220  1.00  0.00     0.202 C 
ENDROOT
BRANCH   1   2
ATOM      2  C   UNL     1       2.963  -5.017   2.699  1.00  0.00     0.261 C 
BRANCH   2   3
ATOM      3  O   UNL     1       1.747  -4.374   2.272  1.00  0.00    -0.462 OA
BRANCH   3   4
ATOM      4  C   UNL     1       0.882  -5.176   1.597  1.00  0.00     0.326 C 
ATOM      5  O   UNL     1       1.124  -6.343   1.294  1.00  0.00    -0.250 OA
BRANCH   4   6
ATOM      6  C   UNL     1      -0.466  -4.575   1.299  1.00  0.00     0.244 C 
BRANCH   6   7
ATOM      7  N   UNL     1      -0.734  -3.205   1.741  1.00  0.00    -0.332 N 
ATOM      8  C   UNL     1      -0.626  -2.045   0.983  1.00  0.00     0.108 A 
ATOM      9  C   UNL     1      -1.142  -1.017   1.765  1.00  0.00     0.033 A 
ATOM     10  C   UNL     1      -1.591  -1.562   2.988  1.00  0.00     0.020 A 
ATOM     11  C   UNL     1      -1.374  -2.916   2.925  1.00  0.00     0.087 A 
BRANCH   8  12
ATOM     12  C   UNL     1      -0.202  -2.025  -0.411  1.00  0.00     0.274 C 
ATOM     13  O   UNL     1      -0.573  -2.943  -1.143  1.00  0.00    -0.267 OA
BRANCH  12  14
ATOM     14  N   UNL     1       0.660  -1.010  -0.881  1.00  0.00    -0.310 N 
ATOM     15  C   UNL     1       1.308  -0.021  -0.016  1.00  0.00     0.153 C 
BRANCH  14  16
ATOM     16  C   UNL     1       1.009  -0.993  -2.281  1.00  0.00     0.044 A 
ATOM     17  C   UNL     1       0.069  -1.362  -3.262  1.00  0.00     0.029 A 
ATOM     18  C   UNL     1       2.306  -0.670  -2.708  1.00  0.00     0.029 A 
ATOM     19  C   UNL     1       0.425  -1.477  -4.607  1.00  0.00     0.041 A 
ATOM     20  C   UNL     1       2.669  -0.795  -4.054  1.00  0.00     0.041 A 
ATOM     21  C   UNL     1       1.729  -1.209  -4.988  1.00  0.00     0.123 A 
ATOM     22  F   UNL     1       2.089  -1.359  -6.270  1.00  0.00    -0.207 F 
ENDBRANCH  14  16
ENDBRANCH  12  14
ENDBRANCH   8  12
ENDBRANCH   6   7
ENDBRANCH   4   6
ENDBRANCH   3   4
ENDBRANCH   2   3
ENDBRANCH   1   2
BRANCH   1  23
ATOM     23  O   UNL     1       2.050  -5.810   4.928  1.00  0.00    -0.374 OA
BRANCH  23  24
ATOM     24  C   UNL     1       0.746  -5.244   4.992  1.00  0.00     0.202 C 
BRANCH  24  25
ATOM     25  C   UNL     1       0.540  -3.960   5.783  1.00  0.00     0.261 C 
BRANCH  25  26
ATOM     26  O   UNL     1       1.321  -2.876   5.307  1.00  0.00    -0.460 OA
BRANCH  26  27
ATOM     27  C   UNL     1       2.392  -2.650   6.101  1.00  0.00     0.338 C 
ATOM     28  O   UNL     1       2.955  -3.454   6.822  1.00  0.00    -0.246 OA
BRANCH  27  29
ATOM     29  C   UNL     1       2.673  -1.219   6.156  1.00  0.00     0.060 A 
ATOM     30  C   UNL     1       3.798  -0.871   6.905  1.00  0.00     0.016 A 
ATOM     31  C   UNL     1       1.656  -0.306   5.842  1.00  0.00     0.016 A 
ATOM     32  C   UNL     1       3.808   0.354   7.522  1.00  0.00     0.010 A 
ATOM     33  C   UNL     1       1.648   0.907   6.490  1.00  0.00     0.010 A 
ATOM     34  C   UNL     1       2.705   1.203   7.355  1.00  0.00    -0.014 A 
BRANCH  34  35
ATOM     35  C   UNL     1       2.820   2.535   7.943  1.00  0.00     0.031 A 
ATOM     36  C   UNL     1       3.627   3.414   6.958  1.00  0.00     0.074 A 
ATOM     37  C   UNL     1       2.333   2.655   9.222  1.00  0.00     0.049 A 
ATOM     38  N   UNL     1       4.460   4.369   7.207  1.00  0.00    -0.248 NA
ATOM     39  C   UNL     1       3.606   3.120   5.487  1.00  0.00     0.031 C 
ATOM     40  C   UNL     1       1.540   1.626   9.953  1.00  0.00     0.029 A 
ATOM     41  N   UNL     1       2.399   3.639  10.183  1.00  0.00    -0.354 N 
ATOM     42  C   UNL     1       4.883   4.914   5.973  1.00  0.00     0.074 A 
ATOM     43  C   UNL     1       4.423   4.030   4.953  1.00  0.00     0.031 C 
ATOM     44  C   UNL     1       1.301   2.000  11.235  1.00  0.00     0.029 A 
ATOM     45  C   UNL     1       1.892   3.302  11.476  1.00  0.00     0.049 A 
ATOM     46  H   UNL     1       2.776   4.527   9.989  1.00  0.00     0.167 HD
ATOM     47  C   UNL     1       5.466   6.142   5.878  1.00  0.00     0.031 A 
ATOM     48  C   UNL     1       2.006   4.014  12.647  1.00  0.00     0.031 A 
ATOM     49  C   UNL     1       5.651   6.675   7.185  1.00  0.00     0.049 A 
ATOM     50  C   UNL     1       2.651   5.268  12.230  1.00  0.00     0.074 A 
ATOM     51  C   UNL     1       6.514   6.328   8.192  1.00  0.00     0.029 A 
ATOM     52  N   UNL     1       4.581   7.364   7.708  1.00  0.00    -0.354 N 
ATOM     53  N   UNL     1       2.076   6.213  11.551  1.00  0.00    -0.248 NA
ATOM     54  C   UNL     1       4.088   5.433  12.489  1.00  0.00     0.031 C 
ATOM     55  C   UNL     1       5.672   6.330   9.322  1.00  0.00     0.029 A 
ATOM     56  C   UNL     1       4.460   6.961   9.013  1.00  0.00     0.049 A 
ATOM     57  H   UNL     1       4.014   8.017   7.237  1.00  0.00     0.167 HD
ATOM     58  C   UNL     1       3.148   6.856  10.989  1.00  0.00     0.074 A 
ATOM     59  C   UNL     1       4.290   6.574  11.837  1.00  0.00     0.031 C 
ATOM     60  C   UNL     1       3.174   7.091   9.651  1.00  0.00     0.031 A 
BRANCH  47  61
ATOM     61  C   UNL     1       5.676   7.078   4.724  1.00  0.00    -0.014 A 
ATOM     62  C   UNL     1       6.511   8.198   4.974  1.00  0.00     0.010 A 
ATOM     63  C   UNL     1       4.849   7.119   3.594  1.00  0.00     0.010 A 
ATOM     64  C   UNL     1       6.404   9.371   4.233  1.00  0.00     0.020 A 
ATOM     65  C   UNL     1       4.771   8.286   2.813  1.00  0.00     0.020 A 
ATOM     66  C   UNL     1       5.506   9.420   3.174  1.00  0.00     0.054 A 
BRANCH  66  67
ATOM     67  S   UNL     1       5.274  11.010   2.337  1.00  0.00     0.124 S 
ATOM     68  O   UNL     1       4.596  11.801   3.360  1.00  0.00    -0.237 OA
ATOM     69  O   UNL     1       6.649  11.412   2.045  1.00  0.00    -0.237 OA
ATOM     70  O   UNL     1       4.471  10.668   1.166  1.00  0.00    -0.744 OA
ENDBRANCH  66  67
ENDBRANCH  47  61
BRANCH  48  71
ATOM     71  C   UNL     1       1.813   3.875  14.154  1.00  0.00    -0.014 A 
ATOM     72  C   UNL     1       1.168   2.846  14.850  1.00  0.00     0.010 A 
ATOM     73  C   UNL     1       2.437   4.856  14.988  1.00  0.00     0.010 A 
ATOM     74  C   UNL     1       1.286   2.731  16.268  1.00  0.00     0.020 A 
ATOM     75  C   UNL     1       2.611   4.728  16.368  1.00  0.00     0.020 A 
ATOM     76  C   UNL     1       2.057   3.640  17.008  1.00  0.00     0.054 A 
BRANCH  76  77
ATOM     77  S   UNL     1       2.466   3.351  18.758  1.00  0.00     0.124 S 
ATOM     78  O   UNL     1       1.264   3.809  19.447  1.00  0.00    -0.237 OA
ATOM     79  O   UNL     1       2.709   1.911  18.797  1.00  0.00    -0.237 OA
ATOM     80  O   UNL     1       3.657   4.173  18.973  1.00  0.00    -0.744 OA
ENDBRANCH  76  77
ENDBRANCH  48  71
BRANCH  60  81
ATOM     81  C   UNL     1       1.821   7.111   8.943  1.00  0.00    -0.014 A 
ATOM     82  C   UNL     1       0.849   8.043   9.347  1.00  0.00     0.010 A 
ATOM     83  C   UNL     1       1.443   6.194   7.939  1.00  0.00     0.010 A 
ATOM     84  C   UNL     1      -0.434   8.070   8.777  1.00  0.00     0.020 A 
ATOM     85  C   UNL     1       0.154   6.204   7.364  1.00  0.00     0.020 A 
ATOM     86  C   UNL     1      -0.776   7.153   7.783  1.00  0.00     0.054 A 
BRANCH  86  87
ATOM     87  S   UNL     1      -2.441   7.237   7.052  1.00  0.00     0.124 S 
ATOM     88  O   UNL     1      -3.314   7.071   8.211  1.00  0.00    -0.237 OA
ATOM     89  O   UNL     1      -2.452   8.567   6.448  1.00  0.00    -0.237 OA
ATOM     90  O   UNL     1      -2.465   6.126   6.101  1.00  0.00    -0.744 OA
ENDBRANCH  86  87
ENDBRANCH  60  81
ENDBRANCH  34  35
ENDBRANCH  27  29
ENDBRANCH  26  27
ENDBRANCH  25  26
ENDBRANCH  24  25
ENDBRANCH  23  24
ENDBRANCH   1  23
TORSDOF 21
