REMARK SMILES O=C(OCCOCCOC(=O)c1nn(Cc2ccc(F)cc2)c2c1CN(C(=O)[C@H]1CC1(F)F)CC2)c1ccc(-c2c3nc(c(-c4ccc(S(=O)(=O)[O-])cc4)c4ccc([nH]4)c(-c4ccc(S(=O)(=O)[O-])cc4)c4nc(c(-c5ccc(S(=O)(=O)[O-])cc5)c5ccc2[nH]5)C=C4)C=C3)cc1
REMARK SMILES IDX 5 1 4 2 3 3 2 4 1 5 36 6 37 7 95 8 38 9 94 10 39 11 40 12
REMARK SMILES IDX 41 13 88 14 42 15 93 16 87 17 89 18 43 19 92 20 86 21 85 22
REMARK SMILES IDX 44 24 74 25 55 26 73 27 56 28 59 29 72 30 90 31 57 32 58 33
REMARK SMILES IDX 71 35 91 36 60 37 45 38 46 39 54 40 47 41 53 42 48 43 49 44
REMARK SMILES IDX 50 45 51 46 52 47 75 48 76 49 84 50 77 51 83 52 78 53 79 54
REMARK SMILES IDX 80 55 81 56 82 57 61 58 62 59 70 60 63 61 69 62 64 63 65 64
REMARK SMILES IDX 66 65 67 66 68 67 6 68 7 69 8 70 9 71 10 72 11 73 12 74
REMARK SMILES IDX 13 75 24 76 14 77 23 78 25 79 35 80 26 81 34 82 15 83 16 84
REMARK SMILES IDX 17 85 22 86 18 87 21 88 19 89 20 90 27 91 28 92 29 93 30 94
REMARK SMILES IDX 31 95 32 96 33 97
REMARK H PARENT 89 23 59 34
REMARK Flexibility Score: inf
ROOT
ATOM      1  C   UNL     1      16.219   0.374  -0.768  1.00  0.00     0.202 C 
ENDROOT
BRANCH   1   2
ATOM      2  C   UNL     1      15.311  -0.716  -1.334  1.00  0.00     0.261 C 
BRANCH   2   3
ATOM      3  O   UNL     1      15.938  -2.010  -1.355  1.00  0.00    -0.460 OA
BRANCH   3   4
ATOM      4  C   UNL     1      17.040  -2.333  -2.071  1.00  0.00     0.338 C 
ATOM      5  O   UNL     1      17.917  -3.031  -1.566  1.00  0.00    -0.246 OA
BRANCH   4   6
ATOM      6  C   UNL     1      17.063  -2.086  -3.533  1.00  0.00     0.060 A 
ATOM      7  C   UNL     1      16.356  -1.085  -4.195  1.00  0.00     0.016 A 
ATOM      8  C   UNL     1      17.790  -3.022  -4.287  1.00  0.00     0.016 A 
ATOM      9  C   UNL     1      16.127  -1.192  -5.553  1.00  0.00     0.010 A 
ATOM     10  C   UNL     1      17.639  -3.080  -5.660  1.00  0.00     0.010 A 
ATOM     11  C   UNL     1      16.717  -2.235  -6.265  1.00  0.00    -0.014 A 
BRANCH  11  12
ATOM     12  C   UNL     1      16.381  -2.356  -7.673  1.00  0.00     0.031 A 
ATOM     13  C   UNL     1      16.698  -1.155  -8.491  1.00  0.00     0.074 A 
ATOM     14  C   UNL     1      15.889  -3.493  -8.200  1.00  0.00     0.049 A 
ATOM     15  N   UNL     1      15.885  -0.397  -9.151  1.00  0.00    -0.248 NA
ATOM     16  C   UNL     1      18.084  -0.662  -8.451  1.00  0.00     0.031 C 
ATOM     17  C   UNL     1      15.772  -4.815  -7.579  1.00  0.00     0.029 A 
ATOM     18  N   UNL     1      15.490  -3.721  -9.477  1.00  0.00    -0.354 N 
ATOM     19  C   UNL     1      16.676   0.576  -9.756  1.00  0.00     0.074 A 
ATOM     20  C   UNL     1      17.993   0.447  -9.183  1.00  0.00     0.031 C 
ATOM     21  C   UNL     1      15.585  -5.744  -8.545  1.00  0.00     0.029 A 
ATOM     22  C   UNL     1      15.412  -5.064  -9.817  1.00  0.00     0.049 A 
ATOM     23  H   UNL     1      15.275  -2.997 -10.108  1.00  0.00     0.167 HD
ATOM     24  C   UNL     1      16.251   1.305 -10.825  1.00  0.00     0.031 A 
ATOM     25  C   UNL     1      15.294  -5.570 -11.070  1.00  0.00     0.031 A 
ATOM     26  C   UNL     1      14.823   1.265 -10.976  1.00  0.00     0.049 A 
ATOM     27  C   UNL     1      14.772  -4.481 -11.934  1.00  0.00     0.074 A 
ATOM     28  C   UNL     1      13.762   1.694 -10.203  1.00  0.00     0.029 A 
ATOM     29  N   UNL     1      14.298   0.357 -11.865  1.00  0.00    -0.354 N 
ATOM     30  N   UNL     1      13.583  -3.965 -11.792  1.00  0.00    -0.248 NA
ATOM     31  C   UNL     1      15.732  -3.645 -12.640  1.00  0.00     0.031 C 
ATOM     32  C   UNL     1      12.779   0.670 -10.330  1.00  0.00     0.029 A 
ATOM     33  C   UNL     1      13.266  -0.286 -11.225  1.00  0.00     0.049 A 
ATOM     34  H   UNL     1      14.604   0.198 -12.787  1.00  0.00     0.167 HD
ATOM     35  C   UNL     1      13.754  -2.603 -12.001  1.00  0.00     0.074 A 
ATOM     36  C   UNL     1      15.080  -2.479 -12.607  1.00  0.00     0.031 C 
ATOM     37  C   UNL     1      12.929  -1.682 -11.418  1.00  0.00     0.031 A 
BRANCH  24  38
ATOM     38  C   UNL     1      17.179   1.775 -11.914  1.00  0.00    -0.014 A 
ATOM     39  C   UNL     1      16.700   2.635 -12.921  1.00  0.00     0.010 A 
ATOM     40  C   UNL     1      18.447   1.190 -12.120  1.00  0.00     0.010 A 
ATOM     41  C   UNL     1      17.439   2.861 -14.092  1.00  0.00     0.020 A 
ATOM     42  C   UNL     1      19.208   1.441 -13.262  1.00  0.00     0.020 A 
ATOM     43  C   UNL     1      18.684   2.253 -14.257  1.00  0.00     0.054 A 
BRANCH  43  44
ATOM     44  S   UNL     1      19.587   2.470 -15.811  1.00  0.00     0.124 S 
ATOM     45  O   UNL     1      18.714   1.792 -16.765  1.00  0.00    -0.237 OA
ATOM     46  O   UNL     1      19.651   3.924 -15.932  1.00  0.00    -0.237 OA
ATOM     47  O   UNL     1      20.868   1.814 -15.559  1.00  0.00    -0.744 OA
ENDBRANCH  43  44
ENDBRANCH  24  38
BRANCH  25  48
ATOM     48  C   UNL     1      15.969  -6.779 -11.607  1.00  0.00    -0.014 A 
ATOM     49  C   UNL     1      15.578  -7.351 -12.830  1.00  0.00     0.010 A 
ATOM     50  C   UNL     1      17.191  -7.206 -11.044  1.00  0.00     0.010 A 
ATOM     51  C   UNL     1      16.405  -8.277 -13.491  1.00  0.00     0.020 A 
ATOM     52  C   UNL     1      18.017  -8.130 -11.693  1.00  0.00     0.020 A 
ATOM     53  C   UNL     1      17.631  -8.645 -12.927  1.00  0.00     0.054 A 
BRANCH  53  54
ATOM     54  S   UNL     1      18.772  -9.700 -13.869  1.00  0.00     0.124 S 
ATOM     55  O   UNL     1      18.096 -10.994 -13.840  1.00  0.00    -0.237 OA
ATOM     56  O   UNL     1      18.816  -9.039 -15.170  1.00  0.00    -0.237 OA
ATOM     57  O   UNL     1      20.015  -9.634 -13.102  1.00  0.00    -0.744 OA
ENDBRANCH  53  54
ENDBRANCH  25  48
BRANCH  37  58
ATOM     58  C   UNL     1      11.686  -2.180 -10.709  1.00  0.00    -0.014 A 
ATOM     59  C   UNL     1      11.716  -3.046  -9.595  1.00  0.00     0.010 A 
ATOM     60  C   UNL     1      10.450  -1.629 -11.087  1.00  0.00     0.010 A 
ATOM     61  C   UNL     1      10.539  -3.372  -8.902  1.00  0.00     0.020 A 
ATOM     62  C   UNL     1       9.276  -1.934 -10.390  1.00  0.00     0.020 A 
ATOM     63  C   UNL     1       9.323  -2.813  -9.307  1.00  0.00     0.054 A 
BRANCH  63  64
ATOM     64  S   UNL     1       7.808  -3.204  -8.387  1.00  0.00     0.124 S 
ATOM     65  O   UNL     1       7.593  -4.611  -8.709  1.00  0.00    -0.237 OA
ATOM     66  O   UNL     1       8.186  -2.926  -7.002  1.00  0.00    -0.237 OA
ATOM     67  O   UNL     1       6.815  -2.284  -8.943  1.00  0.00    -0.744 OA
ENDBRANCH  63  64
ENDBRANCH  37  58
ENDBRANCH  11  12
ENDBRANCH   4   6
ENDBRANCH   3   4
ENDBRANCH   2   3
ENDBRANCH   1   2
BRANCH   1  68
ATOM     68  O   UNL     1      17.387   0.693  -1.519  1.00  0.00    -0.374 OA
BRANCH  68  69
ATOM     69  C   UNL     1      18.619   0.152  -1.026  1.00  0.00     0.202 C 
BRANCH  69  70
ATOM     70  C   UNL     1      19.260   0.831   0.193  1.00  0.00     0.261 C 
BRANCH  70  71
ATOM     71  O   UNL     1      18.532   0.597   1.409  1.00  0.00    -0.458 OA
BRANCH  71  72
ATOM     72  C   UNL     1      17.613   1.556   1.753  1.00  0.00     0.359 C 
ATOM     73  O   UNL     1      17.427   2.588   1.142  1.00  0.00    -0.244 OA
BRANCH  72  74
ATOM     74  C   UNL     1      16.755   1.119   2.867  1.00  0.00     0.175 A 
ATOM     75  N   UNL     1      17.249   0.498   3.956  1.00  0.00    -0.165 NA
ATOM     76  C   UNL     1      15.342   1.275   2.972  1.00  0.00     0.028 A 
ATOM     77  N   UNL     1      16.179   0.280   4.752  1.00  0.00    -0.264 N 
ATOM     78  C   UNL     1      15.018   0.722   4.196  1.00  0.00     0.046 A 
ATOM     79  C   UNL     1      14.336   1.853   2.028  1.00  0.00     0.159 C 
ATOM     80  C   UNL     1      13.648   0.694   4.772  1.00  0.00     0.078 C 
ATOM     81  N   UNL     1      13.056   2.021   2.743  1.00  0.00    -0.337 N 
ATOM     82  C   UNL     1      12.638   0.910   3.626  1.00  0.00     0.126 C 
BRANCH  77  83
ATOM     83  C   UNL     1      16.388  -0.205   6.111  1.00  0.00     0.180 C 
BRANCH  83  84
ATOM     84  C   UNL     1      16.605  -1.697   6.185  1.00  0.00    -0.026 A 
ATOM     85  C   UNL     1      17.789  -2.269   5.689  1.00  0.00     0.008 A 
ATOM     86  C   UNL     1      15.654  -2.529   6.799  1.00  0.00     0.008 A 
ATOM     87  C   UNL     1      18.027  -3.638   5.820  1.00  0.00     0.039 A 
ATOM     88  C   UNL     1      15.896  -3.898   6.931  1.00  0.00     0.039 A 
ATOM     89  C   UNL     1      17.081  -4.438   6.447  1.00  0.00     0.123 A 
ATOM     90  F   UNL     1      17.317  -5.748   6.596  1.00  0.00    -0.207 F 
ENDBRANCH  83  84
ENDBRANCH  77  83
BRANCH  81  91
ATOM     91  C   UNL     1      12.312   3.168   2.507  1.00  0.00     0.232 C 
ATOM     92  O   UNL     1      12.613   4.014   1.676  1.00  0.00    -0.274 OA
BRANCH  91  93
ATOM     93  C   UNL     1      11.090   3.348   3.318  1.00  0.00     0.154 C 
ATOM     94  C   UNL     1      11.227   3.759   4.777  1.00  0.00     0.097 C 
ATOM     95  C   UNL     1      10.663   4.691   3.773  1.00  0.00     0.260 C 
ATOM     96  F   UNL     1      11.346   5.850   3.493  1.00  0.00    -0.206 F 
ATOM     97  F   UNL     1       9.328   5.017   3.866  1.00  0.00    -0.206 F 
ENDBRANCH  91  93
ENDBRANCH  81  91
ENDBRANCH  72  74
ENDBRANCH  71  72
ENDBRANCH  70  71
ENDBRANCH  69  70
ENDBRANCH  68  69
ENDBRANCH   1  68
TORSDOF 21
