REMARK SMILES C[C@]([NH2+]C[C@H](O)C(F)(F)F)(C(=O)OCCOCCOC(=O)c1ccc(-c2c3nc(c(-c4ccc(S(=O)(=O)[O-])cc4)c4ccc([nH]4)c(-c4ccc(S(=O)(=O)[O-])cc4)c4nc(c(-c5ccc(S(=O)(=O)[O-])cc5)c5ccc2[nH]5)C=C4)C=C3)cc1)C(F)(F)F
REMARK SMILES IDX 15 1 14 2 13 3 11 4 12 5 2 6 1 7 82 8 83 9 84 10 85 11 3 12
REMARK SMILES IDX 4 15 5 16 7 17 8 18 9 19 10 20 6 21 16 23 17 24 18 25 19 26
REMARK SMILES IDX 20 27 21 28 22 29 23 30 81 31 24 32 80 33 25 34 26 35 27 36
REMARK SMILES IDX 74 37 28 38 79 39 73 40 75 41 29 42 78 43 72 44 71 45 30 47
REMARK SMILES IDX 60 48 41 49 59 50 42 51 45 52 58 53 76 54 43 55 44 56 57 58
REMARK SMILES IDX 77 59 46 60 31 61 32 62 40 63 33 64 39 65 34 66 35 67 36 68
REMARK SMILES IDX 37 69 38 70 61 71 62 72 70 73 63 74 69 75 64 76 65 77 66 78
REMARK SMILES IDX 67 79 68 80 47 81 48 82 56 83 49 84 55 85 50 86 51 87 52 88
REMARK SMILES IDX 53 89 54 90
REMARK H PARENT 3 13 3 14 6 22 75 46 45 57
REMARK Flexibility Score: inf
ROOT
ATOM      1  C   UNL     1      -0.539  -4.584  -1.915  1.00  0.00     0.202 C 
ENDROOT
BRANCH   1   2
ATOM      2  C   UNL     1      -0.815  -4.915  -0.446  1.00  0.00     0.261 C 
BRANCH   2   3
ATOM      3  O   UNL     1      -0.085  -4.061   0.453  1.00  0.00    -0.458 OA
BRANCH   3   4
ATOM      4  C   UNL     1       0.844  -4.689   1.232  1.00  0.00     0.377 C 
ATOM      5  O   UNL     1       0.936  -5.909   1.317  1.00  0.00    -0.244 OA
BRANCH   4   6
ATOM      6  C   UNL     1       1.706  -3.714   2.053  1.00  0.00     0.287 C 
ATOM      7  C   UNL     1       1.124  -3.718   3.474  1.00  0.00     0.103 C 
BRANCH   6   8
ATOM      8  C   UNL     1       3.113  -4.373   2.038  1.00  0.00     0.455 C 
ATOM      9  F   UNL     1       3.640  -4.402   0.791  1.00  0.00    -0.164 F 
ATOM     10  F   UNL     1       3.983  -3.658   2.805  1.00  0.00    -0.164 F 
ATOM     11  F   UNL     1       3.144  -5.626   2.537  1.00  0.00    -0.164 F 
ENDBRANCH   6   8
BRANCH   6  12
ATOM     12  N   UNL     1       1.629  -2.299   1.500  1.00  0.00    -0.322 N 
ATOM     13  H   UNL     1       0.758  -1.877   1.823  1.00  0.00     0.347 HD
ATOM     14  H   UNL     1       1.678  -2.379   0.485  1.00  0.00     0.347 HD
BRANCH  12  15
ATOM     15  C   UNL     1       2.743  -1.429   1.910  1.00  0.00     0.303 C 
BRANCH  15  16
ATOM     16  C   UNL     1       2.546   0.074   1.614  1.00  0.00     0.275 C 
BRANCH  16  17
ATOM     17  C   UNL     1       3.847   0.815   1.967  1.00  0.00     0.419 C 
ATOM     18  F   UNL     1       3.729   2.150   1.811  1.00  0.00    -0.168 F 
ATOM     19  F   UNL     1       4.212   0.586   3.249  1.00  0.00    -0.168 F 
ATOM     20  F   UNL     1       4.864   0.400   1.174  1.00  0.00    -0.168 F 
ENDBRANCH  16  17
BRANCH  16  21
ATOM     21  O   UNL     1       2.160   0.265   0.240  1.00  0.00    -0.379 OA
ATOM     22  H   UNL     1       2.852  -0.087  -0.342  1.00  0.00     0.211 HD
ENDBRANCH  16  21
ENDBRANCH  15  16
ENDBRANCH  12  15
ENDBRANCH   6  12
ENDBRANCH   4   6
ENDBRANCH   3   4
ENDBRANCH   2   3
ENDBRANCH   1   2
BRANCH   1  23
ATOM     23  O   UNL     1       0.822  -4.619  -2.340  1.00  0.00    -0.374 OA
BRANCH  23  24
ATOM     24  C   UNL     1       1.667  -3.535  -1.952  1.00  0.00     0.202 C 
BRANCH  24  25
ATOM     25  C   UNL     1       1.437  -2.177  -2.627  1.00  0.00     0.261 C 
BRANCH  25  26
ATOM     26  O   UNL     1       0.146  -1.616  -2.336  1.00  0.00    -0.460 OA
BRANCH  26  27
ATOM     27  C   UNL     1      -0.679  -1.522  -3.405  1.00  0.00     0.338 C 
ATOM     28  O   UNL     1      -0.407  -1.800  -4.569  1.00  0.00    -0.246 OA
BRANCH  27  29
ATOM     29  C   UNL     1      -2.054  -1.203  -2.983  1.00  0.00     0.060 A 
ATOM     30  C   UNL     1      -3.081  -2.010  -3.489  1.00  0.00     0.016 A 
ATOM     31  C   UNL     1      -2.351  -0.082  -2.205  1.00  0.00     0.016 A 
ATOM     32  C   UNL     1      -4.412  -1.654  -3.291  1.00  0.00     0.010 A 
ATOM     33  C   UNL     1      -3.691   0.279  -2.012  1.00  0.00     0.010 A 
ATOM     34  C   UNL     1      -4.722  -0.476  -2.601  1.00  0.00    -0.014 A 
BRANCH  34  35
ATOM     35  C   UNL     1      -6.105   0.057  -2.686  1.00  0.00     0.031 A 
ATOM     36  C   UNL     1      -6.408   1.114  -3.716  1.00  0.00     0.074 A 
ATOM     37  C   UNL     1      -7.090  -0.437  -1.916  1.00  0.00     0.049 A 
ATOM     38  N   UNL     1      -7.549   1.681  -4.012  1.00  0.00    -0.248 NA
ATOM     39  C   UNL     1      -5.272   1.592  -4.522  1.00  0.00     0.031 C 
ATOM     40  C   UNL     1      -6.936  -1.495  -0.919  1.00  0.00     0.029 A 
ATOM     41  N   UNL     1      -8.424  -0.117  -1.867  1.00  0.00    -0.354 N 
ATOM     42  C   UNL     1      -7.268   2.587  -5.029  1.00  0.00     0.074 A 
ATOM     43  C   UNL     1      -5.845   2.515  -5.278  1.00  0.00     0.031 C 
ATOM     44  C   UNL     1      -8.134  -1.744  -0.361  1.00  0.00     0.029 A 
ATOM     45  C   UNL     1      -9.132  -0.849  -0.945  1.00  0.00     0.049 A 
ATOM     46  H   UNL     1      -8.834   0.572  -2.438  1.00  0.00     0.167 HD
ATOM     47  C   UNL     1      -8.116   3.402  -5.701  1.00  0.00     0.031 A 
ATOM     48  C   UNL     1     -10.437  -0.803  -0.611  1.00  0.00     0.031 A 
ATOM     49  C   UNL     1      -9.529   3.483  -5.447  1.00  0.00     0.049 A 
ATOM     50  C   UNL     1     -11.353   0.150  -1.332  1.00  0.00     0.074 A 
ATOM     51  C   UNL     1     -10.476   4.268  -6.082  1.00  0.00     0.029 A 
ATOM     52  N   UNL     1     -10.198   2.757  -4.473  1.00  0.00    -0.354 N 
ATOM     53  N   UNL     1     -11.075   0.985  -2.306  1.00  0.00    -0.248 NA
ATOM     54  C   UNL     1     -12.763   0.156  -0.916  1.00  0.00     0.031 C 
ATOM     55  C   UNL     1     -11.710   4.051  -5.458  1.00  0.00     0.029 A 
ATOM     56  C   UNL     1     -11.542   3.091  -4.473  1.00  0.00     0.049 A 
ATOM     57  H   UNL     1      -9.779   2.101  -3.870  1.00  0.00     0.167 HD
ATOM     58  C   UNL     1     -12.282   1.588  -2.644  1.00  0.00     0.074 A 
ATOM     59  C   UNL     1     -13.291   1.021  -1.772  1.00  0.00     0.031 C 
ATOM     60  C   UNL     1     -12.534   2.519  -3.599  1.00  0.00     0.031 A 
BRANCH  47  61
ATOM     61  C   UNL     1      -7.516   4.306  -6.745  1.00  0.00    -0.014 A 
ATOM     62  C   UNL     1      -7.032   3.797  -7.965  1.00  0.00     0.010 A 
ATOM     63  C   UNL     1      -7.428   5.688  -6.497  1.00  0.00     0.010 A 
ATOM     64  C   UNL     1      -6.422   4.647  -8.892  1.00  0.00     0.020 A 
ATOM     65  C   UNL     1      -6.843   6.544  -7.434  1.00  0.00     0.020 A 
ATOM     66  C   UNL     1      -6.322   6.013  -8.616  1.00  0.00     0.054 A 
BRANCH  66  67
ATOM     67  S   UNL     1      -5.513   7.095  -9.827  1.00  0.00     0.124 S 
ATOM     68  O   UNL     1      -4.103   6.779  -9.616  1.00  0.00    -0.237 OA
ATOM     69  O   UNL     1      -6.076   6.637 -11.095  1.00  0.00    -0.237 OA
ATOM     70  O   UNL     1      -5.919   8.437  -9.418  1.00  0.00    -0.744 OA
ENDBRANCH  66  67
ENDBRANCH  47  61
BRANCH  48  71
ATOM     71  C   UNL     1     -10.959  -1.704   0.452  1.00  0.00    -0.014 A 
ATOM     72  C   UNL     1     -11.786  -2.792   0.124  1.00  0.00     0.010 A 
ATOM     73  C   UNL     1     -10.613  -1.487   1.798  1.00  0.00     0.010 A 
ATOM     74  C   UNL     1     -12.262  -3.645   1.124  1.00  0.00     0.020 A 
ATOM     75  C   UNL     1     -11.068  -2.351   2.798  1.00  0.00     0.020 A 
ATOM     76  C   UNL     1     -11.896  -3.422   2.455  1.00  0.00     0.054 A 
BRANCH  76  77
ATOM     77  S   UNL     1     -12.466  -4.583   3.727  1.00  0.00     0.124 S 
ATOM     78  O   UNL     1     -13.871  -4.216   3.868  1.00  0.00    -0.237 OA
ATOM     79  O   UNL     1     -12.209  -5.881   3.108  1.00  0.00    -0.237 OA
ATOM     80  O   UNL     1     -11.618  -4.272   4.876  1.00  0.00    -0.744 OA
ENDBRANCH  76  77
ENDBRANCH  48  71
BRANCH  60  81
ATOM     81  C   UNL     1     -13.965   2.951  -3.784  1.00  0.00    -0.014 A 
ATOM     82  C   UNL     1     -14.609   3.780  -2.850  1.00  0.00     0.010 A 
ATOM     83  C   UNL     1     -14.660   2.553  -4.941  1.00  0.00     0.010 A 
ATOM     84  C   UNL     1     -15.936   4.172  -3.050  1.00  0.00     0.020 A 
ATOM     85  C   UNL     1     -15.978   2.963  -5.158  1.00  0.00     0.020 A 
ATOM     86  C   UNL     1     -16.614   3.756  -4.202  1.00  0.00     0.054 A 
BRANCH  86  87
ATOM     87  S   UNL     1     -18.326   4.299  -4.456  1.00  0.00     0.124 S 
ATOM     88  O   UNL     1     -19.058   3.431  -3.538  1.00  0.00    -0.237 OA
ATOM     89  O   UNL     1     -18.277   5.710  -4.082  1.00  0.00    -0.237 OA
ATOM     90  O   UNL     1     -18.561   4.045  -5.876  1.00  0.00    -0.744 OA
ENDBRANCH  86  87
ENDBRANCH  60  81
ENDBRANCH  34  35
ENDBRANCH  27  29
ENDBRANCH  26  27
ENDBRANCH  25  26
ENDBRANCH  24  25
ENDBRANCH  23  24
ENDBRANCH   1  23
TORSDOF 23
