REMARK SMILES Cc1cccc(S(=O)(=O)Nc2cc(C(=O)OCCOCCOC(=O)c3ccc(-c4c5nc(c(-c6ccc(S(=O)(=O)[O-])cc6)c6ccc([nH]6)c(-c6ccc(S(=O)(=O)[O-])cc6)c6nc(c(-c7ccc(S(=O)(=O)[O-])cc7)c7ccc4[nH]7)C=C6)C=C5)cc3)ccc2N2CCC[C@H](C[NH+]3CCCC3)C2)c1
REMARK SMILES IDX 19 1 18 2 17 3 16 4 14 5 15 6 13 7 11 8 12 9 87 10 86 11
REMARK SMILES IDX 85 12 10 13 7 15 8 16 9 17 6 18 1 19 2 20 3 21 100 22 4 23
REMARK SMILES IDX 5 24 88 25 89 26 99 27 90 28 92 29 91 30 93 31 94 32 95 33
REMARK SMILES IDX 98 34 96 36 97 37 20 38 21 39 22 40 23 41 24 42 25 43 26 44
REMARK SMILES IDX 84 45 27 46 83 47 28 48 29 49 30 50 77 51 31 52 82 53 76 54
REMARK SMILES IDX 78 55 32 56 81 57 75 58 74 59 33 61 63 62 44 63 62 64 45 65
REMARK SMILES IDX 48 66 61 67 79 68 46 69 47 70 60 72 80 73 49 74 34 75 35 76
REMARK SMILES IDX 43 77 36 78 42 79 37 80 38 81 39 82 40 83 41 84 64 85 65 86
REMARK SMILES IDX 73 87 66 88 72 89 67 90 68 91 69 92 70 93 71 94 50 95 51 96
REMARK SMILES IDX 59 97 52 98 58 99 53 100 54 101 55 102 56 103 57 104
REMARK H PARENT 10 14 94 35 78 60 48 71
REMARK Flexibility Score: inf
ROOT
ATOM      1  O   UNL     1       4.005   2.432  -4.090  1.00  0.00    -0.374 OA
ENDROOT
BRANCH   1   2
ATOM      2  C   UNL     1       2.758   2.361  -4.742  1.00  0.00     0.202 C 
BRANCH   2   3
ATOM      3  C   UNL     1       1.906   1.678  -3.744  1.00  0.00     0.261 C 
BRANCH   3   4
ATOM      4  O   UNL     1       1.965   2.417  -2.534  1.00  0.00    -0.460 OA
BRANCH   4   5
ATOM      5  C   UNL     1       3.035   2.740  -1.784  1.00  0.00     0.338 C 
ATOM      6  O   UNL     1       4.098   2.204  -1.560  1.00  0.00    -0.246 OA
BRANCH   5   7
ATOM      7  C   UNL     1       2.538   3.895  -1.045  1.00  0.00     0.062 A 
ATOM      8  C   UNL     1       0.452   4.531  -0.153  1.00  0.00     0.073 A 
ATOM      9  C   UNL     1       1.182   4.204  -1.241  1.00  0.00     0.044 A 
ATOM     10  C   UNL     1       1.138   5.101   0.928  1.00  0.00     0.061 A 
ATOM     11  C   UNL     1       2.541   4.968   1.041  1.00  0.00     0.029 A 
ATOM     12  C   UNL     1       3.247   4.280   0.085  1.00  0.00     0.018 A 
BRANCH   8  13
ATOM     13  N   UNL     1      -0.962   4.302  -0.231  1.00  0.00    -0.277 N 
ATOM     14  H   UNL     1      -1.556   5.068  -0.402  1.00  0.00     0.180 HD
BRANCH  13  15
ATOM     15  S   UNL     1      -1.670   2.717  -0.035  1.00  0.00     0.261 S 
ATOM     16  O   UNL     1      -2.755   2.691  -0.999  1.00  0.00    -0.201 OA
ATOM     17  O   UNL     1      -1.984   2.644   1.380  1.00  0.00    -0.201 OA
BRANCH  15  18
ATOM     18  C   UNL     1      -0.619   1.240  -0.410  1.00  0.00     0.088 A 
ATOM     19  C   UNL     1       3.919   0.220   1.050  1.00  0.00     0.044 C 
ATOM     20  C   UNL     1       2.663  -0.108   0.297  1.00  0.00    -0.050 A 
ATOM     21  C   UNL     1       1.656  -1.973  -0.110  1.00  0.00     0.003 A 
ATOM     22  C   UNL     1       1.358   1.455   0.167  1.00  0.00     0.025 A 
ATOM     23  C   UNL     1      -0.263  -2.237  -0.791  1.00  0.00     0.002 A 
ATOM     24  C   UNL     1      -1.570  -0.530  -0.837  1.00  0.00     0.022 A 
ENDBRANCH  15  18
ENDBRANCH  13  15
ENDBRANCH   8  13
BRANCH  10  25
ATOM     25  N   UNL     1       0.468   5.930   1.801  1.00  0.00    -0.369 N 
ATOM     26  C   UNL     1       0.925   7.316   1.809  1.00  0.00     0.116 C 
ATOM     27  C   UNL     1      -0.254   5.326   2.904  1.00  0.00     0.126 C 
ATOM     28  C   UNL     1       1.581   7.641   3.136  1.00  0.00     0.022 C 
ATOM     29  C   UNL     1       0.343   5.726   4.259  1.00  0.00     0.064 C 
ATOM     30  C   UNL     1       0.618   7.242   4.244  1.00  0.00     0.013 C 
BRANCH  29  31
ATOM     31  C   UNL     1       1.548   4.820   4.632  1.00  0.00     0.267 C 
BRANCH  31  32
ATOM     32  N   UNL     1       2.081   4.854   6.001  1.00  0.00    -0.335 N 
ATOM     33  C   UNL     1       1.103   4.543   7.041  1.00  0.00     0.262 C 
ATOM     34  C   UNL     1       2.765   6.080   6.404  1.00  0.00     0.262 C 
ATOM     35  H   UNL     1       2.775   4.110   5.931  1.00  0.00     0.348 HD
ATOM     36  C   UNL     1       0.631   5.894   7.542  1.00  0.00     0.067 C 
ATOM     37  C   UNL     1       1.872   6.764   7.439  1.00  0.00     0.067 C 
ENDBRANCH  31  32
ENDBRANCH  29  31
ENDBRANCH  10  25
ENDBRANCH   5   7
ENDBRANCH   4   5
ENDBRANCH   3   4
ENDBRANCH   2   3
ENDBRANCH   1   2
BRANCH   1  38
ATOM     38  C   UNL     1       4.782   3.583  -4.219  1.00  0.00     0.202 C 
BRANCH  38  39
ATOM     39  C   UNL     1       5.141   3.673  -5.679  1.00  0.00     0.261 C 
BRANCH  39  40
ATOM     40  O   UNL     1       5.944   2.494  -6.028  1.00  0.00    -0.460 OA
BRANCH  40  41
ATOM     41  C   UNL     1       5.312   1.355  -6.482  1.00  0.00     0.338 C 
ATOM     42  O   UNL     1       4.962   1.230  -7.646  1.00  0.00    -0.246 OA
BRANCH  41  43
ATOM     43  C   UNL     1       5.118   0.281  -5.419  1.00  0.00     0.060 A 
ATOM     44  C   UNL     1       4.134  -0.713  -5.550  1.00  0.00     0.016 A 
ATOM     45  C   UNL     1       5.673   0.441  -4.160  1.00  0.00     0.016 A 
ATOM     46  C   UNL     1       3.505  -1.278  -4.400  1.00  0.00     0.010 A 
ATOM     47  C   UNL     1       4.945  -0.008  -3.042  1.00  0.00     0.010 A 
ATOM     48  C   UNL     1       3.749  -0.763  -3.123  1.00  0.00    -0.014 A 
BRANCH  48  49
ATOM     49  C   UNL     1       3.047  -1.113  -1.783  1.00  0.00     0.031 A 
ATOM     50  C   UNL     1       4.271  -2.049  -1.022  1.00  0.00     0.074 A 
ATOM     51  C   UNL     1       1.732  -0.519  -1.044  1.00  0.00     0.049 A 
ATOM     52  N   UNL     1       4.396  -2.372   0.233  1.00  0.00    -0.248 NA
ATOM     53  C   UNL     1       5.519  -2.467  -1.729  1.00  0.00     0.031 C 
ATOM     54  C   UNL     1       1.297  -0.661   1.097  1.00  0.00     0.029 A 
ATOM     55  N   UNL     1       0.879   0.333  -1.185  1.00  0.00    -0.354 N 
ATOM     56  C   UNL     1       5.741  -2.643   0.535  1.00  0.00     0.074 A 
ATOM     57  C   UNL     1       6.397  -2.693  -0.739  1.00  0.00     0.031 C 
ATOM     58  C   UNL     1       0.586   0.199   1.837  1.00  0.00     0.029 A 
ATOM     59  C   UNL     1       0.283  -0.040   0.539  1.00  0.00     0.049 A 
ATOM     60  H   UNL     1       0.615   0.954  -1.902  1.00  0.00     0.167 HD
ATOM     61  C   UNL     1       6.165  -2.709   1.843  1.00  0.00     0.031 A 
ATOM     62  C   UNL     1      -0.408  -0.965   0.226  1.00  0.00     0.031 A 
ATOM     63  C   UNL     1       4.997  -2.705   2.747  1.00  0.00     0.049 A 
ATOM     64  C   UNL     1      -0.722  -2.227   1.474  1.00  0.00     0.074 A 
ATOM     65  C   UNL     1       4.519  -1.872   3.743  1.00  0.00     0.029 A 
ATOM     66  N   UNL     1       3.974  -3.610   2.505  1.00  0.00    -0.354 N 
ATOM     67  N   UNL     1       0.117  -2.378   2.492  1.00  0.00    -0.248 NA
ATOM     68  C   UNL     1      -1.480  -3.467   1.251  1.00  0.00     0.031 C 
ATOM     69  C   UNL     1       3.143  -2.212   3.978  1.00  0.00     0.029 A 
ATOM     70  C   UNL     1       2.815  -3.326   3.222  1.00  0.00     0.049 A 
ATOM     71  H   UNL     1       4.059  -4.374   1.889  1.00  0.00     0.167 HD
ATOM     72  C   UNL     1       0.457  -3.710   2.548  1.00  0.00     0.074 A 
ATOM     73  C   UNL     1      -0.627  -4.350   1.800  1.00  0.00     0.031 C 
ATOM     74  C   UNL     1       1.658  -4.215   3.005  1.00  0.00     0.031 A 
BRANCH  61  75
ATOM     75  C   UNL     1       7.612  -2.694   2.424  1.00  0.00    -0.014 A 
ATOM     76  C   UNL     1       7.744  -2.660   3.837  1.00  0.00     0.010 A 
ATOM     77  C   UNL     1       8.849  -2.659   1.733  1.00  0.00     0.010 A 
ATOM     78  C   UNL     1       8.971  -2.560   4.519  1.00  0.00     0.020 A 
ATOM     79  C   UNL     1      10.109  -2.582   2.413  1.00  0.00     0.020 A 
ATOM     80  C   UNL     1      10.158  -2.519   3.807  1.00  0.00     0.054 A 
BRANCH  80  81
ATOM     81  S   UNL     1      11.714  -2.395   4.752  1.00  0.00     0.124 S 
ATOM     82  O   UNL     1      11.577  -1.102   5.421  1.00  0.00    -0.237 OA
ATOM     83  O   UNL     1      11.649  -3.558   5.633  1.00  0.00    -0.237 OA
ATOM     84  O   UNL     1      12.755  -2.452   3.729  1.00  0.00    -0.744 OA
ENDBRANCH  80  81
ENDBRANCH  61  75
BRANCH  62  85
ATOM     85  C   UNL     1      -0.300  -0.912  -1.995  1.00  0.00    -0.014 A 
ATOM     86  C   UNL     1      -1.062   0.177  -2.910  1.00  0.00     0.010 A 
ATOM     87  C   UNL     1       0.259  -1.858  -3.024  1.00  0.00     0.010 A 
ATOM     88  C   UNL     1      -1.093   0.335  -4.298  1.00  0.00     0.020 A 
ATOM     89  C   UNL     1       0.244  -1.648  -4.447  1.00  0.00     0.020 A 
ATOM     90  C   UNL     1      -0.337  -0.526  -5.047  1.00  0.00     0.054 A 
BRANCH  90  91
ATOM     91  S   UNL     1       0.145   0.047  -6.709  1.00  0.00     0.124 S 
ATOM     92  O   UNL     1      -1.046  -0.227  -7.502  1.00  0.00    -0.237 OA
ATOM     93  O   UNL     1       0.430   1.466  -6.484  1.00  0.00    -0.237 OA
ATOM     94  O   UNL     1       1.314  -0.770  -7.009  1.00  0.00    -0.744 OA
ENDBRANCH  90  91
ENDBRANCH  62  85
BRANCH  74  95
ATOM     95  C   UNL     1       1.861  -5.701   3.276  1.00  0.00    -0.014 A 
ATOM     96  C   UNL     1       0.780  -6.587   3.334  1.00  0.00     0.010 A 
ATOM     97  C   UNL     1       3.113  -6.220   3.699  1.00  0.00     0.010 A 
ATOM     98  C   UNL     1       0.917  -7.905   3.744  1.00  0.00     0.020 A 
ATOM     99  C   UNL     1       3.259  -7.530   4.171  1.00  0.00     0.020 A 
ATOM    100  C   UNL     1       2.143  -8.353   4.209  1.00  0.00     0.054 A 
BRANCH 100 101
ATOM    101  S   UNL     1       2.153  -9.939   5.059  1.00  0.00     0.124 S 
ATOM    102  O   UNL     1       1.151  -9.722   6.102  1.00  0.00    -0.237 OA
ATOM    103  O   UNL     1       1.758 -10.857   3.995  1.00  0.00    -0.237 OA
ATOM    104  O   UNL     1       3.526 -10.076   5.533  1.00  0.00    -0.744 OA
ENDBRANCH 100 101
ENDBRANCH  74  95
ENDBRANCH  48  49
ENDBRANCH  41  43
ENDBRANCH  40  41
ENDBRANCH  39  40
ENDBRANCH  38  39
ENDBRANCH   1  38
TORSDOF 23
