REMARK SMILES CC(C)CN(C)c1cc2c(cc1Cl)C=C(C(=O)OCCOCCOC(=O)c1ccc(-c3c4nc(c(-c5ccc(S(=O)(=O)[O-])cc5)c5ccc([nH]5)c(-c5ccc(S(=O)(=O)[O-])cc5)c5nc(c(-c6ccc(S(=O)(=O)[O-])cc6)c6ccc3[nH]6)C=C5)C=C4)cc1)[C@@H](C(F)(F)F)O2
REMARK SMILES IDX 21 1 20 2 19 3 18 4 16 5 17 6 15 7 7 8 8 9 12 10 9 11 11 12
REMARK SMILES IDX 13 13 10 14 92 15 14 16 87 17 5 18 6 19 4 20 2 21 1 22 3 23
REMARK SMILES IDX 88 24 89 25 90 26 91 27 22 28 23 29 24 30 25 31 26 32 27 33
REMARK SMILES IDX 28 34 86 35 29 36 85 37 30 38 31 39 32 40 79 41 33 42 84 43
REMARK SMILES IDX 78 44 80 45 34 46 83 47 77 48 76 49 35 51 65 52 46 53 64 54
REMARK SMILES IDX 47 55 50 56 63 57 81 58 48 59 49 60 62 62 82 63 51 64 36 65
REMARK SMILES IDX 37 66 45 67 38 68 44 69 39 70 40 71 41 72 42 73 43 74 66 75
REMARK SMILES IDX 67 76 75 77 68 78 74 79 69 80 70 81 71 82 72 83 73 84 52 85
REMARK SMILES IDX 53 86 61 87 54 88 60 89 55 90 56 91 57 92 58 93 59 94
REMARK H PARENT 80 50 50 61
REMARK Flexibility Score: inf
ROOT
ATOM      1  O   UNL     1       0.237   5.395   7.450  1.00  0.00    -0.374 OA
ENDROOT
BRANCH   1   2
ATOM      2  C   UNL     1      -0.720   6.439   7.601  1.00  0.00     0.202 C 
BRANCH   2   3
ATOM      3  C   UNL     1      -1.197   7.181   6.348  1.00  0.00     0.261 C 
BRANCH   3   4
ATOM      4  O   UNL     1      -1.646   6.296   5.311  1.00  0.00    -0.460 OA
BRANCH   4   5
ATOM      5  C   UNL     1      -0.795   6.224   4.262  1.00  0.00     0.338 C 
ATOM      6  O   UNL     1       0.218   6.890   4.101  1.00  0.00    -0.246 OA
BRANCH   5   7
ATOM      7  C   UNL     1      -1.167   5.125   3.356  1.00  0.00     0.087 C 
ATOM      8  C   UNL     1      -0.936   1.837  -0.436  1.00  0.00     0.059 A 
ATOM      9  C   UNL     1      -1.960   2.228   0.456  1.00  0.00     0.074 A 
ATOM     10  C   UNL     1       0.327   2.450  -0.286  1.00  0.00     0.065 A 
ATOM     11  C   UNL     1      -1.714   3.153   1.478  1.00  0.00     0.130 A 
ATOM     12  C   UNL     1       0.600   3.274   0.802  1.00  0.00     0.034 A 
ATOM     13  Cl  UNL     1       1.595   2.274  -1.451  1.00  0.00    -0.082 Cl
ATOM     14  C   UNL     1      -0.418   3.616   1.684  1.00  0.00     0.019 A 
ATOM     15  O   UNL     1      -2.767   3.557   2.260  1.00  0.00    -0.475 OA
ATOM     16  C   UNL     1      -0.127   4.519   2.773  1.00  0.00     0.027 C 
ATOM     17  C   UNL     1      -2.598   4.801   3.023  1.00  0.00     0.316 C 
BRANCH   8  18
ATOM     18  N   UNL     1      -1.162   0.869  -1.423  1.00  0.00    -0.373 N 
ATOM     19  C   UNL     1      -2.194   1.190  -2.402  1.00  0.00     0.143 C 
BRANCH  18  20
ATOM     20  C   UNL     1      -0.971  -0.549  -1.054  1.00  0.00     0.119 C 
BRANCH  20  21
ATOM     21  C   UNL     1       0.518  -0.964  -1.011  1.00  0.00     0.002 C 
ATOM     22  C   UNL     1       1.128  -0.821   0.389  1.00  0.00     0.009 C 
ATOM     23  C   UNL     1       0.718  -2.411  -1.474  1.00  0.00     0.009 C 
ENDBRANCH  20  21
ENDBRANCH  18  20
ENDBRANCH   8  18
BRANCH  17  24
ATOM     24  C   UNL     1      -3.279   5.977   2.306  1.00  0.00     0.430 C 
ATOM     25  F   UNL     1      -4.550   5.675   1.956  1.00  0.00    -0.167 F 
ATOM     26  F   UNL     1      -3.337   7.069   3.105  1.00  0.00    -0.167 F 
ATOM     27  F   UNL     1      -2.619   6.334   1.181  1.00  0.00    -0.167 F 
ENDBRANCH  17  24
ENDBRANCH   5   7
ENDBRANCH   4   5
ENDBRANCH   3   4
ENDBRANCH   2   3
ENDBRANCH   1   2
BRANCH   1  28
ATOM     28  C   UNL     1      -0.175   4.157   6.875  1.00  0.00     0.202 C 
BRANCH  28  29
ATOM     29  C   UNL     1      -1.180   3.278   7.632  1.00  0.00     0.261 C 
BRANCH  29  30
ATOM     30  O   UNL     1      -2.463   3.900   7.811  1.00  0.00    -0.460 OA
BRANCH  30  31
ATOM     31  C   UNL     1      -2.759   4.236   9.092  1.00  0.00     0.338 C 
ATOM     32  O   UNL     1      -2.064   4.052  10.082  1.00  0.00    -0.246 OA
BRANCH  31  33
ATOM     33  C   UNL     1      -3.978   5.062   9.110  1.00  0.00     0.060 A 
ATOM     34  C   UNL     1      -5.184   4.574   8.606  1.00  0.00     0.016 A 
ATOM     35  C   UNL     1      -3.911   6.336   9.690  1.00  0.00     0.016 A 
ATOM     36  C   UNL     1      -6.333   5.362   8.706  1.00  0.00     0.010 A 
ATOM     37  C   UNL     1      -5.059   7.122   9.786  1.00  0.00     0.010 A 
ATOM     38  C   UNL     1      -6.284   6.632   9.312  1.00  0.00    -0.014 A 
BRANCH  38  39
ATOM     39  C   UNL     1      -7.538   7.383   9.571  1.00  0.00     0.031 A 
ATOM     40  C   UNL     1      -7.894   8.610   8.785  1.00  0.00     0.074 A 
ATOM     41  C   UNL     1      -8.355   6.944  10.549  1.00  0.00     0.049 A 
ATOM     42  N   UNL     1      -8.980   9.335   8.857  1.00  0.00    -0.248 NA
ATOM     43  C   UNL     1      -6.914   9.091   7.798  1.00  0.00     0.031 C 
ATOM     44  C   UNL     1      -8.087   5.784  11.403  1.00  0.00     0.029 A 
ATOM     45  N   UNL     1      -9.572   7.405  10.988  1.00  0.00    -0.354 N 
ATOM     46  C   UNL     1      -8.831  10.341   7.910  1.00  0.00     0.074 A 
ATOM     47  C   UNL     1      -7.525  10.165   7.311  1.00  0.00     0.031 C 
ATOM     48  C   UNL     1      -9.119   5.609  12.242  1.00  0.00     0.029 A 
ATOM     49  C   UNL     1     -10.105   6.663  12.016  1.00  0.00     0.049 A 
ATOM     50  H   UNL     1     -10.020   8.193  10.603  1.00  0.00     0.167 HD
ATOM     51  C   UNL     1      -9.717  11.301   7.561  1.00  0.00     0.031 A 
ATOM     52  C   UNL     1     -11.256   6.807  12.705  1.00  0.00     0.031 A 
ATOM     53  C   UNL     1     -11.014  11.467   8.172  1.00  0.00     0.049 A 
ATOM     54  C   UNL     1     -12.209   7.904  12.315  1.00  0.00     0.074 A 
ATOM     55  C   UNL     1     -11.993  12.392   7.852  1.00  0.00     0.029 A 
ATOM     56  N   UNL     1     -11.514  10.705   9.218  1.00  0.00    -0.354 N 
ATOM     57  N   UNL     1     -12.088   8.791  11.357  1.00  0.00    -0.248 NA
ATOM     58  C   UNL     1     -13.461   8.011  13.078  1.00  0.00     0.031 C 
ATOM     59  C   UNL     1     -13.048  12.243   8.752  1.00  0.00     0.029 A 
ATOM     60  C   UNL     1     -12.771  11.164   9.575  1.00  0.00     0.049 A 
ATOM     61  H   UNL     1     -11.045   9.951   9.643  1.00  0.00     0.167 HD
ATOM     62  C   UNL     1     -13.254   9.548  11.389  1.00  0.00     0.074 A 
ATOM     63  C   UNL     1     -14.081   8.998  12.443  1.00  0.00     0.031 C 
ATOM     64  C   UNL     1     -13.599  10.608  10.619  1.00  0.00     0.031 A 
BRANCH  51  65
ATOM     65  C   UNL     1      -9.370  12.244   6.437  1.00  0.00    -0.014 A 
ATOM     66  C   UNL     1      -9.245  13.623   6.689  1.00  0.00     0.010 A 
ATOM     67  C   UNL     1      -9.381  11.790   5.105  1.00  0.00     0.010 A 
ATOM     68  C   UNL     1      -9.210  14.537   5.632  1.00  0.00     0.020 A 
ATOM     69  C   UNL     1      -9.316  12.699   4.045  1.00  0.00     0.020 A 
ATOM     70  C   UNL     1      -9.268  14.069   4.316  1.00  0.00     0.054 A 
BRANCH  70  71
ATOM     71  S   UNL     1      -9.337  15.275   2.963  1.00  0.00     0.124 S 
ATOM     72  O   UNL     1     -10.668  15.851   3.130  1.00  0.00    -0.237 OA
ATOM     73  O   UNL     1      -8.220  16.164   3.275  1.00  0.00    -0.237 OA
ATOM     74  O   UNL     1      -9.156  14.458   1.765  1.00  0.00    -0.744 OA
ENDBRANCH  70  71
ENDBRANCH  51  65
BRANCH  52  75
ATOM     75  C   UNL     1     -11.563   5.861  13.816  1.00  0.00    -0.014 A 
ATOM     76  C   UNL     1     -10.745   5.829  14.963  1.00  0.00     0.010 A 
ATOM     77  C   UNL     1     -12.623   4.943  13.713  1.00  0.00     0.010 A 
ATOM     78  C   UNL     1     -10.945   4.867  15.955  1.00  0.00     0.020 A 
ATOM     79  C   UNL     1     -12.852   4.003  14.725  1.00  0.00     0.020 A 
ATOM     80  C   UNL     1     -11.992   3.953  15.824  1.00  0.00     0.054 A 
BRANCH  80  81
ATOM     81  S   UNL     1     -12.207   2.690  17.109  1.00  0.00     0.124 S 
ATOM     82  O   UNL     1     -11.105   1.777  16.817  1.00  0.00    -0.237 OA
ATOM     83  O   UNL     1     -12.074   3.464  18.340  1.00  0.00    -0.237 OA
ATOM     84  O   UNL     1     -13.543   2.161  16.849  1.00  0.00    -0.744 OA
ENDBRANCH  80  81
ENDBRANCH  52  75
BRANCH  64  85
ATOM     85  C   UNL     1     -14.933  11.272  10.861  1.00  0.00    -0.014 A 
ATOM     86  C   UNL     1     -15.911  11.265   9.847  1.00  0.00     0.010 A 
ATOM     87  C   UNL     1     -15.159  12.035  12.020  1.00  0.00     0.010 A 
ATOM     88  C   UNL     1     -17.063  12.048   9.964  1.00  0.00     0.020 A 
ATOM     89  C   UNL     1     -16.328  12.790  12.157  1.00  0.00     0.020 A 
ATOM     90  C   UNL     1     -17.257  12.816  11.114  1.00  0.00     0.054 A 
BRANCH  90  91
ATOM     91  S   UNL     1     -18.728  13.872  11.221  1.00  0.00     0.124 S 
ATOM     92  O   UNL     1     -18.409  14.942  10.280  1.00  0.00    -0.237 OA
ATOM     93  O   UNL     1     -19.800  12.969  10.808  1.00  0.00    -0.237 OA
ATOM     94  O   UNL     1     -18.766  14.269  12.627  1.00  0.00    -0.744 OA
ENDBRANCH  90  91
ENDBRANCH  64  85
ENDBRANCH  38  39
ENDBRANCH  31  33
ENDBRANCH  30  31
ENDBRANCH  29  30
ENDBRANCH  28  29
ENDBRANCH   1  28
TORSDOF 21
