REMARK SMILES O=C(OCCOCCOC(=O)[C@@H]1CC2(CC[NH2+]CC2)C[N@@H+]1Cc1cccc2nonc12)c1ccc(-c2c3nc(c(-c4ccc(S(=O)(=O)[O-])cc4)c4ccc([nH]4)c(-c4ccc(S(=O)(=O)[O-])cc4)c4nc(c(-c5ccc(S(=O)(=O)[O-])cc5)c5ccc2[nH]5)C=C4)C=C3)cc1
REMARK SMILES IDX 5 1 4 2 3 3 2 4 1 5 32 6 33 7 91 8 34 9 90 10 35 11 36 12
REMARK SMILES IDX 37 13 84 14 38 15 89 16 83 17 85 18 39 19 88 20 82 21 81 22
REMARK SMILES IDX 40 24 70 25 51 26 69 27 52 28 55 29 68 30 86 31 53 32 54 33
REMARK SMILES IDX 67 35 87 36 56 37 41 38 42 39 50 40 43 41 49 42 44 43 45 44
REMARK SMILES IDX 46 45 47 46 48 47 71 48 72 49 80 50 73 51 79 52 74 53 75 54
REMARK SMILES IDX 76 55 77 56 78 57 57 58 58 59 66 60 59 61 65 62 60 63 61 64
REMARK SMILES IDX 62 65 63 66 64 67 6 68 7 69 8 70 9 71 10 72 11 73 12 74
REMARK SMILES IDX 13 75 21 76 14 77 20 78 15 80 19 81 16 82 18 83 17 84 22 87
REMARK SMILES IDX 23 88 24 89 31 90 25 91 27 92 30 93 26 94 28 95 29 96
REMARK H PARENT 85 23 55 34 21 79 17 85 17 86
REMARK Flexibility Score: inf
ROOT
ATOM      1  C   UNL     1       4.614   0.410   0.081  1.00  0.00     0.202 C 
ENDROOT
BRANCH   1   2
ATOM      2  C   UNL     1       4.077  -0.810  -0.668  1.00  0.00     0.261 C 
BRANCH   2   3
ATOM      3  O   UNL     1       2.705  -1.123  -0.400  1.00  0.00    -0.460 OA
BRANCH   3   4
ATOM      4  C   UNL     1       2.387  -2.227   0.333  1.00  0.00     0.338 C 
ATOM      5  O   UNL     1       1.633  -3.087  -0.105  1.00  0.00    -0.246 OA
BRANCH   4   6
ATOM      6  C   UNL     1       2.682  -2.141   1.793  1.00  0.00     0.060 A 
ATOM      7  C   UNL     1       1.632  -2.290   2.708  1.00  0.00     0.016 A 
ATOM      8  C   UNL     1       3.950  -1.853   2.281  1.00  0.00     0.016 A 
ATOM      9  C   UNL     1       1.844  -2.070   4.082  1.00  0.00     0.010 A 
ATOM     10  C   UNL     1       4.132  -1.532   3.626  1.00  0.00     0.010 A 
ATOM     11  C   UNL     1       3.096  -1.648   4.561  1.00  0.00    -0.014 A 
BRANCH  11  12
ATOM     12  C   UNL     1       3.391  -1.503   6.021  1.00  0.00     0.031 A 
ATOM     13  C   UNL     1       4.852  -1.304   6.391  1.00  0.00     0.074 A 
ATOM     14  C   UNL     1       2.439  -1.082   6.884  1.00  0.00     0.049 A 
ATOM     15  N   UNL     1       5.492  -0.176   6.552  1.00  0.00    -0.248 NA
ATOM     16  C   UNL     1       5.745  -2.470   6.303  1.00  0.00     0.031 C 
ATOM     17  C   UNL     1       1.884   0.274   6.865  1.00  0.00     0.029 A 
ATOM     18  N   UNL     1       2.092  -1.579   8.128  1.00  0.00    -0.354 N 
ATOM     19  C   UNL     1       6.859  -0.474   6.569  1.00  0.00     0.074 A 
ATOM     20  C   UNL     1       6.956  -1.903   6.363  1.00  0.00     0.031 C 
ATOM     21  C   UNL     1       1.376   0.552   8.083  1.00  0.00     0.029 A 
ATOM     22  C   UNL     1       1.514  -0.616   8.957  1.00  0.00     0.049 A 
ATOM     23  H   UNL     1       2.236  -2.514   8.400  1.00  0.00     0.167 HD
ATOM     24  C   UNL     1       7.870   0.420   6.780  1.00  0.00     0.031 A 
ATOM     25  C   UNL     1       1.657  -0.578  10.317  1.00  0.00     0.031 A 
ATOM     26  C   UNL     1       7.484   1.742   7.169  1.00  0.00     0.049 A 
ATOM     27  C   UNL     1       2.942   0.200  10.434  1.00  0.00     0.074 A 
ATOM     28  C   UNL     1       7.607   3.054   6.763  1.00  0.00     0.029 A 
ATOM     29  N   UNL     1       6.975   1.887   8.434  1.00  0.00    -0.354 N 
ATOM     30  N   UNL     1       3.100   1.490  10.327  1.00  0.00    -0.248 NA
ATOM     31  C   UNL     1       4.167  -0.587  10.278  1.00  0.00     0.031 C 
ATOM     32  C   UNL     1       6.603   3.768   7.503  1.00  0.00     0.029 A 
ATOM     33  C   UNL     1       6.029   2.868   8.397  1.00  0.00     0.049 A 
ATOM     34  H   UNL     1       7.246   1.372   9.229  1.00  0.00     0.167 HD
ATOM     35  C   UNL     1       4.377   1.659   9.789  1.00  0.00     0.074 A 
ATOM     36  C   UNL     1       4.980   0.339   9.800  1.00  0.00     0.031 C 
ATOM     37  C   UNL     1       4.816   2.801   9.184  1.00  0.00     0.031 A 
BRANCH  24  38
ATOM     38  C   UNL     1       9.308   0.044   6.884  1.00  0.00    -0.014 A 
ATOM     39  C   UNL     1      10.134  -0.190   5.773  1.00  0.00     0.010 A 
ATOM     40  C   UNL     1       9.891   0.090   8.165  1.00  0.00     0.010 A 
ATOM     41  C   UNL     1      11.519  -0.351   5.949  1.00  0.00     0.020 A 
ATOM     42  C   UNL     1      11.264  -0.060   8.344  1.00  0.00     0.020 A 
ATOM     43  C   UNL     1      12.074  -0.275   7.234  1.00  0.00     0.054 A 
BRANCH  43  44
ATOM     44  S   UNL     1      13.872  -0.412   7.445  1.00  0.00     0.124 S 
ATOM     45  O   UNL     1      14.124  -1.788   7.026  1.00  0.00    -0.237 OA
ATOM     46  O   UNL     1      14.375   0.624   6.547  1.00  0.00    -0.237 OA
ATOM     47  O   UNL     1      14.076  -0.149   8.868  1.00  0.00    -0.744 OA
ENDBRANCH  43  44
ENDBRANCH  24  38
BRANCH  25  48
ATOM     48  C   UNL     1       1.422  -1.856  11.070  1.00  0.00    -0.014 A 
ATOM     49  C   UNL     1       2.356  -2.482  11.916  1.00  0.00     0.010 A 
ATOM     50  C   UNL     1       0.190  -2.511  10.867  1.00  0.00     0.010 A 
ATOM     51  C   UNL     1       2.171  -3.805  12.335  1.00  0.00     0.020 A 
ATOM     52  C   UNL     1      -0.022  -3.817  11.318  1.00  0.00     0.020 A 
ATOM     53  C   UNL     1       1.004  -4.481  11.984  1.00  0.00     0.054 A 
BRANCH  53  54
ATOM     54  S   UNL     1       0.893  -6.260  12.311  1.00  0.00     0.124 S 
ATOM     55  O   UNL     1       1.921  -6.787  11.418  1.00  0.00    -0.237 OA
ATOM     56  O   UNL     1       1.192  -6.342  13.738  1.00  0.00    -0.237 OA
ATOM     57  O   UNL     1      -0.481  -6.593  11.942  1.00  0.00    -0.744 OA
ENDBRANCH  53  54
ENDBRANCH  25  48
BRANCH  37  58
ATOM     58  C   UNL     1       3.890   3.977   9.173  1.00  0.00    -0.014 A 
ATOM     59  C   UNL     1       3.385   4.461   7.953  1.00  0.00     0.010 A 
ATOM     60  C   UNL     1       3.607   4.682  10.349  1.00  0.00     0.010 A 
ATOM     61  C   UNL     1       2.701   5.675   7.886  1.00  0.00     0.020 A 
ATOM     62  C   UNL     1       2.907   5.891  10.295  1.00  0.00     0.020 A 
ATOM     63  C   UNL     1       2.493   6.399   9.060  1.00  0.00     0.054 A 
BRANCH  63  64
ATOM     64  S   UNL     1       1.744   8.045   8.942  1.00  0.00     0.124 S 
ATOM     65  O   UNL     1       2.736   8.783   8.162  1.00  0.00    -0.237 OA
ATOM     66  O   UNL     1       0.481   7.779   8.258  1.00  0.00    -0.237 OA
ATOM     67  O   UNL     1       1.615   8.472  10.334  1.00  0.00    -0.744 OA
ENDBRANCH  63  64
ENDBRANCH  37  58
ENDBRANCH  11  12
ENDBRANCH   4   6
ENDBRANCH   3   4
ENDBRANCH   2   3
ENDBRANCH   1   2
BRANCH   1  68
ATOM     68  O   UNL     1       4.023   0.721   1.326  1.00  0.00    -0.374 OA
BRANCH  68  69
ATOM     69  C   UNL     1       2.689   1.198   1.392  1.00  0.00     0.202 C 
BRANCH  69  70
ATOM     70  C   UNL     1       2.274   2.526   0.740  1.00  0.00     0.261 C 
BRANCH  70  71
ATOM     71  O   UNL     1       3.118   3.159  -0.224  1.00  0.00    -0.459 OA
BRANCH  71  72
ATOM     72  C   UNL     1       4.294   3.588   0.301  1.00  0.00     0.365 C 
ATOM     73  O   UNL     1       4.809   3.094   1.291  1.00  0.00    -0.245 OA
BRANCH  72  74
ATOM     74  C   UNL     1       4.923   4.699  -0.507  1.00  0.00     0.296 C 
ATOM     75  C   UNL     1       6.068   4.121  -1.350  1.00  0.00     0.091 C 
ATOM     76  N   UNL     1       5.554   5.749   0.305  1.00  0.00    -0.319 N 
ATOM     77  C   UNL     1       7.370   4.420  -0.571  1.00  0.00     0.036 C 
ATOM     78  C   UNL     1       7.002   5.694   0.221  1.00  0.00     0.270 C 
ATOM     79  H   UNL     1       5.264   6.609  -0.161  1.00  0.00     0.349 HD
ATOM     80  C   UNL     1       8.552   4.695  -1.524  1.00  0.00     0.074 C 
ATOM     81  C   UNL     1       7.809   3.264   0.370  1.00  0.00     0.074 C 
ATOM     82  C   UNL     1       9.056   3.430  -2.219  1.00  0.00     0.261 C 
ATOM     83  C   UNL     1       8.362   2.046  -0.373  1.00  0.00     0.261 C 
ATOM     84  N   UNL     1       9.467   2.405  -1.263  1.00  0.00    -0.346 N 
ATOM     85  H   UNL     1      10.243   2.761  -0.705  1.00  0.00     0.346 HD
ATOM     86  H   UNL     1       9.751   1.573  -1.780  1.00  0.00     0.346 HD
BRANCH  76  87
ATOM     87  C   UNL     1       4.903   6.307   1.502  1.00  0.00     0.302 C 
BRANCH  87  88
ATOM     88  C   UNL     1       4.784   5.403   2.706  1.00  0.00     0.038 A 
ATOM     89  C   UNL     1       5.900   4.735   3.269  1.00  0.00     0.012 A 
ATOM     90  C   UNL     1       3.555   4.965   3.271  1.00  0.00     0.144 A 
ATOM     91  C   UNL     1       5.794   3.593   4.103  1.00  0.00     0.003 A 
ATOM     92  C   UNL     1       3.464   3.823   4.184  1.00  0.00     0.135 A 
ATOM     93  N   UNL     1       2.308   5.404   3.042  1.00  0.00    -0.049 NA
ATOM     94  C   UNL     1       4.582   3.082   4.586  1.00  0.00     0.034 A 
ATOM     95  N   UNL     1       2.173   3.618   4.476  1.00  0.00    -0.050 NA
ATOM     96  O   UNL     1       1.479   4.628   3.836  1.00  0.00    -0.243 OA
ENDBRANCH  87  88
ENDBRANCH  76  87
ENDBRANCH  72  74
ENDBRANCH  71  72
ENDBRANCH  70  71
ENDBRANCH  69  70
ENDBRANCH  68  69
ENDBRANCH   1  68
TORSDOF 19
