REMARK SMILES Cc1cccc([C@@H](CCC[C@@H]2CCCO2)C(=O)OCCOCCOC(=O)c2ccc(-c3c4nc(c(-c5ccc(S(=O)(=O)[O-])cc5)c5ccc([nH]5)c(-c5ccc(S(=O)(=O)[O-])cc5)c5nc(c(-c6ccc(S(=O)(=O)[O-])cc6)c6ccc3[nH]6)C=C5)C=C4)cc2)c1
REMARK SMILES IDX 20 1 19 2 18 3 16 4 17 5 7 6 6 7 1 8 2 9 3 10 87 11 4 12
REMARK SMILES IDX 5 13 8 14 9 15 10 16 11 17 12 18 15 19 13 20 14 21 21 22
REMARK SMILES IDX 22 23 23 24 24 25 25 26 26 27 27 28 28 29 86 30 29 31 85 32
REMARK SMILES IDX 30 33 31 34 32 35 79 36 33 37 84 38 78 39 80 40 34 41 83 42
REMARK SMILES IDX 77 43 76 44 35 46 65 47 46 48 64 49 47 50 50 51 63 52 81 53
REMARK SMILES IDX 48 54 49 55 62 57 82 58 51 59 36 60 37 61 45 62 38 63 44 64
REMARK SMILES IDX 39 65 40 66 41 67 42 68 43 69 66 70 67 71 75 72 68 73 74 74
REMARK SMILES IDX 69 75 70 76 71 77 72 78 73 79 52 80 53 81 61 82 54 83 60 84
REMARK SMILES IDX 55 85 56 86 57 87 58 88 59 89
REMARK H PARENT 80 45 50 56
REMARK Flexibility Score: inf
ROOT
ATOM      1  C   UNL     1      -2.428   0.626   2.662  1.00  0.00     0.202 C 
ENDROOT
BRANCH   1   2
ATOM      2  C   UNL     1      -3.244   1.211   1.537  1.00  0.00     0.261 C 
BRANCH   2   3
ATOM      3  O   UNL     1      -2.344   1.605   0.510  1.00  0.00    -0.463 OA
BRANCH   3   4
ATOM      4  C   UNL     1      -1.564   2.705   0.561  1.00  0.00     0.313 C 
ATOM      5  O   UNL     1      -1.641   3.642   1.358  1.00  0.00    -0.252 OA
BRANCH   4   6
ATOM      6  C   UNL     1      -0.516   2.560  -0.539  1.00  0.00     0.129 C 
BRANCH   6   7
ATOM      7  C   UNL     1       0.075   1.140  -0.556  1.00  0.00    -0.034 A 
ATOM      8  C   UNL     1       3.466  -0.434   0.043  1.00  0.00     0.044 C 
ATOM      9  C   UNL     1       1.991  -0.283  -0.135  1.00  0.00    -0.051 A 
ATOM     10  C   UNL     1       1.160  -1.411  -0.116  1.00  0.00     0.003 A 
ATOM     11  C   UNL     1       1.442   0.987  -0.332  1.00  0.00     0.008 A 
ATOM     12  C   UNL     1      -0.194  -1.282  -0.381  1.00  0.00     0.001 A 
ATOM     13  C   UNL     1      -0.712  -0.025  -0.667  1.00  0.00     0.004 A 
ENDBRANCH   6   7
BRANCH   6  14
ATOM     14  C   UNL     1      -0.937   3.036  -1.934  1.00  0.00     0.020 C 
BRANCH  14  15
ATOM     15  C   UNL     1      -2.265   2.539  -2.485  1.00  0.00     0.004 C 
BRANCH  15  16
ATOM     16  C   UNL     1      -3.515   2.989  -1.770  1.00  0.00     0.032 C 
BRANCH  16  17
ATOM     17  C   UNL     1      -3.670   4.443  -1.368  1.00  0.00     0.118 C 
ATOM     18  C   UNL     1      -4.180   5.298  -2.498  1.00  0.00     0.034 C 
ATOM     19  O   UNL     1      -2.588   5.235  -0.875  1.00  0.00    -0.378 OA
ATOM     20  C   UNL     1      -4.313   6.593  -1.752  1.00  0.00     0.031 C 
ATOM     21  C   UNL     1      -3.178   6.556  -0.741  1.00  0.00     0.160 C 
ENDBRANCH  16  17
ENDBRANCH  15  16
ENDBRANCH  14  15
ENDBRANCH   6  14
ENDBRANCH   4   6
ENDBRANCH   3   4
ENDBRANCH   2   3
ENDBRANCH   1   2
BRANCH   1  22
ATOM     22  O   UNL     1      -1.809   1.755   3.270  1.00  0.00    -0.374 OA
BRANCH  22  23
ATOM     23  C   UNL     1      -0.589   1.542   3.935  1.00  0.00     0.202 C 
BRANCH  23  24
ATOM     24  C   UNL     1      -0.779   0.663   5.167  1.00  0.00     0.261 C 
BRANCH  24  25
ATOM     25  O   UNL     1      -1.728   1.288   6.065  1.00  0.00    -0.460 OA
BRANCH  25  26
ATOM     26  C   UNL     1      -2.959   0.693   6.117  1.00  0.00     0.338 C 
ATOM     27  O   UNL     1      -3.154  -0.410   6.591  1.00  0.00    -0.246 OA
BRANCH  26  28
ATOM     28  C   UNL     1      -3.999   1.548   5.451  1.00  0.00     0.060 A 
ATOM     29  C   UNL     1      -5.215   0.994   5.002  1.00  0.00     0.016 A 
ATOM     30  C   UNL     1      -3.637   2.815   5.016  1.00  0.00     0.016 A 
ATOM     31  C   UNL     1      -5.993   1.646   4.016  1.00  0.00     0.010 A 
ATOM     32  C   UNL     1      -4.332   3.380   3.962  1.00  0.00     0.010 A 
ATOM     33  C   UNL     1      -5.523   2.827   3.447  1.00  0.00    -0.014 A 
BRANCH  33  34
ATOM     34  C   UNL     1      -6.103   3.614   2.329  1.00  0.00     0.031 A 
ATOM     35  C   UNL     1      -6.225   5.100   2.595  1.00  0.00     0.074 A 
ATOM     36  C   UNL     1      -6.262   3.154   1.057  1.00  0.00     0.049 A 
ATOM     37  N   UNL     1      -6.346   6.023   1.706  1.00  0.00    -0.248 NA
ATOM     38  C   UNL     1      -6.122   5.676   3.939  1.00  0.00     0.031 C 
ATOM     39  C   UNL     1      -6.475   4.010  -0.111  1.00  0.00     0.029 A 
ATOM     40  N   UNL     1      -6.244   1.887   0.474  1.00  0.00    -0.354 N 
ATOM     41  C   UNL     1      -6.292   7.260   2.299  1.00  0.00     0.074 A 
ATOM     42  C   UNL     1      -6.014   6.986   3.683  1.00  0.00     0.031 C 
ATOM     43  C   UNL     1      -6.608   3.292  -1.227  1.00  0.00     0.029 A 
ATOM     44  C   UNL     1      -6.838   1.949  -0.794  1.00  0.00     0.049 A 
ATOM     45  H   UNL     1      -5.872   1.075   0.888  1.00  0.00     0.167 HD
ATOM     46  C   UNL     1      -6.515   8.371   1.539  1.00  0.00     0.031 A 
ATOM     47  C   UNL     1      -7.956   1.291  -1.210  1.00  0.00     0.031 A 
ATOM     48  C   UNL     1      -7.128   8.011   0.235  1.00  0.00     0.049 A 
ATOM     49  C   UNL     1      -9.006   2.383  -1.508  1.00  0.00     0.074 A 
ATOM     50  C   UNL     1      -6.901   8.320  -1.094  1.00  0.00     0.029 A 
ATOM     51  N   UNL     1      -8.164   7.056   0.212  1.00  0.00    -0.354 N 
ATOM     52  N   UNL     1      -9.173   3.466  -0.762  1.00  0.00    -0.248 NA
ATOM     53  C   UNL     1      -9.576   2.536  -2.853  1.00  0.00     0.031 C 
ATOM     54  C   UNL     1      -7.677   7.429  -1.899  1.00  0.00     0.029 A 
ATOM     55  C   UNL     1      -8.450   6.620  -1.070  1.00  0.00     0.049 A 
ATOM     56  H   UNL     1      -8.631   6.735   1.017  1.00  0.00     0.167 HD
ATOM     57  C   UNL     1      -9.667   4.480  -1.565  1.00  0.00     0.074 A 
ATOM     58  C   UNL     1      -9.933   3.832  -2.849  1.00  0.00     0.031 C 
ATOM     59  C   UNL     1      -9.652   5.838  -1.358  1.00  0.00     0.031 A 
BRANCH  46  60
ATOM     60  C   UNL     1      -6.141   9.802   1.943  1.00  0.00    -0.014 A 
ATOM     61  C   UNL     1      -6.104  10.808   0.953  1.00  0.00     0.010 A 
ATOM     62  C   UNL     1      -5.770  10.236   3.235  1.00  0.00     0.010 A 
ATOM     63  C   UNL     1      -5.705  12.130   1.209  1.00  0.00     0.020 A 
ATOM     64  C   UNL     1      -5.379  11.568   3.516  1.00  0.00     0.020 A 
ATOM     65  C   UNL     1      -5.343  12.508   2.494  1.00  0.00     0.054 A 
BRANCH  65  66
ATOM     66  S   UNL     1      -4.864  14.233   2.787  1.00  0.00     0.124 S 
ATOM     67  O   UNL     1      -3.648  14.360   1.988  1.00  0.00    -0.237 OA
ATOM     68  O   UNL     1      -6.021  14.971   2.287  1.00  0.00    -0.237 OA
ATOM     69  O   UNL     1      -4.666  14.300   4.233  1.00  0.00    -0.744 OA
ENDBRANCH  65  66
ENDBRANCH  46  60
BRANCH  47  70
ATOM     70  C   UNL     1      -8.019  -0.097  -0.667  1.00  0.00    -0.014 A 
ATOM     71  C   UNL     1      -7.085  -0.991  -1.260  1.00  0.00     0.010 A 
ATOM     72  C   UNL     1      -8.345  -0.283   0.687  1.00  0.00     0.010 A 
ATOM     73  C   UNL     1      -6.280  -1.817  -0.465  1.00  0.00     0.020 A 
ATOM     74  C   UNL     1      -7.537  -1.114   1.486  1.00  0.00     0.020 A 
ATOM     75  C   UNL     1      -6.463  -1.814   0.916  1.00  0.00     0.054 A 
BRANCH  75  76
ATOM     76  S   UNL     1      -5.117  -2.452   1.976  1.00  0.00     0.124 S 
ATOM     77  O   UNL     1      -5.398  -3.881   2.011  1.00  0.00    -0.237 OA
ATOM     78  O   UNL     1      -3.911  -2.064   1.245  1.00  0.00    -0.237 OA
ATOM     79  O   UNL     1      -5.321  -1.726   3.226  1.00  0.00    -0.744 OA
ENDBRANCH  75  76
ENDBRANCH  47  70
BRANCH  59  80
ATOM     80  C   UNL     1     -10.896   6.648  -1.627  1.00  0.00    -0.014 A 
ATOM     81  C   UNL     1     -12.086   6.081  -2.093  1.00  0.00     0.010 A 
ATOM     82  C   UNL     1     -10.919   8.021  -1.268  1.00  0.00     0.010 A 
ATOM     83  C   UNL     1     -13.231   6.858  -2.244  1.00  0.00     0.020 A 
ATOM     84  C   UNL     1     -12.064   8.799  -1.389  1.00  0.00     0.020 A 
ATOM     85  C   UNL     1     -13.211   8.209  -1.894  1.00  0.00     0.054 A 
BRANCH  85  86
ATOM     86  S   UNL     1     -14.730   9.161  -2.063  1.00  0.00     0.124 S 
ATOM     87  O   UNL     1     -14.835   9.295  -3.513  1.00  0.00    -0.237 OA
ATOM     88  O   UNL     1     -15.718   8.284  -1.439  1.00  0.00    -0.237 OA
ATOM     89  O   UNL     1     -14.452  10.396  -1.336  1.00  0.00    -0.744 OA
ENDBRANCH  85  86
ENDBRANCH  59  80
ENDBRANCH  33  34
ENDBRANCH  26  28
ENDBRANCH  25  26
ENDBRANCH  24  25
ENDBRANCH  23  24
ENDBRANCH  22  23
ENDBRANCH   1  22
TORSDOF 22
