REMARK SMILES O=C(OCCOCCOC(=O)c1cn(-c2cc(Cl)ncn2)cn1)c1ccc(-c2c3nc(c(-c4ccc(S(=O)(=O)[O-])cc4)c4ccc([nH]4)c(-c4ccc(S(=O)(=O)[O-])cc4)c4nc(c(-c5ccc(S(=O)(=O)[O-])cc5)c5ccc2[nH]5)C=C4)C=C3)cc1
REMARK SMILES IDX 5 1 4 2 3 3 2 4 1 5 24 6 25 7 83 8 26 9 82 10 27 11 28 12
REMARK SMILES IDX 29 13 76 14 30 15 81 16 75 17 77 18 31 19 80 20 74 21 73 22
REMARK SMILES IDX 32 24 62 25 43 26 61 27 44 28 47 29 60 30 78 31 45 32 46 33
REMARK SMILES IDX 59 35 79 36 48 37 33 38 34 39 42 40 35 41 41 42 36 43 37 44
REMARK SMILES IDX 38 45 39 46 40 47 63 48 64 49 72 50 65 51 71 52 66 53 67 54
REMARK SMILES IDX 68 55 69 56 70 57 49 58 50 59 58 60 51 61 57 62 52 63 53 64
REMARK SMILES IDX 54 65 55 66 56 67 6 68 7 69 8 70 9 71 10 72 11 73 12 74
REMARK SMILES IDX 13 75 23 76 14 77 22 78 15 79 16 80 21 81 17 82 20 83 18 84
REMARK SMILES IDX 19 85
REMARK H PARENT 77 23 47 34
REMARK Flexibility Score: inf
ROOT
ATOM      1  C   UNL     1       4.590   1.276   0.251  1.00  0.00     0.202 C 
ENDROOT
BRANCH   1   2
ATOM      2  C   UNL     1       4.572   0.845  -1.212  1.00  0.00     0.261 C 
BRANCH   2   3
ATOM      3  O   UNL     1       3.260   0.713  -1.802  1.00  0.00    -0.460 OA
BRANCH   3   4
ATOM      4  C   UNL     1       2.208   0.296  -1.060  1.00  0.00     0.338 C 
ATOM      5  O   UNL     1       1.284   1.036  -0.746  1.00  0.00    -0.246 OA
BRANCH   4   6
ATOM      6  C   UNL     1       2.110  -1.180  -0.941  1.00  0.00     0.060 A 
ATOM      7  C   UNL     1       3.217  -2.015  -1.094  1.00  0.00     0.016 A 
ATOM      8  C   UNL     1       0.834  -1.740  -0.781  1.00  0.00     0.016 A 
ATOM      9  C   UNL     1       3.042  -3.366  -1.295  1.00  0.00     0.010 A 
ATOM     10  C   UNL     1       0.658  -3.109  -0.942  1.00  0.00     0.010 A 
ATOM     11  C   UNL     1       1.754  -3.895  -1.296  1.00  0.00    -0.014 A 
BRANCH  11  12
ATOM     12  C   UNL     1       1.642  -5.279  -1.733  1.00  0.00     0.031 A 
ATOM     13  C   UNL     1       2.394  -6.281  -0.933  1.00  0.00     0.074 A 
ATOM     14  C   UNL     1       0.903  -5.629  -2.801  1.00  0.00     0.049 A 
ATOM     15  N   UNL     1       3.343  -7.075  -1.315  1.00  0.00    -0.248 NA
ATOM     16  C   UNL     1       2.112  -6.325   0.508  1.00  0.00     0.031 C 
ATOM     17  C   UNL     1      -0.069  -4.810  -3.531  1.00  0.00     0.029 A 
ATOM     18  N   UNL     1       0.780  -6.853  -3.382  1.00  0.00    -0.354 N 
ATOM     19  C   UNL     1       3.660  -7.851  -0.203  1.00  0.00     0.074 A 
ATOM     20  C   UNL     1       2.968  -7.261   0.916  1.00  0.00     0.031 C 
ATOM     21  C   UNL     1      -0.862  -5.621  -4.262  1.00  0.00     0.029 A 
ATOM     22  C   UNL     1      -0.358  -6.980  -4.161  1.00  0.00     0.049 A 
ATOM     23  H   UNL     1       1.436  -7.578  -3.260  1.00  0.00     0.167 HD
ATOM     24  C   UNL     1       4.307  -9.046  -0.298  1.00  0.00     0.031 A 
ATOM     25  C   UNL     1      -0.909  -8.137  -4.598  1.00  0.00     0.031 A 
ATOM     26  C   UNL     1       4.995  -9.205  -1.548  1.00  0.00     0.049 A 
ATOM     27  C   UNL     1       0.140  -9.183  -4.555  1.00  0.00     0.074 A 
ATOM     28  C   UNL     1       6.029  -8.547  -2.183  1.00  0.00     0.029 A 
ATOM     29  N   UNL     1       4.409  -9.999  -2.504  1.00  0.00    -0.354 N 
ATOM     30  N   UNL     1       1.195  -9.181  -5.321  1.00  0.00    -0.248 NA
ATOM     31  C   UNL     1       0.231 -10.034  -3.378  1.00  0.00     0.031 C 
ATOM     32  C   UNL     1       5.723  -8.625  -3.573  1.00  0.00     0.029 A 
ATOM     33  C   UNL     1       4.535  -9.348  -3.704  1.00  0.00     0.049 A 
ATOM     34  H   UNL     1       3.979 -10.872  -2.355  1.00  0.00     0.167 HD
ATOM     35  C   UNL     1       2.215  -9.694  -4.533  1.00  0.00     0.074 A 
ATOM     36  C   UNL     1       1.538 -10.306  -3.394  1.00  0.00     0.031 C 
ATOM     37  C   UNL     1       3.519  -9.340  -4.738  1.00  0.00     0.031 A 
BRANCH  24  38
ATOM     38  C   UNL     1       3.995 -10.218   0.604  1.00  0.00    -0.014 A 
ATOM     39  C   UNL     1       4.742 -11.407   0.475  1.00  0.00     0.010 A 
ATOM     40  C   UNL     1       2.808 -10.288   1.363  1.00  0.00     0.010 A 
ATOM     41  C   UNL     1       4.274 -12.618   1.004  1.00  0.00     0.020 A 
ATOM     42  C   UNL     1       2.358 -11.478   1.934  1.00  0.00     0.020 A 
ATOM     43  C   UNL     1       3.071 -12.647   1.710  1.00  0.00     0.054 A 
BRANCH  43  44
ATOM     44  S   UNL     1       2.386 -14.233   2.247  1.00  0.00     0.124 S 
ATOM     45  O   UNL     1       2.037 -14.853   0.973  1.00  0.00    -0.237 OA
ATOM     46  O   UNL     1       3.512 -14.834   2.958  1.00  0.00    -0.237 OA
ATOM     47  O   UNL     1       1.256 -13.850   3.090  1.00  0.00    -0.744 OA
ENDBRANCH  43  44
ENDBRANCH  24  38
BRANCH  25  48
ATOM     48  C   UNL     1      -2.361  -8.426  -4.676  1.00  0.00    -0.014 A 
ATOM     49  C   UNL     1      -2.846  -9.540  -5.380  1.00  0.00     0.010 A 
ATOM     50  C   UNL     1      -3.264  -7.732  -3.840  1.00  0.00     0.010 A 
ATOM     51  C   UNL     1      -4.176  -9.967  -5.221  1.00  0.00     0.020 A 
ATOM     52  C   UNL     1      -4.590  -8.142  -3.687  1.00  0.00     0.020 A 
ATOM     53  C   UNL     1      -5.035  -9.272  -4.364  1.00  0.00     0.054 A 
BRANCH  53  54
ATOM     54  S   UNL     1      -6.701  -9.919  -4.043  1.00  0.00     0.124 S 
ATOM     55  O   UNL     1      -7.380  -9.666  -5.310  1.00  0.00    -0.237 OA
ATOM     56  O   UNL     1      -6.442 -11.322  -3.733  1.00  0.00    -0.237 OA
ATOM     57  O   UNL     1      -7.172  -9.116  -2.916  1.00  0.00    -0.744 OA
ENDBRANCH  53  54
ENDBRANCH  25  48
BRANCH  37  58
ATOM     58  C   UNL     1       3.878  -8.614  -6.015  1.00  0.00    -0.014 A 
ATOM     59  C   UNL     1       3.368  -7.342  -6.341  1.00  0.00     0.010 A 
ATOM     60  C   UNL     1       4.899  -9.154  -6.818  1.00  0.00     0.010 A 
ATOM     61  C   UNL     1       3.858  -6.636  -7.449  1.00  0.00     0.020 A 
ATOM     62  C   UNL     1       5.402  -8.447  -7.914  1.00  0.00     0.020 A 
ATOM     63  C   UNL     1       4.877  -7.192  -8.227  1.00  0.00     0.054 A 
BRANCH  63  64
ATOM     64  S   UNL     1       5.565  -6.235  -9.608  1.00  0.00     0.124 S 
ATOM     65  O   UNL     1       4.482  -6.266 -10.587  1.00  0.00    -0.237 OA
ATOM     66  O   UNL     1       5.828  -4.931  -9.002  1.00  0.00    -0.237 OA
ATOM     67  O   UNL     1       6.763  -6.983  -9.987  1.00  0.00    -0.744 OA
ENDBRANCH  63  64
ENDBRANCH  37  58
ENDBRANCH  11  12
ENDBRANCH   4   6
ENDBRANCH   3   4
ENDBRANCH   2   3
ENDBRANCH   1   2
BRANCH   1  68
ATOM     68  O   UNL     1       4.176   0.275   1.182  1.00  0.00    -0.374 OA
BRANCH  68  69
ATOM     69  C   UNL     1       3.071   0.641   2.021  1.00  0.00     0.202 C 
BRANCH  69  70
ATOM     70  C   UNL     1       3.323   1.715   3.090  1.00  0.00     0.261 C 
BRANCH  70  71
ATOM     71  O   UNL     1       3.538   3.010   2.500  1.00  0.00    -0.458 OA
BRANCH  71  72
ATOM     72  C   UNL     1       4.844   3.420   2.429  1.00  0.00     0.358 C 
ATOM     73  O   UNL     1       5.768   2.931   3.039  1.00  0.00    -0.244 OA
BRANCH  72  74
ATOM     74  C   UNL     1       5.000   4.460   1.408  1.00  0.00     0.166 A 
ATOM     75  C   UNL     1       4.479   5.735   1.432  1.00  0.00     0.130 A 
ATOM     76  N   UNL     1       5.644   4.240   0.200  1.00  0.00    -0.229 NA
ATOM     77  N   UNL     1       4.845   6.315   0.238  1.00  0.00    -0.289 N 
ATOM     78  C   UNL     1       5.470   5.341  -0.498  1.00  0.00     0.206 A 
BRANCH  77  79
ATOM     79  C   UNL     1       4.650   7.659  -0.159  1.00  0.00     0.142 A 
ATOM     80  C   UNL     1       4.559   8.628   0.815  1.00  0.00     0.088 A 
ATOM     81  N   UNL     1       4.608   7.937  -1.480  1.00  0.00    -0.219 NA
ATOM     82  C   UNL     1       4.419   9.907   0.343  1.00  0.00     0.134 A 
ATOM     83  C   UNL     1       4.402   9.221  -1.809  1.00  0.00     0.226 A 
ATOM     84  Cl  UNL     1       4.409  11.235   1.430  1.00  0.00    -0.062 Cl
ATOM     85  N   UNL     1       4.315  10.242  -0.951  1.00  0.00    -0.224 NA
ENDBRANCH  77  79
ENDBRANCH  72  74
ENDBRANCH  71  72
ENDBRANCH  70  71
ENDBRANCH  69  70
ENDBRANCH  68  69
ENDBRANCH   1  68
TORSDOF 18
