REMARK SMILES CC(C)Cc1noc(C[NH+]2CCC(CC(=O)OCCOCCOC(=O)c3ccc(-c4c5nc(c(-c6ccc(S(=O)(=O)[O-])cc6)c6ccc([nH]6)c(-c6ccc(S(=O)(=O)[O-])cc6)c6nc(c(-c7ccc(S(=O)(=O)[O-])cc7)c7ccc4[nH]7)C=C6)C=C5)cc3)CC2)n1
REMARK SMILES IDX 19 1 18 2 17 3 15 4 16 5 14 6 13 7 10 8 11 9 87 10 12 12
REMARK SMILES IDX 86 13 9 14 8 15 5 16 6 17 88 18 7 19 4 20 2 21 1 22 3 23
REMARK SMILES IDX 20 24 21 25 22 26 23 27 24 28 25 29 26 30 27 31 85 32 28 33
REMARK SMILES IDX 84 34 29 35 30 36 31 37 78 38 32 39 83 40 77 41 79 42 33 43
REMARK SMILES IDX 82 44 76 45 75 46 34 48 64 49 45 50 63 51 46 52 49 53 62 54
REMARK SMILES IDX 80 55 47 56 48 57 61 59 81 60 50 61 35 62 36 63 44 64 37 65
REMARK SMILES IDX 43 66 38 67 39 68 40 69 41 70 42 71 65 72 66 73 74 74 67 75
REMARK SMILES IDX 73 76 68 77 69 78 70 79 71 80 72 81 51 82 52 83 60 84 53 85
REMARK SMILES IDX 59 86 54 87 55 88 56 89 57 90 58 91
REMARK H PARENT 10 11 79 47 49 58
REMARK Flexibility Score: inf
ROOT
ATOM      1  C   UNL     1      -8.492   3.087   3.309  1.00  0.00     0.202 C 
ENDROOT
BRANCH   1   2
ATOM      2  C   UNL     1      -9.153   4.128   2.404  1.00  0.00     0.261 C 
BRANCH   2   3
ATOM      3  O   UNL     1      -8.282   4.497   1.320  1.00  0.00    -0.463 OA
BRANCH   3   4
ATOM      4  C   UNL     1      -7.788   5.758   1.338  1.00  0.00     0.306 C 
ATOM      5  O   UNL     1      -8.082   6.617   2.160  1.00  0.00    -0.252 OA
BRANCH   4   6
ATOM      6  C   UNL     1      -6.851   6.030   0.181  1.00  0.00     0.126 C 
BRANCH   6   7
ATOM      7  C   UNL     1      -5.802   4.960  -0.186  1.00  0.00     0.011 C 
ATOM      8  N   UNL     1      -4.479   3.533  -2.382  1.00  0.00    -0.327 N 
ATOM      9  C   UNL     1      -5.346   2.790  -1.464  1.00  0.00     0.262 C 
ATOM     10  C   UNL     1      -3.763   4.599  -1.680  1.00  0.00     0.262 C 
ATOM     11  H   UNL     1      -5.075   3.985  -3.076  1.00  0.00     0.348 HD
ATOM     12  C   UNL     1      -6.408   3.720  -0.868  1.00  0.00     0.066 C 
ATOM     13  C   UNL     1      -4.755   5.610  -1.112  1.00  0.00     0.066 C 
BRANCH   8  14
ATOM     14  C   UNL     1      -3.586   2.645  -3.158  1.00  0.00     0.364 C 
BRANCH  14  15
ATOM     15  C   UNL     1      -2.600   1.841  -2.378  1.00  0.00     0.281 A 
ATOM     16  C   UNL     1      -1.423   0.443  -1.359  1.00  0.00     0.172 A 
ATOM     17  N   UNL     1      -0.810   1.607  -1.111  1.00  0.00    -0.062 NA
ATOM     18  N   UNL     1      -2.557   0.550  -2.129  1.00  0.00    -0.191 NA
ATOM     19  O   UNL     1      -1.565   2.531  -1.819  1.00  0.00    -0.333 OA
BRANCH  16  20
ATOM     20  C   UNL     1      -0.959  -0.863  -0.812  1.00  0.00     0.084 C 
BRANCH  20  21
ATOM     21  C   UNL     1       0.571  -1.070  -0.803  1.00  0.00    -0.010 C 
ATOM     22  C   UNL     1       1.284  -0.210   0.248  1.00  0.00     0.008 C 
ATOM     23  C   UNL     1       0.892  -2.543  -0.529  1.00  0.00     0.008 C 
ENDBRANCH  20  21
ENDBRANCH  16  20
ENDBRANCH  14  15
ENDBRANCH   8  14
ENDBRANCH   6   7
ENDBRANCH   4   6
ENDBRANCH   3   4
ENDBRANCH   2   3
ENDBRANCH   1   2
BRANCH   1  24
ATOM     24  O   UNL     1      -7.423   3.558   4.131  1.00  0.00    -0.374 OA
BRANCH  24  25
ATOM     25  C   UNL     1      -6.149   3.713   3.510  1.00  0.00     0.202 C 
BRANCH  25  26
ATOM     26  C   UNL     1      -5.316   2.437   3.330  1.00  0.00     0.261 C 
BRANCH  26  27
ATOM     27  O   UNL     1      -5.891   1.545   2.359  1.00  0.00    -0.460 OA
BRANCH  27  28
ATOM     28  C   UNL     1      -6.492   0.450   2.882  1.00  0.00     0.338 C 
ATOM     29  O   UNL     1      -6.541   0.130   4.063  1.00  0.00    -0.246 OA
BRANCH  28  30
ATOM     30  C   UNL     1      -7.269  -0.245   1.839  1.00  0.00     0.060 A 
ATOM     31  C   UNL     1      -8.599  -0.582   2.133  1.00  0.00     0.016 A 
ATOM     32  C   UNL     1      -6.692  -0.626   0.627  1.00  0.00     0.016 A 
ATOM     33  C   UNL     1      -9.341  -1.351   1.239  1.00  0.00     0.010 A 
ATOM     34  C   UNL     1      -7.435  -1.405  -0.265  1.00  0.00     0.010 A 
ATOM     35  C   UNL     1      -8.747  -1.805   0.056  1.00  0.00    -0.014 A 
BRANCH  35  36
ATOM     36  C   UNL     1      -9.409  -2.851  -0.761  1.00  0.00     0.031 A 
ATOM     37  C   UNL     1      -8.941  -4.274  -0.613  1.00  0.00     0.074 A 
ATOM     38  C   UNL     1     -10.399  -2.550  -1.618  1.00  0.00     0.049 A 
ATOM     39  N   UNL     1      -9.270  -5.332  -1.306  1.00  0.00    -0.248 NA
ATOM     40  C   UNL     1      -7.967  -4.533   0.461  1.00  0.00     0.031 C 
ATOM     41  C   UNL     1     -10.998  -1.228  -1.793  1.00  0.00     0.029 A 
ATOM     42  N   UNL     1     -11.069  -3.346  -2.514  1.00  0.00    -0.354 N 
ATOM     43  C   UNL     1      -8.529  -6.378  -0.768  1.00  0.00     0.074 A 
ATOM     44  C   UNL     1      -7.716  -5.822   0.292  1.00  0.00     0.031 C 
ATOM     45  C   UNL     1     -11.941  -1.301  -2.749  1.00  0.00     0.029 A 
ATOM     46  C   UNL     1     -11.976  -2.661  -3.287  1.00  0.00     0.049 A 
ATOM     47  H   UNL     1     -10.914  -4.314  -2.596  1.00  0.00     0.167 HD
ATOM     48  C   UNL     1      -8.525  -7.685  -1.124  1.00  0.00     0.031 A 
ATOM     49  C   UNL     1     -12.724  -3.077  -4.328  1.00  0.00     0.031 A 
ATOM     50  C   UNL     1      -9.320  -8.227  -2.193  1.00  0.00     0.049 A 
ATOM     51  C   UNL     1     -12.624  -4.511  -4.784  1.00  0.00     0.074 A 
ATOM     52  C   UNL     1      -9.381  -9.533  -2.644  1.00  0.00     0.029 A 
ATOM     53  N   UNL     1     -10.191  -7.489  -2.980  1.00  0.00    -0.354 N 
ATOM     54  N   UNL     1     -11.907  -5.487  -4.280  1.00  0.00    -0.248 NA
ATOM     55  C   UNL     1     -13.432  -4.899  -5.949  1.00  0.00     0.031 C 
ATOM     56  C   UNL     1     -10.247  -9.574  -3.741  1.00  0.00     0.029 A 
ATOM     57  C   UNL     1     -10.779  -8.307  -3.927  1.00  0.00     0.049 A 
ATOM     58  H   UNL     1     -10.365  -6.525  -2.880  1.00  0.00     0.167 HD
ATOM     59  C   UNL     1     -12.214  -6.614  -5.037  1.00  0.00     0.074 A 
ATOM     60  C   UNL     1     -13.173  -6.197  -6.039  1.00  0.00     0.031 C 
ATOM     61  C   UNL     1     -11.751  -7.882  -4.904  1.00  0.00     0.031 A 
BRANCH  48  62
ATOM     62  C   UNL     1      -7.590  -8.602  -0.379  1.00  0.00    -0.014 A 
ATOM     63  C   UNL     1      -7.813  -8.934   0.970  1.00  0.00     0.010 A 
ATOM     64  C   UNL     1      -6.472  -9.142  -1.040  1.00  0.00     0.010 A 
ATOM     65  C   UNL     1      -6.904  -9.741   1.659  1.00  0.00     0.020 A 
ATOM     66  C   UNL     1      -5.578  -9.975  -0.364  1.00  0.00     0.020 A 
ATOM     67  C   UNL     1      -5.787 -10.249   0.989  1.00  0.00     0.054 A 
BRANCH  67  68
ATOM     68  S   UNL     1      -4.614 -11.281   1.910  1.00  0.00     0.124 S 
ATOM     69  O   UNL     1      -3.942 -10.294   2.751  1.00  0.00    -0.237 OA
ATOM     70  O   UNL     1      -5.490 -12.213   2.615  1.00  0.00    -0.237 OA
ATOM     71  O   UNL     1      -3.783 -11.879   0.867  1.00  0.00    -0.744 OA
ENDBRANCH  67  68
ENDBRANCH  48  62
BRANCH  49  72
ATOM     72  C   UNL     1     -13.630  -2.120  -5.020  1.00  0.00    -0.014 A 
ATOM     73  C   UNL     1     -15.025  -2.250  -4.905  1.00  0.00     0.010 A 
ATOM     74  C   UNL     1     -13.104  -1.063  -5.787  1.00  0.00     0.010 A 
ATOM     75  C   UNL     1     -15.877  -1.348  -5.549  1.00  0.00     0.020 A 
ATOM     76  C   UNL     1     -13.952  -0.143  -6.410  1.00  0.00     0.020 A 
ATOM     77  C   UNL     1     -15.335  -0.296  -6.293  1.00  0.00     0.054 A 
BRANCH  77  78
ATOM     78  S   UNL     1     -16.462   0.897  -7.067  1.00  0.00     0.124 S 
ATOM     79  O   UNL     1     -17.041   0.110  -8.150  1.00  0.00    -0.237 OA
ATOM     80  O   UNL     1     -17.367   1.230  -5.970  1.00  0.00    -0.237 OA
ATOM     81  O   UNL     1     -15.576   1.982  -7.484  1.00  0.00    -0.744 OA
ENDBRANCH  77  78
ENDBRANCH  49  72
BRANCH  61  82
ATOM     82  C   UNL     1     -12.319  -8.943  -5.810  1.00  0.00    -0.014 A 
ATOM     83  C   UNL     1     -11.940  -9.041  -7.159  1.00  0.00     0.010 A 
ATOM     84  C   UNL     1     -13.157  -9.932  -5.259  1.00  0.00     0.010 A 
ATOM     85  C   UNL     1     -12.390 -10.109  -7.942  1.00  0.00     0.020 A 
ATOM     86  C   UNL     1     -13.588 -11.013  -6.031  1.00  0.00     0.020 A 
ATOM     87  C   UNL     1     -13.203 -11.094  -7.370  1.00  0.00     0.054 A 
BRANCH  87  88
ATOM     88  S   UNL     1     -13.690 -12.520  -8.379  1.00  0.00     0.124 S 
ATOM     89  O   UNL     1     -14.668 -11.930  -9.289  1.00  0.00    -0.237 OA
ATOM     90  O   UNL     1     -12.427 -12.926  -8.991  1.00  0.00    -0.237 OA
ATOM     91  O   UNL     1     -14.236 -13.464  -7.406  1.00  0.00    -0.744 OA
ENDBRANCH  87  88
ENDBRANCH  61  82
ENDBRANCH  35  36
ENDBRANCH  28  30
ENDBRANCH  27  28
ENDBRANCH  26  27
ENDBRANCH  25  26
ENDBRANCH  24  25
ENDBRANCH   1  24
TORSDOF 22
