REMARK SMILES O=C(OCCOCCOC(=O)c1cc(N2CCN(c3ccc(F)cc3)CC2)ccc1NC(=O)C1CCCC1)c1ccc(-c2c3nc(c(-c4ccc(S(=O)(=O)[O-])cc4)c4ccc([nH]4)c(-c4ccc(S(=O)(=O)[O-])cc4)c4nc(c(-c5ccc(S(=O)(=O)[O-])cc5)c5ccc2[nH]5)C=C4)C=C3)cc1
REMARK SMILES IDX 5 1 4 2 3 3 2 4 1 5 39 6 40 7 98 8 41 9 97 10 42 11 43 12
REMARK SMILES IDX 44 13 91 14 45 15 96 16 90 17 92 18 46 19 95 20 89 21 88 22
REMARK SMILES IDX 47 24 77 25 58 26 76 27 59 28 62 29 75 30 93 31 60 32 61 33
REMARK SMILES IDX 74 35 94 36 63 37 48 38 49 39 57 40 50 41 56 42 51 43 52 44
REMARK SMILES IDX 53 45 54 46 55 47 78 48 79 49 87 50 80 51 86 52 81 53 82 54
REMARK SMILES IDX 83 55 84 56 85 57 64 58 65 59 73 60 66 61 72 62 67 63 68 64
REMARK SMILES IDX 69 65 70 66 71 67 6 68 7 69 8 70 9 71 10 72 11 73 12 74
REMARK SMILES IDX 13 75 30 76 14 77 29 78 28 79 31 80 32 81 33 83 34 84 35 85
REMARK SMILES IDX 38 86 36 87 37 88 15 89 16 90 27 91 17 92 26 93 18 94 19 95
REMARK SMILES IDX 20 96 25 97 21 98 24 99 22 100 23 101
REMARK H PARENT 92 23 62 34 31 82
REMARK Flexibility Score: inf
ROOT
ATOM      1  C   UNL     1       4.210  -0.654  -1.343  1.00  0.00     0.202 C 
ENDROOT
BRANCH   1   2
ATOM      2  C   UNL     1       3.842  -1.448  -0.088  1.00  0.00     0.261 C 
BRANCH   2   3
ATOM      3  O   UNL     1       2.464  -1.234   0.251  1.00  0.00    -0.460 OA
BRANCH   3   4
ATOM      4  C   UNL     1       1.951  -0.361   1.151  1.00  0.00     0.338 C 
ATOM      5  O   UNL     1       0.728  -0.303   1.274  1.00  0.00    -0.246 OA
BRANCH   4   6
ATOM      6  C   UNL     1       2.783   0.524   2.024  1.00  0.00     0.060 A 
ATOM      7  C   UNL     1       4.051   1.006   1.699  1.00  0.00     0.016 A 
ATOM      8  C   UNL     1       2.208   0.960   3.230  1.00  0.00     0.016 A 
ATOM      9  C   UNL     1       4.756   1.839   2.545  1.00  0.00     0.010 A 
ATOM     10  C   UNL     1       2.901   1.823   4.086  1.00  0.00     0.010 A 
ATOM     11  C   UNL     1       4.190   2.244   3.746  1.00  0.00    -0.014 A 
BRANCH  11  12
ATOM     12  C   UNL     1       5.077   2.965   4.670  1.00  0.00     0.031 A 
ATOM     13  C   UNL     1       5.713   2.181   5.775  1.00  0.00     0.074 A 
ATOM     14  C   UNL     1       5.455   4.221   4.369  1.00  0.00     0.049 A 
ATOM     15  N   UNL     1       6.575   2.570   6.672  1.00  0.00    -0.248 NA
ATOM     16  C   UNL     1       5.349   0.754   5.865  1.00  0.00     0.031 C 
ATOM     17  C   UNL     1       5.000   4.981   3.199  1.00  0.00     0.029 A 
ATOM     18  N   UNL     1       6.351   5.054   4.978  1.00  0.00    -0.354 N 
ATOM     19  C   UNL     1       6.827   1.450   7.455  1.00  0.00     0.074 A 
ATOM     20  C   UNL     1       6.035   0.364   6.927  1.00  0.00     0.031 C 
ATOM     21  C   UNL     1       5.651   6.155   3.158  1.00  0.00     0.029 A 
ATOM     22  C   UNL     1       6.511   6.257   4.330  1.00  0.00     0.049 A 
ATOM     23  H   UNL     1       6.835   4.817   5.801  1.00  0.00     0.167 HD
ATOM     24  C   UNL     1       7.639   1.353   8.531  1.00  0.00     0.031 A 
ATOM     25  C   UNL     1       7.255   7.325   4.673  1.00  0.00     0.031 A 
ATOM     26  C   UNL     1       8.402   2.463   9.030  1.00  0.00     0.049 A 
ATOM     27  C   UNL     1       8.067   7.225   5.936  1.00  0.00     0.074 A 
ATOM     28  C   UNL     1       9.201   2.530  10.154  1.00  0.00     0.029 A 
ATOM     29  N   UNL     1       8.453   3.712   8.420  1.00  0.00    -0.354 N 
ATOM     30  N   UNL     1       8.230   6.190   6.729  1.00  0.00    -0.248 NA
ATOM     31  C   UNL     1       8.786   8.431   6.358  1.00  0.00     0.031 C 
ATOM     32  C   UNL     1       9.692   3.837  10.253  1.00  0.00     0.029 A 
ATOM     33  C   UNL     1       9.255   4.564   9.154  1.00  0.00     0.049 A 
ATOM     34  H   UNL     1       7.987   3.953   7.587  1.00  0.00     0.167 HD
ATOM     35  C   UNL     1       9.088   6.613   7.735  1.00  0.00     0.074 A 
ATOM     36  C   UNL     1       9.423   7.993   7.436  1.00  0.00     0.031 C 
ATOM     37  C   UNL     1       9.559   5.931   8.810  1.00  0.00     0.031 A 
BRANCH  24  38
ATOM     38  C   UNL     1       7.638   0.046   9.275  1.00  0.00    -0.014 A 
ATOM     39  C   UNL     1       8.228  -1.116   8.744  1.00  0.00     0.010 A 
ATOM     40  C   UNL     1       6.985  -0.027  10.519  1.00  0.00     0.010 A 
ATOM     41  C   UNL     1       8.122  -2.335   9.422  1.00  0.00     0.020 A 
ATOM     42  C   UNL     1       6.899  -1.237  11.212  1.00  0.00     0.020 A 
ATOM     43  C   UNL     1       7.451  -2.389  10.648  1.00  0.00     0.054 A 
BRANCH  43  44
ATOM     44  S   UNL     1       7.316  -3.984  11.502  1.00  0.00     0.124 S 
ATOM     45  O   UNL     1       6.339  -4.687  10.674  1.00  0.00    -0.237 OA
ATOM     46  O   UNL     1       8.681  -4.499  11.437  1.00  0.00    -0.237 OA
ATOM     47  O   UNL     1       6.852  -3.623  12.840  1.00  0.00    -0.744 OA
ENDBRANCH  43  44
ENDBRANCH  24  38
BRANCH  25  48
ATOM     48  C   UNL     1       7.218   8.571   3.856  1.00  0.00    -0.014 A 
ATOM     49  C   UNL     1       8.365   9.050   3.200  1.00  0.00     0.010 A 
ATOM     50  C   UNL     1       6.017   9.299   3.736  1.00  0.00     0.010 A 
ATOM     51  C   UNL     1       8.318  10.240   2.462  1.00  0.00     0.020 A 
ATOM     52  C   UNL     1       5.957  10.469   2.975  1.00  0.00     0.020 A 
ATOM     53  C   UNL     1       7.113  10.942   2.355  1.00  0.00     0.054 A 
BRANCH  53  54
ATOM     54  S   UNL     1       7.068  12.469   1.375  1.00  0.00     0.124 S 
ATOM     55  O   UNL     1       7.804  13.398   2.227  1.00  0.00    -0.237 OA
ATOM     56  O   UNL     1       7.739  12.073   0.140  1.00  0.00    -0.237 OA
ATOM     57  O   UNL     1       5.639  12.746   1.238  1.00  0.00    -0.744 OA
ENDBRANCH  53  54
ENDBRANCH  25  48
BRANCH  37  58
ATOM     58  C   UNL     1      10.523   6.660   9.702  1.00  0.00    -0.014 A 
ATOM     59  C   UNL     1      10.092   7.686  10.560  1.00  0.00     0.010 A 
ATOM     60  C   UNL     1      11.873   6.266   9.714  1.00  0.00     0.010 A 
ATOM     61  C   UNL     1      11.009   8.335  11.389  1.00  0.00     0.020 A 
ATOM     62  C   UNL     1      12.784   6.891  10.564  1.00  0.00     0.020 A 
ATOM     63  C   UNL     1      12.349   7.933  11.385  1.00  0.00     0.054 A 
BRANCH  63  64
ATOM     64  S   UNL     1      13.512   8.764  12.498  1.00  0.00     0.124 S 
ATOM     65  O   UNL     1      13.708  10.046  11.827  1.00  0.00    -0.237 OA
ATOM     66  O   UNL     1      12.770   8.818  13.755  1.00  0.00    -0.237 OA
ATOM     67  O   UNL     1      14.675   7.879  12.505  1.00  0.00    -0.744 OA
ENDBRANCH  63  64
ENDBRANCH  37  58
ENDBRANCH  11  12
ENDBRANCH   4   6
ENDBRANCH   3   4
ENDBRANCH   2   3
ENDBRANCH   1   2
BRANCH   1  68
ATOM     68  O   UNL     1       4.007   0.752  -1.216  1.00  0.00    -0.374 OA
BRANCH  68  69
ATOM     69  C   UNL     1       2.735   1.254  -1.630  1.00  0.00     0.202 C 
BRANCH  69  70
ATOM     70  C   UNL     1       2.946   2.251  -2.768  1.00  0.00     0.261 C 
BRANCH  70  71
ATOM     71  O   UNL     1       3.579   1.554  -3.853  1.00  0.00    -0.460 OA
BRANCH  71  72
ATOM     72  C   UNL     1       4.936   1.500  -3.815  1.00  0.00     0.340 C 
ATOM     73  O   UNL     1       5.685   2.221  -3.178  1.00  0.00    -0.246 OA
BRANCH  72  74
ATOM     74  C   UNL     1       5.373   0.288  -4.554  1.00  0.00     0.085 A 
ATOM     75  C   UNL     1       6.450  -0.424  -3.982  1.00  0.00     0.043 A 
ATOM     76  C   UNL     1       4.739  -0.171  -5.729  1.00  0.00     0.055 A 
ATOM     77  C   UNL     1       6.912  -1.615  -4.537  1.00  0.00     0.038 A 
ATOM     78  C   UNL     1       5.273  -1.319  -6.316  1.00  0.00     0.029 A 
ATOM     79  C   UNL     1       6.320  -2.038  -5.721  1.00  0.00     0.028 A 
BRANCH  76  80
ATOM     80  N   UNL     1       3.606   0.532  -6.211  1.00  0.00    -0.325 N 
ATOM     81  C   UNL     1       2.734   0.420  -7.251  1.00  0.00     0.227 C 
ATOM     82  H   UNL     1       3.393   1.307  -5.643  1.00  0.00     0.169 HD
ATOM     83  O   UNL     1       1.798   1.222  -7.308  1.00  0.00    -0.274 OA
BRANCH  81  84
ATOM     84  C   UNL     1       2.910  -0.645  -8.295  1.00  0.00     0.079 C 
ATOM     85  C   UNL     1       2.378  -2.002  -7.841  1.00  0.00     0.013 C 
ATOM     86  C   UNL     1       2.106  -0.447  -9.577  1.00  0.00     0.013 C 
ATOM     87  C   UNL     1       2.476  -2.819  -9.119  1.00  0.00     0.001 C 
ATOM     88  C   UNL     1       2.182  -1.822 -10.245  1.00  0.00     0.001 C 
ENDBRANCH  81  84
ENDBRANCH  76  80
BRANCH  77  89
ATOM     89  N   UNL     1       7.953  -2.304  -3.963  1.00  0.00    -0.368 N 
ATOM     90  C   UNL     1       7.736  -3.323  -2.918  1.00  0.00     0.138 C 
ATOM     91  C   UNL     1       9.250  -2.334  -4.650  1.00  0.00     0.138 C 
ATOM     92  C   UNL     1       8.148  -4.752  -3.382  1.00  0.00     0.138 C 
ATOM     93  C   UNL     1       9.571  -3.748  -5.164  1.00  0.00     0.138 C 
ATOM     94  N   UNL     1       9.440  -4.747  -4.094  1.00  0.00    -0.368 N 
BRANCH  94  95
ATOM     95  C   UNL     1      10.550  -5.373  -3.567  1.00  0.00     0.037 A 
ATOM     96  C   UNL     1      10.542  -6.757  -3.336  1.00  0.00     0.029 A 
ATOM     97  C   UNL     1      11.733  -4.673  -3.287  1.00  0.00     0.029 A 
ATOM     98  C   UNL     1      11.684  -7.423  -2.878  1.00  0.00     0.041 A 
ATOM     99  C   UNL     1      12.873  -5.328  -2.810  1.00  0.00     0.041 A 
ATOM    100  C   UNL     1      12.841  -6.701  -2.621  1.00  0.00     0.123 A 
ATOM    101  F   UNL     1      13.939  -7.337  -2.194  1.00  0.00    -0.207 F 
ENDBRANCH  94  95
ENDBRANCH  77  89
ENDBRANCH  72  74
ENDBRANCH  71  72
ENDBRANCH  70  71
ENDBRANCH  69  70
ENDBRANCH  68  69
ENDBRANCH   1  68
TORSDOF 21
