REMARK SMILES O=C(OCCOCCOC(=O)c1cc([N+](=O)[O-])c(NCCC2=CCCCC2)c([N+](=O)[O-])c1)c1ccc(-c2c3nc(c(-c4ccc(S(=O)(=O)[O-])cc4)c4ccc([nH]4)c(-c4ccc(S(=O)(=O)[O-])cc4)c4nc(c(-c5ccc(S(=O)(=O)[O-])cc5)c5ccc2[nH]5)C=C4)C=C3)cc1
REMARK SMILES IDX 7 1 6 2 5 3 4 4 3 5 2 6 1 7 33 8 34 9 92 10 35 11 91 12
REMARK SMILES IDX 36 13 37 14 38 15 85 16 39 17 90 18 84 19 86 20 40 21 89 22
REMARK SMILES IDX 83 23 82 24 41 26 71 27 52 28 70 29 53 30 56 31 69 32 87 33
REMARK SMILES IDX 54 34 55 35 68 37 88 38 57 39 42 40 43 41 51 42 44 43 50 44
REMARK SMILES IDX 45 45 46 46 47 47 48 48 49 49 72 50 73 51 81 52 74 53 80 54
REMARK SMILES IDX 75 55 76 56 77 57 78 58 79 59 58 60 59 61 67 62 60 63 66 64
REMARK SMILES IDX 61 65 62 66 63 67 64 68 65 69 8 70 9 71 10 72 11 73 12 74
REMARK SMILES IDX 13 75 32 76 14 77 28 78 18 79 15 80 16 81 17 82 29 83 30 84
REMARK SMILES IDX 31 85 19 86 20 88 21 89 22 90 23 91 27 92 24 93 26 94 25 95
REMARK H PARENT 86 25 56 36 19 87
REMARK Flexibility Score: inf
ROOT
ATOM      1  C   UNL     1       2.688   2.133   0.641  1.00  0.00     0.202 C 
ENDROOT
BRANCH   1   2
ATOM      2  O   UNL     1       4.031   1.792   0.274  1.00  0.00    -0.374 OA
BRANCH   2   3
ATOM      3  C   UNL     1       4.239   1.434  -1.093  1.00  0.00     0.202 C 
BRANCH   3   4
ATOM      4  C   UNL     1       3.877  -0.010  -1.463  1.00  0.00     0.261 C 
BRANCH   4   5
ATOM      5  O   UNL     1       2.503  -0.290  -1.135  1.00  0.00    -0.460 OA
BRANCH   5   6
ATOM      6  C   UNL     1       2.023  -1.065  -0.132  1.00  0.00     0.338 C 
ATOM      7  O   UNL     1       0.815  -1.290  -0.085  1.00  0.00    -0.246 OA
BRANCH   6   8
ATOM      8  C   UNL     1       2.891  -1.648   0.935  1.00  0.00     0.060 A 
ATOM      9  C   UNL     1       4.101  -1.091   1.343  1.00  0.00     0.016 A 
ATOM     10  C   UNL     1       2.419  -2.775   1.629  1.00  0.00     0.016 A 
ATOM     11  C   UNL     1       4.872  -1.671   2.331  1.00  0.00     0.010 A 
ATOM     12  C   UNL     1       3.158  -3.329   2.682  1.00  0.00     0.010 A 
ATOM     13  C   UNL     1       4.399  -2.782   3.022  1.00  0.00    -0.014 A 
BRANCH  13  14
ATOM     14  C   UNL     1       5.301  -3.354   4.035  1.00  0.00     0.031 A 
ATOM     15  C   UNL     1       6.034  -4.617   3.709  1.00  0.00     0.074 A 
ATOM     16  C   UNL     1       5.601  -2.615   5.122  1.00  0.00     0.049 A 
ATOM     17  N   UNL     1       6.925  -5.255   4.415  1.00  0.00    -0.248 NA
ATOM     18  C   UNL     1       5.743  -5.233   2.402  1.00  0.00     0.031 C 
ATOM     19  C   UNL     1       5.022  -1.302   5.434  1.00  0.00     0.029 A 
ATOM     20  N   UNL     1       6.506  -2.822   6.127  1.00  0.00    -0.354 N 
ATOM     21  C   UNL     1       7.294  -6.352   3.647  1.00  0.00     0.074 A 
ATOM     22  C   UNL     1       6.519  -6.306   2.428  1.00  0.00     0.031 C 
ATOM     23  C   UNL     1       5.619  -0.805   6.528  1.00  0.00     0.029 A 
ATOM     24  C   UNL     1       6.561  -1.792   7.038  1.00  0.00     0.049 A 
ATOM     25  H   UNL     1       7.064  -3.631   6.193  1.00  0.00     0.167 HD
ATOM     26  C   UNL     1       8.202  -7.309   3.942  1.00  0.00     0.031 A 
ATOM     27  C   UNL     1       7.273  -1.681   8.175  1.00  0.00     0.031 A 
ATOM     28  C   UNL     1       8.941  -7.334   5.175  1.00  0.00     0.049 A 
ATOM     29  C   UNL     1       8.189  -2.819   8.533  1.00  0.00     0.074 A 
ATOM     30  C   UNL     1       9.812  -8.298   5.644  1.00  0.00     0.029 A 
ATOM     31  N   UNL     1       8.894  -6.329   6.134  1.00  0.00    -0.354 N 
ATOM     32  N   UNL     1       8.460  -3.903   7.842  1.00  0.00    -0.248 NA
ATOM     33  C   UNL     1       8.885  -2.730   9.821  1.00  0.00     0.031 C 
ATOM     34  C   UNL     1      10.255  -7.898   6.910  1.00  0.00     0.029 A 
ATOM     35  C   UNL     1       9.710  -6.655   7.201  1.00  0.00     0.049 A 
ATOM     36  H   UNL     1       8.358  -5.507   6.064  1.00  0.00     0.167 HD
ATOM     37  C   UNL     1       9.365  -4.624   8.609  1.00  0.00     0.074 A 
ATOM     38  C   UNL     1       9.621  -3.832   9.798  1.00  0.00     0.031 C 
ATOM     39  C   UNL     1       9.928  -5.835   8.367  1.00  0.00     0.031 A 
BRANCH  26  40
ATOM     40  C   UNL     1       8.374  -8.423   2.947  1.00  0.00    -0.014 A 
ATOM     41  C   UNL     1       9.026  -8.214   1.718  1.00  0.00     0.010 A 
ATOM     42  C   UNL     1       7.855  -9.698   3.238  1.00  0.00     0.010 A 
ATOM     43  C   UNL     1       9.123  -9.250   0.784  1.00  0.00     0.020 A 
ATOM     44  C   UNL     1       7.972 -10.743   2.317  1.00  0.00     0.020 A 
ATOM     45  C   UNL     1       8.591 -10.507   1.088  1.00  0.00     0.054 A 
BRANCH  45  46
ATOM     46  S   UNL     1       8.740 -11.836  -0.137  1.00  0.00     0.124 S 
ATOM     47  O   UNL     1       7.795 -11.406  -1.165  1.00  0.00    -0.237 OA
ATOM     48  O   UNL     1      10.149 -11.769  -0.513  1.00  0.00    -0.237 OA
ATOM     49  O   UNL     1       8.351 -13.036   0.601  1.00  0.00    -0.744 OA
ENDBRANCH  45  46
ENDBRANCH  26  40
BRANCH  27  50
ATOM     50  C   UNL     1       7.076  -0.514   9.083  1.00  0.00    -0.014 A 
ATOM     51  C   UNL     1       8.122   0.374   9.387  1.00  0.00     0.010 A 
ATOM     52  C   UNL     1       5.816  -0.301   9.679  1.00  0.00     0.010 A 
ATOM     53  C   UNL     1       7.923   1.425  10.291  1.00  0.00     0.020 A 
ATOM     54  C   UNL     1       5.602   0.767  10.553  1.00  0.00     0.020 A 
ATOM     55  C   UNL     1       6.664   1.612  10.871  1.00  0.00     0.054 A 
BRANCH  55  56
ATOM     56  S   UNL     1       6.421   2.981  12.037  1.00  0.00     0.124 S 
ATOM     57  O   UNL     1       7.126   2.499  13.221  1.00  0.00    -0.237 OA
ATOM     58  O   UNL     1       7.043   4.104  11.342  1.00  0.00    -0.237 OA
ATOM     59  O   UNL     1       4.968   3.066  12.166  1.00  0.00    -0.744 OA
ENDBRANCH  55  56
ENDBRANCH  27  50
BRANCH  39  60
ATOM     60  C   UNL     1      10.891  -6.347   9.400  1.00  0.00    -0.014 A 
ATOM     61  C   UNL     1      10.439  -6.799  10.652  1.00  0.00     0.010 A 
ATOM     62  C   UNL     1      12.262  -6.409   9.095  1.00  0.00     0.010 A 
ATOM     63  C   UNL     1      11.351  -7.265  11.600  1.00  0.00     0.020 A 
ATOM     64  C   UNL     1      13.172  -6.905  10.028  1.00  0.00     0.020 A 
ATOM     65  C   UNL     1      12.712  -7.313  11.282  1.00  0.00     0.054 A 
BRANCH  65  66
ATOM     66  S   UNL     1      13.873  -7.949  12.518  1.00  0.00     0.124 S 
ATOM     67  O   UNL     1      13.943  -6.841  13.466  1.00  0.00    -0.237 OA
ATOM     68  O   UNL     1      13.198  -9.151  13.003  1.00  0.00    -0.237 OA
ATOM     69  O   UNL     1      15.094  -8.194  11.753  1.00  0.00    -0.744 OA
ENDBRANCH  65  66
ENDBRANCH  39  60
ENDBRANCH  13  14
ENDBRANCH   6   8
ENDBRANCH   5   6
ENDBRANCH   4   5
ENDBRANCH   3   4
ENDBRANCH   2   3
ENDBRANCH   1   2
BRANCH   1  70
ATOM     70  C   UNL     1       2.699   3.417   1.476  1.00  0.00     0.261 C 
BRANCH  70  71
ATOM     71  O   UNL     1       3.252   4.471   0.670  1.00  0.00    -0.460 OA
BRANCH  71  72
ATOM     72  C   UNL     1       4.603   4.569   0.720  1.00  0.00     0.338 C 
ATOM     73  O   UNL     1       5.361   4.158   1.579  1.00  0.00    -0.246 OA
BRANCH  72  74
ATOM     74  C   UNL     1       5.053   5.044  -0.604  1.00  0.00     0.073 A 
ATOM     75  C   UNL     1       6.145   4.423  -1.198  1.00  0.00     0.104 A 
ATOM     76  C   UNL     1       4.347   6.017  -1.301  1.00  0.00     0.104 A 
ATOM     77  C   UNL     1       6.479   4.730  -2.531  1.00  0.00     0.300 A 
ATOM     78  C   UNL     1       4.714   6.331  -2.625  1.00  0.00     0.300 A 
ATOM     79  C   UNL     1       5.779   5.674  -3.315  1.00  0.00     0.192 A 
BRANCH  77  80
ATOM     80  N   UNL     1       7.604   3.985  -3.050  1.00  0.00     0.065 N 
ATOM     81  O   UNL     1       7.424   2.775  -3.251  1.00  0.00    -0.258 OA
ATOM     82  O   UNL     1       8.662   4.602  -3.229  1.00  0.00    -0.258 OA
ENDBRANCH  77  80
BRANCH  78  83
ATOM     83  N   UNL     1       3.910   7.382  -3.278  1.00  0.00     0.065 N 
ATOM     84  O   UNL     1       4.421   8.016  -4.213  1.00  0.00    -0.258 OA
ATOM     85  O   UNL     1       2.771   7.593  -2.837  1.00  0.00    -0.258 OA
ENDBRANCH  78  83
BRANCH  79  86
ATOM     86  N   UNL     1       5.950   5.901  -4.669  1.00  0.00    -0.374 N 
ATOM     87  H   UNL     1       5.372   6.610  -5.033  1.00  0.00     0.161 HD
BRANCH  86  88
ATOM     88  C   UNL     1       6.830   5.284  -5.657  1.00  0.00     0.118 C 
BRANCH  88  89
ATOM     89  C   UNL     1       6.194   5.372  -7.061  1.00  0.00     0.052 C 
BRANCH  89  90
ATOM     90  C   UNL     1       5.758   6.741  -7.552  1.00  0.00    -0.072 C 
ATOM     91  C   UNL     1       6.436   7.877  -7.303  1.00  0.00    -0.028 C 
ATOM     92  C   UNL     1       4.457   6.754  -8.327  1.00  0.00     0.031 C 
ATOM     93  C   UNL     1       5.955   9.242  -7.707  1.00  0.00     0.027 C 
ATOM     94  C   UNL     1       4.174   8.075  -9.042  1.00  0.00     0.005 C 
ATOM     95  C   UNL     1       4.491   9.263  -8.144  1.00  0.00     0.004 C 
ENDBRANCH  89  90
ENDBRANCH  88  89
ENDBRANCH  86  88
ENDBRANCH  79  86
ENDBRANCH  72  74
ENDBRANCH  71  72
ENDBRANCH  70  71
ENDBRANCH   1  70
TORSDOF 23
