REMARK SMILES CCc1cc(S(F)(F)(F)(F)F)cc2c1O[C@@H](C(F)(F)F)C(C(=O)OCCOCCOC(=O)c1ccc(-c3c4nc(c(-c5ccc(S(=O)(=O)[O-])cc5)c5ccc([nH]5)c(-c5ccc(S(=O)(=O)[O-])cc5)c5nc(c(-c6ccc(S(=O)(=O)[O-])cc6)c6ccc3[nH]6)C=C5)C=C4)cc1)=C2
REMARK SMILES IDX 28 1 27 2 26 3 25 4 24 5 22 6 23 7 21 8 3 9 4 10 14 11 5 12
REMARK SMILES IDX 13 13 15 14 12 15 93 16 16 17 2 18 1 19 6 20 7 21 8 22 9 23
REMARK SMILES IDX 10 24 11 25 17 26 18 27 19 28 20 29 29 30 30 31 31 32 32 33
REMARK SMILES IDX 33 34 34 35 92 36 35 37 91 38 36 39 37 40 38 41 85 42 39 43
REMARK SMILES IDX 90 44 84 45 86 46 40 47 89 48 83 49 82 50 41 52 71 53 52 54
REMARK SMILES IDX 70 55 53 56 56 57 69 58 87 59 54 60 55 61 68 63 88 64 57 65
REMARK SMILES IDX 42 66 43 67 51 68 44 69 50 70 45 71 46 72 47 73 48 74 49 75
REMARK SMILES IDX 72 76 73 77 81 78 74 79 80 80 75 81 76 82 77 83 78 84 79 85
REMARK SMILES IDX 58 86 59 87 67 88 60 89 66 90 61 91 62 92 63 93 64 94 65 95
REMARK H PARENT 86 51 56 62
REMARK Flexibility Score: inf
ROOT
ATOM      1  C   UNL     1      -0.801   8.139  -2.706  1.00  0.00     0.202 C 
ENDROOT
BRANCH   1   2
ATOM      2  O   UNL     1      -0.793   9.545  -2.905  1.00  0.00    -0.374 OA
BRANCH   2   3
ATOM      3  C   UNL     1      -0.105   9.848  -4.110  1.00  0.00     0.202 C 
BRANCH   3   4
ATOM      4  C   UNL     1       1.325   9.341  -4.019  1.00  0.00     0.261 C 
BRANCH   4   5
ATOM      5  O   UNL     1       1.316   7.935  -3.819  1.00  0.00    -0.460 OA
BRANCH   5   6
ATOM      6  C   UNL     1       0.683   7.384  -2.674  1.00  0.00     0.338 C 
ATOM      7  O   UNL     1       0.123   8.149  -1.827  1.00  0.00    -0.246 OA
BRANCH   6   8
ATOM      8  C   UNL     1       0.674   5.879  -2.461  1.00  0.00     0.087 C 
ATOM      9  C   UNL     1       1.041   1.818  -1.552  1.00  0.00    -0.004 A 
ATOM     10  C   UNL     1       1.461   0.929  -2.525  1.00  0.00     0.032 A 
ATOM     11  C   UNL     1       0.980   3.155  -1.863  1.00  0.00     0.131 A 
ATOM     12  C   UNL     1       1.817   1.367  -3.773  1.00  0.00     0.108 A 
ATOM     13  C   UNL     1       1.313   3.631  -3.118  1.00  0.00     0.019 A 
ATOM     14  O   UNL     1       0.670   4.037  -0.856  1.00  0.00    -0.475 OA
ATOM     15  C   UNL     1       1.736   2.711  -4.071  1.00  0.00     0.036 A 
ATOM     16  C   UNL     1       1.254   5.066  -3.336  1.00  0.00     0.027 C 
ATOM     17  C   UNL     1      -0.001   5.271  -1.238  1.00  0.00     0.316 C 
BRANCH   9  18
ATOM     18  C   UNL     1       0.534   1.338  -0.202  1.00  0.00     0.036 C 
ATOM     19  C   UNL     1       1.041  -0.071   0.057  1.00  0.00     0.009 C 
ENDBRANCH   9  18
BRANCH  12  20
ATOM     20  S   UNL     1       2.387   0.189  -5.024  1.00  0.00     0.310 S 
ATOM     21  F   UNL     1       3.874  -0.037  -4.521  1.00  0.00    -0.094 F 
ATOM     22  F   UNL     1       2.945   1.348  -5.934  1.00  0.00    -0.094 F 
ATOM     23  F   UNL     1       2.669  -0.859  -6.137  1.00  0.00    -0.094 F 
ATOM     24  F   UNL     1       1.957  -0.976  -4.048  1.00  0.00    -0.094 F 
ATOM     25  F   UNL     1       2.202   1.226  -3.845  1.00  0.00    -0.094 F 
ENDBRANCH  12  20
BRANCH  17  26
ATOM     26  C   UNL     1       0.081   6.257  -0.085  1.00  0.00     0.430 C 
ATOM     27  F   UNL     1      -0.534   7.387  -0.423  1.00  0.00    -0.167 F 
ATOM     28  F   UNL     1      -0.510   5.735   0.987  1.00  0.00    -0.167 F 
ATOM     29  F   UNL     1       1.356   6.511   0.192  1.00  0.00    -0.167 F 
ENDBRANCH  17  26
ENDBRANCH   6   8
ENDBRANCH   5   6
ENDBRANCH   4   5
ENDBRANCH   3   4
ENDBRANCH   2   3
ENDBRANCH   1   2
BRANCH   1  30
ATOM     30  C   UNL     1      -1.504   7.466  -3.874  1.00  0.00     0.261 C 
BRANCH  30  31
ATOM     31  O   UNL     1      -0.816   7.769  -5.079  1.00  0.00    -0.460 OA
BRANCH  31  32
ATOM     32  C   UNL     1      -0.675   9.119  -5.495  1.00  0.00     0.338 C 
ATOM     33  O   UNL     1      -1.165  10.056  -4.790  1.00  0.00    -0.246 OA
BRANCH  32  34
ATOM     34  C   UNL     1       0.061   9.444  -6.785  1.00  0.00     0.060 A 
ATOM     35  C   UNL     1       1.016  10.446  -6.799  1.00  0.00     0.016 A 
ATOM     36  C   UNL     1      -0.199   8.724  -7.870  1.00  0.00     0.016 A 
ATOM     37  C   UNL     1       1.446  10.810  -8.097  1.00  0.00     0.010 A 
ATOM     38  C   UNL     1       0.362   9.056  -9.080  1.00  0.00     0.010 A 
ATOM     39  C   UNL     1       1.270  10.073  -9.179  1.00  0.00    -0.014 A 
BRANCH  39  40
ATOM     40  C   UNL     1       2.035  10.342 -10.464  1.00  0.00     0.031 A 
ATOM     41  C   UNL     1       1.295  10.644 -11.609  1.00  0.00     0.074 A 
ATOM     42  C   UNL     1       3.416  10.243 -10.438  1.00  0.00     0.049 A 
ATOM     43  N   UNL     1       1.760  10.916 -12.829  1.00  0.00    -0.248 NA
ATOM     44  C   UNL     1      -0.173  10.715 -11.646  1.00  0.00     0.031 C 
ATOM     45  C   UNL     1       4.170   9.947  -9.286  1.00  0.00     0.029 A 
ATOM     46  N   UNL     1       4.294  10.406 -11.487  1.00  0.00    -0.354 N 
ATOM     47  C   UNL     1       0.748  11.175 -13.660  1.00  0.00     0.074 A 
ATOM     48  C   UNL     1      -0.510  11.044 -12.913  1.00  0.00     0.031 C 
ATOM     49  C   UNL     1       5.482   9.921  -9.637  1.00  0.00     0.029 A 
ATOM     50  C   UNL     1       5.571  10.200 -11.013  1.00  0.00     0.049 A 
ATOM     51  H   UNL     1       4.051  10.631 -12.414  1.00  0.00     0.167 HD
ATOM     52  C   UNL     1       0.825  11.518 -15.011  1.00  0.00     0.031 A 
ATOM     53  C   UNL     1       6.758  10.247 -11.727  1.00  0.00     0.031 A 
ATOM     54  C   UNL     1       2.016  11.607 -15.714  1.00  0.00     0.049 A 
ATOM     55  C   UNL     1       6.832  10.533 -13.092  1.00  0.00     0.074 A 
ATOM     56  C   UNL     1       2.112  11.959 -17.075  1.00  0.00     0.029 A 
ATOM     57  N   UNL     1       3.291  11.377 -15.247  1.00  0.00    -0.354 N 
ATOM     58  N   UNL     1       5.823  10.830 -13.913  1.00  0.00    -0.248 NA
ATOM     59  C   UNL     1       8.080  10.553 -13.865  1.00  0.00     0.031 C 
ATOM     60  C   UNL     1       3.425  11.932 -17.425  1.00  0.00     0.029 A 
ATOM     61  C   UNL     1       4.171  11.562 -16.290  1.00  0.00     0.049 A 
ATOM     62  H   UNL     1       3.531  11.124 -14.327  1.00  0.00     0.167 HD
ATOM     63  C   UNL     1       6.285  11.062 -15.144  1.00  0.00     0.074 A 
ATOM     64  C   UNL     1       7.743  10.880 -15.132  1.00  0.00     0.031 C 
ATOM     65  C   UNL     1       5.550  11.421 -16.275  1.00  0.00     0.031 A 
BRANCH  52  66
ATOM     66  C   UNL     1      -0.470  11.809 -15.752  1.00  0.00    -0.014 A 
ATOM     67  C   UNL     1      -1.275  12.851 -15.322  1.00  0.00     0.010 A 
ATOM     68  C   UNL     1      -0.803  11.070 -16.805  1.00  0.00     0.010 A 
ATOM     69  C   UNL     1      -2.567  12.852 -15.897  1.00  0.00     0.020 A 
ATOM     70  C   UNL     1      -2.031  11.219 -17.402  1.00  0.00     0.020 A 
ATOM     71  C   UNL     1      -2.901  12.190 -16.989  1.00  0.00     0.054 A 
BRANCH  71  72
ATOM     72  S   UNL     1      -4.429  12.547 -17.892  1.00  0.00     0.124 S 
ATOM     73  O   UNL     1      -5.630  12.320 -16.970  1.00  0.00    -0.237 OA
ATOM     74  O   UNL     1      -4.415  14.003 -18.363  1.00  0.00    -0.237 OA
ATOM     75  O   UNL     1      -4.547  11.511 -19.247  1.00  0.00    -0.744 OA
ENDBRANCH  71  72
ENDBRANCH  52  66
BRANCH  53  76
ATOM     76  C   UNL     1       8.054   9.972 -10.981  1.00  0.00    -0.014 A 
ATOM     77  C   UNL     1       9.038  10.947 -10.952  1.00  0.00     0.010 A 
ATOM     78  C   UNL     1       8.227   8.801 -10.380  1.00  0.00     0.010 A 
ATOM     79  C   UNL     1      10.295  10.479 -10.503  1.00  0.00     0.020 A 
ATOM     80  C   UNL     1       9.446   8.464  -9.843  1.00  0.00     0.020 A 
ATOM     81  C   UNL     1      10.481   9.357  -9.832  1.00  0.00     0.054 A 
BRANCH  81  82
ATOM     82  S   UNL     1      12.023   9.020  -8.945  1.00  0.00     0.124 S 
ATOM     83  O   UNL     1      13.191   9.028  -9.934  1.00  0.00    -0.237 OA
ATOM     84  O   UNL     1      12.246  10.098  -7.882  1.00  0.00    -0.237 OA
ATOM     85  O   UNL     1      11.924   7.488  -8.192  1.00  0.00    -0.744 OA
ENDBRANCH  81  82
ENDBRANCH  53  76
BRANCH  65  86
ATOM     86  C   UNL     1       6.308  11.673 -17.568  1.00  0.00    -0.014 A 
ATOM     87  C   UNL     1       7.045  10.649 -18.140  1.00  0.00     0.010 A 
ATOM     88  C   UNL     1       6.227  12.867 -18.143  1.00  0.00     0.010 A 
ATOM     89  C   UNL     1       7.904  11.073 -19.180  1.00  0.00     0.020 A 
ATOM     90  C   UNL     1       6.997  13.169 -19.240  1.00  0.00     0.020 A 
ATOM     91  C   UNL     1       7.794  12.222 -19.822  1.00  0.00     0.054 A 
BRANCH  91  92
ATOM     92  S   UNL     1       8.650  12.527 -21.387  1.00  0.00     0.124 S 
ATOM     93  O   UNL     1      10.161  12.395 -21.176  1.00  0.00    -0.237 OA
ATOM     94  O   UNL     1       8.189  11.505 -22.429  1.00  0.00    -0.237 OA
ATOM     95  O   UNL     1       8.288  14.105 -21.937  1.00  0.00    -0.744 OA
ENDBRANCH  91  92
ENDBRANCH  65  86
ENDBRANCH  39  40
ENDBRANCH  32  34
ENDBRANCH  31  32
ENDBRANCH  30  31
ENDBRANCH   1  30
TORSDOF 20
