REMARK SMILES O=C(/C=C/c1ccc(O)c(O)c1)OCCOCCOC(=O)c1ccc(-c2c3nc(c(-c4ccc(S(=O)(=O)[O-])cc4)c4ccc([nH]4)c(-c4ccc(S(=O)(=O)[O-])cc4)c4nc(c(-c5ccc(S(=O)(=O)[O-])cc5)c5ccc2[nH]5)C=C4)C=C3)cc1
REMARK SMILES IDX 17 1 16 2 15 3 14 4 13 5 2 6 1 7 3 8 4 9 5 10 6 11 12 12
REMARK SMILES IDX 7 13 10 14 8 15 11 16 9 18 18 20 19 21 20 22 21 23 22 24
REMARK SMILES IDX 23 25 81 26 24 27 80 28 25 29 26 30 27 31 74 32 28 33 79 34
REMARK SMILES IDX 73 35 75 36 29 37 78 38 72 39 71 40 30 42 60 43 41 44 59 45
REMARK SMILES IDX 42 46 45 47 58 48 76 49 43 50 44 51 57 53 77 54 46 55 31 56
REMARK SMILES IDX 32 57 40 58 33 59 39 60 34 61 35 62 36 63 37 64 38 65 61 66
REMARK SMILES IDX 62 67 70 68 63 69 69 70 64 71 65 72 66 73 67 74 68 75 47 76
REMARK SMILES IDX 48 77 56 78 49 79 55 80 50 81 51 82 52 83 53 84 54 85
REMARK H PARENT 11 17 9 19 75 41 45 52
REMARK Flexibility Score: inf
ROOT
ATOM      1  C   UNL     1       2.745  -2.016  -0.212  1.00  0.00     0.202 C 
ENDROOT
BRANCH   1   2
ATOM      2  O   UNL     1       4.027  -1.377  -0.230  1.00  0.00    -0.374 OA
BRANCH   2   3
ATOM      3  C   UNL     1       4.369  -0.710   0.982  1.00  0.00     0.202 C 
BRANCH   3   4
ATOM      4  C   UNL     1       4.129   0.797   1.006  1.00  0.00     0.261 C 
BRANCH   4   5
ATOM      5  O   UNL     1       2.804   1.208   0.620  1.00  0.00    -0.460 OA
BRANCH   5   6
ATOM      6  C   UNL     1       2.296   1.301  -0.627  1.00  0.00     0.330 C 
ATOM      7  O   UNL     1       1.119   1.615  -0.794  1.00  0.00    -0.247 OA
BRANCH   6   8
ATOM      8  C   UNL     1       3.071   0.896  -1.810  1.00  0.00     0.094 C 
ATOM      9  C   UNL     1       4.361   1.142  -2.071  1.00  0.00     0.016 C 
BRANCH   9  10
ATOM     10  C   UNL     1       5.038   0.585  -3.240  1.00  0.00    -0.021 A 
ATOM     11  C   UNL     1       4.748   1.060  -4.525  1.00  0.00     0.012 A 
ATOM     12  C   UNL     1       6.029  -0.389  -3.060  1.00  0.00     0.058 A 
ATOM     13  C   UNL     1       5.474   0.601  -5.627  1.00  0.00     0.051 A 
ATOM     14  C   UNL     1       6.745  -0.838  -4.160  1.00  0.00     0.157 A 
ATOM     15  C   UNL     1       6.483  -0.337  -5.432  1.00  0.00     0.157 A 
BRANCH  14  16
ATOM     16  O   UNL     1       7.735  -1.761  -3.980  1.00  0.00    -0.504 OA
ATOM     17  H   UNL     1       8.225  -2.071  -4.716  1.00  0.00     0.293 HD
ENDBRANCH  14  16
BRANCH  15  18
ATOM     18  O   UNL     1       7.258  -0.783  -6.466  1.00  0.00    -0.504 OA
ATOM     19  H   UNL     1       7.108  -0.466  -7.335  1.00  0.00     0.293 HD
ENDBRANCH  15  18
ENDBRANCH   9  10
ENDBRANCH   6   8
ENDBRANCH   5   6
ENDBRANCH   4   5
ENDBRANCH   3   4
ENDBRANCH   2   3
ENDBRANCH   1   2
BRANCH   1  20
ATOM     20  C   UNL     1       2.765  -3.451   0.330  1.00  0.00     0.261 C 
BRANCH  20  21
ATOM     21  O   UNL     1       3.177  -3.480   1.705  1.00  0.00    -0.460 OA
BRANCH  21  22
ATOM     22  C   UNL     1       4.490  -3.757   1.901  1.00  0.00     0.338 C 
ATOM     23  O   UNL     1       5.294  -4.147   1.071  1.00  0.00    -0.246 OA
BRANCH  22  24
ATOM     24  C   UNL     1       4.875  -3.298   3.253  1.00  0.00     0.060 A 
ATOM     25  C   UNL     1       6.092  -2.615   3.387  1.00  0.00     0.016 A 
ATOM     26  C   UNL     1       4.052  -3.502   4.363  1.00  0.00     0.016 A 
ATOM     27  C   UNL     1       6.508  -2.167   4.638  1.00  0.00     0.010 A 
ATOM     28  C   UNL     1       4.475  -3.064   5.619  1.00  0.00     0.010 A 
ATOM     29  C   UNL     1       5.720  -2.427   5.765  1.00  0.00    -0.014 A 
BRANCH  29  30
ATOM     30  C   UNL     1       6.281  -2.212   7.117  1.00  0.00     0.031 A 
ATOM     31  C   UNL     1       6.832  -3.402   7.853  1.00  0.00     0.074 A 
ATOM     32  C   UNL     1       6.308  -0.988   7.674  1.00  0.00     0.049 A 
ATOM     33  N   UNL     1       7.319  -3.475   9.063  1.00  0.00    -0.248 NA
ATOM     34  C   UNL     1       6.824  -4.684   7.127  1.00  0.00     0.031 C 
ATOM     35  C   UNL     1       5.840   0.243   7.038  1.00  0.00     0.029 A 
ATOM     36  N   UNL     1       6.742  -0.585   8.911  1.00  0.00    -0.354 N 
ATOM     37  C   UNL     1       7.658  -4.810   9.250  1.00  0.00     0.074 A 
ATOM     38  C   UNL     1       7.297  -5.516   8.042  1.00  0.00     0.031 C 
ATOM     39  C   UNL     1       6.001   1.265   7.897  1.00  0.00     0.029 A 
ATOM     40  C   UNL     1       6.548   0.754   9.153  1.00  0.00     0.049 A 
ATOM     41  H   UNL     1       7.153  -1.197   9.564  1.00  0.00     0.167 HD
ATOM     42  C   UNL     1       8.223  -5.394  10.333  1.00  0.00     0.031 A 
ATOM     43  C   UNL     1       6.765   1.477  10.270  1.00  0.00     0.031 A 
ATOM     44  C   UNL     1       8.568  -4.684  11.534  1.00  0.00     0.049 A 
ATOM     45  C   UNL     1       7.338   0.794  11.485  1.00  0.00     0.074 A 
ATOM     46  C   UNL     1       9.166  -5.175  12.681  1.00  0.00     0.029 A 
ATOM     47  N   UNL     1       8.338  -3.333  11.749  1.00  0.00    -0.354 N 
ATOM     48  N   UNL     1       7.683  -0.464  11.639  1.00  0.00    -0.248 NA
ATOM     49  C   UNL     1       7.562   1.629  12.674  1.00  0.00     0.031 C 
ATOM     50  C   UNL     1       9.238  -4.136  13.613  1.00  0.00     0.029 A 
ATOM     51  C   UNL     1       8.753  -2.980  13.021  1.00  0.00     0.049 A 
ATOM     52  H   UNL     1       7.938  -2.717  11.093  1.00  0.00     0.167 HD
ATOM     53  C   UNL     1       8.191  -0.564  12.931  1.00  0.00     0.074 A 
ATOM     54  C   UNL     1       8.121   0.763  13.509  1.00  0.00     0.031 C 
ATOM     55  C   UNL     1       8.674  -1.653  13.579  1.00  0.00     0.031 A 
BRANCH  42  56
ATOM     56  C   UNL     1       8.462  -6.880  10.280  1.00  0.00    -0.014 A 
ATOM     57  C   UNL     1       9.447  -7.436   9.444  1.00  0.00     0.010 A 
ATOM     58  C   UNL     1       7.711  -7.731  11.111  1.00  0.00     0.010 A 
ATOM     59  C   UNL     1       9.654  -8.818   9.416  1.00  0.00     0.020 A 
ATOM     60  C   UNL     1       7.935  -9.111  11.109  1.00  0.00     0.020 A 
ATOM     61  C   UNL     1       8.897  -9.646  10.250  1.00  0.00     0.054 A 
BRANCH  61  62
ATOM     62  S   UNL     1       9.212 -11.432  10.220  1.00  0.00     0.124 S 
ATOM     63  O   UNL     1       8.671 -11.812   8.917  1.00  0.00    -0.237 OA
ATOM     64  O   UNL     1      10.665 -11.502  10.340  1.00  0.00    -0.237 OA
ATOM     65  O   UNL     1       8.469 -11.936  11.372  1.00  0.00    -0.744 OA
ENDBRANCH  61  62
ENDBRANCH  42  56
BRANCH  43  66
ATOM     66  C   UNL     1       6.419   2.925  10.296  1.00  0.00    -0.014 A 
ATOM     67  C   UNL     1       7.424   3.906  10.369  1.00  0.00     0.010 A 
ATOM     68  C   UNL     1       5.073   3.333  10.239  1.00  0.00     0.010 A 
ATOM     69  C   UNL     1       7.089   5.264  10.396  1.00  0.00     0.020 A 
ATOM     70  C   UNL     1       4.735   4.689  10.236  1.00  0.00     0.020 A 
ATOM     71  C   UNL     1       5.747   5.646  10.323  1.00  0.00     0.054 A 
BRANCH  71  72
ATOM     72  S   UNL     1       5.342   7.415  10.298  1.00  0.00     0.124 S 
ATOM     73  O   UNL     1       5.634   7.815  11.671  1.00  0.00    -0.237 OA
ATOM     74  O   UNL     1       6.254   7.931   9.280  1.00  0.00    -0.237 OA
ATOM     75  O   UNL     1       3.929   7.437   9.926  1.00  0.00    -0.744 OA
ENDBRANCH  71  72
ENDBRANCH  43  66
BRANCH  55  76
ATOM     76  C   UNL     1       9.205  -1.454  14.976  1.00  0.00    -0.014 A 
ATOM     77  C   UNL     1       8.347  -1.194  16.058  1.00  0.00     0.010 A 
ATOM     78  C   UNL     1      10.585  -1.595  15.215  1.00  0.00     0.010 A 
ATOM     79  C   UNL     1       8.863  -1.044  17.348  1.00  0.00     0.020 A 
ATOM     80  C   UNL     1      11.101  -1.478  16.508  1.00  0.00     0.020 A 
ATOM     81  C   UNL     1      10.237  -1.188  17.565  1.00  0.00     0.054 A 
BRANCH  81  82
ATOM     82  S   UNL     1      10.875  -1.029  19.255  1.00  0.00     0.124 S 
ATOM     83  O   UNL     1      10.751   0.406  19.493  1.00  0.00    -0.237 OA
ATOM     84  O   UNL     1       9.964  -1.875  20.022  1.00  0.00    -0.237 OA
ATOM     85  O   UNL     1      12.245  -1.527  19.157  1.00  0.00    -0.744 OA
ENDBRANCH  81  82
ENDBRANCH  55  76
ENDBRANCH  29  30
ENDBRANCH  22  24
ENDBRANCH  21  22
ENDBRANCH  20  21
ENDBRANCH   1  20
TORSDOF 20
