REMARK SMILES CCCCc1nc(C[N@H+]2CC[NH2+][C@H](C(=O)OCCOCCOC(=O)c3ccc(-c4c5nc(c(-c6ccc(S(=O)(=O)[O-])cc6)c6ccc([nH]6)c(-c6ccc(S(=O)(=O)[O-])cc6)c6nc(c(-c7ccc(S(=O)(=O)[O-])cc7)c7ccc4[nH]7)C=C6)C=C5)cc3)C2)c(Cl)[nH]1
REMARK SMILES IDX 18 1 17 2 16 3 14 4 15 5 13 6 9 7 10 8 85 9 11 11 12 12 8 15
REMARK SMILES IDX 7 16 5 17 6 18 88 19 86 20 87 22 4 23 3 24 2 25 1 26 19 27
REMARK SMILES IDX 20 28 21 29 22 30 23 31 24 32 25 33 26 34 84 35 27 36 83 37
REMARK SMILES IDX 28 38 29 39 30 40 77 41 31 42 82 43 76 44 78 45 32 46 81 47
REMARK SMILES IDX 75 48 74 49 33 51 63 52 44 53 62 54 45 55 48 56 61 57 79 58
REMARK SMILES IDX 46 59 47 60 60 62 80 63 49 64 34 65 35 66 43 67 36 68 42 69
REMARK SMILES IDX 37 70 38 71 39 72 40 73 41 74 64 75 65 76 73 77 66 78 72 79
REMARK SMILES IDX 67 80 68 81 69 82 70 83 71 84 50 85 51 86 59 87 52 88 58 89
REMARK SMILES IDX 53 90 54 91 55 92 56 93 57 94
REMARK H PARENT 9 10 12 13 12 14 88 21 78 50 48 61
REMARK Flexibility Score: inf
ROOT
ATOM      1  C   UNL     1       2.172  -1.510  -1.520  1.00  0.00     0.202 C 
ENDROOT
BRANCH   1   2
ATOM      2  C   UNL     1       1.013  -1.898  -2.456  1.00  0.00     0.261 C 
BRANCH   2   3
ATOM      3  O   UNL     1      -0.033  -0.907  -2.433  1.00  0.00    -0.459 OA
BRANCH   3   4
ATOM      4  C   UNL     1      -1.308  -1.340  -2.181  1.00  0.00     0.371 C 
ATOM      5  O   UNL     1      -1.682  -2.504  -2.261  1.00  0.00    -0.245 OA
BRANCH   4   6
ATOM      6  C   UNL     1      -2.150  -0.181  -1.626  1.00  0.00     0.348 C 
ATOM      7  N   UNL     1      -4.163   0.393  -0.215  1.00  0.00    -0.320 N 
ATOM      8  C   UNL     1      -4.458   1.435  -1.203  1.00  0.00     0.324 C 
ATOM      9  C   UNL     1      -3.337  -0.685  -0.781  1.00  0.00     0.341 C 
ATOM     10  H   UNL     1      -5.072  -0.025  -0.021  1.00  0.00     0.348 HD
ATOM     11  C   UNL     1      -3.240   1.905  -2.034  1.00  0.00     0.323 C 
ATOM     12  N   UNL     1      -2.525   0.788  -2.684  1.00  0.00    -0.325 N 
ATOM     13  H   UNL     1      -1.686   1.135  -3.150  1.00  0.00     0.347 HD
ATOM     14  H   UNL     1      -3.117   0.342  -3.384  1.00  0.00     0.347 HD
BRANCH   7  15
ATOM     15  C   UNL     1      -3.869   0.806   1.169  1.00  0.00     0.323 C 
BRANCH  15  16
ATOM     16  C   UNL     1      -2.846   1.886   1.425  1.00  0.00     0.132 A 
ATOM     17  C   UNL     1      -0.977   2.808   2.132  1.00  0.00     0.107 A 
ATOM     18  N   UNL     1      -1.539   1.629   1.874  1.00  0.00    -0.231 NA
ATOM     19  N   UNL     1      -1.889   3.814   1.890  1.00  0.00    -0.333 N 
ATOM     20  C   UNL     1      -3.045   3.243   1.472  1.00  0.00     0.135 A 
ATOM     21  H   UNL     1      -1.727   4.779   2.001  1.00  0.00     0.169 HD
ATOM     22  Cl  UNL     1      -4.369   4.262   1.192  1.00  0.00    -0.062 Cl
BRANCH  17  23
ATOM     23  C   UNL     1       0.452   3.175   2.469  1.00  0.00     0.075 C 
BRANCH  23  24
ATOM     24  C   UNL     1       1.158   2.468   3.633  1.00  0.00     0.008 C 
BRANCH  24  25
ATOM     25  C   UNL     1       1.420   0.956   3.591  1.00  0.00    -0.003 C 
ATOM     26  C   UNL     1       2.756   0.517   2.989  1.00  0.00     0.004 C 
ENDBRANCH  24  25
ENDBRANCH  23  24
ENDBRANCH  17  23
ENDBRANCH  15  16
ENDBRANCH   7  15
ENDBRANCH   4   6
ENDBRANCH   3   4
ENDBRANCH   2   3
ENDBRANCH   1   2
BRANCH   1  27
ATOM     27  O   UNL     1       1.880  -1.483  -0.124  1.00  0.00    -0.374 OA
BRANCH  27  28
ATOM     28  C   UNL     1       0.789  -0.677   0.285  1.00  0.00     0.202 C 
BRANCH  28  29
ATOM     29  C   UNL     1       0.851   0.830   0.027  1.00  0.00     0.261 C 
BRANCH  29  30
ATOM     30  O   UNL     1       1.430   1.334  -1.169  1.00  0.00    -0.460 OA
BRANCH  30  31
ATOM     31  C   UNL     1       2.621   1.928  -0.917  1.00  0.00     0.338 C 
ATOM     32  O   UNL     1       3.528   1.462  -0.251  1.00  0.00    -0.246 OA
BRANCH  31  33
ATOM     33  C   UNL     1       2.630   3.322  -1.391  1.00  0.00     0.060 A 
ATOM     34  C   UNL     1       3.882   3.927  -1.518  1.00  0.00     0.016 A 
ATOM     35  C   UNL     1       1.447   4.066  -1.532  1.00  0.00     0.016 A 
ATOM     36  C   UNL     1       3.957   5.287  -1.751  1.00  0.00     0.010 A 
ATOM     37  C   UNL     1       1.524   5.436  -1.754  1.00  0.00     0.010 A 
ATOM     38  C   UNL     1       2.781   6.040  -1.845  1.00  0.00    -0.014 A 
BRANCH  38  39
ATOM     39  C   UNL     1       2.930   7.427  -2.261  1.00  0.00     0.031 A 
ATOM     40  C   UNL     1       3.346   7.575  -3.679  1.00  0.00     0.074 A 
ATOM     41  C   UNL     1       2.627   8.500  -1.511  1.00  0.00     0.049 A 
ATOM     42  N   UNL     1       4.465   8.035  -4.134  1.00  0.00    -0.248 NA
ATOM     43  C   UNL     1       2.462   6.999  -4.704  1.00  0.00     0.031 C 
ATOM     44  C   UNL     1       1.946   8.523  -0.219  1.00  0.00     0.029 A 
ATOM     45  N   UNL     1       2.764   9.822  -1.821  1.00  0.00    -0.354 N 
ATOM     46  C   UNL     1       4.343   7.996  -5.519  1.00  0.00     0.074 A 
ATOM     47  C   UNL     1       3.191   7.178  -5.804  1.00  0.00     0.031 C 
ATOM     48  C   UNL     1       1.521   9.783   0.028  1.00  0.00     0.029 A 
ATOM     49  C   UNL     1       1.989  10.662  -1.035  1.00  0.00     0.049 A 
ATOM     50  H   UNL     1       3.358  10.149  -2.535  1.00  0.00     0.167 HD
ATOM     51  C   UNL     1       5.027   8.850  -6.328  1.00  0.00     0.031 A 
ATOM     52  C   UNL     1       1.674  11.957  -1.298  1.00  0.00     0.031 A 
ATOM     53  C   UNL     1       6.129   9.482  -5.652  1.00  0.00     0.049 A 
ATOM     54  C   UNL     1       2.659  12.478  -2.280  1.00  0.00     0.074 A 
ATOM     55  C   UNL     1       7.236   9.028  -4.962  1.00  0.00     0.029 A 
ATOM     56  N   UNL     1       5.992  10.809  -5.318  1.00  0.00    -0.354 N 
ATOM     57  N   UNL     1       3.911  12.705  -1.996  1.00  0.00    -0.248 NA
ATOM     58  C   UNL     1       2.356  12.374  -3.700  1.00  0.00     0.031 C 
ATOM     59  C   UNL     1       7.421   9.961  -3.902  1.00  0.00     0.029 A 
ATOM     60  C   UNL     1       6.451  10.956  -4.036  1.00  0.00     0.049 A 
ATOM     61  H   UNL     1       5.630  11.522  -5.893  1.00  0.00     0.167 HD
ATOM     62  C   UNL     1       4.607  12.348  -3.142  1.00  0.00     0.074 A 
ATOM     63  C   UNL     1       3.594  12.263  -4.189  1.00  0.00     0.031 C 
ATOM     64  C   UNL     1       5.889  11.880  -3.074  1.00  0.00     0.031 A 
BRANCH  51  65
ATOM     65  C   UNL     1       4.426   9.422  -7.591  1.00  0.00    -0.014 A 
ATOM     66  C   UNL     1       5.215  10.251  -8.412  1.00  0.00     0.010 A 
ATOM     67  C   UNL     1       3.035   9.416  -7.836  1.00  0.00     0.010 A 
ATOM     68  C   UNL     1       4.628  11.093  -9.366  1.00  0.00     0.020 A 
ATOM     69  C   UNL     1       2.447  10.209  -8.818  1.00  0.00     0.020 A 
ATOM     70  C   UNL     1       3.244  11.077  -9.547  1.00  0.00     0.054 A 
BRANCH  70  71
ATOM     71  S   UNL     1       2.476  12.260 -10.678  1.00  0.00     0.124 S 
ATOM     72  O   UNL     1       2.677  13.519  -9.969  1.00  0.00    -0.237 OA
ATOM     73  O   UNL     1       3.262  12.081 -11.895  1.00  0.00    -0.237 OA
ATOM     74  O   UNL     1       1.092  11.799 -10.762  1.00  0.00    -0.744 OA
ENDBRANCH  70  71
ENDBRANCH  51  65
BRANCH  52  75
ATOM     75  C   UNL     1       0.416  12.674  -0.965  1.00  0.00    -0.014 A 
ATOM     76  C   UNL     1       0.295  14.062  -1.167  1.00  0.00     0.010 A 
ATOM     77  C   UNL     1      -0.764  11.953  -0.689  1.00  0.00     0.010 A 
ATOM     78  C   UNL     1      -0.963  14.689  -1.156  1.00  0.00     0.020 A 
ATOM     79  C   UNL     1      -2.017  12.572  -0.656  1.00  0.00     0.020 A 
ATOM     80  C   UNL     1      -2.114  13.934  -0.918  1.00  0.00     0.054 A 
BRANCH  80  81
ATOM     81  S   UNL     1      -3.750  14.704  -1.088  1.00  0.00     0.124 S 
ATOM     82  O   UNL     1      -3.816  15.557   0.095  1.00  0.00    -0.237 OA
ATOM     83  O   UNL     1      -3.644  15.399  -2.367  1.00  0.00    -0.237 OA
ATOM     84  O   UNL     1      -4.667  13.564  -1.081  1.00  0.00    -0.744 OA
ENDBRANCH  80  81
ENDBRANCH  52  75
BRANCH  64  85
ATOM     85  C   UNL     1       6.683  12.095  -1.808  1.00  0.00    -0.014 A 
ATOM     86  C   UNL     1       6.259  11.670  -0.535  1.00  0.00     0.010 A 
ATOM     87  C   UNL     1       7.980  12.627  -1.938  1.00  0.00     0.010 A 
ATOM     88  C   UNL     1       7.095  11.807   0.582  1.00  0.00     0.020 A 
ATOM     89  C   UNL     1       8.827  12.744  -0.834  1.00  0.00     0.020 A 
ATOM     90  C   UNL     1       8.376  12.344   0.423  1.00  0.00     0.054 A 
BRANCH  90  91
ATOM     91  S   UNL     1       9.470  12.471   1.865  1.00  0.00     0.124 S 
ATOM     92  O   UNL     1       8.832  13.521   2.654  1.00  0.00    -0.237 OA
ATOM     93  O   UNL     1       9.408  11.128   2.438  1.00  0.00    -0.237 OA
ATOM     94  O   UNL     1      10.765  12.830   1.289  1.00  0.00    -0.744 OA
ENDBRANCH  90  91
ENDBRANCH  64  85
ENDBRANCH  38  39
ENDBRANCH  31  33
ENDBRANCH  30  31
ENDBRANCH  29  30
ENDBRANCH  28  29
ENDBRANCH  27  28
ENDBRANCH   1  27
TORSDOF 22
