REMARK SMILES Cc1cnc(N2CCO[C@H](CC(=O)OCCOCCOC(=O)c3ccc(-c4c5nc(c(-c6ccc(S(=O)(=O)[O-])cc6)c6ccc([nH]6)c(-c6ccc(S(=O)(=O)[O-])cc6)c6nc(c(-c7ccc(S(=O)(=O)[O-])cc7)c7ccc4[nH]7)C=C6)C=C5)cc3)C2)c([N+](=O)[O-])c1
REMARK SMILES IDX 17 1 16 2 15 3 14 4 12 5 13 6 11 7 10 8 6 9 7 10 83 11 8 12
REMARK SMILES IDX 9 13 5 14 1 15 2 16 3 17 88 18 4 19 84 20 85 21 86 22 87 23
REMARK SMILES IDX 18 24 19 25 20 26 21 27 22 28 23 29 24 30 82 31 25 32 81 33
REMARK SMILES IDX 26 34 27 35 28 36 75 37 29 38 80 39 74 40 76 41 30 42 79 43
REMARK SMILES IDX 73 44 72 45 31 47 61 48 42 49 60 50 43 51 46 52 59 53 77 54
REMARK SMILES IDX 44 55 45 56 58 58 78 59 47 60 32 61 33 62 41 63 34 64 40 65
REMARK SMILES IDX 35 66 36 67 37 68 38 69 39 70 62 71 63 72 71 73 64 74 70 75
REMARK SMILES IDX 65 76 66 77 67 78 68 79 69 80 48 81 49 82 57 83 50 84 56 85
REMARK SMILES IDX 51 86 52 87 53 88 54 89 55 90
REMARK H PARENT 76 46 46 57
REMARK Flexibility Score: inf
ROOT
ATOM      1  O   UNL     1      -5.184   1.700   6.208  1.00  0.00    -0.374 OA
ENDROOT
BRANCH   1   2
ATOM      2  C   UNL     1      -6.026   2.809   5.905  1.00  0.00     0.202 C 
BRANCH   2   3
ATOM      3  C   UNL     1      -5.565   3.784   4.819  1.00  0.00     0.261 C 
BRANCH   3   4
ATOM      4  O   UNL     1      -5.352   3.162   3.543  1.00  0.00    -0.463 OA
BRANCH   4   5
ATOM      5  C   UNL     1      -4.048   2.979   3.218  1.00  0.00     0.308 C 
ATOM      6  O   UNL     1      -3.095   3.236   3.945  1.00  0.00    -0.252 OA
BRANCH   5   7
ATOM      7  C   UNL     1      -3.866   2.467   1.820  1.00  0.00     0.156 C 
BRANCH   7   8
ATOM      8  C   UNL     1      -4.708   1.238   1.430  1.00  0.00     0.148 C 
ATOM      9  N   UNL     1      -3.086   0.495  -0.197  1.00  0.00    -0.346 N 
ATOM     10  C   UNL     1      -3.955   0.793  -1.333  1.00  0.00     0.147 C 
ATOM     11  C   UNL     1      -3.795   0.061   1.005  1.00  0.00     0.151 C 
ATOM     12  C   UNL     1      -5.016   1.828  -0.903  1.00  0.00     0.182 C 
ATOM     13  O   UNL     1      -5.643   1.527   0.361  1.00  0.00    -0.374 OA
BRANCH   9  14
ATOM     14  C   UNL     1      -1.732   0.326  -0.285  1.00  0.00     0.208 A 
ATOM     15  C   UNL     1       2.487  -0.412   0.000  1.00  0.00     0.046 C 
ATOM     16  C   UNL     1       1.027  -0.120  -0.119  1.00  0.00    -0.026 A 
ATOM     17  C   UNL     1       0.076  -1.126   0.000  1.00  0.00     0.117 A 
ATOM     18  C   UNL     1       0.557   1.166  -0.351  1.00  0.00     0.094 A 
ATOM     19  N   UNL     1      -1.265  -0.926  -0.060  1.00  0.00    -0.233 NA
ATOM     20  C   UNL     1      -0.825   1.375  -0.444  1.00  0.00     0.311 A 
BRANCH  20  21
ATOM     21  N   UNL     1      -1.276   2.740  -0.556  1.00  0.00     0.066 N 
ATOM     22  O   UNL     1      -1.893   3.062  -1.579  1.00  0.00    -0.258 OA
ATOM     23  O   UNL     1      -0.945   3.515   0.353  1.00  0.00    -0.258 OA
ENDBRANCH  20  21
ENDBRANCH   9  14
ENDBRANCH   7   8
ENDBRANCH   5   7
ENDBRANCH   4   5
ENDBRANCH   3   4
ENDBRANCH   2   3
ENDBRANCH   1   2
BRANCH   1  24
ATOM     24  C   UNL     1      -5.179   0.600   5.301  1.00  0.00     0.202 C 
BRANCH  24  25
ATOM     25  C   UNL     1      -6.443  -0.267   5.229  1.00  0.00     0.261 C 
BRANCH  25  26
ATOM     26  O   UNL     1      -7.578   0.446   4.702  1.00  0.00    -0.460 OA
BRANCH  26  27
ATOM     27  C   UNL     1      -8.626   0.552   5.559  1.00  0.00     0.338 C 
ATOM     28  O   UNL     1      -8.728   0.043   6.662  1.00  0.00    -0.246 OA
BRANCH  27  29
ATOM     29  C   UNL     1      -9.593   1.550   5.061  1.00  0.00     0.060 A 
ATOM     30  C   UNL     1      -9.861   2.655   5.880  1.00  0.00     0.016 A 
ATOM     31  C   UNL     1     -10.287   1.370   3.864  1.00  0.00     0.016 A 
ATOM     32  C   UNL     1     -10.850   3.569   5.520  1.00  0.00     0.010 A 
ATOM     33  C   UNL     1     -11.290   2.282   3.511  1.00  0.00     0.010 A 
ATOM     34  C   UNL     1     -11.594   3.370   4.350  1.00  0.00    -0.014 A 
BRANCH  34  35
ATOM     35  C   UNL     1     -12.759   4.245   4.067  1.00  0.00     0.031 A 
ATOM     36  C   UNL     1     -14.143   3.769   4.418  1.00  0.00     0.074 A 
ATOM     37  C   UNL     1     -12.581   5.467   3.533  1.00  0.00     0.049 A 
ATOM     38  N   UNL     1     -15.291   4.372   4.247  1.00  0.00    -0.248 NA
ATOM     39  C   UNL     1     -14.245   2.443   5.047  1.00  0.00     0.031 C 
ATOM     40  C   UNL     1     -11.289   6.060   3.192  1.00  0.00     0.029 A 
ATOM     41  N   UNL     1     -13.496   6.428   3.184  1.00  0.00    -0.354 N 
ATOM     42  C   UNL     1     -16.253   3.500   4.744  1.00  0.00     0.074 A 
ATOM     43  C   UNL     1     -15.556   2.317   5.199  1.00  0.00     0.031 C 
ATOM     44  C   UNL     1     -11.495   7.284   2.675  1.00  0.00     0.029 A 
ATOM     45  C   UNL     1     -12.932   7.546   2.618  1.00  0.00     0.049 A 
ATOM     46  H   UNL     1     -14.466   6.327   3.324  1.00  0.00     0.167 HD
ATOM     47  C   UNL     1     -17.595   3.671   4.818  1.00  0.00     0.031 A 
ATOM     48  C   UNL     1     -13.507   8.646   2.093  1.00  0.00     0.031 A 
ATOM     49  C   UNL     1     -18.290   4.841   4.348  1.00  0.00     0.049 A 
ATOM     50  C   UNL     1     -15.007   8.773   2.103  1.00  0.00     0.074 A 
ATOM     51  C   UNL     1     -19.646   5.114   4.399  1.00  0.00     0.029 A 
ATOM     52  N   UNL     1     -17.688   5.925   3.728  1.00  0.00    -0.354 N 
ATOM     53  N   UNL     1     -15.900   7.953   2.604  1.00  0.00    -0.248 NA
ATOM     54  C   UNL     1     -15.577   9.974   1.475  1.00  0.00     0.031 C 
ATOM     55  C   UNL     1     -19.870   6.337   3.756  1.00  0.00     0.029 A 
ATOM     56  C   UNL     1     -18.648   6.851   3.357  1.00  0.00     0.049 A 
ATOM     57  H   UNL     1     -16.720   6.021   3.575  1.00  0.00     0.167 HD
ATOM     58  C   UNL     1     -17.136   8.546   2.365  1.00  0.00     0.074 A 
ATOM     59  C   UNL     1     -16.874   9.802   1.692  1.00  0.00     0.031 C 
ATOM     60  C   UNL     1     -18.375   8.091   2.674  1.00  0.00     0.031 A 
BRANCH  47  61
ATOM     61  C   UNL     1     -18.408   2.545   5.400  1.00  0.00    -0.014 A 
ATOM     62  C   UNL     1     -18.391   2.272   6.780  1.00  0.00     0.010 A 
ATOM     63  C   UNL     1     -19.231   1.774   4.559  1.00  0.00     0.010 A 
ATOM     64  C   UNL     1     -19.156   1.225   7.302  1.00  0.00     0.020 A 
ATOM     65  C   UNL     1     -20.015   0.742   5.081  1.00  0.00     0.020 A 
ATOM     66  C   UNL     1     -19.960   0.463   6.448  1.00  0.00     0.054 A 
BRANCH  66  67
ATOM     67  S   UNL     1     -20.956  -0.878   7.155  1.00  0.00     0.124 S 
ATOM     68  O   UNL     1     -19.939  -1.887   7.444  1.00  0.00    -0.237 OA
ATOM     69  O   UNL     1     -21.563  -0.246   8.323  1.00  0.00    -0.237 OA
ATOM     70  O   UNL     1     -21.886  -1.222   6.082  1.00  0.00    -0.744 OA
ENDBRANCH  66  67
ENDBRANCH  47  61
BRANCH  48  71
ATOM     71  C   UNL     1     -12.659   9.705   1.480  1.00  0.00    -0.014 A 
ATOM     72  C   UNL     1     -12.522  10.961   2.094  1.00  0.00     0.010 A 
ATOM     73  C   UNL     1     -11.980   9.454   0.274  1.00  0.00     0.010 A 
ATOM     74  C   UNL     1     -11.729  11.952   1.507  1.00  0.00     0.020 A 
ATOM     75  C   UNL     1     -11.166  10.433  -0.303  1.00  0.00     0.020 A 
ATOM     76  C   UNL     1     -11.053  11.680   0.314  1.00  0.00     0.054 A 
BRANCH  76  77
ATOM     77  S   UNL     1      -9.985  12.961  -0.401  1.00  0.00     0.124 S 
ATOM     78  O   UNL     1     -10.959  13.893  -0.959  1.00  0.00    -0.237 OA
ATOM     79  O   UNL     1      -9.244  13.440   0.763  1.00  0.00    -0.237 OA
ATOM     80  O   UNL     1      -9.184  12.229  -1.381  1.00  0.00    -0.744 OA
ENDBRANCH  76  77
ENDBRANCH  48  71
BRANCH  60  81
ATOM     81  C   UNL     1     -19.548   8.958   2.295  1.00  0.00    -0.014 A 
ATOM     82  C   UNL     1     -19.958   9.075   0.955  1.00  0.00     0.010 A 
ATOM     83  C   UNL     1     -20.282   9.617   3.297  1.00  0.00     0.010 A 
ATOM     84  C   UNL     1     -21.066   9.859   0.622  1.00  0.00     0.020 A 
ATOM     85  C   UNL     1     -21.406  10.381   2.970  1.00  0.00     0.020 A 
ATOM     86  C   UNL     1     -21.784  10.507   1.632  1.00  0.00     0.054 A 
BRANCH  86  87
ATOM     87  S   UNL     1     -23.246  11.480   1.178  1.00  0.00     0.124 S 
ATOM     88  O   UNL     1     -22.647  12.672   0.585  1.00  0.00    -0.237 OA
ATOM     89  O   UNL     1     -23.944  10.597   0.246  1.00  0.00    -0.237 OA
ATOM     90  O   UNL     1     -23.929  11.694   2.452  1.00  0.00    -0.744 OA
ENDBRANCH  86  87
ENDBRANCH  60  81
ENDBRANCH  34  35
ENDBRANCH  27  29
ENDBRANCH  26  27
ENDBRANCH  25  26
ENDBRANCH  24  25
ENDBRANCH   1  24
TORSDOF 20
