REMARK SMILES Cc1cc(C(=O)OCCOCCOC(=O)c2ccc(-c3c4nc(c(-c5ccc(S(=O)(=O)[O-])cc5)c5ccc([nH]5)c(-c5ccc(S(=O)(=O)[O-])cc5)c5nc(c(-c6ccc(S(=O)(=O)[O-])cc6)c6ccc3[nH]6)C=C5)C=C4)cc2)ccc1NC(=O)c1ccc(=O)n(CCOc2ccccc2)n1
REMARK SMILES IDX 8 1 7 2 5 3 6 4 4 5 1 6 2 7 3 8 78 9 77 10 76 11 79 12 80 13
REMARK SMILES IDX 81 15 82 16 83 17 97 18 84 19 87 20 85 21 86 22 88 23 89 24
REMARK SMILES IDX 90 25 91 26 92 27 96 28 93 29 95 30 94 31 9 32 10 33 11 34
REMARK SMILES IDX 12 35 13 36 14 37 15 38 16 39 17 40 75 41 18 42 74 43 19 44
REMARK SMILES IDX 20 45 21 46 68 47 22 48 73 49 67 50 69 51 23 52 72 53 66 54
REMARK SMILES IDX 65 55 24 57 54 58 35 59 53 60 36 61 39 62 52 63 70 64 37 65
REMARK SMILES IDX 38 66 51 68 71 69 40 70 25 71 26 72 34 73 27 74 33 75 28 76
REMARK SMILES IDX 29 77 30 78 31 79 32 80 55 81 56 82 64 83 57 84 63 85 58 86
REMARK SMILES IDX 59 87 60 88 61 89 62 90 41 91 42 92 50 93 43 94 49 95 44 96
REMARK SMILES IDX 45 97 46 98 47 99 48 100
REMARK H PARENT 79 14 69 56 39 67
REMARK Flexibility Score: inf
ROOT
ATOM      1  C   UNL     1      -3.464  -2.360  -0.874  1.00  0.00     0.261 C 
ENDROOT
BRANCH   1   2
ATOM      2  O   UNL     1      -2.600  -1.690   0.079  1.00  0.00    -0.460 OA
BRANCH   2   3
ATOM      3  C   UNL     1      -1.327  -2.102   0.346  1.00  0.00     0.338 C 
ATOM      4  O   UNL     1      -0.909  -3.197   0.628  1.00  0.00    -0.246 OA
BRANCH   3   5
ATOM      5  C   UNL     1      -0.476  -0.902   0.195  1.00  0.00     0.060 A 
ATOM      6  C   UNL     1       3.139   0.210   0.341  1.00  0.00     0.046 C 
ATOM      7  C   UNL     1       1.641   0.310   0.301  1.00  0.00    -0.027 A 
ATOM      8  C   UNL     1       0.890  -0.881   0.490  1.00  0.00     0.021 A 
ATOM      9  C   UNL     1       0.966   1.466  -0.110  1.00  0.00     0.044 A 
ATOM     10  C   UNL     1      -0.257   1.284  -0.705  1.00  0.00     0.027 A 
ATOM     11  C   UNL     1      -1.026   0.181  -0.461  1.00  0.00     0.018 A 
BRANCH   9  12
ATOM     12  N   UNL     1       1.440   2.783   0.088  1.00  0.00    -0.320 N 
ATOM     13  C   UNL     1       0.687   3.963   0.208  1.00  0.00     0.276 C 
ATOM     14  H   UNL     1       2.417   2.886   0.149  1.00  0.00     0.170 HD
ATOM     15  O   UNL     1       1.227   5.054   0.369  1.00  0.00    -0.267 OA
BRANCH  13  16
ATOM     16  C   UNL     1      -0.845   3.927   0.090  1.00  0.00     0.149 A 
ATOM     17  C   UNL     1      -1.361   4.220  -1.271  1.00  0.00     0.042 A 
ATOM     18  N   UNL     1      -1.599   3.578   1.098  1.00  0.00    -0.164 NA
ATOM     19  C   UNL     1      -2.491   3.582  -1.587  1.00  0.00     0.076 A 
ATOM     20  N   UNL     1      -2.911   3.195   0.758  1.00  0.00    -0.226 N 
ATOM     21  C   UNL     1      -3.209   2.808  -0.546  1.00  0.00     0.266 A 
ATOM     22  O   UNL     1      -4.045   1.978  -0.885  1.00  0.00    -0.268 OA
BRANCH  20  23
ATOM     23  C   UNL     1      -3.853   2.859   1.834  1.00  0.00     0.190 C 
BRANCH  23  24
ATOM     24  C   UNL     1      -4.685   4.062   2.340  1.00  0.00     0.253 C 
BRANCH  24  25
ATOM     25  O   UNL     1      -5.922   4.306   1.625  1.00  0.00    -0.492 OA
BRANCH  25  26
ATOM     26  C   UNL     1      -5.792   5.236   0.632  1.00  0.00     0.119 A 
ATOM     27  C   UNL     1      -6.098   6.577   0.830  1.00  0.00     0.046 A 
ATOM     28  C   UNL     1      -5.467   4.806  -0.644  1.00  0.00     0.046 A 
ATOM     29  C   UNL     1      -5.909   7.491  -0.218  1.00  0.00     0.004 A 
ATOM     30  C   UNL     1      -5.183   5.713  -1.661  1.00  0.00     0.004 A 
ATOM     31  C   UNL     1      -5.390   7.067  -1.442  1.00  0.00     0.000 A 
ENDBRANCH  25  26
ENDBRANCH  24  25
ENDBRANCH  23  24
ENDBRANCH  20  23
ENDBRANCH  13  16
ENDBRANCH   9  12
ENDBRANCH   3   5
ENDBRANCH   2   3
ENDBRANCH   1   2
BRANCH   1  32
ATOM     32  C   UNL     1      -2.892  -2.464  -2.243  1.00  0.00     0.202 C 
BRANCH  32  33
ATOM     33  O   UNL     1      -1.706  -3.228  -2.099  1.00  0.00    -0.374 OA
BRANCH  33  34
ATOM     34  C   UNL     1      -0.976  -3.425  -3.284  1.00  0.00     0.202 C 
BRANCH  34  35
ATOM     35  C   UNL     1      -1.800  -4.113  -4.377  1.00  0.00     0.261 C 
BRANCH  35  36
ATOM     36  O   UNL     1      -2.067  -5.491  -4.026  1.00  0.00    -0.460 OA
BRANCH  36  37
ATOM     37  C   UNL     1      -3.348  -5.801  -3.652  1.00  0.00     0.338 C 
ATOM     38  O   UNL     1      -4.243  -6.030  -4.446  1.00  0.00    -0.246 OA
BRANCH  37  39
ATOM     39  C   UNL     1      -3.450  -5.945  -2.168  1.00  0.00     0.060 A 
ATOM     40  C   UNL     1      -4.678  -5.857  -1.484  1.00  0.00     0.016 A 
ATOM     41  C   UNL     1      -2.271  -6.015  -1.438  1.00  0.00     0.016 A 
ATOM     42  C   UNL     1      -4.710  -5.679  -0.082  1.00  0.00     0.010 A 
ATOM     43  C   UNL     1      -2.303  -5.761  -0.085  1.00  0.00     0.010 A 
ATOM     44  C   UNL     1      -3.509  -5.553   0.611  1.00  0.00    -0.014 A 
BRANCH  44  45
ATOM     45  C   UNL     1      -3.306  -5.119   2.005  1.00  0.00     0.031 A 
ATOM     46  C   UNL     1      -2.530  -6.026   2.883  1.00  0.00     0.074 A 
ATOM     47  C   UNL     1      -3.448  -3.813   2.362  1.00  0.00     0.049 A 
ATOM     48  N   UNL     1      -2.246  -5.760   4.104  1.00  0.00    -0.248 NA
ATOM     49  C   UNL     1      -2.009  -7.332   2.470  1.00  0.00     0.031 C 
ATOM     50  C   UNL     1      -2.715  -3.041   3.373  1.00  0.00     0.029 A 
ATOM     51  N   UNL     1      -4.283  -2.842   1.817  1.00  0.00    -0.354 N 
ATOM     52  C   UNL     1      -1.250  -6.615   4.503  1.00  0.00     0.074 A 
ATOM     53  C   UNL     1      -1.218  -7.648   3.501  1.00  0.00     0.031 C 
ATOM     54  C   UNL     1      -3.302  -1.841   3.557  1.00  0.00     0.029 A 
ATOM     55  C   UNL     1      -4.508  -1.818   2.743  1.00  0.00     0.049 A 
ATOM     56  H   UNL     1      -4.662  -2.871   0.909  1.00  0.00     0.167 HD
ATOM     57  C   UNL     1      -0.500  -6.252   5.579  1.00  0.00     0.031 A 
ATOM     58  C   UNL     1      -5.782  -1.519   3.106  1.00  0.00     0.031 A 
ATOM     59  C   UNL     1      -1.062  -5.049   6.215  1.00  0.00     0.049 A 
ATOM     60  C   UNL     1      -5.902  -2.007   4.522  1.00  0.00     0.074 A 
ATOM     61  C   UNL     1      -0.660  -3.727   6.292  1.00  0.00     0.029 A 
ATOM     62  N   UNL     1      -2.406  -5.067   6.596  1.00  0.00    -0.354 N 
ATOM     63  N   UNL     1      -5.142  -2.963   4.996  1.00  0.00    -0.248 NA
ATOM     64  C   UNL     1      -6.685  -1.343   5.558  1.00  0.00     0.031 C 
ATOM     65  C   UNL     1      -1.817  -2.942   6.602  1.00  0.00     0.029 A 
ATOM     66  C   UNL     1      -2.910  -3.788   6.745  1.00  0.00     0.049 A 
ATOM     67  H   UNL     1      -2.930  -5.888   6.740  1.00  0.00     0.167 HD
ATOM     68  C   UNL     1      -5.165  -2.914   6.351  1.00  0.00     0.074 A 
ATOM     69  C   UNL     1      -6.211  -1.949   6.662  1.00  0.00     0.031 C 
ATOM     70  C   UNL     1      -4.299  -3.589   7.157  1.00  0.00     0.031 A 
BRANCH  57  71
ATOM     71  C   UNL     1       0.822  -6.874   5.971  1.00  0.00    -0.014 A 
ATOM     72  C   UNL     1       1.491  -6.391   7.114  1.00  0.00     0.010 A 
ATOM     73  C   UNL     1       1.494  -7.880   5.243  1.00  0.00     0.010 A 
ATOM     74  C   UNL     1       2.743  -6.887   7.514  1.00  0.00     0.020 A 
ATOM     75  C   UNL     1       2.735  -8.404   5.644  1.00  0.00     0.020 A 
ATOM     76  C   UNL     1       3.356  -7.899   6.779  1.00  0.00     0.054 A 
BRANCH  76  77
ATOM     77  S   UNL     1       4.962  -8.539   7.322  1.00  0.00     0.124 S 
ATOM     78  O   UNL     1       5.823  -7.364   7.202  1.00  0.00    -0.237 OA
ATOM     79  O   UNL     1       4.683  -8.979   8.686  1.00  0.00    -0.237 OA
ATOM     80  O   UNL     1       5.250  -9.613   6.373  1.00  0.00    -0.744 OA
ENDBRANCH  76  77
ENDBRANCH  57  71
BRANCH  58  81
ATOM     81  C   UNL     1      -6.724  -1.600   1.931  1.00  0.00    -0.014 A 
ATOM     82  C   UNL     1      -6.651  -0.533   0.996  1.00  0.00     0.010 A 
ATOM     83  C   UNL     1      -7.211  -2.836   1.462  1.00  0.00     0.010 A 
ATOM     84  C   UNL     1      -6.882  -0.735  -0.377  1.00  0.00     0.020 A 
ATOM     85  C   UNL     1      -7.434  -3.044   0.082  1.00  0.00     0.020 A 
ATOM     86  C   UNL     1      -7.219  -2.008  -0.835  1.00  0.00     0.054 A 
BRANCH  86  87
ATOM     87  S   UNL     1      -7.077  -2.360  -2.626  1.00  0.00     0.124 S 
ATOM     88  O   UNL     1      -8.326  -1.826  -3.156  1.00  0.00    -0.237 OA
ATOM     89  O   UNL     1      -5.867  -1.631  -3.011  1.00  0.00    -0.237 OA
ATOM     90  O   UNL     1      -6.941  -3.812  -2.673  1.00  0.00    -0.744 OA
ENDBRANCH  86  87
ENDBRANCH  58  81
BRANCH  70  91
ATOM     91  C   UNL     1      -4.762  -4.119   8.477  1.00  0.00    -0.014 A 
ATOM     92  C   UNL     1      -6.125  -4.234   8.795  1.00  0.00     0.010 A 
ATOM     93  C   UNL     1      -3.829  -4.700   9.361  1.00  0.00     0.010 A 
ATOM     94  C   UNL     1      -6.537  -4.795   9.998  1.00  0.00     0.020 A 
ATOM     95  C   UNL     1      -4.235  -5.330  10.532  1.00  0.00     0.020 A 
ATOM     96  C   UNL     1      -5.586  -5.328  10.864  1.00  0.00     0.054 A 
BRANCH  96  97
ATOM     97  S   UNL     1      -6.142  -6.027  12.427  1.00  0.00     0.124 S 
ATOM     98  O   UNL     1      -6.340  -4.822  13.229  1.00  0.00    -0.237 OA
ATOM     99  O   UNL     1      -7.362  -6.736  12.048  1.00  0.00    -0.237 OA
ATOM    100  O   UNL     1      -5.032  -6.881  12.838  1.00  0.00    -0.744 OA
ENDBRANCH  96  97
ENDBRANCH  70  91
ENDBRANCH  44  45
ENDBRANCH  37  39
ENDBRANCH  36  37
ENDBRANCH  35  36
ENDBRANCH  34  35
ENDBRANCH  33  34
ENDBRANCH  32  33
ENDBRANCH   1  32
TORSDOF 23
