REMARK SMILES Cc1[nH]c2c(C(=O)N3CC[C@H](O)C[C@@H]3C(=O)OCCOCCOC(=O)c3ccc(-c4c5nc(c(-c6ccc(S(=O)(=O)[O-])cc6)c6ccc([nH]6)c(-c6ccc(S(=O)(=O)[O-])cc6)c6nc(c(-c7ccc(S(=O)(=O)[O-])cc7)c7ccc4[nH]7)C=C6)C=C5)cc3)cccc2c1C
REMARK SMILES IDX 21 1 20 2 19 3 18 4 17 5 15 6 16 7 14 8 8 9 9 10 10 11 13 12
REMARK SMILES IDX 11 13 6 14 7 15 5 16 1 17 2 18 3 19 90 20 4 21 89 23 91 24
REMARK SMILES IDX 88 25 86 26 87 27 12 28 22 30 23 31 24 32 25 33 26 34 27 35
REMARK SMILES IDX 85 36 28 37 84 38 29 39 30 40 31 41 78 42 32 43 83 44 77 45
REMARK SMILES IDX 79 46 33 47 82 48 76 49 75 50 34 52 64 53 45 54 63 55 46 56
REMARK SMILES IDX 49 57 62 58 80 59 47 60 48 61 61 63 81 64 50 65 35 66 36 67
REMARK SMILES IDX 44 68 37 69 43 70 38 71 39 72 40 73 41 74 42 75 65 76 66 77
REMARK SMILES IDX 74 78 67 79 73 80 68 81 69 82 70 83 71 84 72 85 51 86 52 87
REMARK SMILES IDX 60 88 53 89 59 90 54 91 55 92 56 93 57 94 58 95
REMARK H PARENT 3 22 12 29 79 51 49 62
REMARK Flexibility Score: inf
ROOT
ATOM      1  C   UNL     1      -2.445  -6.656   2.517  1.00  0.00     0.202 C 
ENDROOT
BRANCH   1   2
ATOM      2  O   UNL     1      -3.236  -5.662   3.164  1.00  0.00    -0.374 OA
BRANCH   2   3
ATOM      3  C   UNL     1      -3.654  -4.561   2.362  1.00  0.00     0.202 C 
BRANCH   3   4
ATOM      4  C   UNL     1      -2.639  -3.426   2.193  1.00  0.00     0.261 C 
BRANCH   4   5
ATOM      5  O   UNL     1      -1.552  -3.759   1.297  1.00  0.00    -0.462 OA
BRANCH   5   6
ATOM      6  C   UNL     1      -0.397  -4.158   1.912  1.00  0.00     0.329 C 
ATOM      7  O   UNL     1      -0.288  -4.345   3.118  1.00  0.00    -0.250 OA
BRANCH   6   8
ATOM      8  C   UNL     1       0.720  -4.497   0.911  1.00  0.00     0.198 C 
ATOM      9  N   UNL     1       0.863  -3.484  -0.143  1.00  0.00    -0.325 N 
ATOM     10  C   UNL     1       0.179  -3.646  -1.428  1.00  0.00     0.123 C 
ATOM     11  C   UNL     1       0.338  -5.060  -1.968  1.00  0.00     0.053 C 
ATOM     12  C   UNL     1       0.672  -5.930   0.380  1.00  0.00     0.069 C 
ATOM     13  C   UNL     1      -0.093  -6.090  -0.931  1.00  0.00     0.118 C 
BRANCH   9  14
ATOM     14  C   UNL     1       1.922  -2.596   0.012  1.00  0.00     0.256 C 
ATOM     15  O   UNL     1       3.028  -2.988   0.381  1.00  0.00    -0.269 OA
BRANCH  14  16
ATOM     16  C   UNL     1       1.674  -1.138  -0.118  1.00  0.00     0.064 A 
ATOM     17  C   UNL     1      -3.265  -0.458  -0.192  1.00  0.00     0.064 C 
ATOM     18  C   UNL     1      -1.825  -0.108  -0.085  1.00  0.00     0.016 A 
ATOM     19  N   UNL     1      -0.860  -1.069   0.050  1.00  0.00    -0.358 N 
ATOM     20  C   UNL     1      -1.181   1.115  -0.076  1.00  0.00    -0.023 A 
ATOM     21  C   UNL     1       0.401  -0.537  -0.070  1.00  0.00     0.059 A 
ATOM     22  H   UNL     1      -1.046  -2.022   0.214  1.00  0.00     0.166 HD
ATOM     23  C   UNL     1       0.227   0.849  -0.086  1.00  0.00     0.003 A 
ATOM     24  C   UNL     1      -1.818   2.460  -0.095  1.00  0.00     0.047 C 
ATOM     25  C   UNL     1       1.370   1.675  -0.111  1.00  0.00     0.010 A 
ATOM     26  C   UNL     1       2.790  -0.282  -0.147  1.00  0.00     0.016 A 
ATOM     27  C   UNL     1       2.643   1.101  -0.138  1.00  0.00     0.002 A 
ENDBRANCH  14  16
ENDBRANCH   9  14
BRANCH  13  28
ATOM     28  O   UNL     1      -1.496  -6.033  -0.722  1.00  0.00    -0.393 OA
ATOM     29  H   UNL     1      -1.736  -5.160  -0.373  1.00  0.00     0.210 HD
ENDBRANCH  13  28
ENDBRANCH   6   8
ENDBRANCH   5   6
ENDBRANCH   4   5
ENDBRANCH   3   4
ENDBRANCH   2   3
ENDBRANCH   1   2
BRANCH   1  30
ATOM     30  C   UNL     1      -3.210  -7.720   1.723  1.00  0.00     0.261 C 
BRANCH  30  31
ATOM     31  O   UNL     1      -3.785  -7.170   0.524  1.00  0.00    -0.460 OA
BRANCH  31  32
ATOM     32  C   UNL     1      -5.111  -6.925   0.569  1.00  0.00     0.338 C 
ATOM     33  O   UNL     1      -5.873  -7.202   1.485  1.00  0.00    -0.246 OA
BRANCH  32  34
ATOM     34  C   UNL     1      -5.511  -6.071  -0.574  1.00  0.00     0.060 A 
ATOM     35  C   UNL     1      -6.410  -5.031  -0.306  1.00  0.00     0.016 A 
ATOM     36  C   UNL     1      -5.068  -6.294  -1.881  1.00  0.00     0.016 A 
ATOM     37  C   UNL     1      -6.939  -4.273  -1.349  1.00  0.00     0.010 A 
ATOM     38  C   UNL     1      -5.602  -5.531  -2.929  1.00  0.00     0.010 A 
ATOM     39  C   UNL     1      -6.580  -4.551  -2.674  1.00  0.00    -0.014 A 
BRANCH  39  40
ATOM     40  C   UNL     1      -7.355  -3.929  -3.781  1.00  0.00     0.031 A 
ATOM     41  C   UNL     1      -8.394  -4.753  -4.500  1.00  0.00     0.074 A 
ATOM     42  C   UNL     1      -7.198  -2.630  -4.098  1.00  0.00     0.049 A 
ATOM     43  N   UNL     1      -9.203  -4.404  -5.469  1.00  0.00    -0.248 NA
ATOM     44  C   UNL     1      -8.544  -6.152  -4.068  1.00  0.00     0.031 C 
ATOM     45  C   UNL     1      -6.270  -1.706  -3.447  1.00  0.00     0.029 A 
ATOM     46  N   UNL     1      -7.828  -1.861  -5.046  1.00  0.00    -0.354 N 
ATOM     47  C   UNL     1      -9.953  -5.538  -5.764  1.00  0.00     0.074 A 
ATOM     48  C   UNL     1      -9.477  -6.595  -4.899  1.00  0.00     0.031 C 
ATOM     49  C   UNL     1      -6.397  -0.492  -4.011  1.00  0.00     0.029 A 
ATOM     50  C   UNL     1      -7.388  -0.559  -5.085  1.00  0.00     0.049 A 
ATOM     51  H   UNL     1      -8.529  -2.210  -5.642  1.00  0.00     0.167 HD
ATOM     52  C   UNL     1     -10.956  -5.687  -6.663  1.00  0.00     0.031 A 
ATOM     53  C   UNL     1      -7.731   0.459  -5.901  1.00  0.00     0.031 A 
ATOM     54  C   UNL     1     -11.425  -4.641  -7.534  1.00  0.00     0.049 A 
ATOM     55  C   UNL     1      -8.785   0.244  -6.957  1.00  0.00     0.074 A 
ATOM     56  C   UNL     1     -12.443  -4.697  -8.472  1.00  0.00     0.029 A 
ATOM     57  N   UNL     1     -10.908  -3.356  -7.584  1.00  0.00    -0.354 N 
ATOM     58  N   UNL     1      -9.498  -0.829  -7.207  1.00  0.00    -0.248 NA
ATOM     59  C   UNL     1      -9.087   1.384  -7.836  1.00  0.00     0.031 C 
ATOM     60  C   UNL     1     -12.495  -3.467  -9.135  1.00  0.00     0.029 A 
ATOM     61  C   UNL     1     -11.562  -2.620  -8.559  1.00  0.00     0.049 A 
ATOM     62  H   UNL     1     -10.183  -3.017  -7.012  1.00  0.00     0.167 HD
ATOM     63  C   UNL     1     -10.354  -0.482  -8.249  1.00  0.00     0.074 A 
ATOM     64  C   UNL     1     -10.080   0.903  -8.572  1.00  0.00     0.031 C 
ATOM     65  C   UNL     1     -11.285  -1.242  -8.877  1.00  0.00     0.031 A 
BRANCH  52  66
ATOM     66  C   UNL     1     -11.597  -7.047  -6.776  1.00  0.00    -0.014 A 
ATOM     67  C   UNL     1     -12.414  -7.559  -5.751  1.00  0.00     0.010 A 
ATOM     68  C   UNL     1     -11.418  -7.805  -7.949  1.00  0.00     0.010 A 
ATOM     69  C   UNL     1     -13.008  -8.818  -5.881  1.00  0.00     0.020 A 
ATOM     70  C   UNL     1     -12.036  -9.050  -8.096  1.00  0.00     0.020 A 
ATOM     71  C   UNL     1     -12.814  -9.556  -7.053  1.00  0.00     0.054 A 
BRANCH  71  72
ATOM     72  S   UNL     1     -13.618 -11.175  -7.204  1.00  0.00     0.124 S 
ATOM     73  O   UNL     1     -12.859 -11.977  -6.247  1.00  0.00    -0.237 OA
ATOM     74  O   UNL     1     -14.997 -10.883  -6.824  1.00  0.00    -0.237 OA
ATOM     75  O   UNL     1     -13.422 -11.532  -8.607  1.00  0.00    -0.744 OA
ENDBRANCH  71  72
ENDBRANCH  52  66
BRANCH  53  76
ATOM     76  C   UNL     1      -7.058   1.781  -5.762  1.00  0.00    -0.014 A 
ATOM     77  C   UNL     1      -7.771   2.911  -5.324  1.00  0.00     0.010 A 
ATOM     78  C   UNL     1      -5.692   1.917  -6.077  1.00  0.00     0.010 A 
ATOM     79  C   UNL     1      -7.136   4.152  -5.218  1.00  0.00     0.020 A 
ATOM     80  C   UNL     1      -5.047   3.148  -5.940  1.00  0.00     0.020 A 
ATOM     81  C   UNL     1      -5.776   4.261  -5.520  1.00  0.00     0.054 A 
BRANCH  81  82
ATOM     82  S   UNL     1      -4.961   5.869  -5.316  1.00  0.00     0.124 S 
ATOM     83  O   UNL     1      -5.530   6.641  -6.416  1.00  0.00    -0.237 OA
ATOM     84  O   UNL     1      -5.385   6.266  -3.975  1.00  0.00    -0.237 OA
ATOM     85  O   UNL     1      -3.540   5.550  -5.442  1.00  0.00    -0.744 OA
ENDBRANCH  81  82
ENDBRANCH  53  76
BRANCH  65  86
ATOM     86  C   UNL     1     -12.113  -0.589  -9.957  1.00  0.00    -0.014 A 
ATOM     87  C   UNL     1     -11.555  -0.232 -11.197  1.00  0.00     0.010 A 
ATOM     88  C   UNL     1     -13.490  -0.385  -9.745  1.00  0.00     0.010 A 
ATOM     89  C   UNL     1     -12.350   0.346 -12.191  1.00  0.00     0.020 A 
ATOM     90  C   UNL     1     -14.295   0.162 -10.748  1.00  0.00     0.020 A 
ATOM     91  C   UNL     1     -13.716   0.538 -11.961  1.00  0.00     0.054 A 
BRANCH  91  92
ATOM     92  S   UNL     1     -14.733   1.250 -13.284  1.00  0.00     0.124 S 
ATOM     93  O   UNL     1     -14.284   2.639 -13.300  1.00  0.00    -0.237 OA
ATOM     94  O   UNL     1     -14.349   0.452 -14.446  1.00  0.00    -0.237 OA
ATOM     95  O   UNL     1     -16.103   1.044 -12.819  1.00  0.00    -0.744 OA
ENDBRANCH  91  92
ENDBRANCH  65  86
ENDBRANCH  39  40
ENDBRANCH  32  34
ENDBRANCH  31  32
ENDBRANCH  30  31
ENDBRANCH   1  30
TORSDOF 20
