REMARK SMILES O=CN1CCC[C@@H](C(=O)OCCOCCOC(=O)c2ccc(-c3c4nc(c(-c5ccc(S(=O)(=O)[O-])cc5)c5ccc([nH]5)c(-c5ccc(S(=O)(=O)[O-])cc5)c5nc(c(-c6ccc(S(=O)(=O)[O-])cc6)c6ccc3[nH]6)C=C5)C=C4)cc2)C1
REMARK SMILES IDX 14 1 13 2 12 3 11 4 10 5 8 6 9 7 7 8 3 9 4 10 79 11 5 12
REMARK SMILES IDX 6 13 2 14 1 15 15 16 16 17 17 18 18 19 19 20 20 21 78 22
REMARK SMILES IDX 21 23 77 24 22 25 23 26 24 27 71 28 25 29 76 30 70 31 72 32
REMARK SMILES IDX 26 33 75 34 69 35 68 36 27 38 57 39 38 40 56 41 39 42 42 43
REMARK SMILES IDX 55 44 73 45 40 46 41 47 54 49 74 50 43 51 28 52 29 53 37 54
REMARK SMILES IDX 30 55 36 56 31 57 32 58 33 59 34 60 35 61 58 62 59 63 67 64
REMARK SMILES IDX 60 65 66 66 61 67 62 68 63 69 64 70 65 71 44 72 45 73 53 74
REMARK SMILES IDX 46 75 52 76 47 77 48 78 49 79 50 80 51 81
REMARK H PARENT 72 37 42 48
REMARK Flexibility Score: inf
ROOT
ATOM      1  C   UNL     1       2.817   1.371   5.678  1.00  0.00     0.202 C 
ENDROOT
BRANCH   1   2
ATOM      2  O   UNL     1       3.277   2.462   6.481  1.00  0.00    -0.374 OA
BRANCH   2   3
ATOM      3  C   UNL     1       2.703   3.745   6.245  1.00  0.00     0.202 C 
BRANCH   3   4
ATOM      4  C   UNL     1       3.225   4.536   5.042  1.00  0.00     0.261 C 
BRANCH   4   5
ATOM      5  O   UNL     1       3.227   3.761   3.835  1.00  0.00    -0.463 OA
BRANCH   5   6
ATOM      6  C   UNL     1       4.448   3.321   3.435  1.00  0.00     0.310 C 
ATOM      7  O   UNL     1       5.510   3.619   3.971  1.00  0.00    -0.252 OA
BRANCH   6   8
ATOM      8  C   UNL     1       4.375   2.343   2.277  1.00  0.00     0.119 C 
ATOM      9  N   UNL     1       3.055   1.363   0.441  1.00  0.00    -0.344 N 
ATOM     10  C   UNL     1       4.026   1.728  -0.578  1.00  0.00     0.119 C 
ATOM     11  C   UNL     1       2.993   2.218   1.627  1.00  0.00     0.134 C 
ATOM     12  C   UNL     1       5.420   1.801   0.034  1.00  0.00     0.022 C 
ATOM     13  C   UNL     1       5.436   2.739   1.238  1.00  0.00     0.019 C 
BRANCH   9  14
ATOM     14  C   UNL     1       2.238   0.262   0.302  1.00  0.00     0.339 C 
ATOM     15  O   UNL     1       1.435  -0.146   1.130  1.00  0.00    -0.279 OA
ENDBRANCH   9  14
ENDBRANCH   6   8
ENDBRANCH   5   6
ENDBRANCH   4   5
ENDBRANCH   3   4
ENDBRANCH   2   3
ENDBRANCH   1   2
BRANCH   1  16
ATOM     16  C   UNL     1       1.392   0.860   5.926  1.00  0.00     0.261 C 
BRANCH  16  17
ATOM     17  O   UNL     1       0.394   1.799   5.488  1.00  0.00    -0.460 OA
BRANCH  17  18
ATOM     18  C   UNL     1      -0.397   2.301   6.465  1.00  0.00     0.338 C 
ATOM     19  O   UNL     1      -0.384   2.007   7.654  1.00  0.00    -0.246 OA
BRANCH  18  20
ATOM     20  C   UNL     1      -1.172   3.436   5.935  1.00  0.00     0.060 A 
ATOM     21  C   UNL     1      -1.008   4.686   6.547  1.00  0.00     0.016 A 
ATOM     22  C   UNL     1      -2.083   3.268   4.892  1.00  0.00     0.016 A 
ATOM     23  C   UNL     1      -1.775   5.772   6.131  1.00  0.00     0.010 A 
ATOM     24  C   UNL     1      -2.863   4.355   4.487  1.00  0.00     0.010 A 
ATOM     25  C   UNL     1      -2.728   5.606   5.119  1.00  0.00    -0.014 A 
BRANCH  25  26
ATOM     26  C   UNL     1      -3.664   6.706   4.788  1.00  0.00     0.031 A 
ATOM     27  C   UNL     1      -5.052   6.684   5.365  1.00  0.00     0.074 A 
ATOM     28  C   UNL     1      -3.281   7.709   3.979  1.00  0.00     0.049 A 
ATOM     29  N   UNL     1      -6.052   7.496   5.142  1.00  0.00    -0.248 NA
ATOM     30  C   UNL     1      -5.352   5.602   6.318  1.00  0.00     0.031 C 
ATOM     31  C   UNL     1      -1.946   7.865   3.400  1.00  0.00     0.029 A 
ATOM     32  N   UNL     1      -3.987   8.780   3.492  1.00  0.00    -0.354 N 
ATOM     33  C   UNL     1      -7.104   7.020   5.916  1.00  0.00     0.074 A 
ATOM     34  C   UNL     1      -6.626   5.837   6.599  1.00  0.00     0.031 C 
ATOM     35  C   UNL     1      -1.935   8.961   2.622  1.00  0.00     0.029 A 
ATOM     36  C   UNL     1      -3.270   9.558   2.615  1.00  0.00     0.049 A 
ATOM     37  H   UNL     1      -4.918   8.973   3.747  1.00  0.00     0.167 HD
ATOM     38  C   UNL     1      -8.354   7.523   6.045  1.00  0.00     0.031 A 
ATOM     39  C   UNL     1      -3.655  10.610   1.865  1.00  0.00     0.031 A 
ATOM     40  C   UNL     1      -8.830   8.688   5.347  1.00  0.00     0.049 A 
ATOM     41  C   UNL     1      -5.079  11.094   1.952  1.00  0.00     0.074 A 
ATOM     42  C   UNL     1     -10.075   9.287   5.422  1.00  0.00     0.029 A 
ATOM     43  N   UNL     1      -8.087   9.422   4.435  1.00  0.00    -0.354 N 
ATOM     44  N   UNL     1      -6.056  10.650   2.707  1.00  0.00    -0.248 NA
ATOM     45  C   UNL     1      -5.452  12.220   1.083  1.00  0.00     0.031 C 
ATOM     46  C   UNL     1     -10.104  10.348   4.510  1.00  0.00     0.029 A 
ATOM     47  C   UNL     1      -8.858  10.447   3.912  1.00  0.00     0.049 A 
ATOM     48  H   UNL     1      -7.149   9.242   4.194  1.00  0.00     0.167 HD
ATOM     49  C   UNL     1      -7.153  11.455   2.419  1.00  0.00     0.074 A 
ATOM     50  C   UNL     1      -6.716  12.422   1.433  1.00  0.00     0.031 C 
ATOM     51  C   UNL     1      -8.410  11.399   2.926  1.00  0.00     0.031 A 
BRANCH  38  52
ATOM     52  C   UNL     1      -9.311   6.789   6.946  1.00  0.00    -0.014 A 
ATOM     53  C   UNL     1      -9.167   6.821   8.344  1.00  0.00     0.010 A 
ATOM     54  C   UNL     1     -10.393   6.086   6.385  1.00  0.00     0.010 A 
ATOM     55  C   UNL     1     -10.067   6.133   9.163  1.00  0.00     0.020 A 
ATOM     56  C   UNL     1     -11.310   5.418   7.201  1.00  0.00     0.020 A 
ATOM     57  C   UNL     1     -11.131   5.433   8.586  1.00  0.00     0.054 A 
BRANCH  57  58
ATOM     58  S   UNL     1     -12.296   4.567   9.674  1.00  0.00     0.124 S 
ATOM     59  O   UNL     1     -11.496   3.432  10.128  1.00  0.00    -0.237 OA
ATOM     60  O   UNL     1     -12.593   5.572  10.691  1.00  0.00    -0.237 OA
ATOM     61  O   UNL     1     -13.410   4.229   8.791  1.00  0.00    -0.744 OA
ENDBRANCH  57  58
ENDBRANCH  38  52
BRANCH  39  62
ATOM     62  C   UNL     1      -2.687  11.252   0.935  1.00  0.00    -0.014 A 
ATOM     63  C   UNL     1      -2.205  12.549   1.184  1.00  0.00     0.010 A 
ATOM     64  C   UNL     1      -2.236  10.563  -0.206  1.00  0.00     0.010 A 
ATOM     65  C   UNL     1      -1.299  13.148   0.303  1.00  0.00     0.020 A 
ATOM     66  C   UNL     1      -1.310  11.148  -1.074  1.00  0.00     0.020 A 
ATOM     67  C   UNL     1      -0.854  12.442  -0.818  1.00  0.00     0.054 A 
BRANCH  67  68
ATOM     68  S   UNL     1       0.367  13.216  -1.915  1.00  0.00     0.124 S 
ATOM     69  O   UNL     1      -0.441  14.208  -2.617  1.00  0.00    -0.237 OA
ATOM     70  O   UNL     1       1.346  13.748  -0.970  1.00  0.00    -0.237 OA
ATOM     71  O   UNL     1       0.845  12.103  -2.732  1.00  0.00    -0.744 OA
ENDBRANCH  67  68
ENDBRANCH  39  62
BRANCH  51  72
ATOM     72  C   UNL     1      -9.403  12.422   2.443  1.00  0.00    -0.014 A 
ATOM     73  C   UNL     1      -9.962  12.340   1.156  1.00  0.00     0.010 A 
ATOM     74  C   UNL     1      -9.839  13.435   3.318  1.00  0.00     0.010 A 
ATOM     75  C   UNL     1     -10.926  13.266   0.745  1.00  0.00     0.020 A 
ATOM     76  C   UNL     1     -10.822  14.345   2.920  1.00  0.00     0.020 A 
ATOM     77  C   UNL     1     -11.352  14.260   1.631  1.00  0.00     0.054 A 
BRANCH  77  78
ATOM     78  S   UNL     1     -12.649  15.410   1.094  1.00  0.00     0.124 S 
ATOM     79  O   UNL     1     -11.928  16.264   0.154  1.00  0.00    -0.237 OA
ATOM     80  O   UNL     1     -13.641  14.518   0.499  1.00  0.00    -0.237 OA
ATOM     81  O   UNL     1     -13.069  16.062   2.332  1.00  0.00    -0.744 OA
ENDBRANCH  77  78
ENDBRANCH  51  72
ENDBRANCH  25  26
ENDBRANCH  18  20
ENDBRANCH  17  18
ENDBRANCH  16  17
ENDBRANCH   1  16
TORSDOF 18
