REMARK SMILES COc1ccc([C@H](C)[N@H+]2CC[C@H](C(=O)OCCOCCOC(=O)c3ccc(-c4c5nc(c(-c6ccc(S(=O)(=O)[O-])cc6)c6ccc([nH]6)c(-c6ccc(S(=O)(=O)[O-])cc6)c6nc(c(-c7ccc(S(=O)(=O)[O-])cc7)c7ccc4[nH]7)C=C6)C=C5)cc3)[C@@H]2C)cc1
REMARK SMILES IDX 18 1 17 2 16 3 15 4 13 5 14 6 12 7 9 8 10 9 84 10 11 12
REMARK SMILES IDX 85 13 7 14 8 15 6 16 3 17 4 18 87 19 5 20 86 21 2 22 1 23
REMARK SMILES IDX 19 24 20 25 21 26 22 27 23 28 24 29 25 30 83 31 26 32 82 33
REMARK SMILES IDX 27 34 28 35 29 36 76 37 30 38 81 39 75 40 77 41 31 42 80 43
REMARK SMILES IDX 74 44 73 45 32 47 62 48 43 49 61 50 44 51 47 52 60 53 78 54
REMARK SMILES IDX 45 55 46 56 59 58 79 59 48 60 33 61 34 62 42 63 35 64 41 65
REMARK SMILES IDX 36 66 37 67 38 68 39 69 40 70 63 71 64 72 72 73 65 74 71 75
REMARK SMILES IDX 66 76 67 77 68 78 69 79 70 80 49 81 50 82 58 83 51 84 57 85
REMARK SMILES IDX 52 86 53 87 54 88 55 89 56 90
REMARK H PARENT 9 11 77 46 47 57
REMARK Flexibility Score: inf
ROOT
ATOM      1  O   UNL     1      -2.299   8.458   2.205  1.00  0.00    -0.374 OA
ENDROOT
BRANCH   1   2
ATOM      2  C   UNL     1      -2.580   9.394   1.164  1.00  0.00     0.202 C 
BRANCH   2   3
ATOM      3  C   UNL     1      -1.403   9.834   0.286  1.00  0.00     0.261 C 
BRANCH   3   4
ATOM      4  O   UNL     1      -0.882   8.732  -0.471  1.00  0.00    -0.463 OA
BRANCH   4   5
ATOM      5  C   UNL     1       0.261   8.181   0.010  1.00  0.00     0.315 C 
ATOM      6  O   UNL     1       0.925   8.645   0.931  1.00  0.00    -0.252 OA
BRANCH   5   7
ATOM      7  C   UNL     1       0.560   6.823  -0.602  1.00  0.00     0.162 C 
ATOM      8  N   UNL     1       1.625   6.549  -2.739  1.00  0.00    -0.326 N 
ATOM      9  C   UNL     1       0.181   6.660  -2.953  1.00  0.00     0.264 C 
ATOM     10  C   UNL     1       1.917   6.729  -1.308  1.00  0.00     0.196 C 
ATOM     11  H   UNL     1       2.072   7.311  -3.249  1.00  0.00     0.348 HD
ATOM     12  C   UNL     1      -0.444   6.299  -1.627  1.00  0.00     0.083 C 
ATOM     13  C   UNL     1       2.877   7.900  -1.129  1.00  0.00     0.076 C 
BRANCH   8  14
ATOM     14  C   UNL     1       2.284   5.394  -3.384  1.00  0.00     0.212 C 
ATOM     15  C   UNL     1       1.837   4.034  -2.807  1.00  0.00     0.081 C 
BRANCH  14  16
ATOM     16  C   UNL     1       2.155   5.493  -4.910  1.00  0.00     0.009 A 
ATOM     17  C   UNL     1       1.708   5.850  -7.668  1.00  0.00     0.118 A 
ATOM     18  C   UNL     1       2.233   6.892  -6.911  1.00  0.00     0.047 A 
ATOM     19  C   UNL     1       1.480   4.610  -7.078  1.00  0.00     0.047 A 
ATOM     20  C   UNL     1       2.456   6.715  -5.544  1.00  0.00     0.013 A 
ATOM     21  C   UNL     1       1.701   4.434  -5.710  1.00  0.00     0.013 A 
BRANCH  17  22
ATOM     22  O   UNL     1       1.485   6.096  -8.995  1.00  0.00    -0.497 OA
ATOM     23  C   UNL     1       0.185   5.686  -9.420  1.00  0.00     0.278 C 
ENDBRANCH  17  22
ENDBRANCH  14  16
ENDBRANCH   8  14
ENDBRANCH   5   7
ENDBRANCH   4   5
ENDBRANCH   3   4
ENDBRANCH   2   3
ENDBRANCH   1   2
BRANCH   1  24
ATOM     24  C   UNL     1      -2.221   7.078   1.850  1.00  0.00     0.202 C 
BRANCH  24  25
ATOM     25  C   UNL     1      -3.539   6.331   1.617  1.00  0.00     0.261 C 
BRANCH  25  26
ATOM     26  O   UNL     1      -4.237   6.813   0.456  1.00  0.00    -0.460 OA
BRANCH  26  27
ATOM     27  C   UNL     1      -5.363   7.515   0.723  1.00  0.00     0.338 C 
ATOM     28  O   UNL     1      -5.875   7.701   1.820  1.00  0.00    -0.246 OA
BRANCH  27  29
ATOM     29  C   UNL     1      -5.806   8.219  -0.492  1.00  0.00     0.060 A 
ATOM     30  C   UNL     1      -5.929   9.614  -0.426  1.00  0.00     0.016 A 
ATOM     31  C   UNL     1      -6.137   7.530  -1.659  1.00  0.00     0.016 A 
ATOM     32  C   UNL     1      -6.408  10.324  -1.523  1.00  0.00     0.010 A 
ATOM     33  C   UNL     1      -6.634   8.244  -2.753  1.00  0.00     0.010 A 
ATOM     34  C   UNL     1      -6.792   9.640  -2.682  1.00  0.00    -0.014 A 
BRANCH  34  35
ATOM     35  C   UNL     1      -7.458  10.371  -3.784  1.00  0.00     0.031 A 
ATOM     36  C   UNL     1      -8.956  10.322  -3.895  1.00  0.00     0.074 A 
ATOM     37  C   UNL     1      -6.731  11.075  -4.670  1.00  0.00     0.049 A 
ATOM     38  N   UNL     1      -9.733  10.831  -4.815  1.00  0.00    -0.248 NA
ATOM     39  C   UNL     1      -9.673   9.604  -2.828  1.00  0.00     0.031 C 
ATOM     40  C   UNL     1      -5.278  11.237  -4.630  1.00  0.00     0.029 A 
ATOM     41  N   UNL     1      -7.119  11.776  -5.783  1.00  0.00    -0.354 N 
ATOM     42  C   UNL     1     -11.029  10.489  -4.446  1.00  0.00     0.074 A 
ATOM     43  C   UNL     1     -10.931   9.711  -3.230  1.00  0.00     0.031 C 
ATOM     44  C   UNL     1      -4.895  11.980  -5.683  1.00  0.00     0.029 A 
ATOM     45  C   UNL     1      -6.068  12.309  -6.490  1.00  0.00     0.049 A 
ATOM     46  H   UNL     1      -8.060  11.888  -6.049  1.00  0.00     0.167 HD
ATOM     47  C   UNL     1     -12.192  10.798  -5.066  1.00  0.00     0.031 A 
ATOM     48  C   UNL     1      -6.051  12.957  -7.672  1.00  0.00     0.031 A 
ATOM     49  C   UNL     1     -12.277  11.557  -6.285  1.00  0.00     0.049 A 
ATOM     50  C   UNL     1      -7.350  13.198  -8.395  1.00  0.00     0.074 A 
ATOM     51  C   UNL     1     -13.409  11.942  -6.982  1.00  0.00     0.029 A 
ATOM     52  N   UNL     1     -11.188  12.031  -7.000  1.00  0.00    -0.354 N 
ATOM     53  N   UNL     1      -8.570  12.898  -8.019  1.00  0.00    -0.248 NA
ATOM     54  C   UNL     1      -7.268  13.860  -9.705  1.00  0.00     0.031 C 
ATOM     55  C   UNL     1     -13.002  12.591  -8.152  1.00  0.00     0.029 A 
ATOM     56  C   UNL     1     -11.617  12.666  -8.153  1.00  0.00     0.049 A 
ATOM     57  H   UNL     1     -10.247  11.931  -6.728  1.00  0.00     0.167 HD
ATOM     58  C   UNL     1      -9.403  13.346  -9.040  1.00  0.00     0.074 A 
ATOM     59  C   UNL     1      -8.549  13.957 -10.038  1.00  0.00     0.031 C 
ATOM     60  C   UNL     1     -10.752  13.256  -9.143  1.00  0.00     0.031 A 
BRANCH  47  61
ATOM     61  C   UNL     1     -13.467  10.277  -4.457  1.00  0.00    -0.014 A 
ATOM     62  C   UNL     1     -13.974  10.806  -3.257  1.00  0.00     0.010 A 
ATOM     63  C   UNL     1     -14.191   9.268  -5.119  1.00  0.00     0.010 A 
ATOM     64  C   UNL     1     -15.163  10.312  -2.712  1.00  0.00     0.020 A 
ATOM     65  C   UNL     1     -15.393   8.789  -4.591  1.00  0.00     0.020 A 
ATOM     66  C   UNL     1     -15.863   9.304  -3.382  1.00  0.00     0.054 A 
BRANCH  66  67
ATOM     67  S   UNL     1     -17.414   8.696  -2.663  1.00  0.00     0.124 S 
ATOM     68  O   UNL     1     -16.934   7.937  -1.511  1.00  0.00    -0.237 OA
ATOM     69  O   UNL     1     -18.126   9.932  -2.348  1.00  0.00    -0.237 OA
ATOM     70  O   UNL     1     -18.003   7.896  -3.733  1.00  0.00    -0.744 OA
ENDBRANCH  66  67
ENDBRANCH  47  61
BRANCH  48  71
ATOM     71  C   UNL     1      -4.755  13.384  -8.265  1.00  0.00    -0.014 A 
ATOM     72  C   UNL     1      -4.426  14.746  -8.367  1.00  0.00     0.010 A 
ATOM     73  C   UNL     1      -3.836  12.422  -8.726  1.00  0.00     0.010 A 
ATOM     74  C   UNL     1      -3.207  15.139  -8.928  1.00  0.00     0.020 A 
ATOM     75  C   UNL     1      -2.605  12.809  -9.261  1.00  0.00     0.020 A 
ATOM     76  C   UNL     1      -2.302  14.168  -9.367  1.00  0.00     0.054 A 
BRANCH  76  77
ATOM     77  S   UNL     1      -0.703  14.701 -10.039  1.00  0.00     0.124 S 
ATOM     78  O   UNL     1      -1.087  15.247 -11.337  1.00  0.00    -0.237 OA
ATOM     79  O   UNL     1      -0.256  15.677  -9.047  1.00  0.00    -0.237 OA
ATOM     80  O   UNL     1       0.078  13.467 -10.083  1.00  0.00    -0.744 OA
ENDBRANCH  76  77
ENDBRANCH  48  71
BRANCH  60  81
ATOM     81  C   UNL     1     -11.394  13.832 -10.378  1.00  0.00    -0.014 A 
ATOM     82  C   UNL     1     -11.281  13.183 -11.620  1.00  0.00     0.010 A 
ATOM     83  C   UNL     1     -12.180  14.995 -10.280  1.00  0.00     0.010 A 
ATOM     84  C   UNL     1     -11.928  13.697 -12.747  1.00  0.00     0.020 A 
ATOM     85  C   UNL     1     -12.851  15.496 -11.399  1.00  0.00     0.020 A 
ATOM     86  C   UNL     1     -12.713  14.848 -12.628  1.00  0.00     0.054 A 
BRANCH  86  87
ATOM     87  S   UNL     1     -13.593  15.456 -14.093  1.00  0.00     0.124 S 
ATOM     88  O   UNL     1     -12.504  16.002 -14.898  1.00  0.00    -0.237 OA
ATOM     89  O   UNL     1     -14.215  14.243 -14.619  1.00  0.00    -0.237 OA
ATOM     90  O   UNL     1     -14.525  16.443 -13.554  1.00  0.00    -0.744 OA
ENDBRANCH  86  87
ENDBRANCH  60  81
ENDBRANCH  34  35
ENDBRANCH  27  29
ENDBRANCH  26  27
ENDBRANCH  25  26
ENDBRANCH  24  25
ENDBRANCH   1  24
TORSDOF 20
