REMARK SMILES O=C(OCCOCCOC(=O)[C@H]1c2[nH]cnc2CC[N@H+]1Cc1ccoc1)c1ccc(-c2c3nc(c(-c4ccc(S(=O)(=O)[O-])cc4)c4ccc([nH]4)c(-c4ccc(S(=O)(=O)[O-])cc4)c4nc(c(-c5ccc(S(=O)(=O)[O-])cc5)c5ccc2[nH]5)C=C4)C=C3)cc1
REMARK SMILES IDX 5 1 4 2 3 3 2 4 1 5 27 6 28 7 86 8 29 9 85 10 30 11 31 12
REMARK SMILES IDX 32 13 79 14 33 15 84 16 78 17 80 18 34 19 83 20 77 21 76 22
REMARK SMILES IDX 35 24 65 25 46 26 64 27 47 28 50 29 63 30 81 31 48 32 49 33
REMARK SMILES IDX 62 35 82 36 51 37 36 38 37 39 45 40 38 41 44 42 39 43 40 44
REMARK SMILES IDX 41 45 42 46 43 47 66 48 67 49 75 50 68 51 74 52 69 53 70 54
REMARK SMILES IDX 71 55 72 56 73 57 52 58 53 59 61 60 54 61 60 62 55 63 56 64
REMARK SMILES IDX 57 65 58 66 59 67 6 68 7 69 8 70 9 71 10 72 11 73 12 74
REMARK SMILES IDX 13 75 20 76 14 77 17 78 19 79 15 81 16 83 18 84 21 85 22 86
REMARK SMILES IDX 23 87 26 88 24 89 25 90
REMARK H PARENT 80 23 50 34 20 80 14 82
REMARK Flexibility Score: inf
ROOT
ATOM      1  C   UNL     1       5.297   0.050   0.127  1.00  0.00     0.202 C 
ENDROOT
BRANCH   1   2
ATOM      2  C   UNL     1       4.453   1.097  -0.617  1.00  0.00     0.261 C 
BRANCH   2   3
ATOM      3  O   UNL     1       3.099   1.141  -0.161  1.00  0.00    -0.460 OA
BRANCH   3   4
ATOM      4  C   UNL     1       2.001   0.563  -0.697  1.00  0.00     0.338 C 
ATOM      5  O   UNL     1       0.926   0.714  -0.130  1.00  0.00    -0.246 OA
BRANCH   4   6
ATOM      6  C   UNL     1       2.037  -0.293  -1.925  1.00  0.00     0.060 A 
ATOM      7  C   UNL     1       3.180  -0.741  -2.590  1.00  0.00     0.016 A 
ATOM      8  C   UNL     1       0.784  -0.695  -2.418  1.00  0.00     0.016 A 
ATOM      9  C   UNL     1       3.084  -1.293  -3.850  1.00  0.00     0.010 A 
ATOM     10  C   UNL     1       0.678  -1.348  -3.633  1.00  0.00     0.010 A 
ATOM     11  C   UNL     1       1.826  -1.535  -4.389  1.00  0.00    -0.014 A 
BRANCH  11  12
ATOM     12  C   UNL     1       1.782  -2.035  -5.748  1.00  0.00     0.031 A 
ATOM     13  C   UNL     1       2.538  -3.298  -5.963  1.00  0.00     0.074 A 
ATOM     14  C   UNL     1       1.094  -1.394  -6.711  1.00  0.00     0.049 A 
ATOM     15  N   UNL     1       3.604  -3.477  -6.671  1.00  0.00    -0.248 NA
ATOM     16  C   UNL     1       2.155  -4.463  -5.148  1.00  0.00     0.031 C 
ATOM     17  C   UNL     1       0.137  -0.291  -6.579  1.00  0.00     0.029 A 
ATOM     18  N   UNL     1       1.037  -1.682  -8.033  1.00  0.00    -0.354 N 
ATOM     19  C   UNL     1       3.920  -4.827  -6.549  1.00  0.00     0.074 A 
ATOM     20  C   UNL     1       3.096  -5.344  -5.486  1.00  0.00     0.031 C 
ATOM     21  C   UNL     1      -0.592  -0.198  -7.714  1.00  0.00     0.029 A 
ATOM     22  C   UNL     1      -0.042  -1.117  -8.696  1.00  0.00     0.049 A 
ATOM     23  H   UNL     1       1.706  -2.246  -8.486  1.00  0.00     0.167 HD
ATOM     24  C   UNL     1       4.683  -5.479  -7.471  1.00  0.00     0.031 A 
ATOM     25  C   UNL     1      -0.486  -1.452  -9.934  1.00  0.00     0.031 A 
ATOM     26  C   UNL     1       5.434  -4.567  -8.290  1.00  0.00     0.049 A 
ATOM     27  C   UNL     1       0.641  -2.129 -10.626  1.00  0.00     0.074 A 
ATOM     28  C   UNL     1       6.432  -3.647  -8.037  1.00  0.00     0.029 A 
ATOM     29  N   UNL     1       4.902  -4.223  -9.510  1.00  0.00    -0.354 N 
ATOM     30  N   UNL     1       1.753  -1.521 -10.938  1.00  0.00    -0.248 NA
ATOM     31  C   UNL     1       0.735  -3.579 -10.522  1.00  0.00     0.031 C 
ATOM     32  C   UNL     1       6.110  -2.526  -8.856  1.00  0.00     0.029 A 
ATOM     33  C   UNL     1       4.988  -2.857  -9.621  1.00  0.00     0.049 A 
ATOM     34  H   UNL     1       4.529  -4.840 -10.180  1.00  0.00     0.167 HD
ATOM     35  C   UNL     1       2.757  -2.436 -10.652  1.00  0.00     0.074 A 
ATOM     36  C   UNL     1       2.065  -3.713 -10.475  1.00  0.00     0.031 C 
ATOM     37  C   UNL     1       4.018  -2.031 -10.311  1.00  0.00     0.031 A 
BRANCH  24  38
ATOM     38  C   UNL     1       4.448  -6.917  -7.853  1.00  0.00    -0.014 A 
ATOM     39  C   UNL     1       5.330  -7.556  -8.744  1.00  0.00     0.010 A 
ATOM     40  C   UNL     1       3.233  -7.577  -7.570  1.00  0.00     0.010 A 
ATOM     41  C   UNL     1       4.989  -8.773  -9.354  1.00  0.00     0.020 A 
ATOM     42  C   UNL     1       2.901  -8.806  -8.139  1.00  0.00     0.020 A 
ATOM     43  C   UNL     1       3.770  -9.383  -9.053  1.00  0.00     0.054 A 
BRANCH  43  44
ATOM     44  S   UNL     1       3.293 -10.902  -9.913  1.00  0.00     0.124 S 
ATOM     45  O   UNL     1       3.154 -10.439 -11.290  1.00  0.00    -0.237 OA
ATOM     46  O   UNL     1       4.433 -11.776  -9.649  1.00  0.00    -0.237 OA
ATOM     47  O   UNL     1       2.049 -11.294  -9.254  1.00  0.00    -0.744 OA
ENDBRANCH  43  44
ENDBRANCH  24  38
BRANCH  25  48
ATOM     48  C   UNL     1      -1.905  -1.595 -10.352  1.00  0.00    -0.014 A 
ATOM     49  C   UNL     1      -2.260  -1.706 -11.709  1.00  0.00     0.010 A 
ATOM     50  C   UNL     1      -2.892  -1.904  -9.391  1.00  0.00     0.010 A 
ATOM     51  C   UNL     1      -3.538  -2.159 -12.087  1.00  0.00     0.020 A 
ATOM     52  C   UNL     1      -4.165  -2.352  -9.760  1.00  0.00     0.020 A 
ATOM     53  C   UNL     1      -4.476  -2.499 -11.108  1.00  0.00     0.054 A 
BRANCH  53  54
ATOM     54  S   UNL     1      -6.058  -3.250 -11.600  1.00  0.00     0.124 S 
ATOM     55  O   UNL     1      -6.752  -2.130 -12.229  1.00  0.00    -0.237 OA
ATOM     56  O   UNL     1      -5.635  -4.318 -12.502  1.00  0.00    -0.237 OA
ATOM     57  O   UNL     1      -6.632  -3.704 -10.335  1.00  0.00    -0.744 OA
ENDBRANCH  53  54
ENDBRANCH  25  48
BRANCH  37  58
ATOM     58  C   UNL     1       4.369  -0.565 -10.456  1.00  0.00    -0.014 A 
ATOM     59  C   UNL     1       3.737   0.470  -9.735  1.00  0.00     0.010 A 
ATOM     60  C   UNL     1       5.497  -0.244 -11.230  1.00  0.00     0.010 A 
ATOM     61  C   UNL     1       4.211   1.791  -9.810  1.00  0.00     0.020 A 
ATOM     62  C   UNL     1       5.983   1.063 -11.295  1.00  0.00     0.020 A 
ATOM     63  C   UNL     1       5.333   2.079 -10.593  1.00  0.00     0.054 A 
BRANCH  63  64
ATOM     64  S   UNL     1       5.973   3.777 -10.658  1.00  0.00     0.124 S 
ATOM     65  O   UNL     1       4.924   4.484 -11.387  1.00  0.00    -0.237 OA
ATOM     66  O   UNL     1       6.107   4.129  -9.246  1.00  0.00    -0.237 OA
ATOM     67  O   UNL     1       7.241   3.644 -11.376  1.00  0.00    -0.744 OA
ENDBRANCH  63  64
ENDBRANCH  37  58
ENDBRANCH  11  12
ENDBRANCH   4   6
ENDBRANCH   3   4
ENDBRANCH   2   3
ENDBRANCH   1   2
BRANCH   1  68
ATOM     68  O   UNL     1       4.862  -1.300   0.222  1.00  0.00    -0.374 OA
BRANCH  68  69
ATOM     69  C   UNL     1       3.644  -1.627   0.878  1.00  0.00     0.202 C 
BRANCH  69  70
ATOM     70  C   UNL     1       3.331  -1.138   2.296  1.00  0.00     0.261 C 
BRANCH  70  71
ATOM     71  O   UNL     1       3.724   0.199   2.629  1.00  0.00    -0.459 OA
BRANCH  71  72
ATOM     72  C   UNL     1       4.816   0.291   3.439  1.00  0.00     0.371 C 
ATOM     73  O   UNL     1       5.541  -0.660   3.732  1.00  0.00    -0.245 OA
BRANCH  72  74
ATOM     74  C   UNL     1       5.076   1.697   3.993  1.00  0.00     0.345 C 
ATOM     75  C   UNL     1       5.238   2.725   2.920  1.00  0.00     0.108 A 
ATOM     76  N   UNL     1       4.071   2.157   4.992  1.00  0.00    -0.314 N 
ATOM     77  N   UNL     1       6.215   2.836   1.969  1.00  0.00    -0.343 N 
ATOM     78  C   UNL     1       4.445   3.833   2.738  1.00  0.00     0.074 A 
ATOM     79  C   UNL     1       2.917   2.893   4.437  1.00  0.00     0.270 C 
ATOM     80  H   UNL     1       4.571   2.896   5.485  1.00  0.00     0.349 HD
ATOM     81  C   UNL     1       5.931   3.958   1.231  1.00  0.00     0.197 A 
ATOM     82  H   UNL     1       6.977   2.226   1.838  1.00  0.00     0.167 HD
ATOM     83  N   UNL     1       4.877   4.594   1.692  1.00  0.00    -0.241 NA
ATOM     84  C   UNL     1       3.319   4.158   3.636  1.00  0.00     0.120 C 
BRANCH  76  85
ATOM     85  C   UNL     1       3.789   1.233   6.091  1.00  0.00     0.303 C 
BRANCH  85  86
ATOM     86  C   UNL     1       2.717   0.225   5.822  1.00  0.00     0.044 A 
ATOM     87  C   UNL     1       2.872  -1.177   5.606  1.00  0.00     0.051 A 
ATOM     88  C   UNL     1       1.350   0.431   5.802  1.00  0.00     0.204 A 
ATOM     89  C   UNL     1       1.615  -1.688   5.386  1.00  0.00     0.195 A 
ATOM     90  O   UNL     1       0.682  -0.715   5.520  1.00  0.00    -0.472 OA
ENDBRANCH  85  86
ENDBRANCH  76  85
ENDBRANCH  72  74
ENDBRANCH  71  72
ENDBRANCH  70  71
ENDBRANCH  69  70
ENDBRANCH  68  69
ENDBRANCH   1  68
TORSDOF 19
