REMARK SMILES CC(C)Cc1ccc([C@H](CF)C(=O)OCCOCCOC(=O)c2ccc(-c3c4nc(c(-c5ccc(S(=O)(=O)[O-])cc5)c5ccc([nH]5)c(-c5ccc(S(=O)(=O)[O-])cc5)c5nc(c(-c6ccc(S(=O)(=O)[O-])cc6)c6ccc3[nH]6)C=C5)C=C4)cc2)cc1
REMARK SMILES IDX 17 1 16 2 15 3 14 4 12 5 13 6 9 7 8 8 5 9 6 10 84 11 7 12
REMARK SMILES IDX 83 13 4 14 2 15 1 16 3 17 10 18 11 19 18 20 19 21 20 22
REMARK SMILES IDX 21 23 22 24 23 25 24 26 82 27 25 28 81 29 26 30 27 31 28 32
REMARK SMILES IDX 75 33 29 34 80 35 74 36 76 37 30 38 79 39 73 40 72 41 31 43
REMARK SMILES IDX 61 44 42 45 60 46 43 47 46 48 59 49 77 50 44 51 45 52 58 54
REMARK SMILES IDX 78 55 47 56 32 57 33 58 41 59 34 60 40 61 35 62 36 63 37 64
REMARK SMILES IDX 38 65 39 66 62 67 63 68 71 69 64 70 70 71 65 72 66 73 67 74
REMARK SMILES IDX 68 75 69 76 48 77 49 78 57 79 50 80 56 81 51 82 52 83 53 84
REMARK SMILES IDX 54 85 55 86
REMARK H PARENT 76 42 46 53
REMARK Flexibility Score: inf
ROOT
ATOM      1  O   UNL     1      -6.677  -3.796   2.559  1.00  0.00    -0.374 OA
ENDROOT
BRANCH   1   2
ATOM      2  C   UNL     1      -6.706  -3.227   3.867  1.00  0.00     0.202 C 
BRANCH   2   3
ATOM      3  C   UNL     1      -5.624  -3.698   4.842  1.00  0.00     0.261 C 
BRANCH   3   4
ATOM      4  O   UNL     1      -4.316  -3.234   4.455  1.00  0.00    -0.463 OA
BRANCH   4   5
ATOM      5  C   UNL     1      -3.398  -4.202   4.173  1.00  0.00     0.316 C 
ATOM      6  O   UNL     1      -3.617  -5.407   4.226  1.00  0.00    -0.251 OA
BRANCH   5   7
ATOM      7  C   UNL     1      -2.041  -3.626   3.811  1.00  0.00     0.160 C 
BRANCH   7   8
ATOM      8  C   UNL     1      -1.097  -3.605   4.995  1.00  0.00    -0.031 A 
ATOM      9  C   UNL     1       0.635  -3.862   7.190  1.00  0.00    -0.048 A 
ATOM     10  C   UNL     1      -0.680  -3.426   7.378  1.00  0.00     0.004 A 
ATOM     11  C   UNL     1       1.108  -4.067   5.890  1.00  0.00     0.004 A 
ATOM     12  C   UNL     1      -1.536  -3.283   6.288  1.00  0.00     0.005 A 
ATOM     13  C   UNL     1       0.248  -3.948   4.802  1.00  0.00     0.005 A 
BRANCH   9  14
ATOM     14  C   UNL     1       1.492  -4.221   8.378  1.00  0.00     0.038 C 
BRANCH  14  15
ATOM     15  C   UNL     1       1.294  -5.693   8.806  1.00  0.00    -0.013 C 
ATOM     16  C   UNL     1       1.794  -6.687   7.751  1.00  0.00     0.008 C 
ATOM     17  C   UNL     1       2.009  -5.952  10.131  1.00  0.00     0.008 C 
ENDBRANCH  14  15
ENDBRANCH   9  14
ENDBRANCH   7   8
BRANCH   7  18
ATOM     18  C   UNL     1      -2.112  -2.279   3.108  1.00  0.00     0.234 C 
ATOM     19  F   UNL     1      -0.947  -2.075   2.425  1.00  0.00    -0.250 F 
ENDBRANCH   7  18
ENDBRANCH   5   7
ENDBRANCH   4   5
ENDBRANCH   3   4
ENDBRANCH   2   3
ENDBRANCH   1   2
BRANCH   1  20
ATOM     20  C   UNL     1      -5.622  -3.411   1.683  1.00  0.00     0.202 C 
BRANCH  20  21
ATOM     21  C   UNL     1      -5.683  -1.997   1.091  1.00  0.00     0.261 C 
BRANCH  21  22
ATOM     22  O   UNL     1      -5.656  -0.958   2.088  1.00  0.00    -0.460 OA
BRANCH  22  23
ATOM     23  C   UNL     1      -6.792  -0.220   2.146  1.00  0.00     0.338 C 
ATOM     24  O   UNL     1      -7.774  -0.329   1.417  1.00  0.00    -0.246 OA
BRANCH  23  25
ATOM     25  C   UNL     1      -6.806   0.672   3.318  1.00  0.00     0.060 A 
ATOM     26  C   UNL     1      -7.905   0.571   4.180  1.00  0.00     0.016 A 
ATOM     27  C   UNL     1      -5.857   1.682   3.498  1.00  0.00     0.016 A 
ATOM     28  C   UNL     1      -8.097   1.519   5.181  1.00  0.00     0.010 A 
ATOM     29  C   UNL     1      -6.056   2.639   4.506  1.00  0.00     0.010 A 
ATOM     30  C   UNL     1      -7.200   2.587   5.322  1.00  0.00    -0.014 A 
BRANCH  30  31
ATOM     31  C   UNL     1      -7.570   3.705   6.229  1.00  0.00     0.031 A 
ATOM     32  C   UNL     1      -8.207   4.945   5.652  1.00  0.00     0.074 A 
ATOM     33  C   UNL     1      -7.443   3.574   7.562  1.00  0.00     0.049 A 
ATOM     34  N   UNL     1      -8.701   5.986   6.273  1.00  0.00    -0.248 NA
ATOM     35  C   UNL     1      -8.308   5.018   4.185  1.00  0.00     0.031 C 
ATOM     36  C   UNL     1      -6.876   2.413   8.248  1.00  0.00     0.029 A 
ATOM     37  N   UNL     1      -7.803   4.422   8.580  1.00  0.00    -0.354 N 
ATOM     38  C   UNL     1      -9.187   6.828   5.279  1.00  0.00     0.074 A 
ATOM     39  C   UNL     1      -8.890   6.197   4.010  1.00  0.00     0.031 C 
ATOM     40  C   UNL     1      -6.936   2.618   9.576  1.00  0.00     0.029 A 
ATOM     41  C   UNL     1      -7.531   3.928   9.833  1.00  0.00     0.049 A 
ATOM     42  H   UNL     1      -8.218   5.302   8.426  1.00  0.00     0.167 HD
ATOM     43  C   UNL     1      -9.836   8.010   5.405  1.00  0.00     0.031 A 
ATOM     44  C   UNL     1      -7.739   4.468  11.050  1.00  0.00     0.031 A 
ATOM     45  C   UNL     1     -10.121   8.651   6.662  1.00  0.00     0.049 A 
ATOM     46  C   UNL     1      -8.414   5.810  11.160  1.00  0.00     0.074 A 
ATOM     47  C   UNL     1     -10.760   9.859   6.888  1.00  0.00     0.029 A 
ATOM     48  N   UNL     1      -9.790   8.137   7.905  1.00  0.00    -0.354 N 
ATOM     49  N   UNL     1      -8.875   6.583  10.206  1.00  0.00    -0.248 NA
ATOM     50  C   UNL     1      -8.611   6.342  12.516  1.00  0.00     0.031 C 
ATOM     51  C   UNL     1     -10.782  10.093   8.268  1.00  0.00     0.029 A 
ATOM     52  C   UNL     1     -10.200   9.007   8.902  1.00  0.00     0.049 A 
ATOM     53  H   UNL     1      -9.330   7.280   8.058  1.00  0.00     0.167 HD
ATOM     54  C   UNL     1      -9.439   7.681  10.849  1.00  0.00     0.074 A 
ATOM     55  C   UNL     1      -9.282   7.459  12.271  1.00  0.00     0.031 C 
ATOM     56  C   UNL     1     -10.033   8.776  10.312  1.00  0.00     0.031 A 
BRANCH  43  57
ATOM     57  C   UNL     1     -10.284   8.698   4.143  1.00  0.00    -0.014 A 
ATOM     58  C   UNL     1     -11.394   8.225   3.421  1.00  0.00     0.010 A 
ATOM     59  C   UNL     1      -9.632   9.867   3.711  1.00  0.00     0.010 A 
ATOM     60  C   UNL     1     -11.832   8.896   2.277  1.00  0.00     0.020 A 
ATOM     61  C   UNL     1     -10.081  10.554   2.578  1.00  0.00     0.020 A 
ATOM     62  C   UNL     1     -11.173  10.058   1.863  1.00  0.00     0.054 A 
BRANCH  62  63
ATOM     63  S   UNL     1     -11.792  10.937   0.402  1.00  0.00     0.124 S 
ATOM     64  O   UNL     1     -11.359  10.060  -0.683  1.00  0.00    -0.237 OA
ATOM     65  O   UNL     1     -13.233  10.978   0.638  1.00  0.00    -0.237 OA
ATOM     66  O   UNL     1     -11.117  12.231   0.463  1.00  0.00    -0.744 OA
ENDBRANCH  62  63
ENDBRANCH  43  57
BRANCH  44  67
ATOM     67  C   UNL     1      -7.293   3.751  12.276  1.00  0.00    -0.014 A 
ATOM     68  C   UNL     1      -8.225   3.224  13.187  1.00  0.00     0.010 A 
ATOM     69  C   UNL     1      -5.920   3.635  12.558  1.00  0.00     0.010 A 
ATOM     70  C   UNL     1      -7.794   2.627  14.376  1.00  0.00     0.020 A 
ATOM     71  C   UNL     1      -5.484   3.015  13.732  1.00  0.00     0.020 A 
ATOM     72  C   UNL     1      -6.425   2.533  14.643  1.00  0.00     0.054 A 
BRANCH  72  73
ATOM     73  S   UNL     1      -5.878   1.743  16.182  1.00  0.00     0.124 S 
ATOM     74  O   UNL     1      -6.089   2.806  17.159  1.00  0.00    -0.237 OA
ATOM     75  O   UNL     1      -6.776   0.596  16.289  1.00  0.00    -0.237 OA
ATOM     76  O   UNL     1      -4.482   1.406  15.911  1.00  0.00    -0.744 OA
ENDBRANCH  72  73
ENDBRANCH  44  67
BRANCH  56  77
ATOM     77  C   UNL     1     -10.582   9.796  11.273  1.00  0.00    -0.014 A 
ATOM     78  C   UNL     1      -9.728  10.625  12.023  1.00  0.00     0.010 A 
ATOM     79  C   UNL     1     -11.974   9.928  11.427  1.00  0.00     0.010 A 
ATOM     80  C   UNL     1     -10.255  11.527  12.951  1.00  0.00     0.020 A 
ATOM     81  C   UNL     1     -12.506  10.848  12.335  1.00  0.00     0.020 A 
ATOM     82  C   UNL     1     -11.641  11.624  13.110  1.00  0.00     0.054 A 
BRANCH  82  83
ATOM     83  S   UNL     1     -12.306  12.795  14.325  1.00  0.00     0.124 S 
ATOM     84  O   UNL     1     -12.108  12.074  15.579  1.00  0.00    -0.237 OA
ATOM     85  O   UNL     1     -11.462  13.973  14.137  1.00  0.00    -0.237 OA
ATOM     86  O   UNL     1     -13.699  12.963  13.915  1.00  0.00    -0.744 OA
ENDBRANCH  82  83
ENDBRANCH  56  77
ENDBRANCH  30  31
ENDBRANCH  23  25
ENDBRANCH  22  23
ENDBRANCH  21  22
ENDBRANCH  20  21
ENDBRANCH   1  20
TORSDOF 21
