REMARK SMILES CCCNC(=O)N1[C@@H](C(=O)OCCOCCOC(=O)c2ccc(-c3c4nc(c(-c5ccc(S(=O)(=O)[O-])cc5)c5ccc([nH]5)c(-c5ccc(S(=O)(=O)[O-])cc5)c5nc(c(-c6ccc(S(=O)(=O)[O-])cc6)c6ccc3[nH]6)C=C5)C=C4)cc2)CC[C@H]2CCCC[C@@H]21
REMARK SMILES IDX 14 1 13 2 12 3 11 4 9 5 10 6 8 7 7 8 87 9 80 10 82 11 86 12
REMARK SMILES IDX 81 13 83 14 85 15 84 16 5 17 4 18 6 20 3 21 2 22 1 23 15 24
REMARK SMILES IDX 16 25 17 26 18 27 19 28 20 29 21 30 79 31 22 32 78 33 23 34
REMARK SMILES IDX 24 35 25 36 72 37 26 38 77 39 71 40 73 41 27 42 76 43 70 44
REMARK SMILES IDX 69 45 28 47 58 48 39 49 57 50 40 51 43 52 56 53 74 54 41 55
REMARK SMILES IDX 42 56 55 58 75 59 44 60 29 61 30 62 38 63 31 64 37 65 32 66
REMARK SMILES IDX 33 67 34 68 35 69 36 70 59 71 60 72 68 73 61 74 67 75 62 76
REMARK SMILES IDX 63 77 64 78 65 79 66 80 45 81 46 82 54 83 47 84 53 85 48 86
REMARK SMILES IDX 49 87 50 88 51 89 52 90
REMARK H PARENT 4 19 73 46 43 57
REMARK Flexibility Score: inf
ROOT
ATOM      1  O   UNL     1      -5.521  -0.247  -3.126  1.00  0.00    -0.374 OA
ENDROOT
BRANCH   1   2
ATOM      2  C   UNL     1      -5.030  -1.498  -3.626  1.00  0.00     0.202 C 
BRANCH   2   3
ATOM      3  C   UNL     1      -4.324  -1.481  -4.987  1.00  0.00     0.261 C 
BRANCH   3   4
ATOM      4  O   UNL     1      -3.083  -0.751  -4.916  1.00  0.00    -0.462 OA
BRANCH   4   5
ATOM      5  C   UNL     1      -2.917   0.247  -5.810  1.00  0.00     0.329 C 
ATOM      6  O   UNL     1      -3.737   0.518  -6.688  1.00  0.00    -0.250 OA
BRANCH   5   7
ATOM      7  C   UNL     1      -1.729   1.205  -5.534  1.00  0.00     0.197 C 
ATOM      8  N   UNL     1      -0.451   0.987  -4.826  1.00  0.00    -0.308 N 
ATOM      9  C   UNL     1       0.574   2.014  -5.106  1.00  0.00     0.091 C 
ATOM     10  C   UNL     1      -2.324   2.513  -4.925  1.00  0.00     0.038 C 
ATOM     11  C   UNL     1      -0.060   3.346  -5.578  1.00  0.00     0.012 C 
ATOM     12  C   UNL     1       1.603   1.583  -6.160  1.00  0.00     0.025 C 
ATOM     13  C   UNL     1      -1.299   3.646  -4.751  1.00  0.00     0.008 C 
ATOM     14  C   UNL     1       0.995   4.445  -5.568  1.00  0.00     0.006 C 
ATOM     15  C   UNL     1       2.677   2.671  -6.316  1.00  0.00     0.002 C 
ATOM     16  C   UNL     1       2.102   4.073  -6.558  1.00  0.00     0.000 C 
BRANCH   8  17
ATOM     17  C   UNL     1      -0.216  -0.134  -4.082  1.00  0.00     0.318 C 
ATOM     18  N   UNL     1       0.468  -0.048  -2.912  1.00  0.00    -0.338 N 
ATOM     19  H   UNL     1       0.787  -0.914  -2.571  1.00  0.00     0.165 HD
ATOM     20  O   UNL     1      -0.600  -1.249  -4.427  1.00  0.00    -0.249 OA
BRANCH  18  21
ATOM     21  C   UNL     1       0.818   1.083  -2.069  1.00  0.00     0.117 C 
BRANCH  21  22
ATOM     22  C   UNL     1       0.406   0.919  -0.606  1.00  0.00     0.018 C 
ATOM     23  C   UNL     1       1.109  -0.214   0.123  1.00  0.00     0.006 C 
ENDBRANCH  21  22
ENDBRANCH  18  21
ENDBRANCH   8  17
ENDBRANCH   5   7
ENDBRANCH   4   5
ENDBRANCH   3   4
ENDBRANCH   2   3
ENDBRANCH   1   2
BRANCH   1  24
ATOM     24  C   UNL     1      -4.540   0.702  -2.726  1.00  0.00     0.202 C 
BRANCH  24  25
ATOM     25  C   UNL     1      -3.922   0.582  -1.330  1.00  0.00     0.261 C 
BRANCH  25  26
ATOM     26  O   UNL     1      -3.481  -0.742  -1.023  1.00  0.00    -0.460 OA
BRANCH  26  27
ATOM     27  C   UNL     1      -4.406  -1.470  -0.356  1.00  0.00     0.338 C 
ATOM     28  O   UNL     1      -5.478  -1.077   0.087  1.00  0.00    -0.246 OA
BRANCH  27  29
ATOM     29  C   UNL     1      -4.020  -2.888  -0.366  1.00  0.00     0.060 A 
ATOM     30  C   UNL     1      -4.979  -3.811  -0.804  1.00  0.00     0.016 A 
ATOM     31  C   UNL     1      -2.772  -3.312   0.093  1.00  0.00     0.016 A 
ATOM     32  C   UNL     1      -4.716  -5.173  -0.721  1.00  0.00     0.010 A 
ATOM     33  C   UNL     1      -2.514  -4.680   0.184  1.00  0.00     0.010 A 
ATOM     34  C   UNL     1      -3.502  -5.613  -0.180  1.00  0.00    -0.014 A 
BRANCH  34  35
ATOM     35  C   UNL     1      -3.341  -7.040   0.172  1.00  0.00     0.031 A 
ATOM     36  C   UNL     1      -3.530  -7.449   1.608  1.00  0.00     0.074 A 
ATOM     37  C   UNL     1      -3.070  -7.956  -0.773  1.00  0.00     0.049 A 
ATOM     38  N   UNL     1      -3.401  -8.628   2.157  1.00  0.00    -0.248 NA
ATOM     39  C   UNL     1      -3.913  -6.384   2.551  1.00  0.00     0.031 C 
ATOM     40  C   UNL     1      -2.923  -7.679  -2.202  1.00  0.00     0.029 A 
ATOM     41  N   UNL     1      -2.869  -9.308  -0.669  1.00  0.00    -0.354 N 
ATOM     42  C   UNL     1      -3.677  -8.446   3.507  1.00  0.00     0.074 A 
ATOM     43  C   UNL     1      -3.947  -7.039   3.701  1.00  0.00     0.031 C 
ATOM     44  C   UNL     1      -2.652  -8.830  -2.842  1.00  0.00     0.029 A 
ATOM     45  C   UNL     1      -2.567  -9.913  -1.865  1.00  0.00     0.049 A 
ATOM     46  H   UNL     1      -2.935  -9.799   0.182  1.00  0.00     0.167 HD
ATOM     47  C   UNL     1      -3.710  -9.372   4.495  1.00  0.00     0.031 A 
ATOM     48  C   UNL     1      -2.238 -11.192  -2.133  1.00  0.00     0.031 A 
ATOM     49  C   UNL     1      -3.427 -10.767   4.292  1.00  0.00     0.049 A 
ATOM     50  C   UNL     1      -2.197 -12.187  -1.002  1.00  0.00     0.074 A 
ATOM     51  C   UNL     1      -3.432 -11.791   5.222  1.00  0.00     0.029 A 
ATOM     52  N   UNL     1      -3.084 -11.334   3.073  1.00  0.00    -0.354 N 
ATOM     53  N   UNL     1      -2.468 -12.005   0.269  1.00  0.00    -0.248 NA
ATOM     54  C   UNL     1      -1.814 -13.564  -1.344  1.00  0.00     0.031 C 
ATOM     55  C   UNL     1      -3.035 -12.966   4.577  1.00  0.00     0.029 A 
ATOM     56  C   UNL     1      -2.852 -12.689   3.231  1.00  0.00     0.049 A 
ATOM     57  H   UNL     1      -3.016 -10.845   2.221  1.00  0.00     0.167 HD
ATOM     58  C   UNL     1      -2.323 -13.251   0.871  1.00  0.00     0.074 A 
ATOM     59  C   UNL     1      -1.950 -14.179  -0.177  1.00  0.00     0.031 C 
ATOM     60  C   UNL     1      -2.488 -13.598   2.172  1.00  0.00     0.031 A 
BRANCH  47  61
ATOM     61  C   UNL     1      -4.032  -8.895   5.887  1.00  0.00    -0.014 A 
ATOM     62  C   UNL     1      -5.323  -8.454   6.229  1.00  0.00     0.010 A 
ATOM     63  C   UNL     1      -3.034  -8.921   6.879  1.00  0.00     0.010 A 
ATOM     64  C   UNL     1      -5.600  -8.014   7.527  1.00  0.00     0.020 A 
ATOM     65  C   UNL     1      -3.314  -8.509   8.184  1.00  0.00     0.020 A 
ATOM     66  C   UNL     1      -4.593  -8.043   8.496  1.00  0.00     0.054 A 
BRANCH  66  67
ATOM     67  S   UNL     1      -4.988  -7.490  10.178  1.00  0.00     0.124 S 
ATOM     68  O   UNL     1      -5.125  -6.047   9.996  1.00  0.00    -0.237 OA
ATOM     69  O   UNL     1      -6.227  -8.207  10.467  1.00  0.00    -0.237 OA
ATOM     70  O   UNL     1      -3.830  -7.910  10.963  1.00  0.00    -0.744 OA
ENDBRANCH  66  67
ENDBRANCH  47  61
BRANCH  48  71
ATOM     71  C   UNL     1      -1.906 -11.601  -3.526  1.00  0.00    -0.014 A 
ATOM     72  C   UNL     1      -2.746 -12.475  -4.237  1.00  0.00     0.010 A 
ATOM     73  C   UNL     1      -0.737 -11.122  -4.147  1.00  0.00     0.010 A 
ATOM     74  C   UNL     1      -2.413 -12.880  -5.534  1.00  0.00     0.020 A 
ATOM     75  C   UNL     1      -0.416 -11.500  -5.453  1.00  0.00     0.020 A 
ATOM     76  C   UNL     1      -1.250 -12.389  -6.134  1.00  0.00     0.054 A 
BRANCH  76  77
ATOM     77  S   UNL     1      -0.857 -12.902  -7.829  1.00  0.00     0.124 S 
ATOM     78  O   UNL     1      -0.460 -14.293  -7.641  1.00  0.00    -0.237 OA
ATOM     79  O   UNL     1      -2.125 -12.693  -8.523  1.00  0.00    -0.237 OA
ATOM     80  O   UNL     1       0.217 -11.992  -8.222  1.00  0.00    -0.744 OA
ENDBRANCH  76  77
ENDBRANCH  48  71
BRANCH  60  81
ATOM     81  C   UNL     1      -2.319 -15.051   2.532  1.00  0.00    -0.014 A 
ATOM     82  C   UNL     1      -1.054 -15.663   2.542  1.00  0.00     0.010 A 
ATOM     83  C   UNL     1      -3.445 -15.797   2.930  1.00  0.00     0.010 A 
ATOM     84  C   UNL     1      -0.922 -17.004   2.915  1.00  0.00     0.020 A 
ATOM     85  C   UNL     1      -3.313 -17.127   3.333  1.00  0.00     0.020 A 
ATOM     86  C   UNL     1      -2.053 -17.726   3.311  1.00  0.00     0.054 A 
BRANCH  86  87
ATOM     87  S   UNL     1      -1.847 -19.449   3.838  1.00  0.00     0.124 S 
ATOM     88  O   UNL     1      -1.576 -20.125   2.572  1.00  0.00    -0.237 OA
ATOM     89  O   UNL     1      -0.717 -19.368   4.761  1.00  0.00    -0.237 OA
ATOM     90  O   UNL     1      -3.128 -19.778   4.459  1.00  0.00    -0.744 OA
ENDBRANCH  86  87
ENDBRANCH  60  81
ENDBRANCH  34  35
ENDBRANCH  27  29
ENDBRANCH  26  27
ENDBRANCH  25  26
ENDBRANCH  24  25
ENDBRANCH   1  24
TORSDOF 20
