REMARK SMILES CC(C)CCc1cc2c(cc1Cl)C=C(C(=O)OCCOCCOC(=O)c1ccc(-c3c4nc(c(-c5ccc(S(=O)(=O)[O-])cc5)c5ccc([nH]5)c(-c5ccc(S(=O)(=O)[O-])cc5)c5nc(c(-c6ccc(S(=O)(=O)[O-])cc6)c6ccc3[nH]6)C=C5)C=C4)cc1)[C@H](C(F)(F)F)O2
REMARK SMILES IDX 20 1 19 2 18 3 17 4 15 5 16 6 14 7 6 8 7 9 11 10 8 11 10 12
REMARK SMILES IDX 12 13 9 14 91 15 13 16 86 17 5 18 4 19 2 20 1 21 3 22 87 23
REMARK SMILES IDX 88 24 89 25 90 26 21 27 22 28 23 29 24 30 25 31 26 32 27 33
REMARK SMILES IDX 85 34 28 35 84 36 29 37 30 38 31 39 78 40 32 41 83 42 77 43
REMARK SMILES IDX 79 44 33 45 82 46 76 47 75 48 34 50 64 51 45 52 63 53 46 54
REMARK SMILES IDX 49 55 62 56 80 57 47 58 48 59 61 61 81 62 50 63 35 64 36 65
REMARK SMILES IDX 44 66 37 67 43 68 38 69 39 70 40 71 41 72 42 73 65 74 66 75
REMARK SMILES IDX 74 76 67 77 73 78 68 79 69 80 70 81 71 82 72 83 51 84 52 85
REMARK SMILES IDX 60 86 53 87 59 88 54 89 55 90 56 91 57 92 58 93
REMARK H PARENT 79 49 49 60
REMARK Flexibility Score: inf
ROOT
ATOM      1  O   UNL     1       1.624   8.561  -6.825  1.00  0.00    -0.374 OA
ENDROOT
BRANCH   1   2
ATOM      2  C   UNL     1       0.719   9.656  -6.672  1.00  0.00     0.202 C 
BRANCH   2   3
ATOM      3  C   UNL     1      -0.770   9.306  -6.632  1.00  0.00     0.261 C 
BRANCH   3   4
ATOM      4  O   UNL     1      -1.054   8.484  -5.488  1.00  0.00    -0.460 OA
BRANCH   4   5
ATOM      5  C   UNL     1      -1.330   7.201  -5.783  1.00  0.00     0.338 C 
ATOM      6  O   UNL     1      -1.599   6.759  -6.890  1.00  0.00    -0.246 OA
BRANCH   5   7
ATOM      7  C   UNL     1      -1.121   6.337  -4.607  1.00  0.00     0.087 C 
ATOM      8  C   UNL     1      -1.110   1.967  -2.116  1.00  0.00    -0.026 A 
ATOM      9  C   UNL     1      -1.421   3.309  -1.773  1.00  0.00     0.052 A 
ATOM     10  C   UNL     1      -0.601   1.733  -3.405  1.00  0.00     0.045 A 
ATOM     11  C   UNL     1      -1.244   4.362  -2.674  1.00  0.00     0.128 A 
ATOM     12  C   UNL     1      -0.335   2.799  -4.267  1.00  0.00     0.032 A 
ATOM     13  Cl  UNL     1      -0.380   0.178  -4.121  1.00  0.00    -0.084 Cl
ATOM     14  C   UNL     1      -0.685   4.100  -3.917  1.00  0.00     0.019 A 
ATOM     15  O   UNL     1      -1.735   5.586  -2.314  1.00  0.00    -0.475 OA
ATOM     16  C   UNL     1      -0.657   5.125  -4.931  1.00  0.00     0.027 C 
ATOM     17  C   UNL     1      -1.498   6.730  -3.201  1.00  0.00     0.316 C 
BRANCH   8  18
ATOM     18  C   UNL     1      -1.484   0.927  -1.076  1.00  0.00     0.037 C 
BRANCH  18  19
ATOM     19  C   UNL     1      -0.872  -0.480  -1.085  1.00  0.00     0.008 C 
BRANCH  19  20
ATOM     20  C   UNL     1       0.666  -0.534  -1.009  1.00  0.00    -0.017 C 
ATOM     21  C   UNL     1       1.177  -0.202   0.391  1.00  0.00     0.007 C 
ATOM     22  C   UNL     1       1.159  -1.919  -1.436  1.00  0.00     0.007 C 
ENDBRANCH  19  20
ENDBRANCH  18  19
ENDBRANCH   8  18
BRANCH  17  23
ATOM     23  C   UNL     1      -0.482   7.659  -2.502  1.00  0.00     0.430 C 
ATOM     24  F   UNL     1      -0.847   7.897  -1.218  1.00  0.00    -0.167 F 
ATOM     25  F   UNL     1       0.759   7.114  -2.469  1.00  0.00    -0.167 F 
ATOM     26  F   UNL     1      -0.376   8.866  -3.096  1.00  0.00    -0.167 F 
ENDBRANCH  17  23
ENDBRANCH   5   7
ENDBRANCH   4   5
ENDBRANCH   3   4
ENDBRANCH   2   3
ENDBRANCH   1   2
BRANCH   1  27
ATOM     27  C   UNL     1       2.015   7.864  -5.640  1.00  0.00     0.202 C 
BRANCH  27  28
ATOM     28  C   UNL     1       3.041   8.545  -4.724  1.00  0.00     0.261 C 
BRANCH  28  29
ATOM     29  O   UNL     1       2.469   9.673  -4.038  1.00  0.00    -0.460 OA
BRANCH  29  30
ATOM     30  C   UNL     1       2.881  10.887  -4.479  1.00  0.00     0.338 C 
ATOM     31  O   UNL     1       3.755  11.108  -5.301  1.00  0.00    -0.246 OA
BRANCH  30  32
ATOM     32  C   UNL     1       1.941  11.924  -4.000  1.00  0.00     0.060 A 
ATOM     33  C   UNL     1       1.527  11.996  -2.670  1.00  0.00     0.016 A 
ATOM     34  C   UNL     1       1.470  12.854  -4.939  1.00  0.00     0.016 A 
ATOM     35  C   UNL     1       0.679  13.035  -2.272  1.00  0.00     0.010 A 
ATOM     36  C   UNL     1       0.624  13.889  -4.541  1.00  0.00     0.010 A 
ATOM     37  C   UNL     1       0.247  14.007  -3.197  1.00  0.00    -0.014 A 
BRANCH  37  38
ATOM     38  C   UNL     1      -0.433  15.240  -2.726  1.00  0.00     0.031 A 
ATOM     39  C   UNL     1      -1.887  15.501  -2.982  1.00  0.00     0.074 A 
ATOM     40  C   UNL     1       0.314  16.162  -2.085  1.00  0.00     0.049 A 
ATOM     41  N   UNL     1      -2.622  16.500  -2.561  1.00  0.00    -0.248 NA
ATOM     42  C   UNL     1      -2.611  14.532  -3.817  1.00  0.00     0.031 C 
ATOM     43  C   UNL     1       1.750  16.038  -1.829  1.00  0.00     0.029 A 
ATOM     44  N   UNL     1      -0.022  17.368  -1.524  1.00  0.00    -0.354 N 
ATOM     45  C   UNL     1      -3.898  16.273  -3.059  1.00  0.00     0.074 A 
ATOM     46  C   UNL     1      -3.827  15.068  -3.858  1.00  0.00     0.031 C 
ATOM     47  C   UNL     1       2.162  17.100  -1.123  1.00  0.00     0.029 A 
ATOM     48  C   UNL     1       1.033  18.000  -0.909  1.00  0.00     0.049 A 
ATOM     49  H   UNL     1      -0.931  17.745  -1.559  1.00  0.00     0.167 HD
ATOM     50  C   UNL     1      -5.025  16.995  -2.845  1.00  0.00     0.031 A 
ATOM     51  C   UNL     1       1.093  19.167  -0.236  1.00  0.00     0.031 A 
ATOM     52  C   UNL     1      -5.075  18.205  -2.058  1.00  0.00     0.049 A 
ATOM     53  C   UNL     1      -0.166  19.963  -0.039  1.00  0.00     0.074 A 
ATOM     54  C   UNL     1      -6.184  18.970  -1.738  1.00  0.00     0.029 A 
ATOM     55  N   UNL     1      -3.982  18.835  -1.480  1.00  0.00    -0.354 N 
ATOM     56  N   UNL     1      -1.386  19.677  -0.425  1.00  0.00    -0.248 NA
ATOM     57  C   UNL     1      -0.047  21.228   0.698  1.00  0.00     0.031 C 
ATOM     58  C   UNL     1      -5.753  20.102  -1.044  1.00  0.00     0.029 A 
ATOM     59  C   UNL     1      -4.385  20.002  -0.849  1.00  0.00     0.049 A 
ATOM     60  H   UNL     1      -3.056  18.502  -1.514  1.00  0.00     0.167 HD
ATOM     61  C   UNL     1      -2.183  20.723   0.029  1.00  0.00     0.074 A 
ATOM     62  C   UNL     1      -1.311  21.628   0.750  1.00  0.00     0.031 C 
ATOM     63  C   UNL     1      -3.513  20.915  -0.147  1.00  0.00     0.031 A 
BRANCH  50  64
ATOM     64  C   UNL     1      -6.324  16.500  -3.434  1.00  0.00    -0.014 A 
ATOM     65  C   UNL     1      -7.013  17.283  -4.380  1.00  0.00     0.010 A 
ATOM     66  C   UNL     1      -6.943  15.342  -2.929  1.00  0.00     0.010 A 
ATOM     67  C   UNL     1      -8.312  16.944  -4.774  1.00  0.00     0.020 A 
ATOM     68  C   UNL     1      -8.229  14.983  -3.344  1.00  0.00     0.020 A 
ATOM     69  C   UNL     1      -8.916  15.802  -4.243  1.00  0.00     0.054 A 
BRANCH  69  70
ATOM     70  S   UNL     1     -10.623  15.412  -4.720  1.00  0.00     0.124 S 
ATOM     71  O   UNL     1     -11.383  16.443  -4.020  1.00  0.00    -0.237 OA
ATOM     72  O   UNL     1     -10.581  15.534  -6.175  1.00  0.00    -0.237 OA
ATOM     73  O   UNL     1     -10.814  14.050  -4.224  1.00  0.00    -0.744 OA
ENDBRANCH  69  70
ENDBRANCH  50  64
BRANCH  51  74
ATOM     74  C   UNL     1       2.395  19.601   0.343  1.00  0.00    -0.014 A 
ATOM     75  C   UNL     1       3.478  19.924  -0.497  1.00  0.00     0.010 A 
ATOM     76  C   UNL     1       2.590  19.598   1.735  1.00  0.00     0.010 A 
ATOM     77  C   UNL     1       4.745  20.166   0.038  1.00  0.00     0.020 A 
ATOM     78  C   UNL     1       3.849  19.877   2.277  1.00  0.00     0.020 A 
ATOM     79  C   UNL     1       4.925  20.126   1.423  1.00  0.00     0.054 A 
BRANCH  79  80
ATOM     80  S   UNL     1       6.594  20.372   2.089  1.00  0.00     0.124 S 
ATOM     81  O   UNL     1       7.245  19.113   1.735  1.00  0.00    -0.237 OA
ATOM     82  O   UNL     1       7.058  21.548   1.358  1.00  0.00    -0.237 OA
ATOM     83  O   UNL     1       6.367  20.577   3.517  1.00  0.00    -0.744 OA
ENDBRANCH  79  80
ENDBRANCH  51  74
BRANCH  63  84
ATOM     84  C   UNL     1      -4.130  22.172   0.421  1.00  0.00    -0.014 A 
ATOM     85  C   UNL     1      -5.106  22.086   1.431  1.00  0.00     0.010 A 
ATOM     86  C   UNL     1      -3.825  23.432  -0.125  1.00  0.00     0.010 A 
ATOM     87  C   UNL     1      -5.793  23.227   1.857  1.00  0.00     0.020 A 
ATOM     88  C   UNL     1      -4.482  24.582   0.325  1.00  0.00     0.020 A 
ATOM     89  C   UNL     1      -5.481  24.468   1.294  1.00  0.00     0.054 A 
BRANCH  89  90
ATOM     90  S   UNL     1      -6.402  25.932   1.839  1.00  0.00     0.124 S 
ATOM     91  O   UNL     1      -7.700  25.735   1.200  1.00  0.00    -0.237 OA
ATOM     92  O   UNL     1      -6.389  25.796   3.294  1.00  0.00    -0.237 OA
ATOM     93  O   UNL     1      -5.614  27.048   1.319  1.00  0.00    -0.744 OA
ENDBRANCH  89  90
ENDBRANCH  63  84
ENDBRANCH  37  38
ENDBRANCH  30  32
ENDBRANCH  29  30
ENDBRANCH  28  29
ENDBRANCH  27  28
ENDBRANCH   1  27
TORSDOF 21
