REMARK SMILES CCC[C@@H](Oc1ccc(-c2ccccc2)cc1)C(=O)OCCOCCOC(=O)c1ccc(-c2c3nc(c(-c4ccc(S(=O)(=O)[O-])cc4)c4ccc([nH]4)c(-c4ccc(S(=O)(=O)[O-])cc4)c4nc(c(-c5ccc(S(=O)(=O)[O-])cc5)c5ccc2[nH]5)C=C4)C=C3)cc1
REMARK SMILES IDX 23 1 22 2 21 3 20 4 18 5 19 6 4 7 3 8 2 9 1 10 5 11 6 12
REMARK SMILES IDX 7 13 17 14 8 15 16 16 9 17 10 18 11 19 15 20 12 21 14 22
REMARK SMILES IDX 13 23 24 24 25 25 26 26 27 27 28 28 29 29 30 30 88 31 31 32
REMARK SMILES IDX 87 33 32 34 33 35 34 36 81 37 35 38 86 39 80 40 82 41 36 42
REMARK SMILES IDX 85 43 79 44 78 45 37 47 67 48 48 49 66 50 49 51 52 52 65 53
REMARK SMILES IDX 83 54 50 55 51 56 64 58 84 59 53 60 38 61 39 62 47 63 40 64
REMARK SMILES IDX 46 65 41 66 42 67 43 68 44 69 45 70 68 71 69 72 77 73 70 74
REMARK SMILES IDX 76 75 71 76 72 77 73 78 74 79 75 80 54 81 55 82 63 83 56 84
REMARK SMILES IDX 62 85 57 86 58 87 59 88 60 89 61 90
REMARK H PARENT 82 46 52 57
REMARK Flexibility Score: inf
ROOT
ATOM      1  O   UNL     1       3.431   5.484  -2.736  1.00  0.00    -0.374 OA
ENDROOT
BRANCH   1   2
ATOM      2  C   UNL     1       2.334   6.312  -2.341  1.00  0.00     0.202 C 
BRANCH   2   3
ATOM      3  C   UNL     1       0.925   5.766  -2.596  1.00  0.00     0.261 C 
BRANCH   3   4
ATOM      4  O   UNL     1       0.578   4.710  -1.677  1.00  0.00    -0.461 OA
BRANCH   4   5
ATOM      5  C   UNL     1       0.268   3.501  -2.227  1.00  0.00     0.347 C 
ATOM      6  O   UNL     1       0.304   3.244  -3.426  1.00  0.00    -0.248 OA
BRANCH   5   7
ATOM      7  C   UNL     1      -0.119   2.465  -1.169  1.00  0.00     0.282 C 
BRANCH   7   8
ATOM      8  C   UNL     1       0.900   2.432  -0.009  1.00  0.00     0.057 C 
BRANCH   8   9
ATOM      9  C   UNL     1       1.119   1.086   0.702  1.00  0.00     0.001 C 
ATOM     10  C   UNL     1       1.456  -0.077  -0.217  1.00  0.00     0.004 C 
ENDBRANCH   8   9
ENDBRANCH   7   8
BRANCH   7  11
ATOM     11  O   UNL     1      -1.433   2.848  -0.730  1.00  0.00    -0.479 OA
BRANCH  11  12
ATOM     12  C   UNL     1      -2.145   1.771  -0.292  1.00  0.00     0.120 A 
ATOM     13  C   UNL     1      -2.842   0.956  -1.176  1.00  0.00     0.047 A 
ATOM     14  C   UNL     1      -2.192   1.530   1.071  1.00  0.00     0.047 A 
ATOM     15  C   UNL     1      -3.544  -0.152  -0.683  1.00  0.00     0.012 A 
ATOM     16  C   UNL     1      -2.843   0.396   1.549  1.00  0.00     0.012 A 
ATOM     17  C   UNL     1      -3.546  -0.470   0.690  1.00  0.00    -0.018 A 
BRANCH  17  18
ATOM     18  C   UNL     1      -4.266  -1.647   1.233  1.00  0.00    -0.018 A 
ATOM     19  C   UNL     1      -4.428  -2.833   0.496  1.00  0.00     0.009 A 
ATOM     20  C   UNL     1      -4.813  -1.624   2.532  1.00  0.00     0.009 A 
ATOM     21  C   UNL     1      -5.102  -3.938   1.030  1.00  0.00     0.001 A 
ATOM     22  C   UNL     1      -5.471  -2.729   3.075  1.00  0.00     0.001 A 
ATOM     23  C   UNL     1      -5.619  -3.887   2.322  1.00  0.00     0.000 A 
ENDBRANCH  17  18
ENDBRANCH  11  12
ENDBRANCH   7  11
ENDBRANCH   5   7
ENDBRANCH   4   5
ENDBRANCH   3   4
ENDBRANCH   2   3
ENDBRANCH   1   2
BRANCH   1  24
ATOM     24  C   UNL     1       3.666   4.306  -1.973  1.00  0.00     0.202 C 
BRANCH  24  25
ATOM     25  C   UNL     1       4.348   4.483  -0.608  1.00  0.00     0.261 C 
BRANCH  25  26
ATOM     26  O   UNL     1       3.667   5.408   0.258  1.00  0.00    -0.460 OA
BRANCH  26  27
ATOM     27  C   UNL     1       4.353   6.555   0.488  1.00  0.00     0.338 C 
ATOM     28  O   UNL     1       5.494   6.814   0.122  1.00  0.00    -0.246 OA
BRANCH  27  29
ATOM     29  C   UNL     1       3.498   7.575   1.121  1.00  0.00     0.060 A 
ATOM     30  C   UNL     1       3.397   8.808   0.467  1.00  0.00     0.016 A 
ATOM     31  C   UNL     1       2.914   7.390   2.377  1.00  0.00     0.016 A 
ATOM     32  C   UNL     1       2.770   9.881   1.095  1.00  0.00     0.010 A 
ATOM     33  C   UNL     1       2.284   8.474   3.007  1.00  0.00     0.010 A 
ATOM     34  C   UNL     1       2.248   9.737   2.388  1.00  0.00    -0.014 A 
BRANCH  34  35
ATOM     35  C   UNL     1       1.801  10.957   3.108  1.00  0.00     0.031 A 
ATOM     36  C   UNL     1       2.724  11.610   4.105  1.00  0.00     0.074 A 
ATOM     37  C   UNL     1       0.628  11.540   2.800  1.00  0.00     0.049 A 
ATOM     38  N   UNL     1       2.588  12.750   4.735  1.00  0.00    -0.248 NA
ATOM     39  C   UNL     1       3.965  10.889   4.430  1.00  0.00     0.031 C 
ATOM     40  C   UNL     1      -0.343  11.026   1.835  1.00  0.00     0.029 A 
ATOM     41  N   UNL     1       0.067  12.709   3.252  1.00  0.00    -0.354 N 
ATOM     42  C   UNL     1       3.725  12.887   5.524  1.00  0.00     0.074 A 
ATOM     43  C   UNL     1       4.522  11.695   5.323  1.00  0.00     0.031 C 
ATOM     44  C   UNL     1      -1.373  11.885   1.754  1.00  0.00     0.029 A 
ATOM     45  C   UNL     1      -1.144  13.000   2.670  1.00  0.00     0.049 A 
ATOM     46  H   UNL     1       0.491  13.284   3.930  1.00  0.00     0.167 HD
ATOM     47  C   UNL     1       4.083  13.914   6.332  1.00  0.00     0.031 A 
ATOM     48  C   UNL     1      -1.971  14.049   2.847  1.00  0.00     0.031 A 
ATOM     49  C   UNL     1       3.287  15.095   6.545  1.00  0.00     0.049 A 
ATOM     50  C   UNL     1      -1.572  15.159   3.782  1.00  0.00     0.074 A 
ATOM     51  C   UNL     1       3.573  16.195   7.336  1.00  0.00     0.029 A 
ATOM     52  N   UNL     1       2.046  15.328   5.973  1.00  0.00    -0.354 N 
ATOM     53  N   UNL     1      -0.475  15.288   4.490  1.00  0.00    -0.248 NA
ATOM     54  C   UNL     1      -2.516  16.277   3.925  1.00  0.00     0.031 C 
ATOM     55  C   UNL     1       2.483  17.071   7.279  1.00  0.00     0.029 A 
ATOM     56  C   UNL     1       1.543  16.542   6.409  1.00  0.00     0.049 A 
ATOM     57  H   UNL     1       1.590  14.719   5.347  1.00  0.00     0.167 HD
ATOM     58  C   UNL     1      -0.587  16.512   5.143  1.00  0.00     0.074 A 
ATOM     59  C   UNL     1      -1.849  17.091   4.731  1.00  0.00     0.031 C 
ATOM     60  C   UNL     1       0.280  17.104   6.003  1.00  0.00     0.031 A 
BRANCH  47  61
ATOM     61  C   UNL     1       5.390  13.792   7.070  1.00  0.00    -0.014 A 
ATOM     62  C   UNL     1       6.620  13.909   6.398  1.00  0.00     0.010 A 
ATOM     63  C   UNL     1       5.388  13.592   8.463  1.00  0.00     0.010 A 
ATOM     64  C   UNL     1       7.824  13.790   7.098  1.00  0.00     0.020 A 
ATOM     65  C   UNL     1       6.590  13.497   9.171  1.00  0.00     0.020 A 
ATOM     66  C   UNL     1       7.801  13.579   8.481  1.00  0.00     0.054 A 
BRANCH  66  67
ATOM     67  S   UNL     1       9.377  13.444   9.370  1.00  0.00     0.124 S 
ATOM     68  O   UNL     1       9.830  12.112   8.975  1.00  0.00    -0.237 OA
ATOM     69  O   UNL     1      10.150  14.557   8.826  1.00  0.00    -0.237 OA
ATOM     70  O   UNL     1       8.996  13.581  10.773  1.00  0.00    -0.744 OA
ENDBRANCH  66  67
ENDBRANCH  47  61
BRANCH  48  71
ATOM     71  C   UNL     1      -3.265  14.103   2.112  1.00  0.00    -0.014 A 
ATOM     72  C   UNL     1      -3.469  15.033   1.078  1.00  0.00     0.010 A 
ATOM     73  C   UNL     1      -4.302  13.214   2.448  1.00  0.00     0.010 A 
ATOM     74  C   UNL     1      -4.693  15.082   0.403  1.00  0.00     0.020 A 
ATOM     75  C   UNL     1      -5.516  13.242   1.758  1.00  0.00     0.020 A 
ATOM     76  C   UNL     1      -5.708  14.184   0.746  1.00  0.00     0.054 A 
BRANCH  76  77
ATOM     77  S   UNL     1      -7.268  14.225  -0.180  1.00  0.00     0.124 S 
ATOM     78  O   UNL     1      -7.916  15.412   0.369  1.00  0.00    -0.237 OA
ATOM     79  O   UNL     1      -6.812  14.335  -1.564  1.00  0.00    -0.237 OA
ATOM     80  O   UNL     1      -7.899  12.952   0.159  1.00  0.00    -0.744 OA
ENDBRANCH  76  77
ENDBRANCH  48  71
BRANCH  60  81
ATOM     81  C   UNL     1      -0.098  18.462   6.535  1.00  0.00    -0.014 A 
ATOM     82  C   UNL     1      -1.137  18.619   7.469  1.00  0.00     0.010 A 
ATOM     83  C   UNL     1       0.613  19.598   6.106  1.00  0.00     0.010 A 
ATOM     84  C   UNL     1      -1.492  19.891   7.926  1.00  0.00     0.020 A 
ATOM     85  C   UNL     1       0.279  20.869   6.581  1.00  0.00     0.020 A 
ATOM     86  C   UNL     1      -0.787  21.010   7.471  1.00  0.00     0.054 A 
BRANCH  86  87
ATOM     87  S   UNL     1      -1.260  22.652   8.081  1.00  0.00     0.124 S 
ATOM     88  O   UNL     1      -2.470  22.924   7.310  1.00  0.00    -0.237 OA
ATOM     89  O   UNL     1      -1.463  22.421   9.509  1.00  0.00    -0.237 OA
ATOM     90  O   UNL     1      -0.109  23.488   7.749  1.00  0.00    -0.744 OA
ENDBRANCH  86  87
ENDBRANCH  60  81
ENDBRANCH  34  35
ENDBRANCH  27  29
ENDBRANCH  26  27
ENDBRANCH  25  26
ENDBRANCH  24  25
ENDBRANCH   1  24
TORSDOF 22
