REMARK SMILES CC(C)[C@H](CO)Nc1ccc(C(F)(F)F)cc1C(=O)OCCOCCOC(=O)c1ccc(-c2c3nc(c(-c4ccc(S(=O)(=O)[O-])cc4)c4ccc([nH]4)c(-c4ccc(S(=O)(=O)[O-])cc4)c4nc(c(-c5ccc(S(=O)(=O)[O-])cc5)c5ccc2[nH]5)C=C4)C=C3)cc1
REMARK SMILES IDX 22 1 21 2 20 3 18 4 19 5 17 6 8 7 9 8 10 9 16 10 11 11 7 12
REMARK SMILES IDX 4 14 2 15 1 16 3 17 5 18 6 19 12 21 13 22 14 23 15 24 23 25
REMARK SMILES IDX 24 26 25 27 26 28 27 29 28 30 29 31 30 32 88 33 31 34 87 35
REMARK SMILES IDX 32 36 33 37 34 38 81 39 35 40 86 41 80 42 82 43 36 44 85 45
REMARK SMILES IDX 79 46 78 47 37 49 67 50 48 51 66 52 49 53 52 54 65 55 83 56
REMARK SMILES IDX 50 57 51 58 64 60 84 61 53 62 38 63 39 64 47 65 40 66 46 67
REMARK SMILES IDX 41 68 42 69 43 70 44 71 45 72 68 73 69 74 77 75 70 76 76 77
REMARK SMILES IDX 71 78 72 79 73 80 74 81 75 82 54 83 55 84 63 85 56 86 62 87
REMARK SMILES IDX 57 88 58 89 59 90 60 91 61 92
REMARK H PARENT 7 13 6 20 82 48 52 59
REMARK Flexibility Score: inf
ROOT
ATOM      1  C   UNL     1      -4.351  -0.441   1.105  1.00  0.00     0.202 C 
ENDROOT
BRANCH   1   2
ATOM      2  C   UNL     1      -3.495  -1.220   0.103  1.00  0.00     0.261 C 
BRANCH   2   3
ATOM      3  O   UNL     1      -3.139  -0.332  -0.970  1.00  0.00    -0.460 OA
BRANCH   3   4
ATOM      4  C   UNL     1      -2.907  -0.889  -2.175  1.00  0.00     0.340 C 
ATOM      5  O   UNL     1      -2.924  -2.081  -2.436  1.00  0.00    -0.246 OA
BRANCH   4   6
ATOM      6  C   UNL     1      -2.883   0.176  -3.209  1.00  0.00     0.083 A 
ATOM      7  C   UNL     1      -2.035   1.305  -3.262  1.00  0.00     0.049 A 
ATOM      8  C   UNL     1      -2.238   2.179  -4.356  1.00  0.00     0.027 A 
ATOM      9  C   UNL     1      -3.216   1.971  -5.335  1.00  0.00     0.015 A 
ATOM     10  C   UNL     1      -3.875  -0.029  -4.202  1.00  0.00     0.031 A 
ATOM     11  C   UNL     1      -4.056   0.864  -5.264  1.00  0.00     0.057 A 
BRANCH   7  12
ATOM     12  N   UNL     1      -0.990   1.670  -2.431  1.00  0.00    -0.379 N 
ATOM     13  H   UNL     1      -0.584   2.545  -2.630  1.00  0.00     0.160 HD
BRANCH  12  14
ATOM     14  C   UNL     1      -0.397   0.953  -1.303  1.00  0.00     0.107 C 
BRANCH  14  15
ATOM     15  C   UNL     1      -0.760   1.654   0.047  1.00  0.00     0.007 C 
ATOM     16  C   UNL     1       0.321   2.549   0.661  1.00  0.00     0.009 C 
ATOM     17  C   UNL     1      -2.043   2.491  -0.027  1.00  0.00     0.009 C 
ENDBRANCH  14  15
BRANCH  14  18
ATOM     18  C   UNL     1       1.119   0.763  -1.571  1.00  0.00     0.181 C 
BRANCH  18  19
ATOM     19  O   UNL     1       1.569  -0.513  -1.124  1.00  0.00    -0.394 OA
ATOM     20  H   UNL     1       1.425  -0.590  -0.167  1.00  0.00     0.210 HD
ENDBRANCH  18  19
ENDBRANCH  14  18
ENDBRANCH  12  14
ENDBRANCH   7  12
BRANCH  11  21
ATOM     21  C   UNL     1      -5.096   0.618  -6.326  1.00  0.00     0.416 C 
ATOM     22  F   UNL     1      -5.698   1.766  -6.749  1.00  0.00    -0.166 F 
ATOM     23  F   UNL     1      -4.574   0.041  -7.442  1.00  0.00    -0.166 F 
ATOM     24  F   UNL     1      -6.107  -0.198  -5.917  1.00  0.00    -0.166 F 
ENDBRANCH  11  21
ENDBRANCH   4   6
ENDBRANCH   3   4
ENDBRANCH   2   3
ENDBRANCH   1   2
BRANCH   1  25
ATOM     25  O   UNL     1      -5.675  -0.198   0.617  1.00  0.00    -0.374 OA
BRANCH  25  26
ATOM     26  C   UNL     1      -5.820   0.954  -0.217  1.00  0.00     0.202 C 
BRANCH  26  27
ATOM     27  C   UNL     1      -6.224   2.216   0.552  1.00  0.00     0.261 C 
BRANCH  27  28
ATOM     28  O   UNL     1      -5.134   2.731   1.339  1.00  0.00    -0.460 OA
BRANCH  28  29
ATOM     29  C   UNL     1      -5.170   2.435   2.661  1.00  0.00     0.338 C 
ATOM     30  O   UNL     1      -6.048   1.829   3.253  1.00  0.00    -0.246 OA
BRANCH  29  31
ATOM     31  C   UNL     1      -3.888   2.821   3.293  1.00  0.00     0.060 A 
ATOM     32  C   UNL     1      -3.324   1.940   4.224  1.00  0.00     0.016 A 
ATOM     33  C   UNL     1      -3.235   4.019   2.980  1.00  0.00     0.016 A 
ATOM     34  C   UNL     1      -2.128   2.269   4.868  1.00  0.00     0.010 A 
ATOM     35  C   UNL     1      -2.020   4.331   3.602  1.00  0.00     0.010 A 
ATOM     36  C   UNL     1      -1.481   3.480   4.584  1.00  0.00    -0.014 A 
BRANCH  36  37
ATOM     37  C   UNL     1      -0.362   3.942   5.448  1.00  0.00     0.031 A 
ATOM     38  C   UNL     1      -0.640   5.022   6.464  1.00  0.00     0.074 A 
ATOM     39  C   UNL     1       0.868   3.397   5.380  1.00  0.00     0.049 A 
ATOM     40  N   UNL     1       0.161   5.551   7.353  1.00  0.00    -0.248 NA
ATOM     41  C   UNL     1      -2.003   5.578   6.476  1.00  0.00     0.031 C 
ATOM     42  C   UNL     1       1.279   2.329   4.470  1.00  0.00     0.029 A 
ATOM     43  N   UNL     1       2.003   3.672   6.106  1.00  0.00    -0.354 N 
ATOM     44  C   UNL     1      -0.602   6.497   8.029  1.00  0.00     0.074 A 
ATOM     45  C   UNL     1      -1.907   6.512   7.407  1.00  0.00     0.031 C 
ATOM     46  C   UNL     1       2.572   2.034   4.697  1.00  0.00     0.029 A 
ATOM     47  C   UNL     1       3.085   2.897   5.760  1.00  0.00     0.049 A 
ATOM     48  H   UNL     1       2.037   4.360   6.809  1.00  0.00     0.167 HD
ATOM     49  C   UNL     1      -0.266   7.267   9.090  1.00  0.00     0.031 A 
ATOM     50  C   UNL     1       4.342   2.879   6.250  1.00  0.00     0.031 A 
ATOM     51  C   UNL     1       1.026   7.270   9.716  1.00  0.00     0.049 A 
ATOM     52  C   UNL     1       4.718   3.796   7.386  1.00  0.00     0.074 A 
ATOM     53  C   UNL     1       1.455   8.010  10.804  1.00  0.00     0.029 A 
ATOM     54  N   UNL     1       2.102   6.498   9.307  1.00  0.00    -0.354 N 
ATOM     55  N   UNL     1       3.970   4.655   8.037  1.00  0.00    -0.248 NA
ATOM     56  C   UNL     1       6.107   3.725   7.866  1.00  0.00     0.031 C 
ATOM     57  C   UNL     1       2.804   7.717  11.027  1.00  0.00     0.029 A 
ATOM     58  C   UNL     1       3.200   6.756  10.110  1.00  0.00     0.049 A 
ATOM     59  H   UNL     1       2.087   5.861   8.557  1.00  0.00     0.167 HD
ATOM     60  C   UNL     1       4.787   5.194   9.028  1.00  0.00     0.074 A 
ATOM     61  C   UNL     1       6.083   4.565   8.892  1.00  0.00     0.031 C 
ATOM     62  C   UNL     1       4.485   6.120   9.972  1.00  0.00     0.031 A 
BRANCH  49  63
ATOM     63  C   UNL     1      -1.332   8.184   9.625  1.00  0.00    -0.014 A 
ATOM     64  C   UNL     1      -2.446   7.671  10.315  1.00  0.00     0.010 A 
ATOM     65  C   UNL     1      -1.229   9.571   9.421  1.00  0.00     0.010 A 
ATOM     66  C   UNL     1      -3.468   8.523  10.739  1.00  0.00     0.020 A 
ATOM     67  C   UNL     1      -2.236  10.430   9.869  1.00  0.00     0.020 A 
ATOM     68  C   UNL     1      -3.361   9.896  10.503  1.00  0.00     0.054 A 
BRANCH  68  69
ATOM     69  S   UNL     1      -4.708  10.980  11.046  1.00  0.00     0.124 S 
ATOM     70  O   UNL     1      -5.730  10.716  10.035  1.00  0.00    -0.237 OA
ATOM     71  O   UNL     1      -5.006  10.479  12.385  1.00  0.00    -0.237 OA
ATOM     72  O   UNL     1      -4.117  12.315  11.001  1.00  0.00    -0.744 OA
ENDBRANCH  68  69
ENDBRANCH  49  63
BRANCH  50  73
ATOM     73  C   UNL     1       5.349   1.937   5.688  1.00  0.00    -0.014 A 
ATOM     74  C   UNL     1       5.786   0.830   6.437  1.00  0.00     0.010 A 
ATOM     75  C   UNL     1       5.895   2.157   4.410  1.00  0.00     0.010 A 
ATOM     76  C   UNL     1       6.764  -0.029   5.928  1.00  0.00     0.020 A 
ATOM     77  C   UNL     1       6.856   1.286   3.889  1.00  0.00     0.020 A 
ATOM     78  C   UNL     1       7.293   0.205   4.656  1.00  0.00     0.054 A 
BRANCH  78  79
ATOM     79  S   UNL     1       8.530  -0.948   3.998  1.00  0.00     0.124 S 
ATOM     80  O   UNL     1       9.719  -0.588   4.764  1.00  0.00    -0.237 OA
ATOM     81  O   UNL     1       7.944  -2.249   4.309  1.00  0.00    -0.237 OA
ATOM     82  O   UNL     1       8.577  -0.619   2.575  1.00  0.00    -0.744 OA
ENDBRANCH  78  79
ENDBRANCH  50  73
BRANCH  62  83
ATOM     83  C   UNL     1       5.555   6.482  10.969  1.00  0.00    -0.014 A 
ATOM     84  C   UNL     1       6.660   7.270  10.604  1.00  0.00     0.010 A 
ATOM     85  C   UNL     1       5.416   6.075  12.309  1.00  0.00     0.010 A 
ATOM     86  C   UNL     1       7.623   7.620  11.556  1.00  0.00     0.020 A 
ATOM     87  C   UNL     1       6.362   6.444  13.269  1.00  0.00     0.020 A 
ATOM     88  C   UNL     1       7.469   7.203  12.883  1.00  0.00     0.054 A 
BRANCH  88  89
ATOM     89  S   UNL     1       8.706   7.707  14.110  1.00  0.00     0.124 S 
ATOM     90  O   UNL     1       9.822   6.818  13.799  1.00  0.00    -0.237 OA
ATOM     91  O   UNL     1       8.919   9.118  13.793  1.00  0.00    -0.237 OA
ATOM     92  O   UNL     1       8.047   7.457  15.389  1.00  0.00    -0.744 OA
ENDBRANCH  88  89
ENDBRANCH  62  83
ENDBRANCH  36  37
ENDBRANCH  29  31
ENDBRANCH  28  29
ENDBRANCH  27  28
ENDBRANCH  26  27
ENDBRANCH  25  26
ENDBRANCH   1  25
TORSDOF 23
