REMARK SMILES CCc1ccc(C(=O)NCc2ccc(C(=O)OCCOCCOC(=O)c3ccc(-c4c5nc(c(-c6ccc(S(=O)(=O)[O-])cc6)c6ccc([nH]6)c(-c6ccc(S(=O)(=O)[O-])cc6)c6nc(c(-c7ccc(S(=O)(=O)[O-])cc7)c7ccc4[nH]7)C=C6)C=C5)cc3)o2)cc1
REMARK SMILES IDX 19 1 18 2 17 3 15 4 16 5 14 6 11 7 12 8 86 9 13 10 10 11
REMARK SMILES IDX 9 12 7 13 8 14 6 16 3 17 4 18 88 19 5 20 87 21 2 22 1 23
REMARK SMILES IDX 20 24 21 25 22 26 23 27 24 28 25 29 26 30 27 31 85 32 28 33
REMARK SMILES IDX 84 34 29 35 30 36 31 37 78 38 32 39 83 40 77 41 79 42 33 43
REMARK SMILES IDX 82 44 76 45 75 46 34 48 64 49 45 50 63 51 46 52 49 53 62 54
REMARK SMILES IDX 80 55 47 56 48 57 61 59 81 60 50 61 35 62 36 63 44 64 37 65
REMARK SMILES IDX 43 66 38 67 39 68 40 69 41 70 42 71 65 72 66 73 74 74 67 75
REMARK SMILES IDX 73 76 68 77 69 78 70 79 71 80 72 81 51 82 52 83 60 84 53 85
REMARK SMILES IDX 59 86 54 87 55 88 56 89 57 90 58 91
REMARK H PARENT 9 15 79 47 49 58
REMARK Flexibility Score: inf
ROOT
ATOM      1  C   UNL     1      10.454   0.563  -6.984  1.00  0.00     0.202 C 
ENDROOT
BRANCH   1   2
ATOM      2  C   UNL     1       9.874   0.980  -8.339  1.00  0.00     0.261 C 
BRANCH   2   3
ATOM      3  O   UNL     1       8.686   1.768  -8.151  1.00  0.00    -0.457 OA
BRANCH   3   4
ATOM      4  C   UNL     1       7.525   1.213  -8.603  1.00  0.00     0.374 C 
ATOM      5  O   UNL     1       7.455   0.211  -9.305  1.00  0.00    -0.242 OA
BRANCH   4   6
ATOM      6  C   UNL     1       6.396   1.922  -8.043  1.00  0.00     0.211 A 
ATOM      7  C   UNL     1       4.274   2.080  -7.433  1.00  0.00     0.124 A 
ATOM      8  C   UNL     1       4.900   3.214  -6.959  1.00  0.00     0.048 A 
ATOM      9  O   UNL     1       5.171   1.320  -8.126  1.00  0.00    -0.452 OA
ATOM     10  C   UNL     1       6.264   3.109  -7.343  1.00  0.00     0.058 A 
BRANCH   7  11
ATOM     11  C   UNL     1       2.890   1.540  -7.351  1.00  0.00     0.191 C 
BRANCH  11  12
ATOM     12  N   UNL     1       2.974   0.109  -7.130  1.00  0.00    -0.345 N 
ATOM     13  C   UNL     1       2.580  -0.724  -6.124  1.00  0.00     0.251 C 
ATOM     14  O   UNL     1       2.689  -1.938  -6.306  1.00  0.00    -0.269 OA
ATOM     15  H   UNL     1       3.414  -0.367  -7.871  1.00  0.00     0.164 HD
BRANCH  13  16
ATOM     16  C   UNL     1       2.009  -0.252  -4.837  1.00  0.00     0.039 A 
ATOM     17  C   UNL     1       0.929   0.417  -2.313  1.00  0.00    -0.048 A 
ATOM     18  C   UNL     1       0.588  -0.790  -2.931  1.00  0.00     0.004 A 
ATOM     19  C   UNL     1       1.829   1.275  -2.960  1.00  0.00     0.004 A 
ATOM     20  C   UNL     1       1.123  -1.120  -4.179  1.00  0.00     0.014 A 
ATOM     21  C   UNL     1       2.382   0.934  -4.202  1.00  0.00     0.014 A 
BRANCH  17  22
ATOM     22  C   UNL     1       0.357   0.772  -0.963  1.00  0.00     0.032 C 
ATOM     23  C   UNL     1       0.928  -0.085   0.158  1.00  0.00     0.009 C 
ENDBRANCH  17  22
ENDBRANCH  13  16
ENDBRANCH  11  12
ENDBRANCH   7  11
ENDBRANCH   4   6
ENDBRANCH   3   4
ENDBRANCH   2   3
ENDBRANCH   1   2
BRANCH   1  24
ATOM     24  O   UNL     1       9.656  -0.371  -6.254  1.00  0.00    -0.374 OA
BRANCH  24  25
ATOM     25  C   UNL     1       8.607   0.175  -5.452  1.00  0.00     0.202 C 
BRANCH  25  26
ATOM     26  C   UNL     1       9.034   0.689  -4.071  1.00  0.00     0.261 C 
BRANCH  26  27
ATOM     27  O   UNL     1       9.843   1.876  -4.174  1.00  0.00    -0.460 OA
BRANCH  27  28
ATOM     28  C   UNL     1      11.152   1.702  -3.870  1.00  0.00     0.338 C 
ATOM     29  O   UNL     1      11.680   0.688  -3.444  1.00  0.00    -0.246 OA
BRANCH  28  30
ATOM     30  C   UNL     1      11.929   2.885  -4.293  1.00  0.00     0.060 A 
ATOM     31  C   UNL     1      13.092   2.658  -5.041  1.00  0.00     0.016 A 
ATOM     32  C   UNL     1      11.569   4.183  -3.922  1.00  0.00     0.016 A 
ATOM     33  C   UNL     1      13.924   3.723  -5.380  1.00  0.00     0.010 A 
ATOM     34  C   UNL     1      12.409   5.250  -4.259  1.00  0.00     0.010 A 
ATOM     35  C   UNL     1      13.607   5.022  -4.960  1.00  0.00    -0.014 A 
BRANCH  35  36
ATOM     36  C   UNL     1      14.595   6.114  -5.142  1.00  0.00     0.031 A 
ATOM     37  C   UNL     1      15.457   6.524  -3.979  1.00  0.00     0.074 A 
ATOM     38  C   UNL     1      14.742   6.717  -6.336  1.00  0.00     0.049 A 
ATOM     39  N   UNL     1      16.371   7.458  -3.915  1.00  0.00    -0.248 NA
ATOM     40  C   UNL     1      15.264   5.782  -2.723  1.00  0.00     0.031 C 
ATOM     41  C   UNL     1      13.997   6.385  -7.549  1.00  0.00     0.029 A 
ATOM     42  N   UNL     1      15.573   7.740  -6.720  1.00  0.00    -0.354 N 
ATOM     43  C   UNL     1      16.857   7.423  -2.613  1.00  0.00     0.074 A 
ATOM     44  C   UNL     1      16.117   6.394  -1.914  1.00  0.00     0.031 C 
ATOM     45  C   UNL     1      14.402   7.194  -8.544  1.00  0.00     0.029 A 
ATOM     46  C   UNL     1      15.411   8.119  -8.031  1.00  0.00     0.049 A 
ATOM     47  H   UNL     1      16.223   8.162  -6.113  1.00  0.00     0.167 HD
ATOM     48  C   UNL     1      17.835   8.173  -2.051  1.00  0.00     0.031 A 
ATOM     49  C   UNL     1      15.996   9.109  -8.733  1.00  0.00     0.031 A 
ATOM     50  C   UNL     1      18.560   9.206  -2.741  1.00  0.00     0.049 A 
ATOM     51  C   UNL     1      17.029   9.979  -8.068  1.00  0.00     0.074 A 
ATOM     52  C   UNL     1      19.579  10.011  -2.261  1.00  0.00     0.029 A 
ATOM     53  N   UNL     1      18.338   9.585  -4.057  1.00  0.00    -0.354 N 
ATOM     54  N   UNL     1      17.495   9.916  -6.843  1.00  0.00    -0.248 NA
ATOM     55  C   UNL     1      17.621  11.050  -8.883  1.00  0.00     0.031 C 
ATOM     56  C   UNL     1      19.936  10.912  -3.270  1.00  0.00     0.029 A 
ATOM     57  C   UNL     1      19.180  10.630  -4.397  1.00  0.00     0.049 A 
ATOM     58  H   UNL     1      17.679   9.172  -4.660  1.00  0.00     0.167 HD
ATOM     59  C   UNL     1      18.452  10.921  -6.749  1.00  0.00     0.074 A 
ATOM     60  C   UNL     1      18.507  11.570  -8.043  1.00  0.00     0.031 C 
ATOM     61  C   UNL     1      19.220  11.272  -5.687  1.00  0.00     0.031 A 
BRANCH  48  62
ATOM     62  C   UNL     1      18.148   7.925  -0.599  1.00  0.00    -0.014 A 
ATOM     63  C   UNL     1      18.812   6.756  -0.186  1.00  0.00     0.010 A 
ATOM     64  C   UNL     1      17.791   8.886   0.363  1.00  0.00     0.010 A 
ATOM     65  C   UNL     1      19.073   6.533   1.169  1.00  0.00     0.020 A 
ATOM     66  C   UNL     1      18.073   8.679   1.716  1.00  0.00     0.020 A 
ATOM     67  C   UNL     1      18.695   7.493   2.112  1.00  0.00     0.054 A 
BRANCH  67  68
ATOM     68  S   UNL     1      19.049   7.182   3.864  1.00  0.00     0.124 S 
ATOM     69  O   UNL     1      18.047   6.171   4.197  1.00  0.00    -0.237 OA
ATOM     70  O   UNL     1      20.431   6.710   3.835  1.00  0.00    -0.237 OA
ATOM     71  O   UNL     1      18.852   8.485   4.495  1.00  0.00    -0.744 OA
ENDBRANCH  67  68
ENDBRANCH  48  62
BRANCH  49  72
ATOM     72  C   UNL     1      15.605   9.341 -10.150  1.00  0.00    -0.014 A 
ATOM     73  C   UNL     1      16.489   9.035 -11.198  1.00  0.00     0.010 A 
ATOM     74  C   UNL     1      14.333   9.859 -10.457  1.00  0.00     0.010 A 
ATOM     75  C   UNL     1      16.113   9.252 -12.527  1.00  0.00     0.020 A 
ATOM     76  C   UNL     1      13.944  10.053 -11.784  1.00  0.00     0.020 A 
ATOM     77  C   UNL     1      14.840   9.755 -12.812  1.00  0.00     0.054 A 
BRANCH  77  78
ATOM     78  S   UNL     1      14.348   9.966 -14.546  1.00  0.00     0.124 S 
ATOM     79  O   UNL     1      15.099  11.155 -14.933  1.00  0.00    -0.237 OA
ATOM     80  O   UNL     1      14.787   8.712 -15.153  1.00  0.00    -0.237 OA
ATOM     81  O   UNL     1      12.898  10.136 -14.469  1.00  0.00    -0.744 OA
ENDBRANCH  77  78
ENDBRANCH  49  72
BRANCH  61  82
ATOM     82  C   UNL     1      20.209  12.391  -5.883  1.00  0.00    -0.014 A 
ATOM     83  C   UNL     1      19.787  13.729  -5.979  1.00  0.00     0.010 A 
ATOM     84  C   UNL     1      21.586  12.102  -5.916  1.00  0.00     0.010 A 
ATOM     85  C   UNL     1      20.724  14.755  -6.133  1.00  0.00     0.020 A 
ATOM     86  C   UNL     1      22.526  13.128  -6.043  1.00  0.00     0.020 A 
ATOM     87  C   UNL     1      22.088  14.448  -6.165  1.00  0.00     0.054 A 
BRANCH  87  88
ATOM     88  S   UNL     1      23.286  15.801  -6.322  1.00  0.00     0.124 S 
ATOM     89  O   UNL     1      23.154  16.162  -7.731  1.00  0.00    -0.237 OA
ATOM     90  O   UNL     1      22.782  16.789  -5.371  1.00  0.00    -0.237 OA
ATOM     91  O   UNL     1      24.557  15.183  -5.953  1.00  0.00    -0.744 OA
ENDBRANCH  87  88
ENDBRANCH  61  82
ENDBRANCH  35  36
ENDBRANCH  28  30
ENDBRANCH  27  28
ENDBRANCH  26  27
ENDBRANCH  25  26
ENDBRANCH  24  25
ENDBRANCH   1  24
TORSDOF 21
