REMARK SMILES CCCCN(c1ccccc1C(=O)OCCOCCOC(=O)c1ccc(-c2c3nc(c(-c4ccc(S(=O)(=O)[O-])cc4)c4ccc([nH]4)c(-c4ccc(S(=O)(=O)[O-])cc4)c4nc(c(-c5ccc(S(=O)(=O)[O-])cc5)c5ccc2[nH]5)C=C4)C=C3)cc1)S(=O)(=O)c1ccc2c(c1)oc(=O)n2C
REMARK SMILES IDX 16 1 15 2 14 3 12 4 13 5 11 6 6 7 7 8 8 9 10 10 9 11 5 12
REMARK SMILES IDX 4 13 3 14 2 15 1 16 83 17 84 18 85 19 86 20 87 21 91 22
REMARK SMILES IDX 88 23 90 24 89 25 92 26 95 27 93 28 96 29 94 30 17 31 18 32
REMARK SMILES IDX 19 33 20 34 21 35 22 36 23 37 24 38 82 39 25 40 81 41 26 42
REMARK SMILES IDX 27 43 28 44 75 45 29 46 80 47 74 48 76 49 30 50 79 51 73 52
REMARK SMILES IDX 72 53 31 55 61 56 42 57 60 58 43 59 46 60 59 61 77 62 44 63
REMARK SMILES IDX 45 64 58 66 78 67 47 68 32 69 33 70 41 71 34 72 40 73 35 74
REMARK SMILES IDX 36 75 37 76 38 77 39 78 62 79 63 80 71 81 64 82 70 83 65 84
REMARK SMILES IDX 66 85 67 86 68 87 69 88 48 89 49 90 57 91 50 92 56 93 51 94
REMARK SMILES IDX 52 95 53 96 54 97 55 98
REMARK H PARENT 76 54 46 65
REMARK Flexibility Score: inf
ROOT
ATOM      1  C   UNL     1       2.251   1.057   5.670  1.00  0.00     0.202 C 
ENDROOT
BRANCH   1   2
ATOM      2  C   UNL     1       2.139  -0.363   5.112  1.00  0.00     0.261 C 
BRANCH   2   3
ATOM      3  O   UNL     1       0.813  -0.664   4.645  1.00  0.00    -0.460 OA
BRANCH   3   4
ATOM      4  C   UNL     1       0.282  -1.790   5.165  1.00  0.00     0.340 C 
ATOM      5  O   UNL     1       0.842  -2.573   5.922  1.00  0.00    -0.246 OA
BRANCH   4   6
ATOM      6  C   UNL     1      -1.152  -1.959   4.854  1.00  0.00     0.084 A 
ATOM      7  C   UNL     1      -1.651  -2.377   3.607  1.00  0.00     0.066 A 
ATOM      8  C   UNL     1      -2.831  -3.136   3.650  1.00  0.00     0.028 A 
ATOM      9  C   UNL     1      -3.606  -3.283   4.805  1.00  0.00     0.002 A 
ATOM     10  C   UNL     1      -1.930  -2.114   6.028  1.00  0.00     0.018 A 
ATOM     11  C   UNL     1      -3.178  -2.724   5.994  1.00  0.00     0.001 A 
BRANCH   7  12
ATOM     12  N   UNL     1      -1.210  -1.962   2.251  1.00  0.00    -0.265 N 
BRANCH  12  13
ATOM     13  C   UNL     1       0.275  -1.822   2.050  1.00  0.00     0.136 C 
BRANCH  13  14
ATOM     14  C   UNL     1       0.814  -2.478   0.780  1.00  0.00     0.022 C 
BRANCH  14  15
ATOM     15  C   UNL     1       0.715  -1.710  -0.536  1.00  0.00    -0.002 C 
ATOM     16  C   UNL     1       1.149  -0.259  -0.441  1.00  0.00     0.004 C 
ENDBRANCH  14  15
ENDBRANCH  13  14
ENDBRANCH  12  13
BRANCH  12  17
ATOM     17  S   UNL     1      -2.093  -0.543   1.649  1.00  0.00     0.264 S 
ATOM     18  O   UNL     1      -2.006   0.490   2.658  1.00  0.00    -0.201 OA
ATOM     19  O   UNL     1      -1.736  -0.275   0.274  1.00  0.00    -0.201 OA
BRANCH  17  20
ATOM     20  C   UNL     1      -3.806  -1.010   1.530  1.00  0.00     0.091 A 
ATOM     21  C   UNL     1      -4.798  -0.123   2.007  1.00  0.00     0.025 A 
ATOM     22  C   UNL     1      -4.133  -2.268   1.023  1.00  0.00     0.071 A 
ATOM     23  C   UNL     1      -6.127  -0.542   2.103  1.00  0.00     0.032 A 
ATOM     24  C   UNL     1      -5.425  -2.688   1.237  1.00  0.00     0.157 A 
ATOM     25  C   UNL     1      -6.390  -1.854   1.768  1.00  0.00     0.090 A 
ATOM     26  O   UNL     1      -5.867  -3.991   1.074  1.00  0.00    -0.408 OA
ATOM     27  N   UNL     1      -7.510  -2.634   1.919  1.00  0.00    -0.277 N 
ATOM     28  C   UNL     1      -7.174  -3.928   1.572  1.00  0.00     0.419 A 
ATOM     29  C   UNL     1      -8.778  -2.230   2.443  1.00  0.00     0.157 C 
ATOM     30  O   UNL     1      -7.889  -4.913   1.698  1.00  0.00    -0.223 OA
ENDBRANCH  17  20
ENDBRANCH  12  17
ENDBRANCH   7  12
ENDBRANCH   4   6
ENDBRANCH   3   4
ENDBRANCH   2   3
ENDBRANCH   1   2
BRANCH   1  31
ATOM     31  O   UNL     1       1.340   1.451   6.692  1.00  0.00    -0.374 OA
BRANCH  31  32
ATOM     32  C   UNL     1      -0.055   1.405   6.411  1.00  0.00     0.202 C 
BRANCH  32  33
ATOM     33  C   UNL     1      -0.631   2.262   5.272  1.00  0.00     0.261 C 
BRANCH  33  34
ATOM     34  O   UNL     1       0.059   2.164   4.017  1.00  0.00    -0.460 OA
BRANCH  34  35
ATOM     35  C   UNL     1       0.725   3.283   3.643  1.00  0.00     0.338 C 
ATOM     36  O   UNL     1       0.858   4.313   4.282  1.00  0.00    -0.246 OA
BRANCH  35  37
ATOM     37  C   UNL     1       1.401   3.063   2.354  1.00  0.00     0.060 A 
ATOM     38  C   UNL     1       2.793   2.917   2.334  1.00  0.00     0.016 A 
ATOM     39  C   UNL     1       0.682   3.162   1.164  1.00  0.00     0.016 A 
ATOM     40  C   UNL     1       3.479   2.897   1.118  1.00  0.00     0.010 A 
ATOM     41  C   UNL     1       1.373   3.143  -0.053  1.00  0.00     0.010 A 
ATOM     42  C   UNL     1       2.778   3.039  -0.086  1.00  0.00    -0.014 A 
BRANCH  42  43
ATOM     43  C   UNL     1       3.505   3.195  -1.375  1.00  0.00     0.031 A 
ATOM     44  C   UNL     1       3.501   4.537  -2.058  1.00  0.00     0.074 A 
ATOM     45  C   UNL     1       4.147   2.157  -1.946  1.00  0.00     0.049 A 
ATOM     46  N   UNL     1       3.990   4.870  -3.225  1.00  0.00    -0.248 NA
ATOM     47  C   UNL     1       2.879   5.652  -1.325  1.00  0.00     0.031 C 
ATOM     48  C   UNL     1       4.312   0.832  -1.355  1.00  0.00     0.029 A 
ATOM     49  N   UNL     1       4.754   2.045  -3.173  1.00  0.00    -0.354 N 
ATOM     50  C   UNL     1       3.733   6.229  -3.367  1.00  0.00     0.074 A 
ATOM     51  C   UNL     1       3.008   6.649  -2.188  1.00  0.00     0.031 C 
ATOM     52  C   UNL     1       4.889   0.014  -2.248  1.00  0.00     0.029 A 
ATOM     53  C   UNL     1       5.157   0.763  -3.470  1.00  0.00     0.049 A 
ATOM     54  H   UNL     1       4.888   2.808  -3.781  1.00  0.00     0.167 HD
ATOM     55  C   UNL     1       4.084   7.055  -4.381  1.00  0.00     0.031 A 
ATOM     56  C   UNL     1       5.673   0.243  -4.601  1.00  0.00     0.031 A 
ATOM     57  C   UNL     1       4.800   6.628  -5.555  1.00  0.00     0.049 A 
ATOM     58  C   UNL     1       5.968   1.157  -5.757  1.00  0.00     0.074 A 
ATOM     59  C   UNL     1       5.235   7.396  -6.621  1.00  0.00     0.029 A 
ATOM     60  N   UNL     1       5.173   5.320  -5.826  1.00  0.00    -0.354 N 
ATOM     61  N   UNL     1       5.763   2.449  -5.855  1.00  0.00    -0.248 NA
ATOM     62  C   UNL     1       6.598   0.553  -6.939  1.00  0.00     0.031 C 
ATOM     63  C   UNL     1       5.807   6.542  -7.569  1.00  0.00     0.029 A 
ATOM     64  C   UNL     1       5.799   5.253  -7.060  1.00  0.00     0.049 A 
ATOM     65  H   UNL     1       5.017   4.553  -5.229  1.00  0.00     0.167 HD
ATOM     66  C   UNL     1       6.279   2.821  -7.091  1.00  0.00     0.074 A 
ATOM     67  C   UNL     1       6.809   1.618  -7.701  1.00  0.00     0.031 C 
ATOM     68  C   UNL     1       6.320   4.050  -7.661  1.00  0.00     0.031 A 
BRANCH  55  69
ATOM     69  C   UNL     1       3.675   8.502  -4.281  1.00  0.00    -0.014 A 
ATOM     70  C   UNL     1       4.265   9.368  -3.342  1.00  0.00     0.010 A 
ATOM     71  C   UNL     1       2.723   9.016  -5.180  1.00  0.00     0.010 A 
ATOM     72  C   UNL     1       3.884  10.711  -3.282  1.00  0.00     0.020 A 
ATOM     73  C   UNL     1       2.362  10.366  -5.143  1.00  0.00     0.020 A 
ATOM     74  C   UNL     1       2.935  11.202  -4.184  1.00  0.00     0.054 A 
BRANCH  74  75
ATOM     75  S   UNL     1       2.487  12.958  -4.105  1.00  0.00     0.124 S 
ATOM     76  O   UNL     1       1.734  13.021  -2.854  1.00  0.00    -0.237 OA
ATOM     77  O   UNL     1       3.789  13.619  -4.087  1.00  0.00    -0.237 OA
ATOM     78  O   UNL     1       1.699  13.171  -5.316  1.00  0.00    -0.744 OA
ENDBRANCH  74  75
ENDBRANCH  55  69
BRANCH  56  79
ATOM     79  C   UNL     1       5.956  -1.217  -4.682  1.00  0.00    -0.014 A 
ATOM     80  C   UNL     1       7.277  -1.694  -4.697  1.00  0.00     0.010 A 
ATOM     81  C   UNL     1       4.895  -2.142  -4.726  1.00  0.00     0.010 A 
ATOM     82  C   UNL     1       7.534  -3.067  -4.773  1.00  0.00     0.020 A 
ATOM     83  C   UNL     1       5.147  -3.516  -4.775  1.00  0.00     0.020 A 
ATOM     84  C   UNL     1       6.467  -3.970  -4.807  1.00  0.00     0.054 A 
BRANCH  84  85
ATOM     85  S   UNL     1       6.830  -5.747  -4.851  1.00  0.00     0.124 S 
ATOM     86  O   UNL     1       7.371  -5.915  -6.196  1.00  0.00    -0.237 OA
ATOM     87  O   UNL     1       7.789  -5.897  -3.759  1.00  0.00    -0.237 OA
ATOM     88  O   UNL     1       5.528  -6.369  -4.616  1.00  0.00    -0.744 OA
ENDBRANCH  84  85
ENDBRANCH  56  79
BRANCH  68  89
ATOM     89  C   UNL     1       6.995   4.174  -9.002  1.00  0.00    -0.014 A 
ATOM     90  C   UNL     1       6.415   3.644 -10.168  1.00  0.00     0.010 A 
ATOM     91  C   UNL     1       8.203   4.891  -9.103  1.00  0.00     0.010 A 
ATOM     92  C   UNL     1       7.044   3.805 -11.405  1.00  0.00     0.020 A 
ATOM     93  C   UNL     1       8.817   5.083 -10.343  1.00  0.00     0.020 A 
ATOM     94  C   UNL     1       8.240   4.527 -11.485  1.00  0.00     0.054 A 
BRANCH  94  95
ATOM     95  S   UNL     1       9.006   4.766 -13.111  1.00  0.00     0.124 S 
ATOM     96  O   UNL     1       9.502   3.426 -13.414  1.00  0.00    -0.237 OA
ATOM     97  O   UNL     1       7.884   5.220 -13.929  1.00  0.00    -0.237 OA
ATOM     98  O   UNL     1      10.037   5.771 -12.865  1.00  0.00    -0.744 OA
ENDBRANCH  94  95
ENDBRANCH  68  89
ENDBRANCH  42  43
ENDBRANCH  35  37
ENDBRANCH  34  35
ENDBRANCH  33  34
ENDBRANCH  32  33
ENDBRANCH  31  32
ENDBRANCH   1  31
TORSDOF 23
