REMARK SMILES C[C@H]([NH2+][C@@H]1CC(=O)N(C)C1=O)[C@H](C)C(=O)OCCOCCOC(=O)c1ccc(-c2c3nc(c(-c4ccc(S(=O)(=O)[O-])cc4)c4ccc([nH]4)c(-c4ccc(S(=O)(=O)[O-])cc4)c4nc(c(-c5ccc(S(=O)(=O)[O-])cc5)c5ccc2[nH]5)C=C4)C=C3)cc1
REMARK SMILES IDX 19 1 18 2 17 3 16 4 14 5 15 6 12 7 13 8 2 9 1 10 3 11 4 14
REMARK SMILES IDX 5 15 10 16 6 17 8 18 11 19 7 20 9 21 20 22 21 23 22 24 23 25
REMARK SMILES IDX 24 26 25 27 26 28 84 29 27 30 83 31 28 32 29 33 30 34 77 35
REMARK SMILES IDX 31 36 82 37 76 38 78 39 32 40 81 41 75 42 74 43 33 45 63 46
REMARK SMILES IDX 44 47 62 48 45 49 48 50 61 51 79 52 46 53 47 54 60 56 80 57
REMARK SMILES IDX 49 58 34 59 35 60 43 61 36 62 42 63 37 64 38 65 39 66 40 67
REMARK SMILES IDX 41 68 64 69 65 70 73 71 66 72 72 73 67 74 68 75 69 76 70 77
REMARK SMILES IDX 71 78 50 79 51 80 59 81 52 82 58 83 53 84 54 85 55 86 56 87
REMARK SMILES IDX 57 88
REMARK H PARENT 3 12 3 13 78 44 48 55
REMARK Flexibility Score: inf
ROOT
ATOM      1  O   UNL     1      -1.025   5.661   0.359  1.00  0.00    -0.374 OA
ENDROOT
BRANCH   1   2
ATOM      2  C   UNL     1      -1.200   5.436   1.756  1.00  0.00     0.202 C 
BRANCH   2   3
ATOM      3  C   UNL     1      -2.079   4.242   2.111  1.00  0.00     0.261 C 
BRANCH   3   4
ATOM      4  O   UNL     1      -1.438   2.970   1.893  1.00  0.00    -0.463 OA
BRANCH   4   5
ATOM      5  C   UNL     1      -1.630   2.402   0.674  1.00  0.00     0.314 C 
ATOM      6  O   UNL     1      -2.143   2.952  -0.294  1.00  0.00    -0.252 OA
BRANCH   5   7
ATOM      7  C   UNL     1      -1.180   0.967   0.631  1.00  0.00     0.154 C 
ATOM      8  C   UNL     1       0.339   0.896   0.819  1.00  0.00     0.026 C 
BRANCH   7   9
ATOM      9  C   UNL     1      -1.939   0.020   1.600  1.00  0.00     0.194 C 
ATOM     10  C   UNL     1      -2.246  -1.305   0.886  1.00  0.00     0.076 C 
BRANCH   9  11
ATOM     11  N   UNL     1      -3.095   0.535   2.337  1.00  0.00    -0.333 N 
ATOM     12  H   UNL     1      -2.863   1.495   2.595  1.00  0.00     0.347 HD
ATOM     13  H   UNL     1      -3.208  -0.163   3.072  1.00  0.00     0.347 HD
BRANCH  11  14
ATOM     14  C   UNL     1      -4.435   0.581   1.750  1.00  0.00     0.282 C 
ATOM     15  C   UNL     1      -4.694   1.651   0.701  1.00  0.00     0.176 C 
ATOM     16  C   UNL     1      -5.475   0.949   2.817  1.00  0.00     0.287 C 
ATOM     17  C   UNL     1      -6.108   2.070   0.945  1.00  0.00     0.235 C 
ATOM     18  N   UNL     1      -6.412   1.763   2.237  1.00  0.00    -0.280 N 
ATOM     19  O   UNL     1      -5.493   0.553   3.973  1.00  0.00    -0.267 OA
ATOM     20  O   UNL     1      -6.806   2.672   0.144  1.00  0.00    -0.274 OA
ATOM     21  C   UNL     1      -7.587   2.241   2.922  1.00  0.00     0.156 C 
ENDBRANCH  11  14
ENDBRANCH   9  11
ENDBRANCH   7   9
ENDBRANCH   5   7
ENDBRANCH   4   5
ENDBRANCH   3   4
ENDBRANCH   2   3
ENDBRANCH   1   2
BRANCH   1  22
ATOM     22  C   UNL     1       0.073   4.980  -0.253  1.00  0.00     0.202 C 
BRANCH  22  23
ATOM     23  C   UNL     1       1.404   5.725  -0.163  1.00  0.00     0.261 C 
BRANCH  23  24
ATOM     24  O   UNL     1       1.918   5.653   1.179  1.00  0.00    -0.460 OA
BRANCH  24  25
ATOM     25  C   UNL     1       1.777   6.788   1.899  1.00  0.00     0.338 C 
ATOM     26  O   UNL     1       1.416   7.881   1.480  1.00  0.00    -0.246 OA
BRANCH  25  27
ATOM     27  C   UNL     1       1.932   6.501   3.341  1.00  0.00     0.060 A 
ATOM     28  C   UNL     1       1.085   7.190   4.218  1.00  0.00     0.016 A 
ATOM     29  C   UNL     1       2.898   5.620   3.837  1.00  0.00     0.016 A 
ATOM     30  C   UNL     1       1.267   7.084   5.592  1.00  0.00     0.010 A 
ATOM     31  C   UNL     1       3.083   5.516   5.219  1.00  0.00     0.010 A 
ATOM     32  C   UNL     1       2.309   6.297   6.095  1.00  0.00    -0.014 A 
BRANCH  32  33
ATOM     33  C   UNL     1       2.728   6.494   7.503  1.00  0.00     0.031 A 
ATOM     34  C   UNL     1       3.877   7.430   7.777  1.00  0.00     0.074 A 
ATOM     35  C   UNL     1       2.059   5.917   8.517  1.00  0.00     0.049 A 
ATOM     36  N   UNL     1       4.401   7.785   8.920  1.00  0.00    -0.248 NA
ATOM     37  C   UNL     1       4.518   8.049   6.603  1.00  0.00     0.031 C 
ATOM     38  C   UNL     1       0.905   5.031   8.375  1.00  0.00     0.029 A 
ATOM     39  N   UNL     1       2.259   6.000   9.871  1.00  0.00    -0.354 N 
ATOM     40  C   UNL     1       5.436   8.658   8.604  1.00  0.00     0.074 A 
ATOM     41  C   UNL     1       5.485   8.759   7.163  1.00  0.00     0.031 C 
ATOM     42  C   UNL     1       0.501   4.645   9.598  1.00  0.00     0.029 A 
ATOM     43  C   UNL     1       1.381   5.238  10.604  1.00  0.00     0.049 A 
ATOM     44  H   UNL     1       2.964   6.552  10.279  1.00  0.00     0.167 HD
ATOM     45  C   UNL     1       6.269   9.323   9.439  1.00  0.00     0.031 A 
ATOM     46  C   UNL     1       1.308   5.033  11.934  1.00  0.00     0.031 A 
ATOM     47  C   UNL     1       6.219   9.219  10.871  1.00  0.00     0.049 A 
ATOM     48  C   UNL     1       2.277   5.746  12.841  1.00  0.00     0.074 A 
ATOM     49  C   UNL     1       7.006   9.863  11.809  1.00  0.00     0.029 A 
ATOM     50  N   UNL     1       5.335   8.414  11.573  1.00  0.00    -0.354 N 
ATOM     51  N   UNL     1       3.234   6.588  12.527  1.00  0.00    -0.248 NA
ATOM     52  C   UNL     1       2.147   5.491  14.283  1.00  0.00     0.031 C 
ATOM     53  C   UNL     1       6.631   9.409  13.077  1.00  0.00     0.029 A 
ATOM     54  C   UNL     1       5.572   8.526  12.931  1.00  0.00     0.049 A 
ATOM     55  H   UNL     1       4.640   7.848  11.165  1.00  0.00     0.167 HD
ATOM     56  C   UNL     1       3.803   6.982  13.735  1.00  0.00     0.074 A 
ATOM     57  C   UNL     1       3.073   6.298  14.783  1.00  0.00     0.031 C 
ATOM     58  C   UNL     1       4.835   7.834  13.957  1.00  0.00     0.031 A 
BRANCH  45  59
ATOM     59  C   UNL     1       7.330  10.191   8.818  1.00  0.00    -0.014 A 
ATOM     60  C   UNL     1       7.008  11.416   8.208  1.00  0.00     0.010 A 
ATOM     61  C   UNL     1       8.676   9.787   8.876  1.00  0.00     0.010 A 
ATOM     62  C   UNL     1       8.011  12.207   7.639  1.00  0.00     0.020 A 
ATOM     63  C   UNL     1       9.684  10.586   8.331  1.00  0.00     0.020 A 
ATOM     64  C   UNL     1       9.343  11.785   7.702  1.00  0.00     0.054 A 
BRANCH  64  65
ATOM     65  S   UNL     1      10.629  12.843   6.983  1.00  0.00     0.124 S 
ATOM     66  O   UNL     1      10.422  12.638   5.552  1.00  0.00    -0.237 OA
ATOM     67  O   UNL     1      10.273  14.168   7.486  1.00  0.00    -0.237 OA
ATOM     68  O   UNL     1      11.871  12.291   7.518  1.00  0.00    -0.744 OA
ENDBRANCH  64  65
ENDBRANCH  45  59
BRANCH  46  69
ATOM     69  C   UNL     1       0.293   4.095  12.486  1.00  0.00    -0.014 A 
ATOM     70  C   UNL     1      -0.795   4.567  13.240  1.00  0.00     0.010 A 
ATOM     71  C   UNL     1       0.417   2.712  12.256  1.00  0.00     0.010 A 
ATOM     72  C   UNL     1      -1.730   3.672  13.769  1.00  0.00     0.020 A 
ATOM     73  C   UNL     1      -0.530   1.817  12.761  1.00  0.00     0.020 A 
ATOM     74  C   UNL     1      -1.592   2.302  13.525  1.00  0.00     0.054 A 
BRANCH  74  75
ATOM     75  S   UNL     1      -2.842   1.162  14.181  1.00  0.00     0.124 S 
ATOM     76  O   UNL     1      -2.494   1.112  15.597  1.00  0.00    -0.237 OA
ATOM     77  O   UNL     1      -4.093   1.844  13.859  1.00  0.00    -0.237 OA
ATOM     78  O   UNL     1      -2.603  -0.071  13.433  1.00  0.00    -0.744 OA
ENDBRANCH  74  75
ENDBRANCH  46  69
BRANCH  58  79
ATOM     79  C   UNL     1       5.214   8.101  15.389  1.00  0.00    -0.014 A 
ATOM     80  C   UNL     1       5.881   7.133  16.160  1.00  0.00     0.010 A 
ATOM     81  C   UNL     1       4.940   9.360  15.954  1.00  0.00     0.010 A 
ATOM     82  C   UNL     1       6.234   7.407  17.484  1.00  0.00     0.020 A 
ATOM     83  C   UNL     1       5.316   9.647  17.269  1.00  0.00     0.020 A 
ATOM     84  C   UNL     1       5.946   8.661  18.031  1.00  0.00     0.054 A 
BRANCH  84  85
ATOM     85  S   UNL     1       6.439   9.004  19.742  1.00  0.00     0.124 S 
ATOM     86  O   UNL     1       5.433   8.268  20.501  1.00  0.00    -0.237 OA
ATOM     87  O   UNL     1       7.794   8.461  19.802  1.00  0.00    -0.237 OA
ATOM     88  O   UNL     1       6.354  10.460  19.841  1.00  0.00    -0.744 OA
ENDBRANCH  84  85
ENDBRANCH  58  79
ENDBRANCH  32  33
ENDBRANCH  25  27
ENDBRANCH  24  25
ENDBRANCH  23  24
ENDBRANCH  22  23
ENDBRANCH   1  22
TORSDOF 20
