REMARK SMILES C[C@@H]([N@@H+](C)[C@@H]1COC[C@@H]1C(=O)OCCOCCOC(=O)c1ccc(-c2c3nc(c(-c4ccc(S(=O)(=O)[O-])cc4)c4ccc([nH]4)c(-c4ccc(S(=O)(=O)[O-])cc4)c4nc(c(-c5ccc(S(=O)(=O)[O-])cc5)c5ccc2[nH]5)C=C4)C=C3)cc1)C1(C)CC1
REMARK SMILES IDX 15 1 14 2 13 3 12 4 10 5 11 6 9 7 5 8 6 9 7 10 8 11 3 12
REMARK SMILES IDX 4 13 2 15 1 16 81 17 82 18 83 19 84 20 16 21 17 22 18 23
REMARK SMILES IDX 19 24 20 25 21 26 22 27 80 28 23 29 79 30 24 31 25 32 26 33
REMARK SMILES IDX 73 34 27 35 78 36 72 37 74 38 28 39 77 40 71 41 70 42 29 44
REMARK SMILES IDX 59 45 40 46 58 47 41 48 44 49 57 50 75 51 42 52 43 53 56 55
REMARK SMILES IDX 76 56 45 57 30 58 31 59 39 60 32 61 38 62 33 63 34 64 35 65
REMARK SMILES IDX 36 66 37 67 60 68 61 69 69 70 62 71 68 72 63 73 64 74 65 75
REMARK SMILES IDX 66 76 67 77 46 78 47 79 55 80 48 81 54 82 49 83 50 84 51 85
REMARK SMILES IDX 52 86 53 87
REMARK H PARENT 3 14 74 43 44 54
REMARK Flexibility Score: inf
ROOT
ATOM      1  O   UNL     1       0.844   3.800   4.771  1.00  0.00    -0.374 OA
ENDROOT
BRANCH   1   2
ATOM      2  C   UNL     1       0.427   4.913   3.988  1.00  0.00     0.202 C 
BRANCH   2   3
ATOM      3  C   UNL     1       1.323   5.410   2.845  1.00  0.00     0.261 C 
BRANCH   3   4
ATOM      4  O   UNL     1       1.579   4.475   1.768  1.00  0.00    -0.463 OA
BRANCH   4   5
ATOM      5  C   UNL     1       2.887   4.135   1.600  1.00  0.00     0.317 C 
ATOM      6  O   UNL     1       3.742   4.389   2.445  1.00  0.00    -0.252 OA
BRANCH   5   7
ATOM      7  C   UNL     1       3.224   3.582   0.210  1.00  0.00     0.185 C 
ATOM      8  C   UNL     1       2.623   2.257  -0.328  1.00  0.00     0.227 C 
ATOM      9  C   UNL     1       3.395   1.238   0.529  1.00  0.00     0.226 C 
ATOM     10  O   UNL     1       4.685   1.812   0.813  1.00  0.00    -0.374 OA
ATOM     11  C   UNL     1       4.694   3.150   0.291  1.00  0.00     0.182 C 
BRANCH   8  12
ATOM     12  N   UNL     1       1.200   2.054  -0.675  1.00  0.00    -0.330 N 
ATOM     13  C   UNL     1       0.354   3.225  -0.599  1.00  0.00     0.333 C 
ATOM     14  H   UNL     1       1.267   1.959  -1.688  1.00  0.00     0.348 HD
BRANCH  12  15
ATOM     15  C   UNL     1       0.606   0.701  -0.579  1.00  0.00     0.186 C 
ATOM     16  C   UNL     1       1.304  -0.325  -1.494  1.00  0.00     0.076 C 
BRANCH  15  17
ATOM     17  C   UNL     1      -0.943   0.523  -0.727  1.00  0.00     0.019 C 
ATOM     18  C   UNL     1      -1.602   0.020   0.543  1.00  0.00     0.018 C 
ATOM     19  C   UNL     1      -1.764   1.287  -1.768  1.00  0.00     0.013 C 
ATOM     20  C   UNL     1      -1.547  -0.167  -1.960  1.00  0.00     0.013 C 
ENDBRANCH  15  17
ENDBRANCH  12  15
ENDBRANCH   8  12
ENDBRANCH   5   7
ENDBRANCH   4   5
ENDBRANCH   3   4
ENDBRANCH   2   3
ENDBRANCH   1   2
BRANCH   1  21
ATOM     21  C   UNL     1       1.190   2.602   4.101  1.00  0.00     0.202 C 
BRANCH  21  22
ATOM     22  C   UNL     1       0.129   1.904   3.243  1.00  0.00     0.261 C 
BRANCH  22  23
ATOM     23  O   UNL     1      -0.860   2.764   2.665  1.00  0.00    -0.460 OA
BRANCH  23  24
ATOM     24  C   UNL     1      -2.138   2.558   3.070  1.00  0.00     0.338 C 
ATOM     25  O   UNL     1      -2.540   1.724   3.860  1.00  0.00    -0.246 OA
BRANCH  24  26
ATOM     26  C   UNL     1      -3.025   3.515   2.382  1.00  0.00     0.060 A 
ATOM     27  C   UNL     1      -3.499   4.630   3.070  1.00  0.00     0.016 A 
ATOM     28  C   UNL     1      -3.466   3.250   1.086  1.00  0.00     0.016 A 
ATOM     29  C   UNL     1      -4.447   5.462   2.464  1.00  0.00     0.010 A 
ATOM     30  C   UNL     1      -4.388   4.100   0.467  1.00  0.00     0.010 A 
ATOM     31  C   UNL     1      -4.918   5.197   1.164  1.00  0.00    -0.014 A 
BRANCH  31  32
ATOM     32  C   UNL     1      -5.997   6.038   0.573  1.00  0.00     0.031 A 
ATOM     33  C   UNL     1      -7.372   5.464   0.324  1.00  0.00     0.074 A 
ATOM     34  C   UNL     1      -5.758   7.332   0.282  1.00  0.00     0.049 A 
ATOM     35  N   UNL     1      -8.454   6.069  -0.102  1.00  0.00    -0.248 NA
ATOM     36  C   UNL     1      -7.551   4.024   0.566  1.00  0.00     0.031 C 
ATOM     37  C   UNL     1      -4.467   8.006   0.429  1.00  0.00     0.029 A 
ATOM     38  N   UNL     1      -6.597   8.317  -0.181  1.00  0.00    -0.354 N 
ATOM     39  C   UNL     1      -9.434   5.085  -0.189  1.00  0.00     0.074 A 
ATOM     40  C   UNL     1      -8.806   3.836   0.183  1.00  0.00     0.031 C 
ATOM     41  C   UNL     1      -4.610   9.302   0.109  1.00  0.00     0.029 A 
ATOM     42  C   UNL     1      -5.994   9.549  -0.291  1.00  0.00     0.049 A 
ATOM     43  H   UNL     1      -7.540   8.157  -0.412  1.00  0.00     0.167 HD
ATOM     44  C   UNL     1     -10.742   5.208  -0.524  1.00  0.00     0.031 A 
ATOM     45  C   UNL     1      -6.495  10.745  -0.658  1.00  0.00     0.031 A 
ATOM     46  C   UNL     1     -11.377   6.452  -0.875  1.00  0.00     0.049 A 
ATOM     47  C   UNL     1      -7.955  10.864  -1.001  1.00  0.00     0.074 A 
ATOM     48  C   UNL     1     -12.710   6.684  -1.175  1.00  0.00     0.029 A 
ATOM     49  N   UNL     1     -10.729   7.673  -0.971  1.00  0.00    -0.354 N 
ATOM     50  N   UNL     1      -8.878   9.933  -1.006  1.00  0.00    -0.248 NA
ATOM     51  C   UNL     1      -8.444  12.201  -1.372  1.00  0.00     0.031 C 
ATOM     52  C   UNL     1     -12.858   8.038  -1.492  1.00  0.00     0.029 A 
ATOM     53  C   UNL     1     -11.629   8.659  -1.342  1.00  0.00     0.049 A 
ATOM     54  H   UNL     1      -9.771   7.818  -0.801  1.00  0.00     0.167 HD
ATOM     55  C   UNL     1     -10.060  10.575  -1.363  1.00  0.00     0.074 A 
ATOM     56  C   UNL     1      -9.739  11.975  -1.546  1.00  0.00     0.031 C 
ATOM     57  C   UNL     1     -11.299  10.049  -1.524  1.00  0.00     0.031 A 
BRANCH  44  58
ATOM     58  C   UNL     1     -11.582   3.956  -0.530  1.00  0.00    -0.014 A 
ATOM     59  C   UNL     1     -11.935   3.313   0.671  1.00  0.00     0.010 A 
ATOM     60  C   UNL     1     -12.058   3.436  -1.747  1.00  0.00     0.010 A 
ATOM     61  C   UNL     1     -12.706   2.148   0.651  1.00  0.00     0.020 A 
ATOM     62  C   UNL     1     -12.854   2.286  -1.770  1.00  0.00     0.020 A 
ATOM     63  C   UNL     1     -13.155   1.637  -0.570  1.00  0.00     0.054 A 
BRANCH  63  64
ATOM     64  S   UNL     1     -14.160   0.127  -0.567  1.00  0.00     0.124 S 
ATOM     65  O   UNL     1     -13.157  -0.900  -0.297  1.00  0.00    -0.237 OA
ATOM     66  O   UNL     1     -15.111   0.375   0.514  1.00  0.00    -0.237 OA
ATOM     67  O   UNL     1     -14.740   0.093  -1.907  1.00  0.00    -0.744 OA
ENDBRANCH  63  64
ENDBRANCH  44  58
BRANCH  45  68
ATOM     68  C   UNL     1      -5.607  11.939  -0.690  1.00  0.00    -0.014 A 
ATOM     69  C   UNL     1      -5.731  12.951   0.278  1.00  0.00     0.010 A 
ATOM     70  C   UNL     1      -4.617  12.059  -1.682  1.00  0.00     0.010 A 
ATOM     71  C   UNL     1      -4.891  14.067   0.248  1.00  0.00     0.020 A 
ATOM     72  C   UNL     1      -3.758  13.161  -1.700  1.00  0.00     0.020 A 
ATOM     73  C   UNL     1      -3.906  14.164  -0.740  1.00  0.00     0.054 A 
BRANCH  73  74
ATOM     74  S   UNL     1      -2.782  15.588  -0.723  1.00  0.00     0.124 S 
ATOM     75  O   UNL     1      -3.631  16.651  -1.251  1.00  0.00    -0.237 OA
ATOM     76  O   UNL     1      -2.433  15.698   0.691  1.00  0.00    -0.237 OA
ATOM     77  O   UNL     1      -1.687  15.166  -1.595  1.00  0.00    -0.744 OA
ENDBRANCH  73  74
ENDBRANCH  45  68
BRANCH  57  78
ATOM     78  C   UNL     1     -12.412  10.992  -1.898  1.00  0.00    -0.014 A 
ATOM     79  C   UNL     1     -12.509  11.522  -3.197  1.00  0.00     0.010 A 
ATOM     80  C   UNL     1     -13.406  11.306  -0.953  1.00  0.00     0.010 A 
ATOM     81  C   UNL     1     -13.566  12.371  -3.535  1.00  0.00     0.020 A 
ATOM     82  C   UNL     1     -14.477  12.135  -1.295  1.00  0.00     0.020 A 
ATOM     83  C   UNL     1     -14.543  12.674  -2.582  1.00  0.00     0.054 A 
BRANCH  83  84
ATOM     84  S   UNL     1     -15.931  13.741  -3.059  1.00  0.00     0.124 S 
ATOM     85  O   UNL     1     -15.306  15.061  -3.076  1.00  0.00    -0.237 OA
ATOM     86  O   UNL     1     -16.312  13.209  -4.364  1.00  0.00    -0.237 OA
ATOM     87  O   UNL     1     -16.911  13.530  -1.996  1.00  0.00    -0.744 OA
ENDBRANCH  83  84
ENDBRANCH  57  78
ENDBRANCH  31  32
ENDBRANCH  24  26
ENDBRANCH  23  24
ENDBRANCH  22  23
ENDBRANCH  21  22
ENDBRANCH   1  21
TORSDOF 20
