REMARK SMILES O=C(OCCOCCOC(=O)[C@H]1[C@H]2CC[C@H](C2)[C@@H]1C(=O)Nc1sc2c(c1C(=O)NC1CCCCC1)CCCC2)c1ccc(-c2c3nc(c(-c4ccc(S(=O)(=O)[O-])cc4)c4ccc([nH]4)c(-c4ccc(S(=O)(=O)[O-])cc4)c4nc(c(-c5ccc(S(=O)(=O)[O-])cc5)c5ccc2[nH]5)C=C4)C=C3)cc1
REMARK SMILES IDX 7 1 6 2 5 3 4 4 3 5 2 6 1 7 40 8 41 9 99 10 42 11 98 12
REMARK SMILES IDX 43 13 44 14 45 15 92 16 46 17 97 18 91 19 93 20 47 21 96 22
REMARK SMILES IDX 90 23 89 24 48 26 78 27 59 28 77 29 60 30 63 31 76 32 94 33
REMARK SMILES IDX 61 34 62 35 75 37 95 38 64 39 49 40 50 41 58 42 51 43 57 44
REMARK SMILES IDX 52 45 53 46 54 47 55 48 56 49 79 50 80 51 88 52 81 53 87 54
REMARK SMILES IDX 82 55 83 56 84 57 85 58 86 59 65 60 66 61 74 62 67 63 73 64
REMARK SMILES IDX 68 65 69 66 70 67 71 68 72 69 8 70 9 71 10 72 11 73 12 74
REMARK SMILES IDX 13 75 18 76 14 77 17 78 16 79 15 80 19 81 20 82 21 83 22 85
REMARK SMILES IDX 23 86 26 87 24 88 25 89 39 90 36 91 38 92 37 93 27 94 28 95
REMARK SMILES IDX 29 96 30 98 31 99 35 100 32 101 34 102 33 103
REMARK H PARENT 93 25 63 36 21 84 29 97
REMARK Flexibility Score: inf
ROOT
ATOM      1  C   UNL     1       7.096   1.773  -4.927  1.00  0.00     0.202 C 
ENDROOT
BRANCH   1   2
ATOM      2  O   UNL     1       7.636   0.461  -4.802  1.00  0.00    -0.374 OA
BRANCH   2   3
ATOM      3  C   UNL     1       7.574  -0.106  -3.492  1.00  0.00     0.202 C 
BRANCH   3   4
ATOM      4  C   UNL     1       8.822   0.091  -2.629  1.00  0.00     0.261 C 
BRANCH   4   5
ATOM      5  O   UNL     1       9.244   1.459  -2.641  1.00  0.00    -0.460 OA
BRANCH   5   6
ATOM      6  C   UNL     1       9.977   2.054  -3.612  1.00  0.00     0.338 C 
ATOM      7  O   UNL     1      10.054   3.283  -3.623  1.00  0.00    -0.246 OA
BRANCH   6   8
ATOM      8  C   UNL     1      10.759   1.292  -4.634  1.00  0.00     0.060 A 
ATOM      9  C   UNL     1      10.398   0.060  -5.184  1.00  0.00     0.016 A 
ATOM     10  C   UNL     1      11.927   1.906  -5.114  1.00  0.00     0.016 A 
ATOM     11  C   UNL     1      11.171  -0.575  -6.129  1.00  0.00     0.010 A 
ATOM     12  C   UNL     1      12.715   1.281  -6.083  1.00  0.00     0.010 A 
ATOM     13  C   UNL     1      12.340   0.025  -6.568  1.00  0.00    -0.014 A 
BRANCH  13  14
ATOM     14  C   UNL     1      13.224  -0.822  -7.373  1.00  0.00     0.031 A 
ATOM     15  C   UNL     1      14.362  -1.485  -6.664  1.00  0.00     0.074 A 
ATOM     16  C   UNL     1      12.857  -1.143  -8.625  1.00  0.00     0.049 A 
ATOM     17  N   UNL     1      15.271  -2.288  -7.137  1.00  0.00    -0.248 NA
ATOM     18  C   UNL     1      14.479  -1.224  -5.216  1.00  0.00     0.031 C 
ATOM     19  C   UNL     1      11.637  -0.676  -9.295  1.00  0.00     0.029 A 
ATOM     20  N   UNL     1      13.435  -1.982  -9.534  1.00  0.00    -0.354 N 
ATOM     21  C   UNL     1      16.096  -2.586  -6.060  1.00  0.00     0.074 A 
ATOM     22  C   UNL     1      15.579  -1.890  -4.906  1.00  0.00     0.031 C 
ATOM     23  C   UNL     1      11.547  -1.262 -10.499  1.00  0.00     0.029 A 
ATOM     24  C   UNL     1      12.736  -2.077 -10.713  1.00  0.00     0.049 A 
ATOM     25  H   UNL     1      14.272  -2.471  -9.361  1.00  0.00     0.167 HD
ATOM     26  C   UNL     1      17.202  -3.362  -6.057  1.00  0.00     0.031 A 
ATOM     27  C   UNL     1      13.056  -2.729 -11.844  1.00  0.00     0.031 A 
ATOM     28  C   UNL     1      17.674  -4.029  -7.238  1.00  0.00     0.049 A 
ATOM     29  C   UNL     1      14.352  -3.494 -11.848  1.00  0.00     0.074 A 
ATOM     30  C   UNL     1      18.817  -4.784  -7.409  1.00  0.00     0.029 A 
ATOM     31  N   UNL     1      17.009  -4.015  -8.459  1.00  0.00    -0.354 N 
ATOM     32  N   UNL     1      15.196  -3.688 -10.858  1.00  0.00    -0.248 NA
ATOM     33  C   UNL     1      14.748  -4.117 -13.113  1.00  0.00     0.031 C 
ATOM     34  C   UNL     1      18.872  -5.176  -8.752  1.00  0.00     0.029 A 
ATOM     35  C   UNL     1      17.725  -4.731  -9.397  1.00  0.00     0.049 A 
ATOM     36  H   UNL     1      16.152  -3.560  -8.630  1.00  0.00     0.167 HD
ATOM     37  C   UNL     1      16.210  -4.483 -11.373  1.00  0.00     0.074 A 
ATOM     38  C   UNL     1      15.863  -4.742 -12.759  1.00  0.00     0.031 C 
ATOM     39  C   UNL     1      17.325  -4.961 -10.765  1.00  0.00     0.031 A 
BRANCH  26  40
ATOM     40  C   UNL     1      18.006  -3.408  -4.787  1.00  0.00    -0.014 A 
ATOM     41  C   UNL     1      17.543  -4.060  -3.629  1.00  0.00     0.010 A 
ATOM     42  C   UNL     1      19.239  -2.733  -4.742  1.00  0.00     0.010 A 
ATOM     43  C   UNL     1      18.278  -3.996  -2.440  1.00  0.00     0.020 A 
ATOM     44  C   UNL     1      19.991  -2.691  -3.566  1.00  0.00     0.020 A 
ATOM     45  C   UNL     1      19.496  -3.308  -2.416  1.00  0.00     0.054 A 
BRANCH  45  46
ATOM     46  S   UNL     1      20.433  -3.241  -0.864  1.00  0.00     0.124 S 
ATOM     47  O   UNL     1      19.622  -2.330  -0.059  1.00  0.00    -0.237 OA
ATOM     48  O   UNL     1      20.429  -4.635  -0.428  1.00  0.00    -0.237 OA
ATOM     49  O   UNL     1      21.737  -2.721  -1.267  1.00  0.00    -0.744 OA
ENDBRANCH  45  46
ENDBRANCH  26  40
BRANCH  27  50
ATOM     50  C   UNL     1      12.186  -2.633 -13.049  1.00  0.00    -0.014 A 
ATOM     51  C   UNL     1      11.554  -3.769 -13.583  1.00  0.00     0.010 A 
ATOM     52  C   UNL     1      11.983  -1.389 -13.678  1.00  0.00     0.010 A 
ATOM     53  C   UNL     1      10.759  -3.667 -14.731  1.00  0.00     0.020 A 
ATOM     54  C   UNL     1      11.164  -1.276 -14.805  1.00  0.00     0.020 A 
ATOM     55  C   UNL     1      10.569  -2.420 -15.334  1.00  0.00     0.054 A 
BRANCH  55  56
ATOM     56  S   UNL     1       9.517  -2.308 -16.808  1.00  0.00     0.124 S 
ATOM     57  O   UNL     1      10.338  -2.967 -17.819  1.00  0.00    -0.237 OA
ATOM     58  O   UNL     1       8.318  -3.033 -16.396  1.00  0.00    -0.237 OA
ATOM     59  O   UNL     1       9.334  -0.870 -16.992  1.00  0.00    -0.744 OA
ENDBRANCH  55  56
ENDBRANCH  27  50
BRANCH  39  60
ATOM     60  C   UNL     1      18.204  -5.862 -11.584  1.00  0.00    -0.014 A 
ATOM     61  C   UNL     1      18.992  -5.363 -12.634  1.00  0.00     0.010 A 
ATOM     62  C   UNL     1      18.273  -7.227 -11.250  1.00  0.00     0.010 A 
ATOM     63  C   UNL     1      19.805  -6.228 -13.368  1.00  0.00     0.020 A 
ATOM     64  C   UNL     1      19.112  -8.085 -11.957  1.00  0.00     0.020 A 
ATOM     65  C   UNL     1      19.859  -7.583 -13.024  1.00  0.00     0.054 A 
BRANCH  65  66
ATOM     66  S   UNL     1      20.949  -8.678 -13.969  1.00  0.00     0.124 S 
ATOM     67  O   UNL     1      20.222  -8.816 -15.227  1.00  0.00    -0.237 OA
ATOM     68  O   UNL     1      22.191  -7.912 -14.039  1.00  0.00    -0.237 OA
ATOM     69  O   UNL     1      21.017  -9.888 -13.152  1.00  0.00    -0.744 OA
ENDBRANCH  65  66
ENDBRANCH  39  60
ENDBRANCH  13  14
ENDBRANCH   6   8
ENDBRANCH   5   6
ENDBRANCH   4   5
ENDBRANCH   3   4
ENDBRANCH   2   3
ENDBRANCH   1   2
BRANCH   1  70
ATOM     70  C   UNL     1       5.679   1.728  -5.488  1.00  0.00     0.261 C 
BRANCH  70  71
ATOM     71  O   UNL     1       4.865   0.826  -4.710  1.00  0.00    -0.463 OA
BRANCH  71  72
ATOM     72  C   UNL     1       4.861  -0.453  -5.184  1.00  0.00     0.310 C 
ATOM     73  O   UNL     1       5.377  -0.794  -6.243  1.00  0.00    -0.252 OA
BRANCH  72  74
ATOM     74  C   UNL     1       4.065  -1.374  -4.279  1.00  0.00     0.115 C 
ATOM     75  C   UNL     1       3.473  -2.535  -5.141  1.00  0.00     0.004 C 
ATOM     76  C   UNL     1       4.813  -2.158  -3.178  1.00  0.00     0.096 C 
ATOM     77  C   UNL     1       4.520  -3.519  -5.715  1.00  0.00     0.005 C 
ATOM     78  C   UNL     1       2.916  -3.408  -4.042  1.00  0.00     0.009 C 
ATOM     79  C   UNL     1       4.255  -3.595  -3.333  1.00  0.00     0.003 C 
ATOM     80  C   UNL     1       5.035  -4.272  -4.476  1.00  0.00     0.005 C 
BRANCH  76  81
ATOM     81  C   UNL     1       4.938  -1.638  -1.724  1.00  0.00     0.229 C 
ATOM     82  O   UNL     1       6.085  -1.504  -1.264  1.00  0.00    -0.274 OA
ATOM     83  N   UNL     1       3.931  -1.303  -0.869  1.00  0.00    -0.317 N 
ATOM     84  H   UNL     1       4.178  -1.098   0.061  1.00  0.00     0.170 HD
BRANCH  83  85
ATOM     85  C   UNL     1       2.610  -1.228  -1.196  1.00  0.00     0.108 A 
ATOM     86  S   UNL     1       1.693  -2.653  -0.972  1.00  0.00    -0.122 S 
ATOM     87  C   UNL     1       1.747  -0.143  -1.297  1.00  0.00     0.078 A 
ATOM     88  C   UNL     1       0.526  -1.997  -2.032  1.00  0.00     0.011 A 
ATOM     89  C   UNL     1       0.694  -0.620  -2.183  1.00  0.00    -0.019 A 
ATOM     90  C   UNL     1      -0.414  -2.883  -2.797  1.00  0.00     0.047 C 
ATOM     91  C   UNL     1      -0.066   0.079  -3.279  1.00  0.00     0.037 C 
ATOM     92  C   UNL     1      -0.999  -2.141  -4.007  1.00  0.00     0.006 C 
ATOM     93  C   UNL     1      -1.341  -0.693  -3.654  1.00  0.00     0.005 C 
BRANCH  87  94
ATOM     94  C   UNL     1       2.151   1.167  -0.762  1.00  0.00     0.254 C 
ATOM     95  O   UNL     1       3.337   1.445  -0.571  1.00  0.00    -0.269 OA
ATOM     96  N   UNL     1       1.227   2.065  -0.273  1.00  0.00    -0.349 N 
ATOM     97  H   UNL     1       1.599   2.793   0.275  1.00  0.00     0.164 HD
BRANCH  96  98
ATOM     98  C   UNL     1      -0.203   2.094  -0.447  1.00  0.00     0.082 C 
ATOM     99  C   UNL     1      -0.977   1.032   0.332  1.00  0.00     0.025 C 
ATOM    100  C   UNL     1      -0.830   3.468  -0.195  1.00  0.00     0.025 C 
ATOM    101  C   UNL     1      -2.405   0.971  -0.209  1.00  0.00     0.002 C 
ATOM    102  C   UNL     1      -2.259   3.460  -0.750  1.00  0.00     0.002 C 
ATOM    103  C   UNL     1      -3.104   2.329  -0.159  1.00  0.00     0.000 C 
ENDBRANCH  96  98
ENDBRANCH  87  94
ENDBRANCH  83  85
ENDBRANCH  76  81
ENDBRANCH  72  74
ENDBRANCH  71  72
ENDBRANCH  70  71
ENDBRANCH   1  70
TORSDOF 21
