REMARK SMILES O=C(CN1CC2(CCC1=O)CC[NH+](Cc1ccc(Cl)c(F)c1)CC2)OCCOCCOC(=O)c1ccc(-c2c3nc(c(-c4ccc(S(=O)(=O)[O-])cc4)c4ccc([nH]4)c(-c4ccc(S(=O)(=O)[O-])cc4)c4nc(c(-c5ccc(S(=O)(=O)[O-])cc5)c5ccc2[nH]5)C=C4)C=C3)cc1
REMARK SMILES IDX 28 1 27 2 26 3 25 4 2 5 1 6 3 7 4 8 5 9 9 10 6 11 8 12 10 13
REMARK SMILES IDX 7 14 11 15 24 16 12 17 23 18 13 19 14 21 15 22 16 23 22 24
REMARK SMILES IDX 17 25 20 26 18 27 21 28 19 29 29 30 30 31 31 32 32 33 33 34
REMARK SMILES IDX 34 35 35 36 93 37 36 38 92 39 37 40 38 41 39 42 86 43 40 44
REMARK SMILES IDX 91 45 85 46 87 47 41 48 90 49 84 50 83 51 42 53 72 54 53 55
REMARK SMILES IDX 71 56 54 57 57 58 70 59 88 60 55 61 56 62 69 64 89 65 58 66
REMARK SMILES IDX 43 67 44 68 52 69 45 70 51 71 46 72 47 73 48 74 49 75 50 76
REMARK SMILES IDX 73 77 74 78 82 79 75 80 81 81 76 82 77 83 78 84 79 85 80 86
REMARK SMILES IDX 59 87 60 88 68 89 61 90 67 91 62 92 63 93 64 94 65 95 66 96
REMARK H PARENT 13 20 87 52 57 63
REMARK Flexibility Score: inf
ROOT
ATOM      1  O   UNL     1       4.233  -1.563  -0.866  1.00  0.00    -0.374 OA
ENDROOT
BRANCH   1   2
ATOM      2  C   UNL     1       4.562  -1.638   0.522  1.00  0.00     0.202 C 
BRANCH   2   3
ATOM      3  C   UNL     1       3.978  -0.642   1.526  1.00  0.00     0.261 C 
BRANCH   3   4
ATOM      4  O   UNL     1       2.574  -0.427   1.381  1.00  0.00    -0.462 OA
BRANCH   4   5
ATOM      5  C   UNL     1       2.114   0.555   0.576  1.00  0.00     0.325 C 
ATOM      6  O   UNL     1       0.930   0.890   0.622  1.00  0.00    -0.250 OA
BRANCH   5   7
ATOM      7  C   UNL     1       3.058   1.181  -0.437  1.00  0.00     0.242 C 
BRANCH   7   8
ATOM      8  N   UNL     1       3.981   2.226  -0.021  1.00  0.00    -0.331 N 
ATOM      9  C   UNL     1       3.422   3.551   0.087  1.00  0.00     0.127 C 
ATOM     10  C   UNL     1       5.355   2.021  -0.149  1.00  0.00     0.223 C 
ATOM     11  C   UNL     1       4.007   4.424  -1.025  1.00  0.00    -0.001 C 
ATOM     12  C   UNL     1       6.192   3.185  -0.645  1.00  0.00     0.101 C 
ATOM     13  O   UNL     1       5.891   0.919  -0.056  1.00  0.00    -0.275 OA
ATOM     14  C   UNL     1       5.505   4.538  -0.649  1.00  0.00     0.019 C 
ATOM     15  C   UNL     1       3.869   3.749  -2.426  1.00  0.00     0.070 C 
ATOM     16  C   UNL     1       3.349   5.814  -0.963  1.00  0.00     0.070 C 
ATOM     17  C   UNL     1       2.573   4.028  -3.170  1.00  0.00     0.263 C 
ATOM     18  C   UNL     1       2.100   5.967  -1.833  1.00  0.00     0.263 C 
ATOM     19  N   UNL     1       2.212   5.434  -3.185  1.00  0.00    -0.331 N 
ATOM     20  H   UNL     1       1.265   5.490  -3.560  1.00  0.00     0.348 HD
BRANCH  19  21
ATOM     21  C   UNL     1       2.856   6.269  -4.211  1.00  0.00     0.299 C 
BRANCH  21  22
ATOM     22  C   UNL     1       4.339   6.555  -4.073  1.00  0.00     0.009 A 
ATOM     23  C   UNL     1       4.787   7.654  -3.325  1.00  0.00     0.011 A 
ATOM     24  C   UNL     1       5.298   5.684  -4.615  1.00  0.00     0.050 A 
ATOM     25  C   UNL     1       6.138   7.790  -2.990  1.00  0.00     0.024 A 
ATOM     26  C   UNL     1       6.642   5.809  -4.261  1.00  0.00     0.142 A 
ATOM     27  C   UNL     1       7.061   6.843  -3.430  1.00  0.00     0.076 A 
ATOM     28  F   UNL     1       7.503   4.866  -4.671  1.00  0.00    -0.205 F 
ATOM     29  Cl  UNL     1       8.690   6.928  -2.881  1.00  0.00    -0.081 Cl
ENDBRANCH  21  22
ENDBRANCH  19  21
ENDBRANCH   7   8
ENDBRANCH   5   7
ENDBRANCH   4   5
ENDBRANCH   3   4
ENDBRANCH   2   3
ENDBRANCH   1   2
BRANCH   1  30
ATOM     30  C   UNL     1       2.981  -2.108  -1.281  1.00  0.00     0.202 C 
BRANCH  30  31
ATOM     31  C   UNL     1       2.938  -3.624  -1.497  1.00  0.00     0.261 C 
BRANCH  31  32
ATOM     32  O   UNL     1       3.359  -4.338  -0.330  1.00  0.00    -0.460 OA
BRANCH  32  33
ATOM     33  C   UNL     1       4.671  -4.689  -0.335  1.00  0.00     0.338 C 
ATOM     34  O   UNL     1       5.434  -4.658  -1.288  1.00  0.00    -0.246 OA
BRANCH  33  35
ATOM     35  C   UNL     1       5.120  -4.887   1.062  1.00  0.00     0.060 A 
ATOM     36  C   UNL     1       6.365  -4.350   1.421  1.00  0.00     0.016 A 
ATOM     37  C   UNL     1       4.314  -5.508   2.020  1.00  0.00     0.016 A 
ATOM     38  C   UNL     1       6.848  -4.512   2.714  1.00  0.00     0.010 A 
ATOM     39  C   UNL     1       4.804  -5.683   3.316  1.00  0.00     0.010 A 
ATOM     40  C   UNL     1       6.096  -5.239   3.645  1.00  0.00    -0.014 A 
BRANCH  40  41
ATOM     41  C   UNL     1       6.776  -5.752   4.854  1.00  0.00     0.031 A 
ATOM     42  C   UNL     1       7.283  -7.170   4.820  1.00  0.00     0.074 A 
ATOM     43  C   UNL     1       7.005  -4.962   5.916  1.00  0.00     0.049 A 
ATOM     44  N   UNL     1       7.933  -7.841   5.734  1.00  0.00    -0.248 NA
ATOM     45  C   UNL     1       7.021  -7.935   3.587  1.00  0.00     0.031 C 
ATOM     46  C   UNL     1       6.593  -3.564   6.037  1.00  0.00     0.029 A 
ATOM     47  N   UNL     1       7.649  -5.228   7.096  1.00  0.00    -0.354 N 
ATOM     48  C   UNL     1       8.160  -9.098   5.184  1.00  0.00     0.074 A 
ATOM     49  C   UNL     1       7.536  -9.117   3.882  1.00  0.00     0.031 C 
ATOM     50  C   UNL     1       6.992  -3.096   7.233  1.00  0.00     0.029 A 
ATOM     51  C   UNL     1       7.663  -4.166   7.968  1.00  0.00     0.049 A 
ATOM     52  H   UNL     1       8.062  -6.098   7.301  1.00  0.00     0.167 HD
ATOM     53  C   UNL     1       8.847 -10.139   5.710  1.00  0.00     0.031 A 
ATOM     54  C   UNL     1       8.151  -4.079   9.221  1.00  0.00     0.031 A 
ATOM     55  C   UNL     1       9.450 -10.117   7.014  1.00  0.00     0.049 A 
ATOM     56  C   UNL     1       8.850  -5.276   9.814  1.00  0.00     0.074 A 
ATOM     57  C   UNL     1      10.159 -11.118   7.653  1.00  0.00     0.029 A 
ATOM     58  N   UNL     1       9.412  -9.035   7.882  1.00  0.00    -0.354 N 
ATOM     59  N   UNL     1       9.071  -6.454   9.277  1.00  0.00    -0.248 NA
ATOM     60  C   UNL     1       9.384  -5.124  11.173  1.00  0.00     0.031 C 
ATOM     61  C   UNL     1      10.502 -10.661   8.929  1.00  0.00     0.029 A 
ATOM     62  C   UNL     1      10.068  -9.350   9.059  1.00  0.00     0.049 A 
ATOM     63  H   UNL     1       8.982  -8.171   7.688  1.00  0.00     0.167 HD
ATOM     64  C   UNL     1       9.790  -7.175  10.226  1.00  0.00     0.074 A 
ATOM     65  C   UNL     1       9.991  -6.288  11.354  1.00  0.00     0.031 C 
ATOM     66  C   UNL     1      10.245  -8.453  10.173  1.00  0.00     0.031 A 
BRANCH  53  67
ATOM     67  C   UNL     1       8.959 -11.389   4.877  1.00  0.00    -0.014 A 
ATOM     68  C   UNL     1       9.744 -11.417   3.708  1.00  0.00     0.010 A 
ATOM     69  C   UNL     1       8.299 -12.563   5.283  1.00  0.00     0.010 A 
ATOM     70  C   UNL     1       9.842 -12.585   2.948  1.00  0.00     0.020 A 
ATOM     71  C   UNL     1       8.420 -13.742   4.542  1.00  0.00     0.020 A 
ATOM     72  C   UNL     1       9.182 -13.742   3.372  1.00  0.00     0.054 A 
BRANCH  72  73
ATOM     73  S   UNL     1       9.363 -15.255   2.387  1.00  0.00     0.124 S 
ATOM     74  O   UNL     1       8.598 -14.928   1.186  1.00  0.00    -0.237 OA
ATOM     75  O   UNL     1      10.809 -15.345   2.205  1.00  0.00    -0.237 OA
ATOM     76  O   UNL     1       8.778 -16.292   3.233  1.00  0.00    -0.744 OA
ENDBRANCH  72  73
ENDBRANCH  53  67
BRANCH  54  77
ATOM     77  C   UNL     1       7.972  -2.825  10.006  1.00  0.00    -0.014 A 
ATOM     78  C   UNL     1       9.071  -2.029  10.370  1.00  0.00     0.010 A 
ATOM     79  C   UNL     1       6.682  -2.428  10.406  1.00  0.00     0.010 A 
ATOM     80  C   UNL     1       8.887  -0.875  11.141  1.00  0.00     0.020 A 
ATOM     81  C   UNL     1       6.490  -1.259  11.147  1.00  0.00     0.020 A 
ATOM     82  C   UNL     1       7.597  -0.498  11.523  1.00  0.00     0.054 A 
BRANCH  82  83
ATOM     83  S   UNL     1       7.377   1.021  12.491  1.00  0.00     0.124 S 
ATOM     84  O   UNL     1       7.901   0.630  13.795  1.00  0.00    -0.237 OA
ATOM     85  O   UNL     1       8.182   1.987  11.747  1.00  0.00    -0.237 OA
ATOM     86  O   UNL     1       5.935   1.254  12.440  1.00  0.00    -0.744 OA
ENDBRANCH  82  83
ENDBRANCH  54  77
BRANCH  66  87
ATOM     87  C   UNL     1      11.029  -8.952  11.359  1.00  0.00    -0.014 A 
ATOM     88  C   UNL     1      10.413  -9.176  12.604  1.00  0.00     0.010 A 
ATOM     89  C   UNL     1      12.403  -9.223  11.217  1.00  0.00     0.010 A 
ATOM     90  C   UNL     1      11.168  -9.604  13.698  1.00  0.00     0.020 A 
ATOM     91  C   UNL     1      13.154  -9.687  12.299  1.00  0.00     0.020 A 
ATOM     92  C   UNL     1      12.536  -9.851  13.540  1.00  0.00     0.054 A 
BRANCH  92  93
ATOM     93  S   UNL     1      13.493 -10.408  14.975  1.00  0.00     0.124 S 
ATOM     94  O   UNL     1      13.574  -9.190  15.777  1.00  0.00    -0.237 OA
ATOM     95  O   UNL     1      12.654 -11.469  15.527  1.00  0.00    -0.237 OA
ATOM     96  O   UNL     1      14.757 -10.858  14.396  1.00  0.00    -0.744 OA
ENDBRANCH  92  93
ENDBRANCH  66  87
ENDBRANCH  40  41
ENDBRANCH  33  35
ENDBRANCH  32  33
ENDBRANCH  31  32
ENDBRANCH  30  31
ENDBRANCH   1  30
TORSDOF 20
