REMARK SMILES CC(C)[C@H]1CC[C@@H](C)/C(=C/c2ccc(NC(=O)CCC(=O)OCCOCCOC(=O)c3ccc(-c4c5nc(c(-c6ccc(S(=O)(=O)[O-])cc6)c6ccc([nH]6)c(-c6ccc(S(=O)(=O)[O-])cc6)c6nc(c(-c7ccc(S(=O)(=O)[O-])cc7)c7ccc4[nH]7)C=C6)C=C5)cc3)cc2)C1=O
REMARK SMILES IDX 24 1 23 2 22 3 20 4 21 5 19 6 18 7 16 8 15 9 17 11 14 12
REMARK SMILES IDX 11 13 12 14 92 15 13 16 91 17 10 18 4 19 5 20 93 21 6 22
REMARK SMILES IDX 9 23 94 24 7 25 8 26 2 27 1 28 3 29 25 30 26 31 27 32 28 33
REMARK SMILES IDX 29 34 30 35 31 36 32 37 90 38 33 39 89 40 34 41 35 42 36 43
REMARK SMILES IDX 83 44 37 45 88 46 82 47 84 48 38 49 87 50 81 51 80 52 39 54
REMARK SMILES IDX 69 55 50 56 68 57 51 58 54 59 67 60 85 61 52 62 53 63 66 65
REMARK SMILES IDX 86 66 55 67 40 68 41 69 49 70 42 71 48 72 43 73 44 74 45 75
REMARK SMILES IDX 46 76 47 77 70 78 71 79 79 80 72 81 78 82 73 83 74 84 75 85
REMARK SMILES IDX 76 86 77 87 56 88 57 89 65 90 58 91 64 92 59 93 60 94 61 95
REMARK SMILES IDX 62 96 63 97
REMARK H PARENT 15 10 84 53 54 64
REMARK Flexibility Score: inf
ROOT
ATOM      1  C   UNL     1       0.800   0.625  -5.319  1.00  0.00     0.202 C 
ENDROOT
BRANCH   1   2
ATOM      2  C   UNL     1       2.282   0.990  -5.070  1.00  0.00     0.261 C 
BRANCH   2   3
ATOM      3  O   UNL     1       2.567   2.378  -5.276  1.00  0.00    -0.463 OA
BRANCH   3   4
ATOM      4  C   UNL     1       2.515   2.851  -6.534  1.00  0.00     0.306 C 
ATOM      5  O   UNL     1       2.394   2.159  -7.535  1.00  0.00    -0.252 OA
BRANCH   4   6
ATOM      6  C   UNL     1       2.614   4.358  -6.548  1.00  0.00     0.132 C 
BRANCH   6   7
ATOM      7  C   UNL     1       2.093   5.060  -5.285  1.00  0.00     0.112 C 
BRANCH   7   8
ATOM      8  C   UNL     1       3.155   5.275  -4.207  1.00  0.00     0.224 C 
ATOM      9  N   UNL     1       3.364   4.546  -3.064  1.00  0.00    -0.326 N 
ATOM     10  H   UNL     1       4.177   4.838  -2.591  1.00  0.00     0.169 HD
ATOM     11  O   UNL     1       3.952   6.206  -4.405  1.00  0.00    -0.275 OA
BRANCH   9  12
ATOM     12  C   UNL     1       2.720   3.484  -2.387  1.00  0.00     0.041 A 
ATOM     13  C   UNL     1       1.409   1.264  -1.090  1.00  0.00    -0.025 A 
ATOM     14  C   UNL     1       0.800   2.003  -2.070  1.00  0.00     0.010 A 
ATOM     15  C   UNL     1       2.670   1.704  -0.680  1.00  0.00     0.010 A 
ATOM     16  C   UNL     1       1.485   3.022  -2.740  1.00  0.00     0.027 A 
ATOM     17  C   UNL     1       3.296   2.837  -1.290  1.00  0.00     0.027 A 
BRANCH  13  18
ATOM     18  C   UNL     1       0.760  -0.024  -0.782  1.00  0.00     0.015 C 
ATOM     19  C   UNL     1      -1.284   0.812   1.741  1.00  0.00     0.063 C 
ATOM     20  C   UNL     1      -1.705  -0.618   2.193  1.00  0.00     0.013 C 
ATOM     21  C   UNL     1      -1.350   0.847   0.213  1.00  0.00     0.162 C 
ATOM     22  C   UNL     1      -1.093  -1.780   1.374  1.00  0.00     0.009 C 
ATOM     23  C   UNL     1      -0.516  -0.232  -0.393  1.00  0.00    -0.001 C 
ATOM     24  O   UNL     1      -2.104   1.507  -0.484  1.00  0.00    -0.294 OA
ATOM     25  C   UNL     1      -1.159  -1.574  -0.145  1.00  0.00     0.020 C 
ATOM     26  C   UNL     1      -2.606  -1.696  -0.664  1.00  0.00     0.013 C 
BRANCH  19  27
ATOM     27  C   UNL     1      -1.908   1.991   2.555  1.00  0.00    -0.007 C 
ATOM     28  C   UNL     1      -2.631   3.088   1.772  1.00  0.00     0.008 C 
ATOM     29  C   UNL     1      -2.829   1.556   3.700  1.00  0.00     0.008 C 
ENDBRANCH  19  27
ENDBRANCH  13  18
ENDBRANCH   9  12
ENDBRANCH   7   8
ENDBRANCH   6   7
ENDBRANCH   4   6
ENDBRANCH   3   4
ENDBRANCH   2   3
ENDBRANCH   1   2
BRANCH   1  30
ATOM     30  O   UNL     1      -0.162   1.374  -4.558  1.00  0.00    -0.374 OA
BRANCH  30  31
ATOM     31  C   UNL     1      -0.806   2.499  -5.180  1.00  0.00     0.202 C 
BRANCH  31  32
ATOM     32  C   UNL     1      -1.622   3.407  -4.160  1.00  0.00     0.261 C 
BRANCH  32  33
ATOM     33  O   UNL     1      -0.820   4.389  -3.392  1.00  0.00    -0.460 OA
BRANCH  33  34
ATOM     34  C   UNL     1      -1.237   4.708  -2.116  1.00  0.00     0.338 C 
ATOM     35  O   UNL     1      -2.346   4.472  -1.690  1.00  0.00    -0.246 OA
BRANCH  34  36
ATOM     36  C   UNL     1      -0.152   5.292  -1.210  1.00  0.00     0.060 A 
ATOM     37  C   UNL     1       0.253   4.559  -0.080  1.00  0.00     0.016 A 
ATOM     38  C   UNL     1       0.383   6.577  -1.339  1.00  0.00     0.016 A 
ATOM     39  C   UNL     1       1.152   5.070   0.891  1.00  0.00     0.010 A 
ATOM     40  C   UNL     1       1.269   7.108  -0.345  1.00  0.00     0.010 A 
ATOM     41  C   UNL     1       1.655   6.372   0.798  1.00  0.00    -0.014 A 
BRANCH  41  42
ATOM     42  C   UNL     1       2.379   6.993   1.980  1.00  0.00     0.031 A 
ATOM     43  C   UNL     1       1.557   7.649   3.079  1.00  0.00     0.074 A 
ATOM     44  C   UNL     1       3.718   6.957   2.178  1.00  0.00     0.049 A 
ATOM     45  N   UNL     1       1.949   8.221   4.195  1.00  0.00    -0.248 NA
ATOM     46  C   UNL     1       0.100   7.644   2.890  1.00  0.00     0.031 C 
ATOM     47  C   UNL     1       4.697   6.313   1.308  1.00  0.00     0.029 A 
ATOM     48  N   UNL     1       4.492   7.481   3.205  1.00  0.00    -0.354 N 
ATOM     49  C   UNL     1       0.790   8.637   4.845  1.00  0.00     0.074 A 
ATOM     50  C   UNL     1      -0.317   8.267   3.983  1.00  0.00     0.031 C 
ATOM     51  C   UNL     1       5.931   6.486   1.827  1.00  0.00     0.029 A 
ATOM     52  C   UNL     1       5.849   7.276   3.060  1.00  0.00     0.049 A 
ATOM     53  H   UNL     1       4.104   7.960   3.973  1.00  0.00     0.167 HD
ATOM     54  C   UNL     1       0.633   9.267   6.038  1.00  0.00     0.031 A 
ATOM     55  C   UNL     1       6.907   7.675   3.809  1.00  0.00     0.031 A 
ATOM     56  C   UNL     1       1.691   9.699   6.915  1.00  0.00     0.049 A 
ATOM     57  C   UNL     1       6.718   8.484   5.079  1.00  0.00     0.074 A 
ATOM     58  C   UNL     1       1.582  10.368   8.126  1.00  0.00     0.029 A 
ATOM     59  N   UNL     1       3.044   9.528   6.684  1.00  0.00    -0.354 N 
ATOM     60  N   UNL     1       5.610   8.851   5.673  1.00  0.00    -0.248 NA
ATOM     61  C   UNL     1       7.938   8.922   5.787  1.00  0.00     0.031 C 
ATOM     62  C   UNL     1       2.868  10.649   8.599  1.00  0.00     0.029 A 
ATOM     63  C   UNL     1       3.779  10.097   7.716  1.00  0.00     0.049 A 
ATOM     64  H   UNL     1       3.429   9.070   5.903  1.00  0.00     0.167 HD
ATOM     65  C   UNL     1       6.000   9.520   6.837  1.00  0.00     0.074 A 
ATOM     66  C   UNL     1       7.443   9.504   6.871  1.00  0.00     0.031 C 
ATOM     67  C   UNL     1       5.218  10.087   7.790  1.00  0.00     0.031 A 
BRANCH  54  68
ATOM     68  C   UNL     1      -0.781   9.579   6.456  1.00  0.00    -0.014 A 
ATOM     69  C   UNL     1      -1.645   8.565   6.906  1.00  0.00     0.010 A 
ATOM     70  C   UNL     1      -1.241  10.908   6.416  1.00  0.00     0.010 A 
ATOM     71  C   UNL     1      -2.962   8.867   7.259  1.00  0.00     0.020 A 
ATOM     72  C   UNL     1      -2.549  11.218   6.794  1.00  0.00     0.020 A 
ATOM     73  C   UNL     1      -3.408  10.191   7.191  1.00  0.00     0.054 A 
BRANCH  73  74
ATOM     74  S   UNL     1      -5.126  10.555   7.642  1.00  0.00     0.124 S 
ATOM     75  O   UNL     1      -5.856  10.034   6.489  1.00  0.00    -0.237 OA
ATOM     76  O   UNL     1      -5.298   9.808   8.885  1.00  0.00    -0.237 OA
ATOM     77  O   UNL     1      -5.146  12.009   7.786  1.00  0.00    -0.744 OA
ENDBRANCH  73  74
ENDBRANCH  54  68
BRANCH  55  78
ATOM     78  C   UNL     1       8.306   7.349   3.383  1.00  0.00    -0.014 A 
ATOM     79  C   UNL     1       9.109   6.476   4.144  1.00  0.00     0.010 A 
ATOM     80  C   UNL     1       8.873   7.986   2.264  1.00  0.00     0.010 A 
ATOM     81  C   UNL     1      10.452   6.264   3.805  1.00  0.00     0.020 A 
ATOM     82  C   UNL     1      10.206   7.753   1.906  1.00  0.00     0.020 A 
ATOM     83  C   UNL     1      10.991   6.902   2.686  1.00  0.00     0.054 A 
BRANCH  83  84
ATOM     84  S   UNL     1      12.720   6.577   2.235  1.00  0.00     0.124 S 
ATOM     85  O   UNL     1      13.449   7.334   3.248  1.00  0.00    -0.237 OA
ATOM     86  O   UNL     1      12.806   5.123   2.347  1.00  0.00    -0.237 OA
ATOM     87  O   UNL     1      12.820   7.095   0.872  1.00  0.00    -0.744 OA
ENDBRANCH  83  84
ENDBRANCH  55  78
BRANCH  67  88
ATOM     88  C   UNL     1       5.883  10.691   9.008  1.00  0.00    -0.014 A 
ATOM     89  C   UNL     1       6.641  11.875   8.936  1.00  0.00     0.010 A 
ATOM     90  C   UNL     1       5.709  10.081  10.266  1.00  0.00     0.010 A 
ATOM     91  C   UNL     1       7.242  12.410  10.084  1.00  0.00     0.020 A 
ATOM     92  C   UNL     1       6.285  10.626  11.420  1.00  0.00     0.020 A 
ATOM     93  C   UNL     1       7.066  11.779  11.319  1.00  0.00     0.054 A 
BRANCH  93  94
ATOM     94  S   UNL     1       7.838  12.498  12.798  1.00  0.00     0.124 S 
ATOM     95  O   UNL     1       9.240  12.134  12.618  1.00  0.00    -0.237 OA
ATOM     96  O   UNL     1       7.536  13.921  12.661  1.00  0.00    -0.237 OA
ATOM     97  O   UNL     1       7.158  11.829  13.905  1.00  0.00    -0.744 OA
ENDBRANCH  93  94
ENDBRANCH  67  88
ENDBRANCH  41  42
ENDBRANCH  34  36
ENDBRANCH  33  34
ENDBRANCH  32  33
ENDBRANCH  31  32
ENDBRANCH  30  31
ENDBRANCH   1  30
TORSDOF 22
