REMARK SMILES COc1cc(OC)cc(-c2cc3nc(C)c(CCC(=O)OCCOCCOC(=O)c4ccc(-c5c6nc(c(-c7ccc(S(=O)(=O)[O-])cc7)c7ccc([nH]7)c(-c7ccc(S(=O)(=O)[O-])cc7)c7nc(c(-c8ccc(S(=O)(=O)[O-])cc8)c8ccc5[nH]8)C=C7)C=C6)cc4)c(C)n3n2)c1
REMARK SMILES IDX 23 1 22 2 21 3 19 4 20 5 18 6 17 7 16 8 10 9 11 10 93 11
REMARK SMILES IDX 12 12 92 13 13 14 90 15 14 16 91 17 15 18 9 19 3 20 4 21
REMARK SMILES IDX 94 22 5 23 8 24 2 25 1 26 6 27 7 28 24 29 25 30 26 31 27 32
REMARK SMILES IDX 28 33 29 34 30 35 31 36 89 37 32 38 88 39 33 40 34 41 35 42
REMARK SMILES IDX 82 43 36 44 87 45 81 46 83 47 37 48 86 49 80 50 79 51 38 53
REMARK SMILES IDX 68 54 49 55 67 56 50 57 53 58 66 59 84 60 51 61 52 62 65 64
REMARK SMILES IDX 85 65 54 66 39 67 40 68 48 69 41 70 47 71 42 72 43 73 44 74
REMARK SMILES IDX 45 75 46 76 69 77 70 78 78 79 71 80 77 81 72 82 73 83 74 84
REMARK SMILES IDX 75 85 76 86 55 87 56 88 64 89 57 90 63 91 58 92 59 93 60 94
REMARK SMILES IDX 61 95 62 96
REMARK H PARENT 83 52 53 63
REMARK Flexibility Score: inf
ROOT
ATOM      1  C   UNL     1       8.282   3.686   1.360  1.00  0.00     0.202 C 
ENDROOT
BRANCH   1   2
ATOM      2  C   UNL     1       8.669   2.327   0.726  1.00  0.00     0.261 C 
BRANCH   2   3
ATOM      3  O   UNL     1       8.977   1.273   1.680  1.00  0.00    -0.463 OA
BRANCH   3   4
ATOM      4  C   UNL     1      10.256   1.009   2.023  1.00  0.00     0.306 C 
ATOM      5  O   UNL     1      11.231   1.541   1.509  1.00  0.00    -0.252 OA
BRANCH   4   6
ATOM      6  C   UNL     1      10.360  -0.059   3.114  1.00  0.00     0.127 C 
BRANCH   6   7
ATOM      7  C   UNL     1       9.803   0.249   4.530  1.00  0.00     0.051 C 
BRANCH   7   8
ATOM      8  C   UNL     1       8.395  -0.249   4.838  1.00  0.00    -0.005 A 
ATOM      9  C   UNL     1       3.931  -0.500   4.370  1.00  0.00     0.095 A 
ATOM     10  C   UNL     1       4.416  -1.419   5.340  1.00  0.00     0.080 A 
ATOM     11  N   UNL     1       4.940   0.170   3.826  1.00  0.00    -0.166 NA
ATOM     12  C   UNL     1       5.796  -1.278   5.340  1.00  0.00     0.156 A 
ATOM     13  N   UNL     1       6.034  -0.224   4.492  1.00  0.00    -0.219 N 
ATOM     14  N   UNL     1       6.831  -1.853   6.023  1.00  0.00    -0.234 NA
ATOM     15  C   UNL     1       7.288   0.336   4.340  1.00  0.00     0.046 A 
ATOM     16  C   UNL     1       8.039  -1.381   5.812  1.00  0.00     0.045 A 
ATOM     17  C   UNL     1       7.216   1.625   3.623  1.00  0.00     0.067 C 
ATOM     18  C   UNL     1       9.117  -1.985   6.692  1.00  0.00     0.067 C 
BRANCH   9  19
ATOM     19  C   UNL     1       2.600  -0.106   3.931  1.00  0.00     0.009 A 
ATOM     20  C   UNL     1       1.151   0.608   2.098  1.00  0.00     0.123 A 
ATOM     21  C   UNL     1       0.283   1.177   3.023  1.00  0.00     0.092 A 
ATOM     22  C   UNL     1       2.323  -0.005   2.548  1.00  0.00     0.057 A 
ATOM     23  C   UNL     1       0.591   1.128   4.381  1.00  0.00     0.123 A 
ATOM     24  C   UNL     1       1.711   0.444   4.850  1.00  0.00     0.057 A 
BRANCH  20  25
ATOM     25  O   UNL     1       0.820   0.807   0.785  1.00  0.00    -0.497 OA
ATOM     26  C   UNL     1       1.226  -0.223  -0.106  1.00  0.00     0.278 C 
ENDBRANCH  20  25
BRANCH  23  27
ATOM     27  O   UNL     1      -0.198   1.832   5.251  1.00  0.00    -0.497 OA
ATOM     28  C   UNL     1       0.466   3.058   5.592  1.00  0.00     0.278 C 
ENDBRANCH  23  27
ENDBRANCH   9  19
ENDBRANCH   7   8
ENDBRANCH   6   7
ENDBRANCH   4   6
ENDBRANCH   3   4
ENDBRANCH   2   3
ENDBRANCH   1   2
BRANCH   1  29
ATOM     29  O   UNL     1       9.386   4.503   1.743  1.00  0.00    -0.374 OA
BRANCH  29  30
ATOM     30  C   UNL     1      10.016   4.203   2.983  1.00  0.00     0.202 C 
BRANCH  30  31
ATOM     31  C   UNL     1       9.460   4.938   4.199  1.00  0.00     0.261 C 
BRANCH  31  32
ATOM     32  O   UNL     1       8.284   4.317   4.723  1.00  0.00    -0.460 OA
BRANCH  32  33
ATOM     33  C   UNL     1       7.100   4.937   4.483  1.00  0.00     0.338 C 
ATOM     34  O   UNL     1       6.875   5.773   3.641  1.00  0.00    -0.246 OA
BRANCH  33  35
ATOM     35  C   UNL     1       6.151   4.512   5.544  1.00  0.00     0.060 A 
ATOM     36  C   UNL     1       4.943   5.203   5.662  1.00  0.00     0.016 A 
ATOM     37  C   UNL     1       6.525   3.550   6.499  1.00  0.00     0.016 A 
ATOM     38  C   UNL     1       4.207   5.066   6.828  1.00  0.00     0.010 A 
ATOM     39  C   UNL     1       5.789   3.408   7.653  1.00  0.00     0.010 A 
ATOM     40  C   UNL     1       4.690   4.237   7.847  1.00  0.00    -0.014 A 
BRANCH  40  41
ATOM     41  C   UNL     1       4.008   4.211   9.128  1.00  0.00     0.031 A 
ATOM     42  C   UNL     1       2.758   3.419   9.120  1.00  0.00     0.074 A 
ATOM     43  C   UNL     1       4.557   4.716  10.252  1.00  0.00     0.049 A 
ATOM     44  N   UNL     1       1.542   3.854   9.129  1.00  0.00    -0.248 NA
ATOM     45  C   UNL     1       2.879   1.972   8.877  1.00  0.00     0.031 C 
ATOM     46  C   UNL     1       5.923   5.210  10.452  1.00  0.00     0.029 A 
ATOM     47  N   UNL     1       4.027   4.799  11.501  1.00  0.00    -0.354 N 
ATOM     48  C   UNL     1       0.746   2.713   9.160  1.00  0.00     0.074 A 
ATOM     49  C   UNL     1       1.599   1.628   8.750  1.00  0.00     0.031 C 
ATOM     50  C   UNL     1       6.175   5.313  11.779  1.00  0.00     0.029 A 
ATOM     51  C   UNL     1       4.951   5.040  12.514  1.00  0.00     0.049 A 
ATOM     52  H   UNL     1       3.063   4.697  11.676  1.00  0.00     0.167 HD
ATOM     53  C   UNL     1      -0.452   2.695   9.812  1.00  0.00     0.031 A 
ATOM     54  C   UNL     1       4.727   4.966  13.854  1.00  0.00     0.031 A 
ATOM     55  C   UNL     1      -0.915   4.032  10.091  1.00  0.00     0.049 A 
ATOM     56  C   UNL     1       3.257   5.041  14.051  1.00  0.00     0.074 A 
ATOM     57  C   UNL     1      -1.210   5.147   9.331  1.00  0.00     0.029 A 
ATOM     58  N   UNL     1      -0.734   4.492  11.374  1.00  0.00    -0.354 N 
ATOM     59  N   UNL     1       2.545   6.096  13.767  1.00  0.00    -0.248 NA
ATOM     60  C   UNL     1       2.526   3.786  14.106  1.00  0.00     0.031 C 
ATOM     61  C   UNL     1      -0.716   6.252  10.089  1.00  0.00     0.029 A 
ATOM     62  C   UNL     1      -0.231   5.763  11.304  1.00  0.00     0.049 A 
ATOM     63  H   UNL     1      -0.931   3.994  12.200  1.00  0.00     0.167 HD
ATOM     64  C   UNL     1       1.385   5.596  13.190  1.00  0.00     0.074 A 
ATOM     65  C   UNL     1       1.402   4.164  13.492  1.00  0.00     0.031 C 
ATOM     66  C   UNL     1       0.665   6.331  12.291  1.00  0.00     0.031 A 
BRANCH  53  67
ATOM     67  C   UNL     1      -0.930   1.487  10.599  1.00  0.00    -0.014 A 
ATOM     68  C   UNL     1      -2.108   1.596  11.368  1.00  0.00     0.010 A 
ATOM     69  C   UNL     1      -0.138   0.344  10.833  1.00  0.00     0.010 A 
ATOM     70  C   UNL     1      -2.412   0.667  12.376  1.00  0.00     0.020 A 
ATOM     71  C   UNL     1      -0.450  -0.608  11.802  1.00  0.00     0.020 A 
ATOM     72  C   UNL     1      -1.567  -0.421  12.595  1.00  0.00     0.054 A 
BRANCH  72  73
ATOM     73  S   UNL     1      -1.899  -1.565  13.954  1.00  0.00     0.124 S 
ATOM     74  O   UNL     1      -1.685  -0.713  15.119  1.00  0.00    -0.237 OA
ATOM     75  O   UNL     1      -3.281  -1.956  13.695  1.00  0.00    -0.237 OA
ATOM     76  O   UNL     1      -0.909  -2.622  13.758  1.00  0.00    -0.744 OA
ENDBRANCH  72  73
ENDBRANCH  53  67
BRANCH  54  77
ATOM     77  C   UNL     1       5.641   4.480  14.925  1.00  0.00    -0.014 A 
ATOM     78  C   UNL     1       5.361   4.702  16.289  1.00  0.00     0.010 A 
ATOM     79  C   UNL     1       6.646   3.541  14.615  1.00  0.00     0.010 A 
ATOM     80  C   UNL     1       6.031   3.984  17.299  1.00  0.00     0.020 A 
ATOM     81  C   UNL     1       7.319   2.824  15.615  1.00  0.00     0.020 A 
ATOM     82  C   UNL     1       6.998   3.037  16.954  1.00  0.00     0.054 A 
BRANCH  82  83
ATOM     83  S   UNL     1       7.766   2.016  18.251  1.00  0.00     0.124 S 
ATOM     84  O   UNL     1       8.573   2.992  18.978  1.00  0.00    -0.237 OA
ATOM     85  O   UNL     1       6.611   1.490  18.972  1.00  0.00    -0.237 OA
ATOM     86  O   UNL     1       8.530   1.021  17.500  1.00  0.00    -0.744 OA
ENDBRANCH  82  83
ENDBRANCH  54  77
BRANCH  66  87
ATOM     87  C   UNL     1       0.927   7.815  12.178  1.00  0.00    -0.014 A 
ATOM     88  C   UNL     1       2.147   8.393  11.775  1.00  0.00     0.010 A 
ATOM     89  C   UNL     1      -0.188   8.655  12.347  1.00  0.00     0.010 A 
ATOM     90  C   UNL     1       2.243   9.781  11.563  1.00  0.00     0.020 A 
ATOM     91  C   UNL     1      -0.104  10.028  12.121  1.00  0.00     0.020 A 
ATOM     92  C   UNL     1       1.113  10.588  11.737  1.00  0.00     0.054 A 
BRANCH  92  93
ATOM     93  S   UNL     1       1.217  12.373  11.419  1.00  0.00     0.124 S 
ATOM     94  O   UNL     1       2.078  12.839  12.502  1.00  0.00    -0.237 OA
ATOM     95  O   UNL     1       1.800  12.432  10.081  1.00  0.00    -0.237 OA
ATOM     96  O   UNL     1      -0.173  12.823  11.499  1.00  0.00    -0.744 OA
ENDBRANCH  92  93
ENDBRANCH  66  87
ENDBRANCH  40  41
ENDBRANCH  33  35
ENDBRANCH  32  33
ENDBRANCH  31  32
ENDBRANCH  30  31
ENDBRANCH  29  30
ENDBRANCH   1  29
TORSDOF 22
