REMARK SMILES O=C(C[NH+]1CC2(CCCC2)C1)OCCOCCOC(=O)c1ccc(-c2c3nc(c(-c4ccc(S(=O)(=O)[O-])cc4)c4ccc([nH]4)c(-c4ccc(S(=O)(=O)[O-])cc4)c4nc(c(-c5ccc(S(=O)(=O)[O-])cc5)c5ccc2[nH]5)C=C4)C=C3)cc1
REMARK SMILES IDX 16 1 15 2 14 3 13 4 12 5 2 6 1 7 3 8 4 9 5 10 11 11 6 13
REMARK SMILES IDX 7 14 10 15 8 16 9 17 17 18 18 19 19 20 20 21 21 22 22 23
REMARK SMILES IDX 80 24 23 25 79 26 24 27 25 28 26 29 73 30 27 31 78 32 72 33
REMARK SMILES IDX 74 34 28 35 77 36 71 37 70 38 29 40 59 41 40 42 58 43 41 44
REMARK SMILES IDX 44 45 57 46 75 47 42 48 43 49 56 51 76 52 45 53 30 54 31 55
REMARK SMILES IDX 39 56 32 57 38 58 33 59 34 60 35 61 36 62 37 63 60 64 61 65
REMARK SMILES IDX 69 66 62 67 68 68 63 69 64 70 65 71 66 72 67 73 46 74 47 75
REMARK SMILES IDX 55 76 48 77 54 78 49 79 50 80 51 81 52 82 53 83
REMARK H PARENT 4 12 74 39 44 50
REMARK Flexibility Score: inf
ROOT
ATOM      1  C   UNL     1       3.177  -1.492   1.754  1.00  0.00     0.202 C 
ENDROOT
BRANCH   1   2
ATOM      2  O   UNL     1       4.495  -1.274   1.233  1.00  0.00    -0.374 OA
BRANCH   2   3
ATOM      3  C   UNL     1       5.053   0.034   1.398  1.00  0.00     0.202 C 
BRANCH   3   4
ATOM      4  C   UNL     1       4.822   1.065   0.290  1.00  0.00     0.261 C 
BRANCH   4   5
ATOM      5  O   UNL     1       3.468   1.559   0.298  1.00  0.00    -0.459 OA
BRANCH   5   6
ATOM      6  C   UNL     1       2.511   1.040  -0.504  1.00  0.00     0.361 C 
ATOM      7  O   UNL     1       1.370   1.500  -0.513  1.00  0.00    -0.245 OA
BRANCH   6   8
ATOM      8  C   UNL     1       2.863  -0.193  -1.287  1.00  0.00     0.386 C 
BRANCH   8   9
ATOM      9  N   UNL     1       3.570   0.070  -2.558  1.00  0.00    -0.324 N 
ATOM     10  C   UNL     1       2.697   0.347  -3.715  1.00  0.00     0.275 C 
ATOM     11  C   UNL     1       3.754  -1.245  -3.168  1.00  0.00     0.275 C 
ATOM     12  H   UNL     1       4.288   0.747  -2.298  1.00  0.00     0.348 HD
ATOM     13  C   UNL     1       2.168  -1.197  -3.695  1.00  0.00     0.068 C 
ATOM     14  C   UNL     1       2.149  -2.744  -3.642  1.00  0.00     0.019 C 
ATOM     15  C   UNL     1       0.674  -0.845  -3.448  1.00  0.00     0.019 C 
ATOM     16  C   UNL     1       0.696  -3.179  -3.743  1.00  0.00     0.001 C 
ATOM     17  C   UNL     1      -0.031  -2.099  -2.984  1.00  0.00     0.001 C 
ENDBRANCH   8   9
ENDBRANCH   6   8
ENDBRANCH   5   6
ENDBRANCH   4   5
ENDBRANCH   3   4
ENDBRANCH   2   3
ENDBRANCH   1   2
BRANCH   1  18
ATOM     18  C   UNL     1       3.072  -1.801   3.251  1.00  0.00     0.261 C 
BRANCH  18  19
ATOM     19  O   UNL     1       3.402  -0.648   4.033  1.00  0.00    -0.460 OA
BRANCH  19  20
ATOM     20  C   UNL     1       4.683  -0.619   4.465  1.00  0.00     0.338 C 
ATOM     21  O   UNL     1       5.504  -1.524   4.398  1.00  0.00    -0.246 OA
BRANCH  20  22
ATOM     22  C   UNL     1       5.042   0.772   4.800  1.00  0.00     0.060 A 
ATOM     23  C   UNL     1       6.294   1.230   4.364  1.00  0.00     0.016 A 
ATOM     24  C   UNL     1       4.181   1.609   5.513  1.00  0.00     0.016 A 
ATOM     25  C   UNL     1       6.738   2.489   4.732  1.00  0.00     0.010 A 
ATOM     26  C   UNL     1       4.633   2.869   5.900  1.00  0.00     0.010 A 
ATOM     27  C   UNL     1       5.940   3.271   5.574  1.00  0.00    -0.014 A 
BRANCH  27  28
ATOM     28  C   UNL     1       6.603   4.332   6.358  1.00  0.00     0.031 A 
ATOM     29  C   UNL     1       7.049   3.983   7.754  1.00  0.00     0.074 A 
ATOM     30  C   UNL     1       6.875   5.529   5.815  1.00  0.00     0.049 A 
ATOM     31  N   UNL     1       7.677   4.717   8.632  1.00  0.00    -0.248 NA
ATOM     32  C   UNL     1       6.742   2.618   8.223  1.00  0.00     0.031 C 
ATOM     33  C   UNL     1       6.543   5.936   4.450  1.00  0.00     0.029 A 
ATOM     34  N   UNL     1       7.508   6.617   6.351  1.00  0.00    -0.354 N 
ATOM     35  C   UNL     1       7.819   3.913   9.759  1.00  0.00     0.074 A 
ATOM     36  C   UNL     1       7.186   2.649   9.469  1.00  0.00     0.031 C 
ATOM     37  C   UNL     1       6.984   7.191   4.254  1.00  0.00     0.029 A 
ATOM     38  C   UNL     1       7.597   7.680   5.487  1.00  0.00     0.049 A 
ATOM     39  H   UNL     1       7.865   6.637   7.269  1.00  0.00     0.167 HD
ATOM     40  C   UNL     1       8.430   4.203  10.930  1.00  0.00     0.031 A 
ATOM     41  C   UNL     1       8.110   8.909   5.683  1.00  0.00     0.031 A 
ATOM     42  C   UNL     1       9.053   5.469  11.203  1.00  0.00     0.049 A 
ATOM     43  C   UNL     1       8.733   9.229   7.017  1.00  0.00     0.074 A 
ATOM     44  C   UNL     1       9.716   5.874  12.346  1.00  0.00     0.029 A 
ATOM     45  N   UNL     1       9.083   6.538  10.318  1.00  0.00    -0.354 N 
ATOM     46  N   UNL     1       8.874   8.458   8.071  1.00  0.00    -0.248 NA
ATOM     47  C   UNL     1       9.283  10.580   7.180  1.00  0.00     0.031 C 
ATOM     48  C   UNL     1      10.089   7.212  12.178  1.00  0.00     0.029 A 
ATOM     49  C   UNL     1       9.730   7.613  10.899  1.00  0.00     0.049 A 
ATOM     50  H   UNL     1       8.700   6.532   9.411  1.00  0.00     0.167 HD
ATOM     51  C   UNL     1       9.569   9.217   9.006  1.00  0.00     0.074 A 
ATOM     52  C   UNL     1       9.825  10.503   8.387  1.00  0.00     0.031 C 
ATOM     53  C   UNL     1       9.972   8.882  10.259  1.00  0.00     0.031 A 
BRANCH  40  54
ATOM     54  C   UNL     1       8.401   3.155  12.012  1.00  0.00    -0.014 A 
ATOM     55  C   UNL     1       9.116   1.948  11.895  1.00  0.00     0.010 A 
ATOM     56  C   UNL     1       7.649   3.391  13.177  1.00  0.00     0.010 A 
ATOM     57  C   UNL     1       9.047   0.983  12.904  1.00  0.00     0.020 A 
ATOM     58  C   UNL     1       7.605   2.443  14.203  1.00  0.00     0.020 A 
ATOM     59  C   UNL     1       8.291   1.238  14.053  1.00  0.00     0.054 A 
BRANCH  59  60
ATOM     60  S   UNL     1       8.239  -0.020  15.358  1.00  0.00     0.124 S 
ATOM     61  O   UNL     1       7.426  -1.064  14.739  1.00  0.00    -0.237 OA
ATOM     62  O   UNL     1       9.650  -0.349  15.541  1.00  0.00    -0.237 OA
ATOM     63  O   UNL     1       7.612   0.671  16.482  1.00  0.00    -0.744 OA
ENDBRANCH  59  60
ENDBRANCH  40  54
BRANCH  41  64
ATOM     64  C   UNL     1       8.066   9.917   4.589  1.00  0.00    -0.014 A 
ATOM     65  C   UNL     1       9.247  10.350   3.962  1.00  0.00     0.010 A 
ATOM     66  C   UNL     1       6.833  10.447   4.163  1.00  0.00     0.010 A 
ATOM     67  C   UNL     1       9.200  11.309   2.946  1.00  0.00     0.020 A 
ATOM     68  C   UNL     1       6.779  11.383   3.126  1.00  0.00     0.020 A 
ATOM     69  C   UNL     1       7.965  11.816   2.532  1.00  0.00     0.054 A 
BRANCH  69  70
ATOM     70  S   UNL     1       7.927  13.026   1.181  1.00  0.00     0.124 S 
ATOM     71  O   UNL     1       8.496  14.210   1.816  1.00  0.00    -0.237 OA
ATOM     72  O   UNL     1       8.763  12.389   0.166  1.00  0.00    -0.237 OA
ATOM     73  O   UNL     1       6.509  13.117   0.842  1.00  0.00    -0.744 OA
ENDBRANCH  69  70
ENDBRANCH  41  64
BRANCH  53  74
ATOM     74  C   UNL     1      10.788   9.897  11.016  1.00  0.00    -0.014 A 
ATOM     75  C   UNL     1      10.229  11.098  11.486  1.00  0.00     0.010 A 
ATOM     76  C   UNL     1      12.141   9.618  11.288  1.00  0.00     0.010 A 
ATOM     77  C   UNL     1      11.022  12.026  12.165  1.00  0.00     0.020 A 
ATOM     78  C   UNL     1      12.927  10.526  11.999  1.00  0.00     0.020 A 
ATOM     79  C   UNL     1      12.368  11.735  12.413  1.00  0.00     0.054 A 
BRANCH  79  80
ATOM     80  S   UNL     1      13.374  12.951  13.305  1.00  0.00     0.124 S 
ATOM     81  O   UNL     1      13.551  13.994  12.299  1.00  0.00    -0.237 OA
ATOM     82  O   UNL     1      12.520  13.306  14.436  1.00  0.00    -0.237 OA
ATOM     83  O   UNL     1      14.585  12.210  13.654  1.00  0.00    -0.744 OA
ENDBRANCH  79  80
ENDBRANCH  53  74
ENDBRANCH  27  28
ENDBRANCH  20  22
ENDBRANCH  19  20
ENDBRANCH  18  19
ENDBRANCH   1  18
TORSDOF 18
