REMARK SMILES COc1cccc([C@H]2CC(c3ccc(S(C)(=O)=O)cc3)=NN2c2ccc(C(=O)OCCOCCOC(=O)c3ccc(-c4c5nc(c(-c6ccc(S(=O)(=O)[O-])cc6)c6ccc([nH]6)c(-c6ccc(S(=O)(=O)[O-])cc6)c6nc(c(-c7ccc(S(=O)(=O)[O-])cc7)c7ccc4[nH]7)C=C6)C=C5)cc3)cc2)c1
REMARK SMILES IDX 32 1 31 2 30 3 29 4 27 5 28 6 26 7 23 8 24 9 99 10 25 11
REMARK SMILES IDX 98 12 22 13 8 14 9 15 10 16 21 17 7 18 3 19 4 20 100 21 5 22
REMARK SMILES IDX 6 23 2 24 1 25 11 26 12 27 20 28 13 29 19 30 14 31 15 32
REMARK SMILES IDX 16 33 17 34 18 35 33 36 34 37 35 38 36 39 37 40 38 41 39 42
REMARK SMILES IDX 97 43 40 44 96 45 41 46 42 47 43 48 90 49 44 50 95 51 89 52
REMARK SMILES IDX 91 53 45 54 94 55 88 56 87 57 46 59 76 60 57 61 75 62 58 63
REMARK SMILES IDX 61 64 74 65 92 66 59 67 60 68 73 70 93 71 62 72 47 73 48 74
REMARK SMILES IDX 56 75 49 76 55 77 50 78 51 79 52 80 53 81 54 82 77 83 78 84
REMARK SMILES IDX 86 85 79 86 85 87 80 88 81 89 82 90 83 91 84 92 63 93 64 94
REMARK SMILES IDX 72 95 65 96 71 97 66 98 67 99 68 100 69 101 70 102
REMARK H PARENT 91 58 61 69
REMARK Flexibility Score: inf
ROOT
ATOM      1  O   UNL     1       4.008  -1.226 -10.077  1.00  0.00    -0.374 OA
ENDROOT
BRANCH   1   2
ATOM      2  C   UNL     1       3.452  -0.087 -10.738  1.00  0.00     0.202 C 
BRANCH   2   3
ATOM      3  C   UNL     1       2.354   0.659  -9.975  1.00  0.00     0.261 C 
BRANCH   3   4
ATOM      4  O   UNL     1       2.867   1.250  -8.770  1.00  0.00    -0.460 OA
BRANCH   4   5
ATOM      5  C   UNL     1       2.488   0.633  -7.625  1.00  0.00     0.338 C 
ATOM      6  O   UNL     1       1.682  -0.280  -7.517  1.00  0.00    -0.246 OA
BRANCH   5   7
ATOM      7  C   UNL     1       3.304   1.116  -6.489  1.00  0.00     0.060 A 
ATOM      8  C   UNL     1       4.644   1.961  -4.170  1.00  0.00     0.060 A 
ATOM      9  C   UNL     1       4.285   0.618  -4.331  1.00  0.00     0.029 A 
ATOM     10  C   UNL     1       4.418   2.849  -5.234  1.00  0.00     0.029 A 
ATOM     11  C   UNL     1       3.592   0.203  -5.468  1.00  0.00     0.018 A 
ATOM     12  C   UNL     1       3.764   2.432  -6.397  1.00  0.00     0.018 A 
BRANCH   8  13
ATOM     13  N   UNL     1       5.082   2.433  -2.932  1.00  0.00    -0.257 N 
ATOM     14  C   UNL     1       4.269   3.390  -2.167  1.00  0.00     0.144 C 
ATOM     15  C   UNL     1       4.910   3.344  -0.778  1.00  0.00     0.091 C 
ATOM     16  C   UNL     1       5.941   2.272  -0.996  1.00  0.00     0.071 C 
ATOM     17  N   UNL     1       5.990   1.751  -2.182  1.00  0.00    -0.176 NA
BRANCH  14  18
ATOM     18  C   UNL     1       2.785   3.032  -2.164  1.00  0.00    -0.019 A 
ATOM     19  C   UNL     1       0.950   1.499  -1.677  1.00  0.00     0.119 A 
ATOM     20  C   UNL     1       0.075   2.326  -2.380  1.00  0.00     0.046 A 
ATOM     21  C   UNL     1       2.302   1.841  -1.584  1.00  0.00     0.052 A 
ATOM     22  C   UNL     1       0.533   3.508  -2.956  1.00  0.00     0.004 A 
ATOM     23  C   UNL     1       1.878   3.862  -2.844  1.00  0.00     0.006 A 
BRANCH  19  24
ATOM     24  O   UNL     1       0.397   0.351  -1.179  1.00  0.00    -0.497 OA
ATOM     25  C   UNL     1       0.962  -0.111   0.041  1.00  0.00     0.278 C 
ENDBRANCH  19  24
ENDBRANCH  14  18
BRANCH  16  26
ATOM     26  C   UNL     1       6.877   1.914   0.078  1.00  0.00    -0.002 A 
ATOM     27  C   UNL     1       8.248   2.018  -0.178  1.00  0.00     0.011 A 
ATOM     28  C   UNL     1       6.411   1.534   1.339  1.00  0.00     0.011 A 
ATOM     29  C   UNL     1       9.166   1.761   0.841  1.00  0.00     0.021 A 
ATOM     30  C   UNL     1       7.329   1.249   2.354  1.00  0.00     0.021 A 
ATOM     31  C   UNL     1       8.700   1.366   2.099  1.00  0.00     0.067 A 
BRANCH  31  32
ATOM     32  S   UNL     1       9.875   1.044   3.395  1.00  0.00     0.175 S 
ATOM     33  C   UNL     1      10.870  -0.283   2.765  1.00  0.00     0.163 C 
ATOM     34  O   UNL     1      10.706   2.226   3.513  1.00  0.00    -0.224 OA
ATOM     35  O   UNL     1       9.140   0.531   4.536  1.00  0.00    -0.224 OA
ENDBRANCH  31  32
ENDBRANCH  16  26
ENDBRANCH   8  13
ENDBRANCH   5   7
ENDBRANCH   4   5
ENDBRANCH   3   4
ENDBRANCH   2   3
ENDBRANCH   1   2
BRANCH   1  36
ATOM     36  C   UNL     1       5.042  -0.973  -9.123  1.00  0.00     0.202 C 
BRANCH  36  37
ATOM     37  C   UNL     1       6.447  -0.754  -9.695  1.00  0.00     0.261 C 
BRANCH  37  38
ATOM     38  O   UNL     1       6.546   0.492 -10.407  1.00  0.00    -0.460 OA
BRANCH  38  39
ATOM     39  C   UNL     1       6.626   0.377 -11.753  1.00  0.00     0.338 C 
ATOM     40  O   UNL     1       6.696  -0.657 -12.402  1.00  0.00    -0.246 OA
BRANCH  39  41
ATOM     41  C   UNL     1       6.436   1.699 -12.381  1.00  0.00     0.060 A 
ATOM     42  C   UNL     1       5.508   1.795 -13.426  1.00  0.00     0.016 A 
ATOM     43  C   UNL     1       7.190   2.811 -11.998  1.00  0.00     0.016 A 
ATOM     44  C   UNL     1       5.366   2.990 -14.128  1.00  0.00     0.010 A 
ATOM     45  C   UNL     1       7.053   4.006 -12.710  1.00  0.00     0.010 A 
ATOM     46  C   UNL     1       6.166   4.091 -13.799  1.00  0.00    -0.014 A 
BRANCH  46  47
ATOM     47  C   UNL     1       6.191   5.283 -14.681  1.00  0.00     0.031 A 
ATOM     48  C   UNL     1       7.319   5.430 -15.667  1.00  0.00     0.074 A 
ATOM     49  C   UNL     1       5.227   6.217 -14.610  1.00  0.00     0.049 A 
ATOM     50  N   UNL     1       7.591   6.425 -16.470  1.00  0.00    -0.248 NA
ATOM     51  C   UNL     1       8.266   4.306 -15.755  1.00  0.00     0.031 C 
ATOM     52  C   UNL     1       4.055   6.160 -13.737  1.00  0.00     0.029 A 
ATOM     53  N   UNL     1       5.090   7.407 -15.281  1.00  0.00    -0.354 N 
ATOM     54  C   UNL     1       8.746   6.054 -17.151  1.00  0.00     0.074 A 
ATOM     55  C   UNL     1       9.135   4.754 -16.650  1.00  0.00     0.031 C 
ATOM     56  C   UNL     1       3.324   7.274 -13.916  1.00  0.00     0.029 A 
ATOM     57  C   UNL     1       3.996   8.139 -14.884  1.00  0.00     0.049 A 
ATOM     58  H   UNL     1       5.715   7.707 -15.979  1.00  0.00     0.167 HD
ATOM     59  C   UNL     1       9.420   6.735 -18.107  1.00  0.00     0.031 A 
ATOM     60  C   UNL     1       3.599   9.377 -15.241  1.00  0.00     0.031 A 
ATOM     61  C   UNL     1       9.037   8.034 -18.592  1.00  0.00     0.049 A 
ATOM     62  C   UNL     1       4.410  10.152 -16.248  1.00  0.00     0.074 A 
ATOM     63  C   UNL     1       9.655   8.808 -19.559  1.00  0.00     0.029 A 
ATOM     64  N   UNL     1       7.938   8.752 -18.146  1.00  0.00    -0.354 N 
ATOM     65  N   UNL     1       5.498   9.788 -16.884  1.00  0.00    -0.248 NA
ATOM     66  C   UNL     1       3.937  11.501 -16.589  1.00  0.00     0.031 C 
ATOM     67  C   UNL     1       8.957  10.015 -19.662  1.00  0.00     0.029 A 
ATOM     68  C   UNL     1       7.870   9.967 -18.804  1.00  0.00     0.049 A 
ATOM     69  H   UNL     1       7.300   8.442 -17.463  1.00  0.00     0.167 HD
ATOM     70  C   UNL     1       5.817  10.848 -17.727  1.00  0.00     0.074 A 
ATOM     71  C   UNL     1       4.808  11.866 -17.521  1.00  0.00     0.031 C 
ATOM     72  C   UNL     1       6.848  10.963 -18.599  1.00  0.00     0.031 A 
BRANCH  59  73
ATOM     73  C   UNL     1      10.665   6.101 -18.667  1.00  0.00    -0.014 A 
ATOM     74  C   UNL     1      10.593   4.993 -19.530  1.00  0.00     0.010 A 
ATOM     75  C   UNL     1      11.924   6.648 -18.358  1.00  0.00     0.010 A 
ATOM     76  C   UNL     1      11.759   4.421 -20.045  1.00  0.00     0.020 A 
ATOM     77  C   UNL     1      13.091   6.095 -18.892  1.00  0.00     0.020 A 
ATOM     78  C   UNL     1      13.002   4.974 -19.719  1.00  0.00     0.054 A 
BRANCH  78  79
ATOM     79  S   UNL     1      14.499   4.227 -20.420  1.00  0.00     0.124 S 
ATOM     80  O   UNL     1      14.607   2.991 -19.648  1.00  0.00    -0.237 OA
ATOM     81  O   UNL     1      14.146   4.059 -21.827  1.00  0.00    -0.237 OA
ATOM     82  O   UNL     1      15.539   5.219 -20.155  1.00  0.00    -0.744 OA
ENDBRANCH  78  79
ENDBRANCH  59  73
BRANCH  60  83
ATOM     83  C   UNL     1       2.383   9.975 -14.623  1.00  0.00    -0.014 A 
ATOM     84  C   UNL     1       1.219  10.179 -15.383  1.00  0.00     0.010 A 
ATOM     85  C   UNL     1       2.388  10.346 -13.266  1.00  0.00     0.010 A 
ATOM     86  C   UNL     1       0.087  10.759 -14.802  1.00  0.00     0.020 A 
ATOM     87  C   UNL     1       1.250  10.901 -12.675  1.00  0.00     0.020 A 
ATOM     88  C   UNL     1       0.110  11.116 -13.450  1.00  0.00     0.054 A 
BRANCH  88  89
ATOM     89  S   UNL     1      -1.385  11.823 -12.704  1.00  0.00     0.124 S 
ATOM     90  O   UNL     1      -1.385  13.177 -13.248  1.00  0.00    -0.237 OA
ATOM     91  O   UNL     1      -2.436  10.940 -13.203  1.00  0.00    -0.237 OA
ATOM     92  O   UNL     1      -1.129  11.723 -11.268  1.00  0.00    -0.744 OA
ENDBRANCH  88  89
ENDBRANCH  60  83
BRANCH  72  93
ATOM     93  C   UNL     1       6.917  12.205 -19.448  1.00  0.00    -0.014 A 
ATOM     94  C   UNL     1       7.326  13.438 -18.912  1.00  0.00     0.010 A 
ATOM     95  C   UNL     1       6.651  12.110 -20.827  1.00  0.00     0.010 A 
ATOM     96  C   UNL     1       7.454  14.558 -19.738  1.00  0.00     0.020 A 
ATOM     97  C   UNL     1       6.802  13.220 -21.660  1.00  0.00     0.020 A 
ATOM     98  C   UNL     1       7.195  14.441 -21.108  1.00  0.00     0.054 A 
BRANCH  98  99
ATOM     99  S   UNL     1       7.439  15.890 -22.172  1.00  0.00     0.124 S 
ATOM    100  O   UNL     1       6.281  16.714 -21.833  1.00  0.00    -0.237 OA
ATOM    101  O   UNL     1       8.730  16.405 -21.722  1.00  0.00    -0.237 OA
ATOM    102  O   UNL     1       7.434  15.334 -23.523  1.00  0.00    -0.744 OA
ENDBRANCH  98  99
ENDBRANCH  72  93
ENDBRANCH  46  47
ENDBRANCH  39  41
ENDBRANCH  38  39
ENDBRANCH  37  38
ENDBRANCH  36  37
ENDBRANCH   1  36
TORSDOF 22
