REMARK SMILES CC(C)n1cc(C(=O)OCCOCCOC(=O)c2ccc(-c3c4nc(c(-c5ccc(S(=O)(=O)[O-])cc5)c5ccc([nH]5)c(-c5ccc(S(=O)(=O)[O-])cc5)c5nc(c(-c6ccc(S(=O)(=O)[O-])cc6)c6ccc3[nH]6)C=C5)C=C4)cc2)c2ccccc2c1=O
REMARK SMILES IDX 13 1 12 2 11 3 10 4 9 5 7 6 8 7 6 8 4 9 5 10 84 11 83 12
REMARK SMILES IDX 85 13 78 14 82 15 79 16 81 17 80 18 2 19 1 20 3 21 14 22
REMARK SMILES IDX 15 23 16 24 17 25 18 26 19 27 77 28 20 29 76 30 21 31 22 32
REMARK SMILES IDX 23 33 70 34 24 35 75 36 69 37 71 38 25 39 74 40 68 41 67 42
REMARK SMILES IDX 26 44 56 45 37 46 55 47 38 48 41 49 54 50 72 51 39 52 40 53
REMARK SMILES IDX 53 55 73 56 42 57 27 58 28 59 36 60 29 61 35 62 30 63 31 64
REMARK SMILES IDX 32 65 33 66 34 67 57 68 58 69 66 70 59 71 65 72 60 73 61 74
REMARK SMILES IDX 62 75 63 76 64 77 43 78 44 79 52 80 45 81 51 82 46 83 47 84
REMARK SMILES IDX 48 85 49 86 50 87
REMARK H PARENT 71 43 41 54
REMARK Flexibility Score: inf
ROOT
ATOM      1  C   UNL     1      -4.856   1.495  -1.977  1.00  0.00     0.202 C 
ENDROOT
BRANCH   1   2
ATOM      2  O   UNL     1      -5.482   2.573  -1.280  1.00  0.00    -0.374 OA
BRANCH   2   3
ATOM      3  C   UNL     1      -4.638   3.547  -0.667  1.00  0.00     0.202 C 
BRANCH   3   4
ATOM      4  C   UNL     1      -3.996   3.176   0.674  1.00  0.00     0.261 C 
BRANCH   4   5
ATOM      5  O   UNL     1      -3.195   1.990   0.565  1.00  0.00    -0.460 OA
BRANCH   5   6
ATOM      6  C   UNL     1      -3.698   0.896   1.195  1.00  0.00     0.340 C 
ATOM      7  O   UNL     1      -4.652   0.880   1.958  1.00  0.00    -0.246 OA
BRANCH   6   8
ATOM      8  C   UNL     1      -3.031  -0.338   0.694  1.00  0.00     0.084 A 
ATOM      9  N   UNL     1      -0.973  -1.481   0.210  1.00  0.00    -0.312 N 
ATOM     10  C   UNL     1      -1.690  -0.361   0.614  1.00  0.00     0.105 A 
ATOM     11  C   UNL     1      -1.613  -2.705  -0.053  1.00  0.00     0.258 A 
ATOM     12  C   UNL     1      -3.098  -2.719   0.013  1.00  0.00     0.048 A 
ATOM     13  O   UNL     1      -1.020  -3.741  -0.347  1.00  0.00    -0.269 OA
ATOM     14  C   UNL     1      -3.792  -1.543   0.320  1.00  0.00     0.003 A 
ATOM     15  C   UNL     1      -3.789  -3.904  -0.281  1.00  0.00     0.014 A 
ATOM     16  C   UNL     1      -5.194  -1.559   0.230  1.00  0.00     0.010 A 
ATOM     17  C   UNL     1      -5.182  -3.909  -0.328  1.00  0.00     0.001 A 
ATOM     18  C   UNL     1      -5.883  -2.730  -0.097  1.00  0.00     0.001 A 
BRANCH   9  19
ATOM     19  C   UNL     1       0.505  -1.470   0.133  1.00  0.00     0.084 C 
ATOM     20  C   UNL     1       1.147  -0.107  -0.149  1.00  0.00     0.031 C 
ATOM     21  C   UNL     1       1.116  -2.090   1.393  1.00  0.00     0.031 C 
ENDBRANCH   9  19
ENDBRANCH   6   8
ENDBRANCH   5   6
ENDBRANCH   4   5
ENDBRANCH   3   4
ENDBRANCH   2   3
ENDBRANCH   1   2
BRANCH   1  22
ATOM     22  C   UNL     1      -4.224   1.786  -3.344  1.00  0.00     0.261 C 
BRANCH  22  23
ATOM     23  O   UNL     1      -3.078   2.647  -3.248  1.00  0.00    -0.460 OA
BRANCH  23  24
ATOM     24  C   UNL     1      -3.266   3.909  -3.709  1.00  0.00     0.338 C 
ATOM     25  O   UNL     1      -4.273   4.360  -4.230  1.00  0.00    -0.246 OA
BRANCH  24  26
ATOM     26  C   UNL     1      -2.127   4.746  -3.287  1.00  0.00     0.060 A 
ATOM     27  C   UNL     1      -0.810   4.382  -3.572  1.00  0.00     0.016 A 
ATOM     28  C   UNL     1      -2.404   5.934  -2.597  1.00  0.00     0.016 A 
ATOM     29  C   UNL     1       0.232   5.227  -3.181  1.00  0.00     0.010 A 
ATOM     30  C   UNL     1      -1.362   6.775  -2.208  1.00  0.00     0.010 A 
ATOM     31  C   UNL     1      -0.036   6.436  -2.512  1.00  0.00    -0.014 A 
BRANCH  31  32
ATOM     32  C   UNL     1       1.059   7.402  -2.247  1.00  0.00     0.031 A 
ATOM     33  C   UNL     1       1.587   7.629  -0.862  1.00  0.00     0.074 A 
ATOM     34  C   UNL     1       1.566   8.092  -3.287  1.00  0.00     0.049 A 
ATOM     35  N   UNL     1       2.591   8.377  -0.485  1.00  0.00    -0.248 NA
ATOM     36  C   UNL     1       0.906   6.935   0.241  1.00  0.00     0.031 C 
ATOM     37  C   UNL     1       1.107   7.970  -4.672  1.00  0.00     0.029 A 
ATOM     38  N   UNL     1       2.581   9.014  -3.352  1.00  0.00    -0.354 N 
ATOM     39  C   UNL     1       2.679   8.232   0.893  1.00  0.00     0.074 A 
ATOM     40  C   UNL     1       1.592   7.364   1.294  1.00  0.00     0.031 C 
ATOM     41  C   UNL     1       1.867   8.749  -5.455  1.00  0.00     0.029 A 
ATOM     42  C   UNL     1       2.839   9.459  -4.628  1.00  0.00     0.049 A 
ATOM     43  H   UNL     1       3.077   9.326  -2.561  1.00  0.00     0.167 HD
ATOM     44  C   UNL     1       3.597   8.760   1.737  1.00  0.00     0.031 A 
ATOM     45  C   UNL     1       3.759  10.331  -5.089  1.00  0.00     0.031 A 
ATOM     46  C   UNL     1       4.665   9.636   1.321  1.00  0.00     0.049 A 
ATOM     47  C   UNL     1       4.738  10.939  -4.124  1.00  0.00     0.074 A 
ATOM     48  C   UNL     1       5.670  10.185   2.100  1.00  0.00     0.029 A 
ATOM     49  N   UNL     1       4.866  10.100   0.029  1.00  0.00    -0.354 N 
ATOM     50  N   UNL     1       4.861  10.723  -2.836  1.00  0.00    -0.248 NA
ATOM     51  C   UNL     1       5.712  11.893  -4.670  1.00  0.00     0.031 C 
ATOM     52  C   UNL     1       6.422  11.046   1.300  1.00  0.00     0.029 A 
ATOM     53  C   UNL     1       5.952  10.962  -0.001  1.00  0.00     0.049 A 
ATOM     54  H   UNL     1       4.319   9.854  -0.752  1.00  0.00     0.167 HD
ATOM     55  C   UNL     1       5.940  11.496  -2.422  1.00  0.00     0.074 A 
ATOM     56  C   UNL     1       6.447  12.170  -3.600  1.00  0.00     0.031 C 
ATOM     57  C   UNL     1       6.457  11.633  -1.176  1.00  0.00     0.031 A 
BRANCH  44  58
ATOM     58  C   UNL     1       3.524   8.401   3.201  1.00  0.00    -0.014 A 
ATOM     59  C   UNL     1       3.297   9.406   4.161  1.00  0.00     0.010 A 
ATOM     60  C   UNL     1       3.832   7.100   3.638  1.00  0.00     0.010 A 
ATOM     61  C   UNL     1       3.422   9.128   5.526  1.00  0.00     0.020 A 
ATOM     62  C   UNL     1       3.926   6.810   5.003  1.00  0.00     0.020 A 
ATOM     63  C   UNL     1       3.748   7.833   5.937  1.00  0.00     0.054 A 
BRANCH  63  64
ATOM     64  S   UNL     1       3.956   7.504   7.709  1.00  0.00     0.124 S 
ATOM     65  O   UNL     1       5.217   8.177   8.002  1.00  0.00    -0.237 OA
ATOM     66  O   UNL     1       2.762   8.116   8.287  1.00  0.00    -0.237 OA
ATOM     67  O   UNL     1       3.994   6.045   7.783  1.00  0.00    -0.744 OA
ENDBRANCH  63  64
ENDBRANCH  44  58
BRANCH  45  68
ATOM     68  C   UNL     1       3.818  10.614  -6.551  1.00  0.00    -0.014 A 
ATOM     69  C   UNL     1       2.744  11.254  -7.199  1.00  0.00     0.010 A 
ATOM     70  C   UNL     1       4.899  10.152  -7.321  1.00  0.00     0.010 A 
ATOM     71  C   UNL     1       2.717  11.363  -8.592  1.00  0.00     0.020 A 
ATOM     72  C   UNL     1       4.894  10.293  -8.713  1.00  0.00     0.020 A 
ATOM     73  C   UNL     1       3.786  10.866  -9.341  1.00  0.00     0.054 A 
BRANCH  73  74
ATOM     74  S   UNL     1       3.689  10.948 -11.150  1.00  0.00     0.124 S 
ATOM     75  O   UNL     1       2.682   9.931 -11.442  1.00  0.00    -0.237 OA
ATOM     76  O   UNL     1       3.276  12.329 -11.383  1.00  0.00    -0.237 OA
ATOM     77  O   UNL     1       5.047  10.624 -11.581  1.00  0.00    -0.744 OA
ENDBRANCH  73  74
ENDBRANCH  45  68
BRANCH  57  78
ATOM     78  C   UNL     1       7.643  12.548  -0.985  1.00  0.00    -0.014 A 
ATOM     79  C   UNL     1       8.871  12.016  -0.546  1.00  0.00     0.010 A 
ATOM     80  C   UNL     1       7.503  13.943  -1.087  1.00  0.00     0.010 A 
ATOM     81  C   UNL     1       9.916  12.860  -0.161  1.00  0.00     0.020 A 
ATOM     82  C   UNL     1       8.559  14.791  -0.738  1.00  0.00     0.020 A 
ATOM     83  C   UNL     1       9.747  14.244  -0.246  1.00  0.00     0.054 A 
BRANCH  83  84
ATOM     84  S   UNL     1      11.090  15.323   0.322  1.00  0.00     0.124 S 
ATOM     85  O   UNL     1      11.018  15.167   1.772  1.00  0.00    -0.237 OA
ATOM     86  O   UNL     1      12.265  14.735  -0.317  1.00  0.00    -0.237 OA
ATOM     87  O   UNL     1      10.710  16.641  -0.182  1.00  0.00    -0.744 OA
ENDBRANCH  83  84
ENDBRANCH  57  78
ENDBRANCH  31  32
ENDBRANCH  24  26
ENDBRANCH  23  24
ENDBRANCH  22  23
ENDBRANCH   1  22
TORSDOF 18
