REMARK SMILES CC(C)(C)c1cc2c(cc1Cl)C=C(C(=O)OCCOCCOC(=O)c1ccc(-c3c4nc(c(-c5ccc(S(=O)(=O)[O-])cc5)c5ccc([nH]5)c(-c5ccc(S(=O)(=O)[O-])cc5)c5nc(c(-c6ccc(S(=O)(=O)[O-])cc6)c6ccc3[nH]6)C=C5)C=C4)cc1)[C@@H](C(F)(F)F)O2
REMARK SMILES IDX 20 1 19 2 18 3 17 4 16 5 14 6 15 7 13 8 5 9 6 10 10 11 7 12
REMARK SMILES IDX 9 13 11 14 8 15 90 16 12 17 85 18 2 19 1 20 3 21 4 22 86 23
REMARK SMILES IDX 87 24 88 25 89 26 21 27 22 28 23 29 24 30 25 31 26 32 84 33
REMARK SMILES IDX 27 34 83 35 28 36 29 37 30 38 77 39 31 40 82 41 76 42 78 43
REMARK SMILES IDX 32 44 81 45 75 46 74 47 33 49 63 50 44 51 62 52 45 53 48 54
REMARK SMILES IDX 61 55 79 56 46 57 47 58 60 60 80 61 49 62 34 63 35 64 43 65
REMARK SMILES IDX 36 66 42 67 37 68 38 69 39 70 40 71 41 72 64 73 65 74 73 75
REMARK SMILES IDX 66 76 72 77 67 78 68 79 69 80 70 81 71 82 50 83 51 84 59 85
REMARK SMILES IDX 52 86 58 87 53 88 54 89 55 90 56 91 57 92
REMARK H PARENT 78 48 48 59
REMARK Flexibility Score: inf
ROOT
ATOM      1  C   UNL     1       2.911  -8.789   4.177  1.00  0.00     0.202 C 
ENDROOT
BRANCH   1   2
ATOM      2  O   UNL     1       3.465  -9.979   3.619  1.00  0.00    -0.374 OA
BRANCH   2   3
ATOM      3  C   UNL     1       4.878 -10.056   3.444  1.00  0.00     0.202 C 
BRANCH   3   4
ATOM      4  C   UNL     1       5.508  -9.257   2.299  1.00  0.00     0.261 C 
BRANCH   4   5
ATOM      5  O   UNL     1       5.159  -7.865   2.349  1.00  0.00    -0.460 OA
BRANCH   5   6
ATOM      6  C   UNL     1       4.316  -7.472   1.366  1.00  0.00     0.338 C 
ATOM      7  O   UNL     1       3.923  -8.143   0.424  1.00  0.00    -0.246 OA
BRANCH   6   8
ATOM      8  C   UNL     1       3.788  -6.129   1.664  1.00  0.00     0.087 C 
ATOM      9  C   UNL     1       0.896  -1.987   1.471  1.00  0.00    -0.020 A 
ATOM     10  C   UNL     1       2.225  -2.286   1.886  1.00  0.00     0.053 A 
ATOM     11  C   UNL     1       0.094  -3.099   1.131  1.00  0.00     0.045 A 
ATOM     12  C   UNL     1       2.734  -3.589   1.927  1.00  0.00     0.128 A 
ATOM     13  C   UNL     1       0.603  -4.407   1.195  1.00  0.00     0.032 A 
ATOM     14  Cl  UNL     1      -1.527  -3.028   0.535  1.00  0.00    -0.084 Cl
ATOM     15  C   UNL     1       1.924  -4.649   1.559  1.00  0.00     0.019 A 
ATOM     16  O   UNL     1       4.035  -3.731   2.317  1.00  0.00    -0.475 OA
ATOM     17  C   UNL     1       2.475  -5.982   1.449  1.00  0.00     0.027 C 
ATOM     18  C   UNL     1       4.694  -5.021   2.127  1.00  0.00     0.316 C 
BRANCH   9  19
ATOM     19  C   UNL     1       0.505  -0.493   1.326  1.00  0.00    -0.012 C 
ATOM     20  C   UNL     1       1.084   0.005  -0.018  1.00  0.00     0.016 C 
ATOM     21  C   UNL     1       1.103   0.371   2.469  1.00  0.00     0.016 C 
ATOM     22  C   UNL     1      -1.004  -0.164   1.335  1.00  0.00     0.016 C 
ENDBRANCH   9  19
BRANCH  18  23
ATOM     23  C   UNL     1       5.900  -4.818   1.197  1.00  0.00     0.430 C 
ATOM     24  F   UNL     1       6.670  -3.786   1.615  1.00  0.00    -0.167 F 
ATOM     25  F   UNL     1       6.695  -5.912   1.161  1.00  0.00    -0.167 F 
ATOM     26  F   UNL     1       5.514  -4.552  -0.072  1.00  0.00    -0.167 F 
ENDBRANCH  18  23
ENDBRANCH   6   8
ENDBRANCH   5   6
ENDBRANCH   4   5
ENDBRANCH   3   4
ENDBRANCH   2   3
ENDBRANCH   1   2
BRANCH   1  27
ATOM     27  C   UNL     1       3.173  -8.471   5.655  1.00  0.00     0.261 C 
BRANCH  27  28
ATOM     28  O   UNL     1       4.559  -8.230   5.944  1.00  0.00    -0.460 OA
BRANCH  28  29
ATOM     29  C   UNL     1       5.166  -9.200   6.675  1.00  0.00     0.338 C 
ATOM     30  O   UNL     1       4.656 -10.219   7.115  1.00  0.00    -0.246 OA
BRANCH  29  31
ATOM     31  C   UNL     1       6.619  -8.953   6.693  1.00  0.00     0.060 A 
ATOM     32  C   UNL     1       7.141  -7.754   7.178  1.00  0.00     0.016 A 
ATOM     33  C   UNL     1       7.471  -9.972   6.244  1.00  0.00     0.016 A 
ATOM     34  C   UNL     1       8.527  -7.586   7.232  1.00  0.00     0.010 A 
ATOM     35  C   UNL     1       8.854  -9.801   6.298  1.00  0.00     0.010 A 
ATOM     36  C   UNL     1       9.393  -8.613   6.810  1.00  0.00    -0.014 A 
BRANCH  36  37
ATOM     37  C   UNL     1      10.856  -8.492   7.028  1.00  0.00     0.031 A 
ATOM     38  C   UNL     1      11.803  -8.259   5.888  1.00  0.00     0.074 A 
ATOM     39  C   UNL     1      11.326  -8.606   8.286  1.00  0.00     0.049 A 
ATOM     40  N   UNL     1      13.094  -8.055   5.930  1.00  0.00    -0.248 NA
ATOM     41  C   UNL     1      11.236  -8.258   4.530  1.00  0.00     0.031 C 
ATOM     42  C   UNL     1      10.498  -8.863   9.466  1.00  0.00     0.029 A 
ATOM     43  N   UNL     1      12.600  -8.507   8.789  1.00  0.00    -0.354 N 
ATOM     44  C   UNL     1      13.495  -7.878   4.612  1.00  0.00     0.074 A 
ATOM     45  C   UNL     1      12.318  -8.052   3.787  1.00  0.00     0.031 C 
ATOM     46  C   UNL     1      11.276  -8.858  10.557  1.00  0.00     0.029 A 
ATOM     47  C   UNL     1      12.664  -8.641  10.157  1.00  0.00     0.049 A 
ATOM     48  H   UNL     1      13.392  -8.355   8.224  1.00  0.00     0.167 HD
ATOM     49  C   UNL     1      14.728  -7.574   4.143  1.00  0.00     0.031 A 
ATOM     50  C   UNL     1      13.716  -8.589  11.000  1.00  0.00     0.031 A 
ATOM     51  C   UNL     1      15.893  -7.416   4.979  1.00  0.00     0.049 A 
ATOM     52  C   UNL     1      15.082  -8.294  10.447  1.00  0.00     0.074 A 
ATOM     53  C   UNL     1      17.177  -7.068   4.594  1.00  0.00     0.029 A 
ATOM     54  N   UNL     1      15.927  -7.597   6.354  1.00  0.00    -0.354 N 
ATOM     55  N   UNL     1      15.428  -8.044   9.206  1.00  0.00    -0.248 NA
ATOM     56  C   UNL     1      16.199  -8.257  11.401  1.00  0.00     0.031 C 
ATOM     57  C   UNL     1      18.001  -7.123   5.718  1.00  0.00     0.029 A 
ATOM     58  C   UNL     1      17.217  -7.409   6.824  1.00  0.00     0.049 A 
ATOM     59  H   UNL     1      15.149  -7.826   6.913  1.00  0.00     0.167 HD
ATOM     60  C   UNL     1      16.796  -7.797   9.235  1.00  0.00     0.074 A 
ATOM     61  C   UNL     1      17.211  -7.905  10.618  1.00  0.00     0.031 C 
ATOM     62  C   UNL     1      17.629  -7.511   8.204  1.00  0.00     0.031 A 
BRANCH  49  63
ATOM     63  C   UNL     1      14.908  -7.356   2.660  1.00  0.00    -0.014 A 
ATOM     64  C   UNL     1      15.755  -8.205   1.922  1.00  0.00     0.010 A 
ATOM     65  C   UNL     1      14.379  -6.211   2.037  1.00  0.00     0.010 A 
ATOM     66  C   UNL     1      16.113  -7.885   0.609  1.00  0.00     0.020 A 
ATOM     67  C   UNL     1      14.710  -5.905   0.714  1.00  0.00     0.020 A 
ATOM     68  C   UNL     1      15.600  -6.727   0.019  1.00  0.00     0.054 A 
BRANCH  68  69
ATOM     69  S   UNL     1      16.137  -6.290  -1.658  1.00  0.00     0.124 S 
ATOM     70  O   UNL     1      17.523  -5.888  -1.444  1.00  0.00    -0.237 OA
ATOM     71  O   UNL     1      15.946  -7.541  -2.388  1.00  0.00    -0.237 OA
ATOM     72  O   UNL     1      15.226  -5.212  -2.039  1.00  0.00    -0.744 OA
ENDBRANCH  68  69
ENDBRANCH  49  63
BRANCH  50  73
ATOM     73  C   UNL     1      13.485  -8.773  12.462  1.00  0.00    -0.014 A 
ATOM     74  C   UNL     1      13.012 -10.003  12.960  1.00  0.00     0.010 A 
ATOM     75  C   UNL     1      13.654  -7.699  13.353  1.00  0.00     0.010 A 
ATOM     76  C   UNL     1      12.653 -10.136  14.303  1.00  0.00     0.020 A 
ATOM     77  C   UNL     1      13.332  -7.840  14.708  1.00  0.00     0.020 A 
ATOM     78  C   UNL     1      12.803  -9.049  15.166  1.00  0.00     0.054 A 
BRANCH  78  79
ATOM     79  S   UNL     1      12.273  -9.230  16.891  1.00  0.00     0.124 S 
ATOM     80  O   UNL     1      10.818  -9.225  16.759  1.00  0.00    -0.237 OA
ATOM     81  O   UNL     1      12.866 -10.509  17.272  1.00  0.00    -0.237 OA
ATOM     82  O   UNL     1      12.845  -8.059  17.551  1.00  0.00    -0.744 OA
ENDBRANCH  78  79
ENDBRANCH  50  73
BRANCH  62  83
ATOM     83  C   UNL     1      19.093  -7.288   8.500  1.00  0.00    -0.014 A 
ATOM     84  C   UNL     1      19.675  -6.033   8.239  1.00  0.00     0.010 A 
ATOM     85  C   UNL     1      19.922  -8.356   8.886  1.00  0.00     0.010 A 
ATOM     86  C   UNL     1      21.060  -5.862   8.304  1.00  0.00     0.020 A 
ATOM     87  C   UNL     1      21.306  -8.180   8.989  1.00  0.00     0.020 A 
ATOM     88  C   UNL     1      21.868  -6.943   8.666  1.00  0.00     0.054 A 
BRANCH  88  89
ATOM     89  S   UNL     1      23.668  -6.719   8.682  1.00  0.00     0.124 S 
ATOM     90  O   UNL     1      23.983  -6.655   7.258  1.00  0.00    -0.237 OA
ATOM     91  O   UNL     1      23.828  -5.467   9.419  1.00  0.00    -0.237 OA
ATOM     92  O   UNL     1      24.157  -7.908   9.376  1.00  0.00    -0.744 OA
ENDBRANCH  88  89
ENDBRANCH  62  83
ENDBRANCH  36  37
ENDBRANCH  29  31
ENDBRANCH  28  29
ENDBRANCH  27  28
ENDBRANCH   1  27
TORSDOF 19
