REMARK SMILES O=C(OCCOCCOC(=O)[C@H]1CCCN(c2cc(-c3ccccn3)nc(-c3ccccc3F)n2)C1)c1ccc(-c2c3nc(c(-c4ccc(S(=O)(=O)[O-])cc4)c4ccc([nH]4)c(-c4ccc(S(=O)(=O)[O-])cc4)c4nc(c(-c5ccc(S(=O)(=O)[O-])cc5)c5ccc2[nH]5)C=C4)C=C3)cc1
REMARK SMILES IDX 5 1 4 2 3 3 2 4 1 5 37 6 38 7 96 8 39 9 95 10 40 11 41 12
REMARK SMILES IDX 42 13 89 14 43 15 94 16 88 17 90 18 44 19 93 20 87 21 86 22
REMARK SMILES IDX 45 24 75 25 56 26 74 27 57 28 60 29 73 30 91 31 58 32 59 33
REMARK SMILES IDX 72 35 92 36 61 37 46 38 47 39 55 40 48 41 54 42 49 43 50 44
REMARK SMILES IDX 51 45 52 46 53 47 76 48 77 49 85 50 78 51 84 52 79 53 80 54
REMARK SMILES IDX 81 55 82 56 83 57 62 58 63 59 71 60 64 61 70 62 65 63 66 64
REMARK SMILES IDX 67 65 68 66 69 67 6 68 7 69 8 70 9 71 10 72 11 73 12 74
REMARK SMILES IDX 13 75 36 76 14 77 16 78 15 79 17 80 18 81 35 82 19 83 27 84
REMARK SMILES IDX 26 85 20 86 21 87 25 88 22 89 24 90 23 91 28 92 29 93 33 94
REMARK SMILES IDX 30 95 32 96 34 97 31 98
REMARK H PARENT 90 23 60 34
REMARK Flexibility Score: inf
ROOT
ATOM      1  C   UNL     1       2.676   0.417  -3.394  1.00  0.00     0.202 C 
ENDROOT
BRANCH   1   2
ATOM      2  C   UNL     1       1.923  -0.896  -3.132  1.00  0.00     0.261 C 
BRANCH   2   3
ATOM      3  O   UNL     1       2.011  -1.805  -4.239  1.00  0.00    -0.460 OA
BRANCH   3   4
ATOM      4  C   UNL     1       1.076  -1.996  -5.205  1.00  0.00     0.338 C 
ATOM      5  O   UNL     1       1.272  -2.852  -6.064  1.00  0.00    -0.246 OA
BRANCH   4   6
ATOM      6  C   UNL     1      -0.172  -1.181  -5.281  1.00  0.00     0.060 A 
ATOM      7  C   UNL     1      -0.282   0.117  -4.787  1.00  0.00     0.016 A 
ATOM      8  C   UNL     1      -1.276  -1.720  -5.955  1.00  0.00     0.016 A 
ATOM      9  C   UNL     1      -1.446   0.838  -4.858  1.00  0.00     0.010 A 
ATOM     10  C   UNL     1      -2.455  -0.979  -6.084  1.00  0.00     0.010 A 
ATOM     11  C   UNL     1      -2.535   0.296  -5.515  1.00  0.00    -0.014 A 
BRANCH  11  12
ATOM     12  C   UNL     1      -3.767   1.082  -5.422  1.00  0.00     0.031 A 
ATOM     13  C   UNL     1      -4.783   0.649  -4.418  1.00  0.00     0.074 A 
ATOM     14  C   UNL     1      -3.821   2.271  -6.048  1.00  0.00     0.049 A 
ATOM     15  N   UNL     1      -5.936   1.183  -4.135  1.00  0.00    -0.248 NA
ATOM     16  C   UNL     1      -4.444  -0.533  -3.601  1.00  0.00     0.031 C 
ATOM     17  C   UNL     1      -2.749   2.840  -6.878  1.00  0.00     0.029 A 
ATOM     18  N   UNL     1      -4.779   3.242  -6.036  1.00  0.00    -0.354 N 
ATOM     19  C   UNL     1      -6.481   0.378  -3.144  1.00  0.00     0.074 A 
ATOM     20  C   UNL     1      -5.535  -0.675  -2.865  1.00  0.00     0.031 C 
ATOM     21  C   UNL     1      -3.104   4.073  -7.271  1.00  0.00     0.029 A 
ATOM     22  C   UNL     1      -4.455   4.340  -6.797  1.00  0.00     0.049 A 
ATOM     23  H   UNL     1      -5.621   3.164  -5.532  1.00  0.00     0.167 HD
ATOM     24  C   UNL     1      -7.683   0.513  -2.543  1.00  0.00     0.031 A 
ATOM     25  C   UNL     1      -5.200   5.416  -7.106  1.00  0.00     0.031 A 
ATOM     26  C   UNL     1      -8.591   1.577  -2.870  1.00  0.00     0.049 A 
ATOM     27  C   UNL     1      -6.589   5.468  -6.532  1.00  0.00     0.074 A 
ATOM     28  C   UNL     1      -9.876   1.791  -2.415  1.00  0.00     0.029 A 
ATOM     29  N   UNL     1      -8.292   2.613  -3.749  1.00  0.00    -0.354 N 
ATOM     30  N   UNL     1      -7.156   4.643  -5.679  1.00  0.00    -0.248 NA
ATOM     31  C   UNL     1      -7.444   6.575  -6.967  1.00  0.00     0.031 C 
ATOM     32  C   UNL     1     -10.376   2.924  -3.065  1.00  0.00     0.029 A 
ATOM     33  C   UNL     1      -9.377   3.459  -3.869  1.00  0.00     0.049 A 
ATOM     34  H   UNL     1      -7.433   2.728  -4.216  1.00  0.00     0.167 HD
ATOM     35  C   UNL     1      -8.431   5.143  -5.458  1.00  0.00     0.074 A 
ATOM     36  C   UNL     1      -8.539   6.354  -6.253  1.00  0.00     0.031 C 
ATOM     37  C   UNL     1      -9.427   4.654  -4.677  1.00  0.00     0.031 A 
BRANCH  24  38
ATOM     38  C   UNL     1      -8.096  -0.570  -1.587  1.00  0.00    -0.014 A 
ATOM     39  C   UNL     1      -7.485  -0.727  -0.329  1.00  0.00     0.010 A 
ATOM     40  C   UNL     1      -9.089  -1.484  -1.983  1.00  0.00     0.010 A 
ATOM     41  C   UNL     1      -7.832  -1.804   0.494  1.00  0.00     0.020 A 
ATOM     42  C   UNL     1      -9.458  -2.544  -1.152  1.00  0.00     0.020 A 
ATOM     43  C   UNL     1      -8.813  -2.707   0.075  1.00  0.00     0.054 A 
BRANCH  43  44
ATOM     44  S   UNL     1      -9.246  -4.093   1.162  1.00  0.00     0.124 S 
ATOM     45  O   UNL     1      -8.059  -4.939   1.059  1.00  0.00    -0.237 OA
ATOM     46  O   UNL     1      -9.438  -3.437   2.453  1.00  0.00    -0.237 OA
ATOM     47  O   UNL     1     -10.457  -4.644   0.559  1.00  0.00    -0.744 OA
ENDBRANCH  43  44
ENDBRANCH  24  38
BRANCH  25  48
ATOM     48  C   UNL     1      -4.688   6.450  -8.048  1.00  0.00    -0.014 A 
ATOM     49  C   UNL     1      -4.500   7.781  -7.640  1.00  0.00     0.010 A 
ATOM     50  C   UNL     1      -4.387   6.102  -9.380  1.00  0.00     0.010 A 
ATOM     51  C   UNL     1      -4.046   8.745  -8.549  1.00  0.00     0.020 A 
ATOM     52  C   UNL     1      -3.902   7.053 -10.282  1.00  0.00     0.020 A 
ATOM     53  C   UNL     1      -3.751   8.374  -9.864  1.00  0.00     0.054 A 
BRANCH  53  54
ATOM     54  S   UNL     1      -3.147   9.636 -11.020  1.00  0.00     0.124 S 
ATOM     55  O   UNL     1      -4.343  10.443 -11.240  1.00  0.00    -0.237 OA
ATOM     56  O   UNL     1      -2.081  10.279 -10.257  1.00  0.00    -0.237 OA
ATOM     57  O   UNL     1      -2.697   8.859 -12.173  1.00  0.00    -0.744 OA
ENDBRANCH  53  54
ENDBRANCH  25  48
BRANCH  37  58
ATOM     58  C   UNL     1     -10.692   5.460  -4.617  1.00  0.00    -0.014 A 
ATOM     59  C   UNL     1     -11.578   5.510  -5.706  1.00  0.00     0.010 A 
ATOM     60  C   UNL     1     -11.021   6.124  -3.421  1.00  0.00     0.010 A 
ATOM     61  C   UNL     1     -12.761   6.243  -5.610  1.00  0.00     0.020 A 
ATOM     62  C   UNL     1     -12.219   6.827  -3.311  1.00  0.00     0.020 A 
ATOM     63  C   UNL     1     -13.074   6.894  -4.412  1.00  0.00     0.054 A 
BRANCH  63  64
ATOM     64  S   UNL     1     -14.640   7.796  -4.298  1.00  0.00     0.124 S 
ATOM     65  O   UNL     1     -14.373   8.973  -5.120  1.00  0.00    -0.237 OA
ATOM     66  O   UNL     1     -15.598   6.843  -4.853  1.00  0.00    -0.237 OA
ATOM     67  O   UNL     1     -14.787   8.055  -2.867  1.00  0.00    -0.744 OA
ENDBRANCH  63  64
ENDBRANCH  37  58
ENDBRANCH  11  12
ENDBRANCH   4   6
ENDBRANCH   3   4
ENDBRANCH   2   3
ENDBRANCH   1   2
BRANCH   1  68
ATOM     68  O   UNL     1       2.522   1.072  -4.658  1.00  0.00    -0.374 OA
BRANCH  68  69
ATOM     69  C   UNL     1       2.992   0.417  -5.841  1.00  0.00     0.202 C 
BRANCH  69  70
ATOM     70  C   UNL     1       3.786   1.395  -6.711  1.00  0.00     0.261 C 
BRANCH  70  71
ATOM     71  O   UNL     1       5.016   1.652  -6.030  1.00  0.00    -0.463 OA
BRANCH  71  72
ATOM     72  C   UNL     1       4.860   2.527  -5.007  1.00  0.00     0.310 C 
ATOM     73  O   UNL     1       4.158   3.533  -5.048  1.00  0.00    -0.252 OA
BRANCH  72  74
ATOM     74  C   UNL     1       5.644   2.103  -3.797  1.00  0.00     0.118 C 
ATOM     75  C   UNL     1       6.281   0.695  -3.855  1.00  0.00     0.019 C 
ATOM     76  C   UNL     1       6.699   3.166  -3.621  1.00  0.00     0.133 C 
ATOM     77  C   UNL     1       7.191   0.441  -2.650  1.00  0.00     0.022 C 
ATOM     78  N   UNL     1       7.515   2.806  -2.471  1.00  0.00    -0.356 N 
ATOM     79  C   UNL     1       8.235   1.550  -2.534  1.00  0.00     0.118 C 
BRANCH  78  80
ATOM     80  C   UNL     1       7.959   3.904  -1.781  1.00  0.00     0.133 A 
ATOM     81  C   UNL     1       9.222   4.391  -1.980  1.00  0.00     0.077 A 
ATOM     82  N   UNL     1       7.046   4.569  -1.059  1.00  0.00    -0.211 NA
ATOM     83  C   UNL     1       9.489   5.639  -1.462  1.00  0.00     0.095 A 
ATOM     84  C   UNL     1       7.394   5.767  -0.570  1.00  0.00     0.165 A 
ATOM     85  N   UNL     1       8.590   6.348  -0.748  1.00  0.00    -0.226 NA
BRANCH  83  86
ATOM     86  C   UNL     1      10.776   6.268  -1.755  1.00  0.00     0.089 A 
ATOM     87  C   UNL     1      11.123   6.613  -3.063  1.00  0.00     0.030 A 
ATOM     88  N   UNL     1      11.647   6.364  -0.720  1.00  0.00    -0.255 NA
ATOM     89  C   UNL     1      12.411   7.067  -3.320  1.00  0.00     0.004 A 
ATOM     90  C   UNL     1      12.882   6.827  -0.996  1.00  0.00     0.112 A 
ATOM     91  C   UNL     1      13.310   7.176  -2.267  1.00  0.00     0.020 A 
ENDBRANCH  83  86
BRANCH  84  92
ATOM     92  C   UNL     1       6.396   6.462   0.234  1.00  0.00     0.055 A 
ATOM     93  C   UNL     1       5.826   5.850   1.366  1.00  0.00     0.015 A 
ATOM     94  C   UNL     1       5.965   7.750  -0.096  1.00  0.00     0.134 A 
ATOM     95  C   UNL     1       4.894   6.527   2.160  1.00  0.00     0.001 A 
ATOM     96  C   UNL     1       5.027   8.427   0.684  1.00  0.00     0.040 A 
ATOM     97  F   UNL     1       6.428   8.361  -1.198  1.00  0.00    -0.206 F 
ATOM     98  C   UNL     1       4.500   7.820   1.822  1.00  0.00     0.003 A 
ENDBRANCH  84  92
ENDBRANCH  78  80
ENDBRANCH  72  74
ENDBRANCH  71  72
ENDBRANCH  70  71
ENDBRANCH  69  70
ENDBRANCH  68  69
ENDBRANCH   1  68
TORSDOF 20
