REMARK SMILES [NH3+][C@@]1(C(=O)OCCOCCOC(=O)c2ccc(-c3c4nc(c(-c5ccc(S(=O)(=O)[O-])cc5)c5ccc([nH]5)c(-c5ccc(S(=O)(=O)[O-])cc5)c5nc(c(-c6ccc(S(=O)(=O)[O-])cc6)c6ccc3[nH]6)C=C5)C=C4)cc2)CC[C@@H]([N@H+]2CC[C@H]([NH+]3CCOCC3)C2)C1
REMARK SMILES IDX 9 1 8 2 7 3 6 4 5 5 3 6 4 7 2 8 74 9 88 10 75 11 76 12 1 13
REMARK SMILES IDX 77 17 78 18 87 19 79 21 80 22 81 23 82 24 86 25 83 27 85 28
REMARK SMILES IDX 84 29 10 30 11 31 12 32 13 33 14 34 15 35 73 36 16 37 72 38
REMARK SMILES IDX 17 39 18 40 19 41 66 42 20 43 71 44 65 45 67 46 21 47 70 48
REMARK SMILES IDX 64 49 63 50 22 52 52 53 33 54 51 55 34 56 37 57 50 58 68 59
REMARK SMILES IDX 35 60 36 61 49 63 69 64 38 65 23 66 24 67 32 68 25 69 31 70
REMARK SMILES IDX 26 71 27 72 28 73 29 74 30 75 53 76 54 77 62 78 55 79 61 80
REMARK SMILES IDX 56 81 57 82 58 83 59 84 60 85 39 86 40 87 48 88 41 89 47 90
REMARK SMILES IDX 42 91 43 92 44 93 45 94 46 95
REMARK H PARENT 1 14 1 15 1 16 77 20 81 26 67 51 37 62
REMARK Flexibility Score: inf
ROOT
ATOM      1  C   UNL     1       2.206   0.589  -3.518  1.00  0.00     0.202 C 
ENDROOT
BRANCH   1   2
ATOM      2  O   UNL     1       1.317   0.250  -4.581  1.00  0.00    -0.374 OA
BRANCH   2   3
ATOM      3  C   UNL     1       0.271   1.174  -4.889  1.00  0.00     0.202 C 
BRANCH   3   4
ATOM      4  C   UNL     1      -0.985   1.101  -4.015  1.00  0.00     0.261 C 
BRANCH   4   5
ATOM      5  O   UNL     1      -0.707   1.585  -2.692  1.00  0.00    -0.459 OA
BRANCH   5   6
ATOM      6  C   UNL     1      -0.659   0.645  -1.716  1.00  0.00     0.368 C 
ATOM      7  O   UNL     1      -1.013  -0.524  -1.844  1.00  0.00    -0.245 OA
BRANCH   6   8
ATOM      8  C   UNL     1      -0.026   1.180  -0.403  1.00  0.00     0.198 C 
ATOM      9  C   UNL     1      -1.146   1.666   0.524  1.00  0.00     0.087 C 
ATOM     10  C   UNL     1       0.939   2.377  -0.584  1.00  0.00     0.145 C 
ATOM     11  C   UNL     1      -1.103   3.183   0.414  1.00  0.00     0.072 C 
ATOM     12  C   UNL     1       0.377   3.546   0.240  1.00  0.00     0.191 C 
BRANCH   8  13
ATOM     13  N   UNL     1       0.695   0.037   0.231  1.00  0.00    -0.343 N 
ATOM     14  H   UNL     1       0.053  -0.747   0.347  1.00  0.00     0.345 HD
ATOM     15  H   UNL     1       1.051   0.323   1.143  1.00  0.00     0.345 HD
ATOM     16  H   UNL     1       1.474  -0.246  -0.364  1.00  0.00     0.345 HD
ENDBRANCH   8  13
BRANCH  12  17
ATOM     17  N   UNL     1       1.063   3.827   1.506  1.00  0.00    -0.327 N 
ATOM     18  C   UNL     1       1.289   2.702   2.407  1.00  0.00     0.269 C 
ATOM     19  C   UNL     1       2.370   4.478   1.327  1.00  0.00     0.328 C 
ATOM     20  H   UNL     1       0.379   4.445   1.942  1.00  0.00     0.348 HD
ATOM     21  C   UNL     1       2.229   3.283   3.443  1.00  0.00     0.132 C 
ATOM     22  C   UNL     1       3.133   4.232   2.655  1.00  0.00     0.245 C 
BRANCH  22  23
ATOM     23  N   UNL     1       3.686   5.407   3.345  1.00  0.00    -0.324 N 
ATOM     24  C   UNL     1       4.433   5.090   4.576  1.00  0.00     0.291 C 
ATOM     25  C   UNL     1       2.757   6.523   3.610  1.00  0.00     0.291 C 
ATOM     26  H   UNL     1       4.335   5.744   2.635  1.00  0.00     0.348 HD
ATOM     27  C   UNL     1       3.586   5.016   5.860  1.00  0.00     0.221 C 
ATOM     28  C   UNL     1       1.941   6.419   4.906  1.00  0.00     0.221 C 
ATOM     29  O   UNL     1       2.782   6.186   6.043  1.00  0.00    -0.370 OA
ENDBRANCH  22  23
ENDBRANCH  12  17
ENDBRANCH   6   8
ENDBRANCH   5   6
ENDBRANCH   4   5
ENDBRANCH   3   4
ENDBRANCH   2   3
ENDBRANCH   1   2
BRANCH   1  30
ATOM     30  C   UNL     1       3.276   1.651  -3.804  1.00  0.00     0.261 C 
BRANCH  30  31
ATOM     31  O   UNL     1       2.712   2.945  -4.084  1.00  0.00    -0.460 OA
BRANCH  31  32
ATOM     32  C   UNL     1       2.852   3.358  -5.367  1.00  0.00     0.338 C 
ATOM     33  O   UNL     1       3.466   2.788  -6.261  1.00  0.00    -0.246 OA
BRANCH  32  34
ATOM     34  C   UNL     1       1.980   4.518  -5.623  1.00  0.00     0.060 A 
ATOM     35  C   UNL     1       1.030   4.398  -6.646  1.00  0.00     0.016 A 
ATOM     36  C   UNL     1       2.120   5.718  -4.922  1.00  0.00     0.016 A 
ATOM     37  C   UNL     1       0.232   5.486  -6.989  1.00  0.00     0.010 A 
ATOM     38  C   UNL     1       1.324   6.814  -5.279  1.00  0.00     0.010 A 
ATOM     39  C   UNL     1       0.392   6.710  -6.328  1.00  0.00    -0.014 A 
BRANCH  39  40
ATOM     40  C   UNL     1      -0.356   7.902  -6.798  1.00  0.00     0.031 A 
ATOM     41  C   UNL     1       0.331   8.911  -7.677  1.00  0.00     0.074 A 
ATOM     42  C   UNL     1      -1.650   8.068  -6.464  1.00  0.00     0.049 A 
ATOM     43  N   UNL     1      -0.137  10.027  -8.174  1.00  0.00    -0.248 NA
ATOM     44  C   UNL     1       1.726   8.623  -8.047  1.00  0.00     0.031 C 
ATOM     45  C   UNL     1      -2.439   7.139  -5.656  1.00  0.00     0.029 A 
ATOM     46  N   UNL     1      -2.525   9.083  -6.761  1.00  0.00    -0.354 N 
ATOM     47  C   UNL     1       0.905  10.580  -8.909  1.00  0.00     0.074 A 
ATOM     48  C   UNL     1       2.037   9.687  -8.775  1.00  0.00     0.031 C 
ATOM     49  C   UNL     1      -3.681   7.633  -5.514  1.00  0.00     0.029 A 
ATOM     50  C   UNL     1      -3.764   8.927  -6.188  1.00  0.00     0.049 A 
ATOM     51  H   UNL     1      -2.287   9.849  -7.332  1.00  0.00     0.167 HD
ATOM     52  C   UNL     1       0.917  11.726  -9.632  1.00  0.00     0.031 A 
ATOM     53  C   UNL     1      -4.835   9.745  -6.182  1.00  0.00     0.031 A 
ATOM     54  C   UNL     1      -0.204  12.621  -9.750  1.00  0.00     0.049 A 
ATOM     55  C   UNL     1      -4.768  11.055  -6.922  1.00  0.00     0.074 A 
ATOM     56  C   UNL     1      -0.294  13.794 -10.479  1.00  0.00     0.029 A 
ATOM     57  N   UNL     1      -1.425  12.452  -9.115  1.00  0.00    -0.354 N 
ATOM     58  N   UNL     1      -3.786  11.547  -7.640  1.00  0.00    -0.248 NA
ATOM     59  C   UNL     1      -5.955  11.919  -6.853  1.00  0.00     0.031 C 
ATOM     60  C   UNL     1      -1.546  14.367 -10.234  1.00  0.00     0.029 A 
ATOM     61  C   UNL     1      -2.261  13.518  -9.404  1.00  0.00     0.049 A 
ATOM     62  H   UNL     1      -1.663  11.687  -8.543  1.00  0.00     0.167 HD
ATOM     63  C   UNL     1      -4.245  12.769  -8.122  1.00  0.00     0.074 A 
ATOM     64  C   UNL     1      -5.598  12.931  -7.632  1.00  0.00     0.031 C 
ATOM     65  C   UNL     1      -3.602  13.675  -8.901  1.00  0.00     0.031 A 
BRANCH  52  66
ATOM     66  C   UNL     1       2.201  12.102 -10.324  1.00  0.00    -0.014 A 
ATOM     67  C   UNL     1       2.648  11.405 -11.461  1.00  0.00     0.010 A 
ATOM     68  C   UNL     1       2.942  13.205  -9.862  1.00  0.00     0.010 A 
ATOM     69  C   UNL     1       3.830  11.786 -12.104  1.00  0.00     0.020 A 
ATOM     70  C   UNL     1       4.110  13.604 -10.516  1.00  0.00     0.020 A 
ATOM     71  C   UNL     1       4.554  12.883 -11.626  1.00  0.00     0.054 A 
BRANCH  71  72
ATOM     72  S   UNL     1       6.068  13.373 -12.497  1.00  0.00     0.124 S 
ATOM     73  O   UNL     1       6.989  12.301 -12.127  1.00  0.00    -0.237 OA
ATOM     74  O   UNL     1       5.644  13.382 -13.895  1.00  0.00    -0.237 OA
ATOM     75  O   UNL     1       6.383  14.684 -11.936  1.00  0.00    -0.744 OA
ENDBRANCH  71  72
ENDBRANCH  52  66
BRANCH  53  76
ATOM     76  C   UNL     1      -6.054   9.366  -5.416  1.00  0.00    -0.014 A 
ATOM     77  C   UNL     1      -7.249   9.040  -6.079  1.00  0.00     0.010 A 
ATOM     78  C   UNL     1      -6.021   9.334  -4.010  1.00  0.00     0.010 A 
ATOM     79  C   UNL     1      -8.393   8.702  -5.349  1.00  0.00     0.020 A 
ATOM     80  C   UNL     1      -7.153   8.968  -3.278  1.00  0.00     0.020 A 
ATOM     81  C   UNL     1      -8.336   8.665  -3.953  1.00  0.00     0.054 A 
BRANCH  81  82
ATOM     82  S   UNL     1      -9.817   8.170  -3.028  1.00  0.00     0.124 S 
ATOM     83  O   UNL     1     -10.664   9.351  -3.156  1.00  0.00    -0.237 OA
ATOM     84  O   UNL     1     -10.263   6.986  -3.759  1.00  0.00    -0.237 OA
ATOM     85  O   UNL     1      -9.306   7.906  -1.684  1.00  0.00    -0.744 OA
ENDBRANCH  81  82
ENDBRANCH  53  76
BRANCH  65  86
ATOM     86  C   UNL     1      -4.359  14.919  -9.288  1.00  0.00    -0.014 A 
ATOM     87  C   UNL     1      -4.624  15.931  -8.348  1.00  0.00     0.010 A 
ATOM     88  C   UNL     1      -4.764  15.102 -10.623  1.00  0.00     0.010 A 
ATOM     89  C   UNL     1      -5.309  17.088  -8.729  1.00  0.00     0.020 A 
ATOM     90  C   UNL     1      -5.424  16.271 -11.014  1.00  0.00     0.020 A 
ATOM     91  C   UNL     1      -5.704  17.251 -10.060  1.00  0.00     0.054 A 
BRANCH  91  92
ATOM     92  S   UNL     1      -6.554  18.781 -10.538  1.00  0.00     0.124 S 
ATOM     93  O   UNL     1      -7.878  18.589  -9.951  1.00  0.00    -0.237 OA
ATOM     94  O   UNL     1      -5.732  19.814  -9.911  1.00  0.00    -0.237 OA
ATOM     95  O   UNL     1      -6.511  18.760 -11.998  1.00  0.00    -0.744 OA
ENDBRANCH  91  92
ENDBRANCH  65  86
ENDBRANCH  39  40
ENDBRANCH  32  34
ENDBRANCH  31  32
ENDBRANCH  30  31
ENDBRANCH   1  30
TORSDOF 20
