REMARK SMILES O=C(C[C@H](C(=O)OC[C@@H]1CCCO1)[NH+]1CCOCC1)OCCOCCOC(=O)c1ccc(-c2c3nc(c(-c4ccc(S(=O)(=O)[O-])cc4)c4ccc([nH]4)c(-c4ccc(S(=O)(=O)[O-])cc4)c4nc(c(-c5ccc(S(=O)(=O)[O-])cc5)c5ccc2[nH]5)C=C4)C=C3)cc1
REMARK SMILES IDX 22 1 21 2 20 3 2 4 1 5 3 6 4 7 14 8 15 9 19 10 16 12 18 13
REMARK SMILES IDX 17 14 5 15 6 16 7 17 8 18 9 19 10 20 13 21 11 22 12 23 23 24
REMARK SMILES IDX 24 25 25 26 26 27 27 28 28 29 29 30 30 31 88 32 31 33 87 34
REMARK SMILES IDX 32 35 33 36 34 37 81 38 35 39 86 40 80 41 82 42 36 43 85 44
REMARK SMILES IDX 79 45 78 46 37 48 67 49 48 50 66 51 49 52 52 53 65 54 83 55
REMARK SMILES IDX 50 56 51 57 64 59 84 60 53 61 38 62 39 63 47 64 40 65 46 66
REMARK SMILES IDX 41 67 42 68 43 69 44 70 45 71 68 72 69 73 77 74 70 75 76 76
REMARK SMILES IDX 71 77 72 78 73 79 74 80 75 81 54 82 55 83 63 84 56 85 62 86
REMARK SMILES IDX 57 87 58 88 59 89 60 90 61 91
REMARK H PARENT 14 11 82 47 52 58
REMARK Flexibility Score: inf
ROOT
ATOM      1  C   UNL     1       5.702   1.419  -1.195  1.00  0.00     0.202 C 
ENDROOT
BRANCH   1   2
ATOM      2  C   UNL     1       5.235   2.252   0.228  1.00  0.00     0.261 C 
BRANCH   2   3
ATOM      3  O   UNL     1       6.252   2.273   1.992  1.00  0.00    -0.463 OA
BRANCH   3   4
ATOM      4  C   UNL     1       6.261   1.093   3.312  1.00  0.00     0.312 C 
ATOM      5  O   UNL     1       7.166   1.024   4.131  1.00  0.00    -0.252 OA
BRANCH   4   6
ATOM      6  C   UNL     1       4.587   0.104   3.169  1.00  0.00     0.200 C 
BRANCH   6   7
ATOM      7  C   UNL     1       3.262   1.161   2.217  1.00  0.00     0.306 C 
BRANCH   7   8
ATOM      8  N   UNL     1       3.643   2.870   2.039  1.00  0.00    -0.319 N 
ATOM      9  C   UNL     1       4.999   3.989   1.526  1.00  0.00     0.291 C 
ATOM     10  C   UNL     1       4.620   2.110   2.684  1.00  0.00     0.291 C 
ATOM     11  H   UNL     1       2.837   3.466   1.854  1.00  0.00     0.348 HD
ATOM     12  C   UNL     1       6.775   3.575   0.745  1.00  0.00     0.221 C 
ATOM     13  C   UNL     1       5.643   0.752   1.404  1.00  0.00     0.221 C 
ATOM     14  O   UNL     1       7.080   1.709   0.549  1.00  0.00    -0.370 OA
ENDBRANCH   7   8
BRANCH   7  15
ATOM     15  C   UNL     1       2.428   0.652   0.980  1.00  0.00     0.365 C 
ATOM     16  O   UNL     1       1.935  -0.460   0.876  1.00  0.00    -0.245 OA
BRANCH  15  17
ATOM     17  O   UNL     1       2.254   1.693   0.114  1.00  0.00    -0.459 OA
BRANCH  17  18
ATOM     18  C   UNL     1       1.266   1.817  -0.920  1.00  0.00     0.265 C 
BRANCH  18  19
ATOM     19  C   UNL     1       1.583   1.206  -2.285  1.00  0.00     0.156 C 
ATOM     20  C   UNL     1       2.009  -0.243  -2.302  1.00  0.00     0.038 C 
ATOM     21  O   UNL     1       2.638   1.870  -3.009  1.00  0.00    -0.375 OA
ATOM     22  C   UNL     1       2.636  -0.403  -3.672  1.00  0.00     0.031 C 
ATOM     23  C   UNL     1       2.880   1.017  -4.144  1.00  0.00     0.161 C 
ENDBRANCH  18  19
ENDBRANCH  17  18
ENDBRANCH  15  17
ENDBRANCH   7  15
ENDBRANCH   6   7
ENDBRANCH   4   6
ENDBRANCH   3   4
ENDBRANCH   2   3
ENDBRANCH   1   2
BRANCH   1  24
ATOM     24  O   UNL     1       5.389   0.030  -1.394  1.00  0.00    -0.374 OA
BRANCH  24  25
ATOM     25  C   UNL     1       6.383  -0.962  -1.131  1.00  0.00     0.202 C 
BRANCH  25  26
ATOM     26  C   UNL     1       7.617  -1.095  -2.037  1.00  0.00     0.261 C 
BRANCH  26  27
ATOM     27  O   UNL     1       8.045   0.120  -2.637  1.00  0.00    -0.460 OA
BRANCH  27  28
ATOM     28  C   UNL     1       7.389   0.406  -3.786  1.00  0.00     0.338 C 
ATOM     29  O   UNL     1       6.622  -0.315  -4.402  1.00  0.00    -0.246 OA
BRANCH  28  30
ATOM     30  C   UNL     1       7.568   1.837  -4.068  1.00  0.00     0.060 A 
ATOM     31  C   UNL     1       6.408   2.607  -4.175  1.00  0.00     0.016 A 
ATOM     32  C   UNL     1       8.823   2.424  -4.200  1.00  0.00     0.016 A 
ATOM     33  C   UNL     1       6.472   3.956  -4.457  1.00  0.00     0.010 A 
ATOM     34  C   UNL     1       8.897   3.783  -4.510  1.00  0.00     0.010 A 
ATOM     35  C   UNL     1       7.719   4.538  -4.669  1.00  0.00    -0.014 A 
BRANCH  35  36
ATOM     36  C   UNL     1       7.768   5.891  -5.247  1.00  0.00     0.031 A 
ATOM     37  C   UNL     1       8.040   6.011  -6.716  1.00  0.00     0.074 A 
ATOM     38  C   UNL     1       7.508   6.968  -4.488  1.00  0.00     0.049 A 
ATOM     39  N   UNL     1       8.282   7.079  -7.424  1.00  0.00    -0.248 NA
ATOM     40  C   UNL     1       8.041   4.757  -7.492  1.00  0.00     0.031 C 
ATOM     41  C   UNL     1       7.112   6.939  -3.078  1.00  0.00     0.029 A 
ATOM     42  N   UNL     1       7.545   8.300  -4.800  1.00  0.00    -0.354 N 
ATOM     43  C   UNL     1       8.508   6.625  -8.717  1.00  0.00     0.074 A 
ATOM     44  C   UNL     1       8.368   5.187  -8.701  1.00  0.00     0.031 C 
ATOM     45  C   UNL     1       6.967   8.202  -2.641  1.00  0.00     0.029 A 
ATOM     46  C   UNL     1       7.321   9.119  -3.720  1.00  0.00     0.049 A 
ATOM     47  H   UNL     1       7.716   8.638  -5.709  1.00  0.00     0.167 HD
ATOM     48  C   UNL     1       8.819   7.353  -9.812  1.00  0.00     0.031 A 
ATOM     49  C   UNL     1       7.449  10.455  -3.611  1.00  0.00     0.031 A 
ATOM     50  C   UNL     1       8.941   8.785  -9.798  1.00  0.00     0.049 A 
ATOM     51  C   UNL     1       7.889  11.234  -4.823  1.00  0.00     0.074 A 
ATOM     52  C   UNL     1       9.255   9.632 -10.844  1.00  0.00     0.029 A 
ATOM     53  N   UNL     1       8.753   9.579  -8.676  1.00  0.00    -0.354 N 
ATOM     54  N   UNL     1       8.139  10.798  -6.036  1.00  0.00    -0.248 NA
ATOM     55  C   UNL     1       8.078  12.679  -4.649  1.00  0.00     0.031 C 
ATOM     56  C   UNL     1       9.314  10.935 -10.341  1.00  0.00     0.029 A 
ATOM     57  C   UNL     1       8.975  10.905  -8.996  1.00  0.00     0.049 A 
ATOM     58  H   UNL     1       8.499   9.247  -7.785  1.00  0.00     0.167 HD
ATOM     59  C   UNL     1       8.498  11.919  -6.775  1.00  0.00     0.074 A 
ATOM     60  C   UNL     1       8.409  13.054  -5.877  1.00  0.00     0.031 C 
ATOM     61  C   UNL     1       8.875  12.009  -8.075  1.00  0.00     0.031 A 
BRANCH  48  62
ATOM     62  C   UNL     1       9.109   6.616 -11.089  1.00  0.00    -0.014 A 
ATOM     63  C   UNL     1       8.087   6.015 -11.844  1.00  0.00     0.010 A 
ATOM     64  C   UNL     1      10.431   6.573 -11.568  1.00  0.00     0.010 A 
ATOM     65  C   UNL     1       8.385   5.376 -13.051  1.00  0.00     0.020 A 
ATOM     66  C   UNL     1      10.730   5.956 -12.786  1.00  0.00     0.020 A 
ATOM     67  C   UNL     1       9.704   5.355 -13.517  1.00  0.00     0.054 A 
BRANCH  67  68
ATOM     68  S   UNL     1      10.051   4.576 -15.117  1.00  0.00     0.124 S 
ATOM     69  O   UNL     1       9.875   3.159 -14.808  1.00  0.00    -0.237 OA
ATOM     70  O   UNL     1       9.031   5.160 -15.985  1.00  0.00    -0.237 OA
ATOM     71  O   UNL     1      11.423   4.982 -15.412  1.00  0.00    -0.744 OA
ENDBRANCH  67  68
ENDBRANCH  48  62
BRANCH  49  72
ATOM     72  C   UNL     1       7.245  11.125  -2.297  1.00  0.00    -0.014 A 
ATOM     73  C   UNL     1       6.190  12.032  -2.103  1.00  0.00     0.010 A 
ATOM     74  C   UNL     1       8.129  10.869  -1.230  1.00  0.00     0.010 A 
ATOM     75  C   UNL     1       6.039  12.690  -0.878  1.00  0.00     0.020 A 
ATOM     76  C   UNL     1       7.962  11.499   0.005  1.00  0.00     0.020 A 
ATOM     77  C   UNL     1       6.926  12.420   0.168  1.00  0.00     0.054 A 
BRANCH  77  78
ATOM     78  S   UNL     1       6.695  13.264   1.757  1.00  0.00     0.124 S 
ATOM     79  O   UNL     1       7.157  14.614   1.453  1.00  0.00    -0.237 OA
ATOM     80  O   UNL     1       5.259  13.121   1.984  1.00  0.00    -0.237 OA
ATOM     81  O   UNL     1       7.541  12.502   2.674  1.00  0.00    -0.744 OA
ENDBRANCH  77  78
ENDBRANCH  49  72
BRANCH  61  82
ATOM     82  C   UNL     1       9.187  13.381  -8.605  1.00  0.00    -0.014 A 
ATOM     83  C   UNL     1      10.367  14.049  -8.237  1.00  0.00     0.010 A 
ATOM     84  C   UNL     1       8.312  13.982  -9.528  1.00  0.00     0.010 A 
ATOM     85  C   UNL     1      10.651  15.313  -8.759  1.00  0.00     0.020 A 
ATOM     86  C   UNL     1       8.609  15.231 -10.076  1.00  0.00     0.020 A 
ATOM     87  C   UNL     1       9.770  15.895  -9.675  1.00  0.00     0.054 A 
BRANCH  87  88
ATOM     88  S   UNL     1      10.182  17.517 -10.371  1.00  0.00     0.124 S 
ATOM     89  O   UNL     1       9.922  18.406  -9.242  1.00  0.00    -0.237 OA
ATOM     90  O   UNL     1      11.588  17.361 -10.737  1.00  0.00    -0.237 OA
ATOM     91  O   UNL     1       9.263  17.656 -11.498  1.00  0.00    -0.744 OA
ENDBRANCH  87  88
ENDBRANCH  61  82
ENDBRANCH  35  36
ENDBRANCH  28  30
ENDBRANCH  27  28
ENDBRANCH  26  27
ENDBRANCH  25  26
ENDBRANCH  24  25
ENDBRANCH   1  24
TORSDOF 23
