REMARK SMILES O=C(CN1C(=O)S/C(=C\c2cccc(F)c2)C1=O)NCC(=O)OCCOCCOC(=O)c1ccc(-c2c3nc(c(-c4ccc(S(=O)(=O)[O-])cc4)c4ccc([nH]4)c(-c4ccc(S(=O)(=O)[O-])cc4)c4nc(c(-c5ccc(S(=O)(=O)[O-])cc5)c5ccc2[nH]5)C=C4)C=C3)cc1
REMARK SMILES IDX 25 1 24 2 23 3 21 4 22 5 20 6 19 7 1 8 2 9 3 11 4 12 5 13
REMARK SMILES IDX 17 14 6 15 7 16 8 17 18 18 9 19 10 20 11 21 16 22 12 23
REMARK SMILES IDX 14 24 13 25 15 26 26 27 27 28 28 29 29 30 30 31 31 32 32 33
REMARK SMILES IDX 33 34 91 35 34 36 90 37 35 38 36 39 37 40 84 41 38 42 89 43
REMARK SMILES IDX 83 44 85 45 39 46 88 47 82 48 81 49 40 51 70 52 51 53 69 54
REMARK SMILES IDX 52 55 55 56 68 57 86 58 53 59 54 60 67 62 87 63 56 64 41 65
REMARK SMILES IDX 42 66 50 67 43 68 49 69 44 70 45 71 46 72 47 73 48 74 71 75
REMARK SMILES IDX 72 76 80 77 73 78 79 79 74 80 75 81 76 82 77 83 78 84 57 85
REMARK SMILES IDX 58 86 66 87 59 88 65 89 60 90 61 91 62 92 63 93 64 94
REMARK H PARENT 19 10 85 50 55 61
REMARK Flexibility Score: inf
ROOT
ATOM      1  C   UNL     1       3.744   5.635  -0.284  1.00  0.00     0.202 C 
ENDROOT
BRANCH   1   2
ATOM      2  C   UNL     1       2.292   5.147  -0.312  1.00  0.00     0.261 C 
BRANCH   2   3
ATOM      3  O   UNL     1       2.212   3.715  -0.410  1.00  0.00    -0.462 OA
BRANCH   3   4
ATOM      4  C   UNL     1       1.541   3.241  -1.497  1.00  0.00     0.325 C 
ATOM      5  O   UNL     1       0.919   3.931  -2.298  1.00  0.00    -0.250 OA
BRANCH   4   6
ATOM      6  C   UNL     1       1.724   1.737  -1.694  1.00  0.00     0.238 C 
BRANCH   6   7
ATOM      7  N   UNL     1       2.516   1.012  -0.709  1.00  0.00    -0.344 N 
ATOM      8  O   UNL     1       0.873  -0.482  -0.157  1.00  0.00    -0.273 OA
ATOM      9  C   UNL     1       2.018  -0.068  -0.013  1.00  0.00     0.240 C 
ATOM     10  H   UNL     1       3.440   1.304  -0.534  1.00  0.00     0.164 HD
BRANCH   9  11
ATOM     11  C   UNL     1       3.053  -0.797   0.845  1.00  0.00     0.229 C 
BRANCH  11  12
ATOM     12  N   UNL     1       3.813  -1.708   0.004  1.00  0.00    -0.259 N 
ATOM     13  C   UNL     1       4.826  -1.236  -0.785  1.00  0.00     0.294 C 
ATOM     14  C   UNL     1       3.571  -3.060  -0.031  1.00  0.00     0.268 C 
ATOM     15  O   UNL     1       5.172  -0.072  -0.905  1.00  0.00    -0.261 OA
ATOM     16  S   UNL     1       5.580  -2.552  -1.657  1.00  0.00    -0.022 SA
ATOM     17  C   UNL     1       4.553  -3.730  -0.934  1.00  0.00     0.083 C 
ATOM     18  O   UNL     1       2.716  -3.662   0.601  1.00  0.00    -0.268 OA
ATOM     19  C   UNL     1       4.585  -5.061  -1.098  1.00  0.00     0.029 C 
BRANCH  19  20
ATOM     20  C   UNL     1       5.539  -5.813  -1.927  1.00  0.00    -0.021 A 
ATOM     21  C   UNL     1       6.920  -5.757  -1.684  1.00  0.00     0.008 A 
ATOM     22  C   UNL     1       5.065  -6.633  -2.955  1.00  0.00     0.047 A 
ATOM     23  C   UNL     1       7.816  -6.475  -2.482  1.00  0.00     0.004 A 
ATOM     24  C   UNL     1       5.966  -7.347  -3.742  1.00  0.00     0.123 A 
ATOM     25  C   UNL     1       7.336  -7.270  -3.519  1.00  0.00     0.039 A 
ATOM     26  F   UNL     1       5.505  -8.122  -4.733  1.00  0.00    -0.207 F 
ENDBRANCH  19  20
ENDBRANCH  11  12
ENDBRANCH   9  11
ENDBRANCH   6   7
ENDBRANCH   4   6
ENDBRANCH   3   4
ENDBRANCH   2   3
ENDBRANCH   1   2
BRANCH   1  27
ATOM     27  O   UNL     1       4.584   5.255  -1.372  1.00  0.00    -0.374 OA
BRANCH  27  28
ATOM     28  C   UNL     1       4.995   3.893  -1.467  1.00  0.00     0.202 C 
BRANCH  28  29
ATOM     29  C   UNL     1       5.960   3.350  -0.403  1.00  0.00     0.261 C 
BRANCH  29  30
ATOM     30  O   UNL     1       5.420   3.373   0.931  1.00  0.00    -0.460 OA
BRANCH  30  31
ATOM     31  C   UNL     1       6.062   4.227   1.770  1.00  0.00     0.338 C 
ATOM     32  O   UNL     1       7.040   4.910   1.515  1.00  0.00    -0.246 OA
BRANCH  31  33
ATOM     33  C   UNL     1       5.312   4.388   3.030  1.00  0.00     0.060 A 
ATOM     34  C   UNL     1       4.907   5.684   3.375  1.00  0.00     0.016 A 
ATOM     35  C   UNL     1       5.122   3.325   3.913  1.00  0.00     0.016 A 
ATOM     36  C   UNL     1       4.359   5.932   4.630  1.00  0.00     0.010 A 
ATOM     37  C   UNL     1       4.572   3.578   5.176  1.00  0.00     0.010 A 
ATOM     38  C   UNL     1       4.226   4.889   5.556  1.00  0.00    -0.014 A 
BRANCH  38  39
ATOM     39  C   UNL     1       3.848   5.205   6.957  1.00  0.00     0.031 A 
ATOM     40  C   UNL     1       4.907   5.199   8.029  1.00  0.00     0.074 A 
ATOM     41  C   UNL     1       2.582   5.543   7.263  1.00  0.00     0.049 A 
ATOM     42  N   UNL     1       4.791   5.447   9.308  1.00  0.00    -0.248 NA
ATOM     43  C   UNL     1       6.277   4.870   7.602  1.00  0.00     0.031 C 
ATOM     44  C   UNL     1       1.476   5.630   6.309  1.00  0.00     0.029 A 
ATOM     45  N   UNL     1       2.014   5.881   8.466  1.00  0.00    -0.354 N 
ATOM     46  C   UNL     1       6.066   5.293   9.842  1.00  0.00     0.074 A 
ATOM     47  C   UNL     1       6.934   4.898   8.753  1.00  0.00     0.031 C 
ATOM     48  C   UNL     1       0.363   6.001   6.964  1.00  0.00     0.029 A 
ATOM     49  C   UNL     1       0.667   6.140   8.386  1.00  0.00     0.049 A 
ATOM     50  H   UNL     1       2.524   5.934   9.307  1.00  0.00     0.167 HD
ATOM     51  C   UNL     1       6.480   5.472  11.120  1.00  0.00     0.031 A 
ATOM     52  C   UNL     1      -0.226   6.438   9.351  1.00  0.00     0.031 A 
ATOM     53  C   UNL     1       5.611   5.856  12.203  1.00  0.00     0.049 A 
ATOM     54  C   UNL     1       0.245   6.561  10.777  1.00  0.00     0.074 A 
ATOM     55  C   UNL     1       5.938   6.079  13.530  1.00  0.00     0.029 A 
ATOM     56  N   UNL     1       4.245   6.066  12.089  1.00  0.00    -0.354 N 
ATOM     57  N   UNL     1       1.458   6.435  11.260  1.00  0.00    -0.248 NA
ATOM     58  C   UNL     1      -0.775   6.881  11.785  1.00  0.00     0.031 C 
ATOM     59  C   UNL     1       4.759   6.356  14.230  1.00  0.00     0.029 A 
ATOM     60  C   UNL     1       3.709   6.384  13.327  1.00  0.00     0.049 A 
ATOM     61  H   UNL     1       3.731   5.998  11.252  1.00  0.00     0.167 HD
ATOM     62  C   UNL     1       1.352   6.692  12.624  1.00  0.00     0.074 A 
ATOM     63  C   UNL     1      -0.040   6.998  12.883  1.00  0.00     0.031 C 
ATOM     64  C   UNL     1       2.320   6.680  13.575  1.00  0.00     0.031 A 
BRANCH  51  65
ATOM     65  C   UNL     1       7.934   5.216  11.428  1.00  0.00    -0.014 A 
ATOM     66  C   UNL     1       8.948   6.068  10.951  1.00  0.00     0.010 A 
ATOM     67  C   UNL     1       8.289   4.126  12.245  1.00  0.00     0.010 A 
ATOM     68  C   UNL     1      10.289   5.812  11.253  1.00  0.00     0.020 A 
ATOM     69  C   UNL     1       9.626   3.885  12.575  1.00  0.00     0.020 A 
ATOM     70  C   UNL     1      10.619   4.721  12.062  1.00  0.00     0.054 A 
BRANCH  70  71
ATOM     71  S   UNL     1      12.366   4.425  12.454  1.00  0.00     0.124 S 
ATOM     72  O   UNL     1      12.892   3.979  11.166  1.00  0.00    -0.237 OA
ATOM     73  O   UNL     1      12.820   5.741  12.896  1.00  0.00    -0.237 OA
ATOM     74  O   UNL     1      12.321   3.402  13.495  1.00  0.00    -0.744 OA
ENDBRANCH  70  71
ENDBRANCH  51  65
BRANCH  52  75
ATOM     75  C   UNL     1      -1.662   6.626   9.003  1.00  0.00    -0.014 A 
ATOM     76  C   UNL     1      -2.273   7.886   9.118  1.00  0.00     0.010 A 
ATOM     77  C   UNL     1      -2.428   5.535   8.552  1.00  0.00     0.010 A 
ATOM     78  C   UNL     1      -3.626   8.049   8.807  1.00  0.00     0.020 A 
ATOM     79  C   UNL     1      -3.772   5.700   8.207  1.00  0.00     0.020 A 
ATOM     80  C   UNL     1      -4.366   6.955   8.349  1.00  0.00     0.054 A 
BRANCH  80  81
ATOM     81  S   UNL     1      -6.106   7.202   7.901  1.00  0.00     0.124 S 
ATOM     82  O   UNL     1      -6.730   7.401   9.205  1.00  0.00    -0.237 OA
ATOM     83  O   UNL     1      -6.044   8.382   7.042  1.00  0.00    -0.237 OA
ATOM     84  O   UNL     1      -6.464   5.961   7.218  1.00  0.00    -0.744 OA
ENDBRANCH  80  81
ENDBRANCH  52  75
BRANCH  64  85
ATOM     85  C   UNL     1       1.916   7.050  14.981  1.00  0.00    -0.014 A 
ATOM     86  C   UNL     1       1.094   6.214  15.757  1.00  0.00     0.010 A 
ATOM     87  C   UNL     1       2.397   8.246  15.546  1.00  0.00     0.010 A 
ATOM     88  C   UNL     1       0.721   6.590  17.051  1.00  0.00     0.020 A 
ATOM     89  C   UNL     1       2.057   8.609  16.852  1.00  0.00     0.020 A 
ATOM     90  C   UNL     1       1.203   7.787  17.589  1.00  0.00     0.054 A 
BRANCH  90  91
ATOM     91  S   UNL     1       0.721   8.243  19.277  1.00  0.00     0.124 S 
ATOM     92  O   UNL     1      -0.683   8.605  19.104  1.00  0.00    -0.237 OA
ATOM     93  O   UNL     1       0.965   7.011  20.023  1.00  0.00    -0.237 OA
ATOM     94  O   UNL     1       1.614   9.351  19.606  1.00  0.00    -0.744 OA
ENDBRANCH  90  91
ENDBRANCH  64  85
ENDBRANCH  38  39
ENDBRANCH  31  33
ENDBRANCH  30  31
ENDBRANCH  29  30
ENDBRANCH  28  29
ENDBRANCH  27  28
ENDBRANCH   1  27
TORSDOF 21
