REMARK SMILES O=C(OCCOCCOC(=O)[C@@H]1CCCC[C@@H]1NS(=O)(=O)c1ccc2ccccc2c1)c1ccc(-c2c3nc(c(-c4ccc(S(=O)(=O)[O-])cc4)c4ccc([nH]4)c(-c4ccc(S(=O)(=O)[O-])cc4)c4nc(c(-c5ccc(S(=O)(=O)[O-])cc5)c5ccc2[nH]5)C=C4)C=C3)cc1
REMARK SMILES IDX 6 1 5 2 4 3 3 4 2 5 1 6 32 7 33 8 91 9 34 10 90 11 35 12
REMARK SMILES IDX 36 13 37 14 84 15 38 16 89 17 83 18 85 19 39 20 88 21 82 22
REMARK SMILES IDX 81 23 40 25 70 26 51 27 69 28 52 29 55 30 68 31 86 32 53 33
REMARK SMILES IDX 54 34 67 36 87 37 56 38 41 39 42 40 50 41 43 42 49 43 44 44
REMARK SMILES IDX 45 45 46 46 47 47 48 48 71 49 72 50 80 51 73 52 79 53 74 54
REMARK SMILES IDX 75 55 76 56 77 57 78 58 57 59 58 60 66 61 59 62 65 63 60 64
REMARK SMILES IDX 61 65 62 66 63 67 64 68 7 69 8 70 9 71 10 72 11 73 12 74
REMARK SMILES IDX 13 75 17 76 14 77 16 78 15 79 18 80 19 82 20 83 21 84 22 85
REMARK SMILES IDX 23 86 31 87 24 88 30 89 25 90 29 91 26 92 28 93 27 94
REMARK H PARENT 85 24 55 35 18 81
REMARK Flexibility Score: inf
ROOT
ATOM      1  O   UNL     1       2.750  -0.402  -0.153  1.00  0.00    -0.374 OA
ENDROOT
BRANCH   1   2
ATOM      2  C   UNL     1       4.018  -0.117   0.439  1.00  0.00     0.202 C 
BRANCH   2   3
ATOM      3  C   UNL     1       4.022  -0.735   1.851  1.00  0.00     0.261 C 
BRANCH   3   4
ATOM      4  O   UNL     1       3.416   0.148   2.812  1.00  0.00    -0.460 OA
BRANCH   4   5
ATOM      5  C   UNL     1       2.079   0.398   2.710  1.00  0.00     0.338 C 
ATOM      6  O   UNL     1       1.190  -0.335   2.330  1.00  0.00    -0.246 OA
BRANCH   5   7
ATOM      7  C   UNL     1       2.023   1.870   2.854  1.00  0.00     0.060 A 
ATOM      8  C   UNL     1       2.575   2.546   1.773  1.00  0.00     0.016 A 
ATOM      9  C   UNL     1       1.976   2.473   4.103  1.00  0.00     0.016 A 
ATOM     10  C   UNL     1       3.412   3.611   1.984  1.00  0.00     0.010 A 
ATOM     11  C   UNL     1       2.674   3.673   4.282  1.00  0.00     0.010 A 
ATOM     12  C   UNL     1       3.514   4.157   3.256  1.00  0.00    -0.014 A 
BRANCH  12  13
ATOM     13  C   UNL     1       4.719   4.964   3.566  1.00  0.00     0.031 A 
ATOM     14  C   UNL     1       5.630   4.456   4.651  1.00  0.00     0.074 A 
ATOM     15  C   UNL     1       5.124   5.987   2.789  1.00  0.00     0.049 A 
ATOM     16  N   UNL     1       6.493   5.111   5.372  1.00  0.00    -0.248 NA
ATOM     17  C   UNL     1       5.532   3.022   4.990  1.00  0.00     0.031 C 
ATOM     18  C   UNL     1       4.494   6.422   1.539  1.00  0.00     0.029 A 
ATOM     19  N   UNL     1       6.214   6.806   2.905  1.00  0.00    -0.354 N 
ATOM     20  C   UNL     1       6.912   4.217   6.351  1.00  0.00     0.074 A 
ATOM     21  C   UNL     1       6.273   2.951   6.086  1.00  0.00     0.031 C 
ATOM     22  C   UNL     1       5.268   7.348   0.954  1.00  0.00     0.029 A 
ATOM     23  C   UNL     1       6.330   7.713   1.879  1.00  0.00     0.049 A 
ATOM     24  H   UNL     1       6.854   6.751   3.651  1.00  0.00     0.167 HD
ATOM     25  C   UNL     1       7.713   4.485   7.408  1.00  0.00     0.031 A 
ATOM     26  C   UNL     1       7.144   8.779   1.756  1.00  0.00     0.031 A 
ATOM     27  C   UNL     1       8.381   5.751   7.544  1.00  0.00     0.049 A 
ATOM     28  C   UNL     1       8.009   9.104   2.943  1.00  0.00     0.074 A 
ATOM     29  C   UNL     1       9.115   6.255   8.599  1.00  0.00     0.029 A 
ATOM     30  N   UNL     1       8.421   6.704   6.531  1.00  0.00    -0.354 N 
ATOM     31  N   UNL     1       8.183   8.412   4.047  1.00  0.00    -0.248 NA
ATOM     32  C   UNL     1       8.727  10.381   2.906  1.00  0.00     0.031 C 
ATOM     33  C   UNL     1       9.578   7.527   8.228  1.00  0.00     0.029 A 
ATOM     34  C   UNL     1       9.171   7.790   6.927  1.00  0.00     0.049 A 
ATOM     35  H   UNL     1       7.977   6.615   5.657  1.00  0.00     0.167 HD
ATOM     36  C   UNL     1       9.019   9.177   4.848  1.00  0.00     0.074 A 
ATOM     37  C   UNL     1       9.344  10.368   4.081  1.00  0.00     0.031 C 
ATOM     38  C   UNL     1       9.464   8.940   6.108  1.00  0.00     0.031 A 
BRANCH  25  39
ATOM     39  C   UNL     1       7.747   3.473   8.520  1.00  0.00    -0.014 A 
ATOM     40  C   UNL     1       8.407   2.237   8.412  1.00  0.00     0.010 A 
ATOM     41  C   UNL     1       7.018   3.752   9.693  1.00  0.00     0.010 A 
ATOM     42  C   UNL     1       8.288   1.279   9.428  1.00  0.00     0.020 A 
ATOM     43  C   UNL     1       6.916   2.809  10.720  1.00  0.00     0.020 A 
ATOM     44  C   UNL     1       7.529   1.566  10.568  1.00  0.00     0.054 A 
BRANCH  44  45
ATOM     45  S   UNL     1       7.348   0.297  11.854  1.00  0.00     0.124 S 
ATOM     46  O   UNL     1       6.383  -0.614  11.244  1.00  0.00    -0.237 OA
ATOM     47  O   UNL     1       8.706  -0.224  11.988  1.00  0.00    -0.237 OA
ATOM     48  O   UNL     1       6.855   1.043  13.010  1.00  0.00    -0.744 OA
ENDBRANCH  44  45
ENDBRANCH  25  39
BRANCH  26  49
ATOM     49  C   UNL     1       7.056   9.669   0.562  1.00  0.00    -0.014 A 
ATOM     50  C   UNL     1       8.150   9.829  -0.305  1.00  0.00     0.010 A 
ATOM     51  C   UNL     1       5.853  10.340   0.259  1.00  0.00     0.010 A 
ATOM     52  C   UNL     1       8.040  10.630  -1.450  1.00  0.00     0.020 A 
ATOM     53  C   UNL     1       5.726  11.107  -0.902  1.00  0.00     0.020 A 
ATOM     54  C   UNL     1       6.826  11.257  -1.745  1.00  0.00     0.054 A 
BRANCH  54  55
ATOM     55  S   UNL     1       6.673  12.227  -3.272  1.00  0.00     0.124 S 
ATOM     56  O   UNL     1       7.349  13.468  -2.910  1.00  0.00    -0.237 OA
ATOM     57  O   UNL     1       7.362  11.392  -4.252  1.00  0.00    -0.237 OA
ATOM     58  O   UNL     1       5.228  12.332  -3.464  1.00  0.00    -0.744 OA
ENDBRANCH  54  55
ENDBRANCH  26  49
BRANCH  38  59
ATOM     59  C   UNL     1      10.379   9.970   6.693  1.00  0.00    -0.014 A 
ATOM     60  C   UNL     1       9.877  11.180   7.202  1.00  0.00     0.010 A 
ATOM     61  C   UNL     1      11.755   9.693   6.773  1.00  0.00     0.010 A 
ATOM     62  C   UNL     1      10.749  12.116   7.757  1.00  0.00     0.020 A 
ATOM     63  C   UNL     1      12.624  10.618   7.347  1.00  0.00     0.020 A 
ATOM     64  C   UNL     1      12.117  11.830   7.822  1.00  0.00     0.054 A 
BRANCH  64  65
ATOM     65  S   UNL     1      13.229  13.042   8.581  1.00  0.00     0.124 S 
ATOM     66  O   UNL     1      13.381  14.024   7.511  1.00  0.00    -0.237 OA
ATOM     67  O   UNL     1      12.470  13.492   9.746  1.00  0.00    -0.237 OA
ATOM     68  O   UNL     1      14.426  12.263   8.890  1.00  0.00    -0.744 OA
ENDBRANCH  64  65
ENDBRANCH  38  59
ENDBRANCH  12  13
ENDBRANCH   5   7
ENDBRANCH   4   5
ENDBRANCH   3   4
ENDBRANCH   2   3
ENDBRANCH   1   2
BRANCH   1  69
ATOM     69  C   UNL     1       2.194   0.432  -1.171  1.00  0.00     0.202 C 
BRANCH  69  70
ATOM     70  C   UNL     1       2.946   0.682  -2.598  1.00  0.00     0.261 C 
BRANCH  70  71
ATOM     71  O   UNL     1       3.426  -0.671  -4.016  1.00  0.00    -0.463 OA
BRANCH  71  72
ATOM     72  C   UNL     1       3.670  -1.501  -5.120  1.00  0.00     0.310 C 
ATOM     73  O   UNL     1       3.262  -1.282  -6.261  1.00  0.00    -0.252 OA
BRANCH  72  74
ATOM     74  C   UNL     1       4.535  -2.771  -4.847  1.00  0.00     0.117 C 
ATOM     75  C   UNL     1       3.881  -3.871  -3.993  1.00  0.00     0.017 C 
ATOM     76  C   UNL     1       6.068  -2.624  -4.641  1.00  0.00     0.084 C 
ATOM     77  C   UNL     1       4.599  -5.210  -4.135  1.00  0.00     0.001 C 
ATOM     78  C   UNL     1       6.733  -4.013  -4.788  1.00  0.00     0.021 C 
ATOM     79  C   UNL     1       6.096  -5.072  -3.879  1.00  0.00     0.002 C 
BRANCH  76  80
ATOM     80  N   UNL     1       6.542  -2.124  -3.336  1.00  0.00    -0.207 NA
ATOM     81  H   UNL     1       7.469  -2.525  -3.195  1.00  0.00     0.141 HD
BRANCH  80  82
ATOM     82  S   UNL     1       6.684  -0.493  -3.015  1.00  0.00     0.240 S 
ATOM     83  O   UNL     1       7.110  -0.349  -1.644  1.00  0.00    -0.207 OA
ATOM     84  O   UNL     1       7.338   0.143  -4.131  1.00  0.00    -0.207 OA
BRANCH  82  85
ATOM     85  C   UNL     1       4.990  -0.131  -3.073  1.00  0.00     0.083 A 
ATOM     86  C   UNL     1       3.891  -1.328  -2.301  1.00  0.00     0.022 A 
ATOM     87  C   UNL     1       4.360   0.995  -4.324  1.00  0.00     0.030 A 
ATOM     88  C   UNL     1       2.160  -1.405  -2.814  1.00  0.00     0.010 A 
ATOM     89  C   UNL     1       2.622   0.944  -4.826  1.00  0.00    -0.017 A 
ATOM     90  C   UNL     1       1.512  -0.249  -4.049  1.00  0.00    -0.018 A 
ATOM     91  C   UNL     1       2.031   1.797  -5.749  1.00  0.00     0.009 A 
ATOM     92  C   UNL     1       0.181  -0.171  -4.432  1.00  0.00     0.009 A 
ATOM     93  C   UNL     1       0.648   1.727  -5.986  1.00  0.00     0.001 A 
ATOM     94  C   UNL     1      -0.227   0.801  -5.359  1.00  0.00     0.001 A 
ENDBRANCH  82  85
ENDBRANCH  80  82
ENDBRANCH  76  80
ENDBRANCH  72  74
ENDBRANCH  71  72
ENDBRANCH  70  71
ENDBRANCH  69  70
ENDBRANCH   1  69
TORSDOF 20
