REMARK SMILES Cc1nc2scc(C)n2c1CNc1ccc(C(=O)OCCOCCOC(=O)c2ccc(-c3c4nc(c(-c5ccc(S(=O)(=O)[O-])cc5)c5ccc([nH]5)c(-c5ccc(S(=O)(=O)[O-])cc5)c5nc(c(-c6ccc(S(=O)(=O)[O-])cc6)c6ccc3[nH]6)C=C5)C=C4)cc2)cc1
REMARK SMILES IDX 22 1 21 2 20 3 19 4 17 5 18 6 16 7 13 8 14 9 89 10 15 11
REMARK SMILES IDX 88 12 12 13 11 15 10 16 1 17 2 18 3 19 4 20 9 21 5 22 7 23
REMARK SMILES IDX 6 24 8 25 23 26 24 27 25 28 26 29 27 30 28 31 29 32 87 33
REMARK SMILES IDX 30 34 86 35 31 36 32 37 33 38 80 39 34 40 85 41 79 42 81 43
REMARK SMILES IDX 35 44 84 45 78 46 77 47 36 49 66 50 47 51 65 52 48 53 51 54
REMARK SMILES IDX 64 55 82 56 49 57 50 58 63 60 83 61 52 62 37 63 38 64 46 65
REMARK SMILES IDX 39 66 45 67 40 68 41 69 42 70 43 71 44 72 67 73 68 74 76 75
REMARK SMILES IDX 69 76 75 77 70 78 71 79 72 80 73 81 74 82 53 83 54 84 62 85
REMARK SMILES IDX 55 86 61 87 56 88 57 89 58 90 59 91 60 92
REMARK H PARENT 12 14 81 48 51 59
REMARK Flexibility Score: inf
ROOT
ATOM      1  O   UNL     1      -4.777  -5.565  -9.722  1.00  0.00    -0.374 OA
ENDROOT
BRANCH   1   2
ATOM      2  C   UNL     1      -3.591  -6.351  -9.854  1.00  0.00     0.202 C 
BRANCH   2   3
ATOM      3  C   UNL     1      -2.250  -5.667  -9.592  1.00  0.00     0.261 C 
BRANCH   3   4
ATOM      4  O   UNL     1      -2.091  -5.317  -8.208  1.00  0.00    -0.460 OA
BRANCH   4   5
ATOM      5  C   UNL     1      -2.111  -3.989  -7.963  1.00  0.00     0.338 C 
ATOM      6  O   UNL     1      -2.171  -3.083  -8.785  1.00  0.00    -0.246 OA
BRANCH   5   7
ATOM      7  C   UNL     1      -2.200  -3.728  -6.517  1.00  0.00     0.060 A 
ATOM      8  C   UNL     1      -2.022  -2.699  -3.934  1.00  0.00     0.034 A 
ATOM      9  C   UNL     1      -3.032  -2.257  -4.791  1.00  0.00     0.026 A 
ATOM     10  C   UNL     1      -1.238  -3.797  -4.323  1.00  0.00     0.026 A 
ATOM     11  C   UNL     1      -3.099  -2.743  -6.094  1.00  0.00     0.018 A 
ATOM     12  C   UNL     1      -1.326  -4.324  -5.613  1.00  0.00     0.018 A 
BRANCH   8  13
ATOM     13  N   UNL     1      -1.665  -1.896  -2.858  1.00  0.00    -0.379 N 
ATOM     14  H   UNL     1      -2.341  -1.585  -2.214  1.00  0.00     0.160 HD
BRANCH  13  15
ATOM     15  C   UNL     1      -0.266  -1.527  -2.708  1.00  0.00     0.169 C 
BRANCH  15  16
ATOM     16  C   UNL     1      -0.028  -0.085  -2.441  1.00  0.00     0.066 A 
ATOM     17  C   UNL     1       0.864  -0.082   0.004  1.00  0.00     0.069 C 
ATOM     18  C   UNL     1       0.451   0.532  -1.282  1.00  0.00     0.062 A 
ATOM     19  N   UNL     1       0.581   1.894  -1.446  1.00  0.00    -0.224 NA
ATOM     20  C   UNL     1       0.205   2.086  -2.676  1.00  0.00     0.194 A 
ATOM     21  N   UNL     1      -0.146   0.947  -3.353  1.00  0.00    -0.290 N 
ATOM     22  S   UNL     1       0.127   3.500  -3.679  1.00  0.00    -0.105 S 
ATOM     23  C   UNL     1      -0.467   1.165  -4.692  1.00  0.00     0.032 A 
ATOM     24  C   UNL     1      -0.366   2.471  -5.016  1.00  0.00     0.090 A 
ATOM     25  C   UNL     1      -0.840   0.121  -5.676  1.00  0.00     0.066 C 
ENDBRANCH  15  16
ENDBRANCH  13  15
ENDBRANCH   8  13
ENDBRANCH   5   7
ENDBRANCH   4   5
ENDBRANCH   3   4
ENDBRANCH   2   3
ENDBRANCH   1   2
BRANCH   1  26
ATOM     26  C   UNL     1      -5.201  -5.132  -8.434  1.00  0.00     0.202 C 
BRANCH  26  27
ATOM     27  C   UNL     1      -5.787  -6.158  -7.475  1.00  0.00     0.261 C 
BRANCH  27  28
ATOM     28  O   UNL     1      -4.879  -7.210  -7.197  1.00  0.00    -0.460 OA
BRANCH  28  29
ATOM     29  C   UNL     1      -5.106  -8.332  -7.912  1.00  0.00     0.338 C 
ATOM     30  O   UNL     1      -5.824  -8.447  -8.900  1.00  0.00    -0.246 OA
BRANCH  29  31
ATOM     31  C   UNL     1      -4.452  -9.456  -7.242  1.00  0.00     0.060 A 
ATOM     32  C   UNL     1      -4.742 -10.726  -7.746  1.00  0.00     0.016 A 
ATOM     33  C   UNL     1      -3.859  -9.264  -5.986  1.00  0.00     0.016 A 
ATOM     34  C   UNL     1      -4.669 -11.796  -6.888  1.00  0.00     0.010 A 
ATOM     35  C   UNL     1      -3.818 -10.327  -5.121  1.00  0.00     0.010 A 
ATOM     36  C   UNL     1      -4.308 -11.555  -5.561  1.00  0.00    -0.014 A 
BRANCH  36  37
ATOM     37  C   UNL     1      -4.459 -12.634  -4.615  1.00  0.00     0.031 A 
ATOM     38  C   UNL     1      -3.308 -13.551  -4.582  1.00  0.00     0.074 A 
ATOM     39  C   UNL     1      -5.499 -12.676  -3.764  1.00  0.00     0.049 A 
ATOM     40  N   UNL     1      -3.244 -14.767  -5.009  1.00  0.00    -0.248 NA
ATOM     41  C   UNL     1      -2.011 -12.969  -4.198  1.00  0.00     0.031 C 
ATOM     42  C   UNL     1      -6.486 -11.618  -3.518  1.00  0.00     0.029 A 
ATOM     43  N   UNL     1      -5.808 -13.618  -2.835  1.00  0.00    -0.354 N 
ATOM     44  C   UNL     1      -1.947 -15.173  -4.723  1.00  0.00     0.074 A 
ATOM     45  C   UNL     1      -1.188 -13.973  -4.487  1.00  0.00     0.031 C 
ATOM     46  C   UNL     1      -7.126 -11.879  -2.357  1.00  0.00     0.029 A 
ATOM     47  C   UNL     1      -6.681 -13.169  -1.855  1.00  0.00     0.049 A 
ATOM     48  H   UNL     1      -5.447 -14.533  -2.856  1.00  0.00     0.167 HD
ATOM     49  C   UNL     1      -1.668 -16.452  -4.356  1.00  0.00     0.031 A 
ATOM     50  C   UNL     1      -6.935 -13.773  -0.669  1.00  0.00     0.031 A 
ATOM     51  C   UNL     1      -2.756 -17.345  -4.657  1.00  0.00     0.049 A 
ATOM     52  C   UNL     1      -6.487 -15.184  -0.777  1.00  0.00     0.074 A 
ATOM     53  C   UNL     1      -3.396 -17.760  -5.805  1.00  0.00     0.029 A 
ATOM     54  N   UNL     1      -3.581 -17.664  -3.603  1.00  0.00    -0.354 N 
ATOM     55  N   UNL     1      -7.042 -16.062  -1.566  1.00  0.00    -0.248 NA
ATOM     56  C   UNL     1      -5.158 -15.540  -0.299  1.00  0.00     0.031 C 
ATOM     57  C   UNL     1      -4.748 -18.000  -5.423  1.00  0.00     0.029 A 
ATOM     58  C   UNL     1      -4.872 -17.751  -4.054  1.00  0.00     0.049 A 
ATOM     59  H   UNL     1      -3.290 -17.806  -2.674  1.00  0.00     0.167 HD
ATOM     60  C   UNL     1      -5.997 -16.859  -2.010  1.00  0.00     0.074 A 
ATOM     61  C   UNL     1      -4.898 -16.582  -1.093  1.00  0.00     0.031 C 
ATOM     62  C   UNL     1      -6.036 -17.445  -3.243  1.00  0.00     0.031 A 
BRANCH  49  63
ATOM     63  C   UNL     1      -0.631 -16.789  -3.306  1.00  0.00    -0.014 A 
ATOM     64  C   UNL     1      -0.382 -18.143  -3.013  1.00  0.00     0.010 A 
ATOM     65  C   UNL     1      -0.110 -15.836  -2.404  1.00  0.00     0.010 A 
ATOM     66  C   UNL     1       0.281 -18.520  -1.838  1.00  0.00     0.020 A 
ATOM     67  C   UNL     1       0.596 -16.197  -1.258  1.00  0.00     0.020 A 
ATOM     68  C   UNL     1       0.749 -17.541  -0.960  1.00  0.00     0.054 A 
BRANCH  68  69
ATOM     69  S   UNL     1       1.481 -18.027   0.619  1.00  0.00     0.124 S 
ATOM     70  O   UNL     1       0.329 -18.584   1.319  1.00  0.00    -0.237 OA
ATOM     71  O   UNL     1       2.501 -18.985   0.204  1.00  0.00    -0.237 OA
ATOM     72  O   UNL     1       1.996 -16.769   1.157  1.00  0.00    -0.744 OA
ENDBRANCH  68  69
ENDBRANCH  49  63
BRANCH  50  73
ATOM     73  C   UNL     1      -7.234 -13.110   0.623  1.00  0.00    -0.014 A 
ATOM     74  C   UNL     1      -7.783 -13.824   1.702  1.00  0.00     0.010 A 
ATOM     75  C   UNL     1      -6.745 -11.810   0.878  1.00  0.00     0.010 A 
ATOM     76  C   UNL     1      -7.804 -13.274   2.995  1.00  0.00     0.020 A 
ATOM     77  C   UNL     1      -6.772 -11.251   2.159  1.00  0.00     0.020 A 
ATOM     78  C   UNL     1      -7.284 -11.995   3.218  1.00  0.00     0.054 A 
BRANCH  78  79
ATOM     79  S   UNL     1      -7.176 -11.352   4.913  1.00  0.00     0.124 S 
ATOM     80  O   UNL     1      -8.578 -11.121   5.247  1.00  0.00    -0.237 OA
ATOM     81  O   UNL     1      -6.527 -12.448   5.628  1.00  0.00    -0.237 OA
ATOM     82  O   UNL     1      -6.366 -10.143   4.772  1.00  0.00    -0.744 OA
ENDBRANCH  78  79
ENDBRANCH  50  73
BRANCH  62  83
ATOM     83  C   UNL     1      -7.378 -17.579  -3.921  1.00  0.00    -0.014 A 
ATOM     84  C   UNL     1      -8.163 -16.484  -4.329  1.00  0.00     0.010 A 
ATOM     85  C   UNL     1      -7.790 -18.875  -4.282  1.00  0.00     0.010 A 
ATOM     86  C   UNL     1      -9.341 -16.686  -5.064  1.00  0.00     0.020 A 
ATOM     87  C   UNL     1      -8.950 -19.081  -5.029  1.00  0.00     0.020 A 
ATOM     88  C   UNL     1      -9.725 -17.985  -5.412  1.00  0.00     0.054 A 
BRANCH  88  89
ATOM     89  S   UNL     1     -11.214 -18.236  -6.418  1.00  0.00     0.124 S 
ATOM     90  O   UNL     1     -12.287 -17.899  -5.487  1.00  0.00    -0.237 OA
ATOM     91  O   UNL     1     -11.022 -17.300  -7.523  1.00  0.00    -0.237 OA
ATOM     92  O   UNL     1     -11.145 -19.648  -6.796  1.00  0.00    -0.744 OA
ENDBRANCH  88  89
ENDBRANCH  62  83
ENDBRANCH  36  37
ENDBRANCH  29  31
ENDBRANCH  28  29
ENDBRANCH  27  28
ENDBRANCH  26  27
ENDBRANCH   1  26
TORSDOF 20
