REMARK SMILES O=C(OCCOCCOC(=O)c1ccc(C[NH2+]Cc2cc(F)ccc2F)nc1)c1ccc(-c2c3nc(c(-c4ccc(S(=O)(=O)[O-])cc4)c4ccc([nH]4)c(-c4ccc(S(=O)(=O)[O-])cc4)c4nc(c(-c5ccc(S(=O)(=O)[O-])cc5)c5ccc2[nH]5)C=C4)C=C3)cc1
REMARK SMILES IDX 7 1 6 2 5 3 4 4 3 5 2 6 1 7 29 8 30 9 88 10 31 11 87 12
REMARK SMILES IDX 32 13 33 14 34 15 81 16 35 17 86 18 80 19 82 20 36 21 85 22
REMARK SMILES IDX 79 23 78 24 37 26 67 27 48 28 66 29 49 30 52 31 65 32 83 33
REMARK SMILES IDX 50 34 51 35 64 37 84 38 53 39 38 40 39 41 47 42 40 43 46 44
REMARK SMILES IDX 41 45 42 46 43 47 44 48 45 49 68 50 69 51 77 52 70 53 76 54
REMARK SMILES IDX 71 55 72 56 73 57 74 58 75 59 54 60 55 61 63 62 56 63 62 64
REMARK SMILES IDX 57 65 58 66 59 67 60 68 61 69 8 70 9 71 10 72 11 73 12 74
REMARK SMILES IDX 13 75 28 76 14 77 27 78 15 79 16 80 17 81 18 84 19 85 20 86
REMARK SMILES IDX 25 87 21 88 24 89 26 90 22 91 23 92
REMARK H PARENT 82 25 52 36 17 82 17 83
REMARK Flexibility Score: inf
ROOT
ATOM      1  C   UNL     1       2.610   1.285   1.806  1.00  0.00     0.202 C 
ENDROOT
BRANCH   1   2
ATOM      2  O   UNL     1       3.954   1.248   1.304  1.00  0.00    -0.374 OA
BRANCH   2   3
ATOM      3  C   UNL     1       4.138   1.752  -0.022  1.00  0.00     0.202 C 
BRANCH   3   4
ATOM      4  C   UNL     1       3.811   0.762  -1.145  1.00  0.00     0.261 C 
BRANCH   4   5
ATOM      5  O   UNL     1       2.442   0.331  -1.051  1.00  0.00    -0.460 OA
BRANCH   5   6
ATOM      6  C   UNL     1       1.970  -0.890  -0.701  1.00  0.00     0.338 C 
ATOM      7  O   UNL     1       0.766  -1.109  -0.814  1.00  0.00    -0.246 OA
BRANCH   6   8
ATOM      8  C   UNL     1       2.837  -1.983  -0.165  1.00  0.00     0.060 A 
ATOM      9  C   UNL     1       4.030  -1.777   0.528  1.00  0.00     0.016 A 
ATOM     10  C   UNL     1       2.362  -3.301  -0.279  1.00  0.00     0.016 A 
ATOM     11  C   UNL     1       4.775  -2.836   1.022  1.00  0.00     0.010 A 
ATOM     12  C   UNL     1       3.076  -4.372   0.271  1.00  0.00     0.010 A 
ATOM     13  C   UNL     1       4.295  -4.138   0.914  1.00  0.00    -0.014 A 
BRANCH  13  14
ATOM     14  C   UNL     1       5.133  -5.221   1.460  1.00  0.00     0.031 A 
ATOM     15  C   UNL     1       5.907  -6.084   0.512  1.00  0.00     0.074 A 
ATOM     16  C   UNL     1       5.301  -5.304   2.794  1.00  0.00     0.049 A 
ATOM     17  N   UNL     1       6.724  -7.066   0.776  1.00  0.00    -0.248 NA
ATOM     18  C   UNL     1       5.758  -5.790  -0.924  1.00  0.00     0.031 C 
ATOM     19  C   UNL     1       4.667  -4.420   3.780  1.00  0.00     0.029 A 
ATOM     20  N   UNL     1       6.086  -6.132   3.550  1.00  0.00    -0.354 N 
ATOM     21  C   UNL     1       7.176  -7.518  -0.457  1.00  0.00     0.074 A 
ATOM     22  C   UNL     1       6.537  -6.711  -1.472  1.00  0.00     0.031 C 
ATOM     23  C   UNL     1       5.121  -4.730   5.005  1.00  0.00     0.029 A 
ATOM     24  C   UNL     1       6.018  -5.873   4.900  1.00  0.00     0.049 A 
ATOM     25  H   UNL     1       6.645  -6.845   3.165  1.00  0.00     0.167 HD
ATOM     26  C   UNL     1       8.044  -8.524  -0.711  1.00  0.00     0.031 A 
ATOM     27  C   UNL     1       6.598  -6.512   5.934  1.00  0.00     0.031 A 
ATOM     28  C   UNL     1       8.647  -9.322   0.321  1.00  0.00     0.049 A 
ATOM     29  C   UNL     1       7.478  -7.692   5.620  1.00  0.00     0.074 A 
ATOM     30  C   UNL     1       9.474 -10.422   0.193  1.00  0.00     0.029 A 
ATOM     31  N   UNL     1       8.485  -9.095   1.682  1.00  0.00    -0.354 N 
ATOM     32  N   UNL     1       7.840  -8.159   4.447  1.00  0.00    -0.248 NA
ATOM     33  C   UNL     1       8.013  -8.441   6.763  1.00  0.00     0.031 C 
ATOM     34  C   UNL     1       9.776 -10.887   1.478  1.00  0.00     0.029 A 
ATOM     35  C   UNL     1       9.182 -10.044   2.406  1.00  0.00     0.049 A 
ATOM     36  H   UNL     1       7.952  -8.366   2.073  1.00  0.00     0.167 HD
ATOM     37  C   UNL     1       8.652  -9.255   4.710  1.00  0.00     0.074 A 
ATOM     38  C   UNL     1       8.753  -9.358   6.154  1.00  0.00     0.031 C 
ATOM     39  C   UNL     1       9.252 -10.109   3.844  1.00  0.00     0.031 A 
BRANCH  26  40
ATOM     40  C   UNL     1       8.323  -8.847  -2.152  1.00  0.00    -0.014 A 
ATOM     41  C   UNL     1       9.135  -8.017  -2.946  1.00  0.00     0.010 A 
ATOM     42  C   UNL     1       7.758 -10.001  -2.724  1.00  0.00     0.010 A 
ATOM     43  C   UNL     1       9.350  -8.318  -4.295  1.00  0.00     0.020 A 
ATOM     44  C   UNL     1       7.987 -10.317  -4.066  1.00  0.00     0.020 A 
ATOM     45  C   UNL     1       8.769  -9.465  -4.847  1.00  0.00     0.054 A 
BRANCH  45  46
ATOM     46  S   UNL     1       9.071  -9.839  -6.597  1.00  0.00     0.124 S 
ATOM     47  O   UNL     1       8.258  -8.826  -7.266  1.00  0.00    -0.237 OA
ATOM     48  O   UNL     1      10.516  -9.664  -6.718  1.00  0.00    -0.237 OA
ATOM     49  O   UNL     1       8.598 -11.213  -6.745  1.00  0.00    -0.744 OA
ENDBRANCH  45  46
ENDBRANCH  26  40
BRANCH  27  50
ATOM     50  C   UNL     1       6.306  -6.110   7.339  1.00  0.00    -0.014 A 
ATOM     51  C   UNL     1       7.317  -5.627   8.188  1.00  0.00     0.010 A 
ATOM     52  C   UNL     1       4.999  -6.239   7.848  1.00  0.00     0.010 A 
ATOM     53  C   UNL     1       7.034  -5.315   9.524  1.00  0.00     0.020 A 
ATOM     54  C   UNL     1       4.705  -5.898   9.171  1.00  0.00     0.020 A 
ATOM     55  C   UNL     1       5.730  -5.458  10.008  1.00  0.00     0.054 A 
BRANCH  55  56
ATOM     56  S   UNL     1       5.378  -5.047  11.741  1.00  0.00     0.124 S 
ATOM     57  O   UNL     1       5.942  -6.194  12.444  1.00  0.00    -0.237 OA
ATOM     58  O   UNL     1       6.088  -3.783  11.919  1.00  0.00    -0.237 OA
ATOM     59  O   UNL     1       3.921  -4.944  11.777  1.00  0.00    -0.744 OA
ENDBRANCH  55  56
ENDBRANCH  27  50
BRANCH  39  60
ATOM     60  C   UNL     1      10.081 -11.207   4.446  1.00  0.00    -0.014 A 
ATOM     61  C   UNL     1       9.474 -12.307   5.077  1.00  0.00     0.010 A 
ATOM     62  C   UNL     1      11.482 -11.155   4.339  1.00  0.00     0.010 A 
ATOM     63  C   UNL     1      10.260 -13.323   5.623  1.00  0.00     0.020 A 
ATOM     64  C   UNL     1      12.268 -12.183   4.860  1.00  0.00     0.020 A 
ATOM     65  C   UNL     1      11.652 -13.253   5.513  1.00  0.00     0.054 A 
BRANCH  65  66
ATOM     66  S   UNL     1      12.650 -14.603   6.196  1.00  0.00     0.124 S 
ATOM     67  O   UNL     1      12.599 -14.323   7.628  1.00  0.00    -0.237 OA
ATOM     68  O   UNL     1      11.923 -15.793   5.760  1.00  0.00    -0.237 OA
ATOM     69  O   UNL     1      13.957 -14.416   5.570  1.00  0.00    -0.744 OA
ENDBRANCH  65  66
ENDBRANCH  39  60
ENDBRANCH  13  14
ENDBRANCH   6   8
ENDBRANCH   5   6
ENDBRANCH   4   5
ENDBRANCH   3   4
ENDBRANCH   2   3
ENDBRANCH   1   2
BRANCH   1  70
ATOM     70  C   UNL     1       2.616   1.792   3.253  1.00  0.00     0.261 C 
BRANCH  70  71
ATOM     71  O   UNL     1       3.080   3.151   3.240  1.00  0.00    -0.460 OA
BRANCH  71  72
ATOM     72  C   UNL     1       4.430   3.268   3.299  1.00  0.00     0.339 C 
ATOM     73  O   UNL     1       5.220   2.500   3.820  1.00  0.00    -0.246 OA
BRANCH  72  74
ATOM     74  C   UNL     1       4.822   4.361   2.400  1.00  0.00     0.078 A 
ATOM     75  C   UNL     1       4.047   5.501   2.197  1.00  0.00     0.019 A 
ATOM     76  C   UNL     1       5.973   4.198   1.647  1.00  0.00     0.127 A 
ATOM     77  C   UNL     1       4.466   6.444   1.262  1.00  0.00     0.031 A 
ATOM     78  N   UNL     1       6.386   5.087   0.715  1.00  0.00    -0.254 NA
ATOM     79  C   UNL     1       5.643   6.212   0.548  1.00  0.00     0.094 A 
BRANCH  79  80
ATOM     80  C   UNL     1       6.230   7.299  -0.340  1.00  0.00     0.318 C 
BRANCH  80  81
ATOM     81  N   UNL     1       7.538   7.719   0.173  1.00  0.00    -0.337 N 
ATOM     82  H   UNL     1       8.250   7.124  -0.251  1.00  0.00     0.346 HD
ATOM     83  H   UNL     1       7.487   7.632   1.188  1.00  0.00     0.346 HD
BRANCH  81  84
ATOM     84  C   UNL     1       7.888   9.100  -0.097  1.00  0.00     0.300 C 
BRANCH  84  85
ATOM     85  C   UNL     1       7.177  10.174   0.696  1.00  0.00     0.045 A 
ATOM     86  C   UNL     1       7.381  11.510   0.308  1.00  0.00     0.051 A 
ATOM     87  C   UNL     1       6.371   9.945   1.820  1.00  0.00     0.132 A 
ATOM     88  C   UNL     1       6.768  12.552   1.000  1.00  0.00     0.123 A 
ATOM     89  C   UNL     1       5.738  10.989   2.497  1.00  0.00     0.043 A 
ATOM     90  F   UNL     1       6.184   8.707   2.292  1.00  0.00    -0.206 F 
ATOM     91  F   UNL     1       6.988  13.815   0.614  1.00  0.00    -0.207 F 
ATOM     92  C   UNL     1       5.936  12.303   2.083  1.00  0.00     0.042 A 
ENDBRANCH  84  85
ENDBRANCH  81  84
ENDBRANCH  80  81
ENDBRANCH  79  80
ENDBRANCH  72  74
ENDBRANCH  71  72
ENDBRANCH  70  71
ENDBRANCH   1  70
TORSDOF 21
