REMARK SMILES C[C@@H](C(=O)OCCOCCOC(=O)c1ccc(-c2c3nc(c(-c4ccc(S(=O)(=O)[O-])cc4)c4ccc([nH]4)c(-c4ccc(S(=O)(=O)[O-])cc4)c4nc(c(-c5ccc(S(=O)(=O)[O-])cc5)c5ccc2[nH]5)C=C4)C=C3)cc1)c1ccc(C[SiH](C)C)cc1
REMARK SMILES IDX 8 1 7 2 6 3 5 4 3 5 4 6 2 7 1 8 74 9 75 10 83 11 76 12 82 13
REMARK SMILES IDX 77 14 78 15 79 16 80 17 81 18 9 20 10 21 11 22 12 23 13 24
REMARK SMILES IDX 14 25 15 26 73 27 16 28 72 29 17 30 18 31 19 32 66 33 20 34
REMARK SMILES IDX 71 35 65 36 67 37 21 38 70 39 64 40 63 41 22 43 52 44 33 45
REMARK SMILES IDX 51 46 34 47 37 48 50 49 68 50 35 51 36 52 49 54 69 55 38 56
REMARK SMILES IDX 23 57 24 58 32 59 25 60 31 61 26 62 27 63 28 64 29 65 30 66
REMARK SMILES IDX 53 67 54 68 62 69 55 70 61 71 56 72 57 73 58 74 59 75 60 76
REMARK SMILES IDX 39 77 40 78 48 79 41 80 47 81 42 82 43 83 44 84 45 85 46 86
REMARK H PARENT 79 19 67 42 37 53
REMARK Flexibility Score: inf
ROOT
ATOM      1  O   UNL     1       0.858   1.556  -4.398  1.00  0.00    -0.374 OA
ENDROOT
BRANCH   1   2
ATOM      2  C   UNL     1       2.160   2.108  -4.203  1.00  0.00     0.202 C 
BRANCH   2   3
ATOM      3  C   UNL     1       2.364   2.942  -2.936  1.00  0.00     0.261 C 
BRANCH   3   4
ATOM      4  O   UNL     1       2.052   2.174  -1.763  1.00  0.00    -0.463 OA
BRANCH   4   5
ATOM      5  C   UNL     1       1.309   2.817  -0.823  1.00  0.00     0.313 C 
ATOM      6  O   UNL     1       1.099   4.027  -0.825  1.00  0.00    -0.252 OA
BRANCH   5   7
ATOM      7  C   UNL     1       0.696   1.857   0.209  1.00  0.00     0.126 C 
ATOM      8  C   UNL     1       1.487   0.546   0.322  1.00  0.00     0.025 C 
BRANCH   7   9
ATOM      9  C   UNL     1      -0.821   1.693   0.042  1.00  0.00    -0.034 A 
ATOM     10  C   UNL     1      -1.625   2.837  -0.097  1.00  0.00     0.005 A 
ATOM     11  C   UNL     1      -1.479   0.454   0.099  1.00  0.00     0.005 A 
ATOM     12  C   UNL     1      -3.016   2.752  -0.174  1.00  0.00     0.004 A 
ATOM     13  C   UNL     1      -2.882   0.370   0.063  1.00  0.00     0.004 A 
ATOM     14  C   UNL     1      -3.667   1.522  -0.048  1.00  0.00    -0.051 A 
BRANCH  14  15
ATOM     15  C   UNL     1      -5.178   1.457  -0.005  1.00  0.00     0.021 C 
BRANCH  15  16
ATOM     16  Si  UNL     1      -5.991   2.149   1.569  1.00  0.00     0.035 Si
ATOM     17  C   UNL     1      -5.509   3.930   1.860  1.00  0.00    -0.013 C 
ATOM     18  C   UNL     1      -7.851   2.039   1.442  1.00  0.00    -0.013 C 
ATOM     19  H   UNL     1      -5.532   1.365   2.660  1.00  0.00     0.014 H 
ENDBRANCH  15  16
ENDBRANCH  14  15
ENDBRANCH   7   9
ENDBRANCH   5   7
ENDBRANCH   4   5
ENDBRANCH   3   4
ENDBRANCH   2   3
ENDBRANCH   1   2
BRANCH   1  20
ATOM     20  C   UNL     1       0.467   0.464  -3.561  1.00  0.00     0.202 C 
BRANCH  20  21
ATOM     21  C   UNL     1       1.164  -0.883  -3.802  1.00  0.00     0.261 C 
BRANCH  21  22
ATOM     22  O   UNL     1       2.572  -0.852  -3.498  1.00  0.00    -0.460 OA
BRANCH  22  23
ATOM     23  C   UNL     1       3.385  -1.096  -4.553  1.00  0.00     0.338 C 
ATOM     24  O   UNL     1       3.044  -1.403  -5.691  1.00  0.00    -0.246 OA
BRANCH  23  25
ATOM     25  C   UNL     1       4.783  -0.767  -4.223  1.00  0.00     0.060 A 
ATOM     26  C   UNL     1       5.439   0.167  -5.036  1.00  0.00     0.016 A 
ATOM     27  C   UNL     1       5.474  -1.427  -3.205  1.00  0.00     0.016 A 
ATOM     28  C   UNL     1       6.800   0.411  -4.866  1.00  0.00     0.010 A 
ATOM     29  C   UNL     1       6.846  -1.188  -3.043  1.00  0.00     0.010 A 
ATOM     30  C   UNL     1       7.522  -0.296  -3.895  1.00  0.00    -0.014 A 
BRANCH  30  31
ATOM     31  C   UNL     1       9.003  -0.205  -3.879  1.00  0.00     0.031 A 
ATOM     32  C   UNL     1       9.810  -1.285  -4.550  1.00  0.00     0.074 A 
ATOM     33  C   UNL     1       9.624   0.847  -3.315  1.00  0.00     0.049 A 
ATOM     34  N   UNL     1      11.108  -1.405  -4.652  1.00  0.00    -0.248 NA
ATOM     35  C   UNL     1       9.051  -2.371  -5.192  1.00  0.00     0.031 C 
ATOM     36  C   UNL     1       8.957   1.979  -2.674  1.00  0.00     0.029 A 
ATOM     37  N   UNL     1      10.962   1.130  -3.192  1.00  0.00    -0.354 N 
ATOM     38  C   UNL     1      11.324  -2.578  -5.367  1.00  0.00     0.074 A 
ATOM     39  C   UNL     1      10.024  -3.147  -5.647  1.00  0.00     0.031 C 
ATOM     40  C   UNL     1       9.890   2.832  -2.217  1.00  0.00     0.029 A 
ATOM     41  C   UNL     1      11.218   2.294  -2.507  1.00  0.00     0.049 A 
ATOM     42  H   UNL     1      11.671   0.554  -3.559  1.00  0.00     0.167 HD
ATOM     43  C   UNL     1      12.497  -3.129  -5.762  1.00  0.00     0.031 A 
ATOM     44  C   UNL     1      12.388   2.853  -2.140  1.00  0.00     0.031 A 
ATOM     45  C   UNL     1      13.791  -2.573  -5.469  1.00  0.00     0.049 A 
ATOM     46  C   UNL     1      13.682   2.185  -2.526  1.00  0.00     0.074 A 
ATOM     47  C   UNL     1      15.037  -3.057  -5.828  1.00  0.00     0.029 A 
ATOM     48  N   UNL     1      14.008  -1.413  -4.741  1.00  0.00    -0.354 N 
ATOM     49  N   UNL     1      13.867   1.085  -3.216  1.00  0.00    -0.248 NA
ATOM     50  C   UNL     1      14.924   2.839  -2.090  1.00  0.00     0.031 C 
ATOM     51  C   UNL     1      16.009  -2.216  -5.275  1.00  0.00     0.029 A 
ATOM     52  C   UNL     1      15.367  -1.178  -4.619  1.00  0.00     0.049 A 
ATOM     53  H   UNL     1      13.300  -0.841  -4.366  1.00  0.00     0.167 HD
ATOM     54  C   UNL     1      15.246   0.928  -3.318  1.00  0.00     0.074 A 
ATOM     55  C   UNL     1      15.846   2.053  -2.630  1.00  0.00     0.031 C 
ATOM     56  C   UNL     1      15.951  -0.056  -3.929  1.00  0.00     0.031 A 
BRANCH  43  57
ATOM     57  C   UNL     1      12.430  -4.422  -6.529  1.00  0.00    -0.014 A 
ATOM     58  C   UNL     1      11.986  -4.455  -7.863  1.00  0.00     0.010 A 
ATOM     59  C   UNL     1      12.846  -5.618  -5.916  1.00  0.00     0.010 A 
ATOM     60  C   UNL     1      11.921  -5.666  -8.557  1.00  0.00     0.020 A 
ATOM     61  C   UNL     1      12.806  -6.828  -6.615  1.00  0.00     0.020 A 
ATOM     62  C   UNL     1      12.326  -6.846  -7.927  1.00  0.00     0.054 A 
BRANCH  62  63
ATOM     63  S   UNL     1      12.244  -8.403  -8.854  1.00  0.00     0.124 S 
ATOM     64  O   UNL     1      10.808  -8.669  -8.868  1.00  0.00    -0.237 OA
ATOM     65  O   UNL     1      12.828  -8.040 -10.143  1.00  0.00    -0.237 OA
ATOM     66  O   UNL     1      13.041  -9.327  -8.052  1.00  0.00    -0.744 OA
ENDBRANCH  62  63
ENDBRANCH  43  57
BRANCH  44  67
ATOM     67  C   UNL     1      12.390   4.107  -1.338  1.00  0.00    -0.014 A 
ATOM     68  C   UNL     1      12.813   5.323  -1.902  1.00  0.00     0.010 A 
ATOM     69  C   UNL     1      11.960   4.087   0.001  1.00  0.00     0.010 A 
ATOM     70  C   UNL     1      12.818   6.493  -1.137  1.00  0.00     0.020 A 
ATOM     71  C   UNL     1      11.939   5.259   0.761  1.00  0.00     0.020 A 
ATOM     72  C   UNL     1      12.379   6.454   0.190  1.00  0.00     0.054 A 
BRANCH  72  73
ATOM     73  S   UNL     1      12.339   7.994   1.149  1.00  0.00     0.124 S 
ATOM     74  O   UNL     1      13.751   8.200   1.452  1.00  0.00    -0.237 OA
ATOM     75  O   UNL     1      11.749   8.940   0.203  1.00  0.00    -0.237 OA
ATOM     76  O   UNL     1      11.493   7.661   2.293  1.00  0.00    -0.744 OA
ENDBRANCH  72  73
ENDBRANCH  44  67
BRANCH  56  77
ATOM     77  C   UNL     1      17.453   0.050  -3.909  1.00  0.00    -0.014 A 
ATOM     78  C   UNL     1      18.187  -0.204  -2.737  1.00  0.00     0.010 A 
ATOM     79  C   UNL     1      18.143   0.351  -5.099  1.00  0.00     0.010 A 
ATOM     80  C   UNL     1      19.583  -0.130  -2.748  1.00  0.00     0.020 A 
ATOM     81  C   UNL     1      19.539   0.401  -5.119  1.00  0.00     0.020 A 
ATOM     82  C   UNL     1      20.250   0.174  -3.939  1.00  0.00     0.054 A 
BRANCH  82  83
ATOM     83  S   UNL     1      22.064   0.221  -3.939  1.00  0.00     0.124 S 
ATOM     84  O   UNL     1      22.335   1.490  -3.268  1.00  0.00    -0.237 OA
ATOM     85  O   UNL     1      22.418  -0.978  -3.183  1.00  0.00    -0.237 OA
ATOM     86  O   UNL     1      22.412   0.180  -5.358  1.00  0.00    -0.744 OA
ENDBRANCH  82  83
ENDBRANCH  56  77
ENDBRANCH  30  31
ENDBRANCH  23  25
ENDBRANCH  22  23
ENDBRANCH  21  22
ENDBRANCH  20  21
ENDBRANCH   1  20
TORSDOF 20
