REMARK SMILES COc1ccc([C@H]2CC(c3ccc(S(C)(=O)=O)cc3)=NN2c2ccc(C(=O)OCCOCCOC(=O)c3ccc(-c4c5nc(c(-c6ccc(S(=O)(=O)[O-])cc6)c6ccc([nH]6)c(-c6ccc(S(=O)(=O)[O-])cc6)c6nc(c(-c7ccc(S(=O)(=O)[O-])cc7)c7ccc4[nH]7)C=C6)C=C5)cc3)cc2)cc1OC
REMARK SMILES IDX 31 1 30 2 29 3 28 4 26 5 27 6 25 7 22 8 23 9 98 10 24 11
REMARK SMILES IDX 97 12 21 13 7 14 8 15 9 16 20 17 6 18 3 19 4 20 100 21 5 22
REMARK SMILES IDX 99 23 2 24 1 25 101 26 102 27 10 28 11 29 19 30 12 31 18 32
REMARK SMILES IDX 13 33 14 34 15 35 16 36 17 37 32 38 33 39 34 40 35 41 36 42
REMARK SMILES IDX 37 43 38 44 96 45 39 46 95 47 40 48 41 49 42 50 89 51 43 52
REMARK SMILES IDX 94 53 88 54 90 55 44 56 93 57 87 58 86 59 45 61 75 62 56 63
REMARK SMILES IDX 74 64 57 65 60 66 73 67 91 68 58 69 59 70 72 72 92 73 61 74
REMARK SMILES IDX 46 75 47 76 55 77 48 78 54 79 49 80 50 81 51 82 52 83 53 84
REMARK SMILES IDX 76 85 77 86 85 87 78 88 84 89 79 90 80 91 81 92 82 93 83 94
REMARK SMILES IDX 62 95 63 96 71 97 64 98 70 99 65 100 66 101 67 102 68 103
REMARK SMILES IDX 69 104
REMARK H PARENT 90 60 60 71
REMARK Flexibility Score: inf
ROOT
ATOM      1  O   UNL     1       4.195  -7.950  -8.489  1.00  0.00    -0.374 OA
ENDROOT
BRANCH   1   2
ATOM      2  C   UNL     1       2.821  -8.323  -8.603  1.00  0.00     0.202 C 
BRANCH   2   3
ATOM      3  C   UNL     1       1.871  -7.759  -7.542  1.00  0.00     0.261 C 
BRANCH   3   4
ATOM      4  O   UNL     1       1.829  -6.323  -7.566  1.00  0.00    -0.460 OA
BRANCH   4   5
ATOM      5  C   UNL     1       2.463  -5.722  -6.529  1.00  0.00     0.338 C 
ATOM      6  O   UNL     1       2.964  -6.269  -5.561  1.00  0.00    -0.246 OA
BRANCH   5   7
ATOM      7  C   UNL     1       2.610  -4.271  -6.787  1.00  0.00     0.060 A 
ATOM      8  C   UNL     1       2.942  -1.488  -7.040  1.00  0.00     0.060 A 
ATOM      9  C   UNL     1       3.959  -2.283  -6.497  1.00  0.00     0.029 A 
ATOM     10  C   UNL     1       1.789  -2.125  -7.527  1.00  0.00     0.029 A 
ATOM     11  C   UNL     1       3.786  -3.658  -6.343  1.00  0.00     0.018 A 
ATOM     12  C   UNL     1       1.625  -3.512  -7.421  1.00  0.00     0.018 A 
BRANCH   8  13
ATOM     13  N   UNL     1       3.048  -0.101  -7.027  1.00  0.00    -0.257 N 
ATOM     14  C   UNL     1       2.064   0.749  -6.346  1.00  0.00     0.144 C 
ATOM     15  C   UNL     1       2.718   2.134  -6.410  1.00  0.00     0.091 C 
ATOM     16  C   UNL     1       4.053   1.772  -6.999  1.00  0.00     0.071 C 
ATOM     17  N   UNL     1       4.222   0.527  -7.317  1.00  0.00    -0.176 NA
BRANCH  14  18
ATOM     18  C   UNL     1       1.785   0.309  -4.912  1.00  0.00    -0.019 A 
ATOM     19  C   UNL     1       1.256  -0.521  -2.266  1.00  0.00     0.160 A 
ATOM     20  C   UNL     1       0.223  -0.448  -3.211  1.00  0.00     0.051 A 
ATOM     21  C   UNL     1       2.568  -0.210  -2.639  1.00  0.00     0.161 A 
ATOM     22  C   UNL     1       0.483  -0.028  -4.519  1.00  0.00     0.010 A 
ATOM     23  C   UNL     1       2.814   0.198  -3.959  1.00  0.00     0.056 A 
BRANCH  19  24
ATOM     24  O   UNL     1       0.963  -0.999  -1.016  1.00  0.00    -0.493 OA
ATOM     25  C   UNL     1       0.174  -0.077  -0.264  1.00  0.00     0.278 C 
ENDBRANCH  19  24
BRANCH  21  26
ATOM     26  O   UNL     1       3.704  -0.251  -1.875  1.00  0.00    -0.493 OA
ATOM     27  C   UNL     1       3.570  -0.431  -0.474  1.00  0.00     0.278 C 
ENDBRANCH  21  26
ENDBRANCH  14  18
BRANCH  16  28
ATOM     28  C   UNL     1       5.056   2.812  -7.258  1.00  0.00    -0.002 A 
ATOM     29  C   UNL     1       5.471   3.025  -8.576  1.00  0.00     0.011 A 
ATOM     30  C   UNL     1       5.550   3.598  -6.214  1.00  0.00     0.011 A 
ATOM     31  C   UNL     1       6.371   4.053  -8.861  1.00  0.00     0.021 A 
ATOM     32  C   UNL     1       6.471   4.611  -6.493  1.00  0.00     0.021 A 
ATOM     33  C   UNL     1       6.873   4.835  -7.815  1.00  0.00     0.067 A 
BRANCH  33  34
ATOM     34  S   UNL     1       8.004   6.157  -8.187  1.00  0.00     0.175 S 
ATOM     35  C   UNL     1       9.406   5.348  -8.913  1.00  0.00     0.163 C 
ATOM     36  O   UNL     1       7.372   6.978  -9.201  1.00  0.00    -0.224 OA
ATOM     37  O   UNL     1       8.439   6.732  -6.927  1.00  0.00    -0.224 OA
ENDBRANCH  33  34
ENDBRANCH  16  28
ENDBRANCH   8  13
ENDBRANCH   5   7
ENDBRANCH   4   5
ENDBRANCH   3   4
ENDBRANCH   2   3
ENDBRANCH   1   2
BRANCH   1  38
ATOM     38  C   UNL     1       4.564  -6.673  -9.015  1.00  0.00     0.202 C 
BRANCH  38  39
ATOM     39  C   UNL     1       4.737  -6.588 -10.536  1.00  0.00     0.261 C 
BRANCH  39  40
ATOM     40  O   UNL     1       3.485  -6.731 -11.231  1.00  0.00    -0.460 OA
BRANCH  40  41
ATOM     41  C   UNL     1       3.350  -7.885 -11.930  1.00  0.00     0.338 C 
ATOM     42  O   UNL     1       4.191  -8.753 -12.088  1.00  0.00    -0.246 OA
BRANCH  41  43
ATOM     43  C   UNL     1       1.945  -8.052 -12.352  1.00  0.00     0.060 A 
ATOM     44  C   UNL     1       1.319  -9.268 -12.048  1.00  0.00     0.016 A 
ATOM     45  C   UNL     1       1.273  -7.073 -13.087  1.00  0.00     0.016 A 
ATOM     46  C   UNL     1       0.034  -9.530 -12.519  1.00  0.00     0.010 A 
ATOM     47  C   UNL     1      -0.013  -7.342 -13.567  1.00  0.00     0.010 A 
ATOM     48  C   UNL     1      -0.625  -8.583 -13.315  1.00  0.00    -0.014 A 
BRANCH  48  49
ATOM     49  C   UNL     1      -1.893  -8.947 -13.994  1.00  0.00     0.031 A 
ATOM     50  C   UNL     1      -1.853  -9.355 -15.442  1.00  0.00     0.074 A 
ATOM     51  C   UNL     1      -3.060  -8.935 -13.326  1.00  0.00     0.049 A 
ATOM     52  N   UNL     1      -2.840  -9.675 -16.238  1.00  0.00    -0.248 NA
ATOM     53  C   UNL     1      -0.525  -9.411 -16.075  1.00  0.00     0.031 C 
ATOM     54  C   UNL     1      -3.222  -8.601 -11.911  1.00  0.00     0.029 A 
ATOM     55  N   UNL     1      -4.335  -9.207 -13.756  1.00  0.00    -0.354 N 
ATOM     56  C   UNL     1      -2.257  -9.961 -17.467  1.00  0.00     0.074 A 
ATOM     57  C   UNL     1      -0.833  -9.752 -17.319  1.00  0.00     0.031 C 
ATOM     58  C   UNL     1      -4.526  -8.681 -11.592  1.00  0.00     0.029 A 
ATOM     59  C   UNL     1      -5.292  -9.037 -12.784  1.00  0.00     0.049 A 
ATOM     60  H   UNL     1      -4.544  -9.497 -14.673  1.00  0.00     0.167 HD
ATOM     61  C   UNL     1      -2.851 -10.366 -18.615  1.00  0.00     0.031 A 
ATOM     62  C   UNL     1      -6.635  -9.136 -12.854  1.00  0.00     0.031 A 
ATOM     63  C   UNL     1      -4.269 -10.561 -18.764  1.00  0.00     0.049 A 
ATOM     64  C   UNL     1      -7.280  -9.516 -14.162  1.00  0.00     0.074 A 
ATOM     65  C   UNL     1      -4.966 -10.980 -19.884  1.00  0.00     0.029 A 
ATOM     66  N   UNL     1      -5.207 -10.346 -17.766  1.00  0.00    -0.354 N 
ATOM     67  N   UNL     1      -6.712  -9.801 -15.310  1.00  0.00    -0.248 NA
ATOM     68  C   UNL     1      -8.748  -9.593 -14.181  1.00  0.00     0.031 C 
ATOM     69  C   UNL     1      -6.331 -10.968 -19.578  1.00  0.00     0.029 A 
ATOM     70  C   UNL     1      -6.479 -10.599 -18.251  1.00  0.00     0.049 A 
ATOM     71  H   UNL     1      -4.999 -10.056 -16.848  1.00  0.00     0.167 HD
ATOM     72  C   UNL     1      -7.752 -10.119 -16.178  1.00  0.00     0.074 A 
ATOM     73  C   UNL     1      -8.981 -10.002 -15.421  1.00  0.00     0.031 C 
ATOM     74  C   UNL     1      -7.693 -10.480 -17.484  1.00  0.00     0.031 A 
BRANCH  61  75
ATOM     75  C   UNL     1      -1.969 -10.594 -19.813  1.00  0.00    -0.014 A 
ATOM     76  C   UNL     1      -1.113 -11.708 -19.885  1.00  0.00     0.010 A 
ATOM     77  C   UNL     1      -2.029  -9.705 -20.901  1.00  0.00     0.010 A 
ATOM     78  C   UNL     1      -0.307 -11.908 -21.009  1.00  0.00     0.020 A 
ATOM     79  C   UNL     1      -1.244  -9.915 -22.038  1.00  0.00     0.020 A 
ATOM     80  C   UNL     1      -0.376 -11.008 -22.078  1.00  0.00     0.054 A 
BRANCH  80  81
ATOM     81  S   UNL     1       0.661 -11.306 -23.536  1.00  0.00     0.124 S 
ATOM     82  O   UNL     1       1.988 -10.947 -23.039  1.00  0.00    -0.237 OA
ATOM     83  O   UNL     1       0.451 -12.728 -23.794  1.00  0.00    -0.237 OA
ATOM     84  O   UNL     1       0.110 -10.405 -24.544  1.00  0.00    -0.744 OA
ENDBRANCH  80  81
ENDBRANCH  61  75
BRANCH  62  85
ATOM     85  C   UNL     1      -7.465  -8.847 -11.654  1.00  0.00    -0.014 A 
ATOM     86  C   UNL     1      -8.161  -9.876 -10.995  1.00  0.00     0.010 A 
ATOM     87  C   UNL     1      -7.569  -7.531 -11.165  1.00  0.00     0.010 A 
ATOM     88  C   UNL     1      -8.958  -9.592  -9.882  1.00  0.00     0.020 A 
ATOM     89  C   UNL     1      -8.343  -7.248 -10.037  1.00  0.00     0.020 A 
ATOM     90  C   UNL     1      -9.043  -8.279  -9.410  1.00  0.00     0.054 A 
BRANCH  90  91
ATOM     91  S   UNL     1     -10.045  -7.939  -7.936  1.00  0.00     0.124 S 
ATOM     92  O   UNL     1     -11.402  -8.023  -8.466  1.00  0.00    -0.237 OA
ATOM     93  O   UNL     1      -9.651  -9.015  -7.030  1.00  0.00    -0.237 OA
ATOM     94  O   UNL     1      -9.612  -6.604  -7.530  1.00  0.00    -0.744 OA
ENDBRANCH  90  91
ENDBRANCH  62  85
BRANCH  74  95
ATOM     95  C   UNL     1      -8.990 -10.813 -18.174  1.00  0.00    -0.014 A 
ATOM     96  C   UNL     1      -9.906  -9.808 -18.531  1.00  0.00     0.010 A 
ATOM     97  C   UNL     1      -9.264 -12.148 -18.526  1.00  0.00     0.010 A 
ATOM     98  C   UNL     1     -11.087 -10.137 -19.204  1.00  0.00     0.020 A 
ATOM     99  C   UNL     1     -10.430 -12.476 -19.221  1.00  0.00     0.020 A 
ATOM    100  C   UNL     1     -11.341 -11.469 -19.544  1.00  0.00     0.054 A 
BRANCH 100 101
ATOM    101  S   UNL     1     -12.857 -11.864 -20.460  1.00  0.00     0.124 S 
ATOM    102  O   UNL     1     -13.878 -11.744 -19.423  1.00  0.00    -0.237 OA
ATOM    103  O   UNL     1     -12.886 -10.832 -21.493  1.00  0.00    -0.237 OA
ATOM    104  O   UNL     1     -12.623 -13.221 -20.950  1.00  0.00    -0.744 OA
ENDBRANCH 100 101
ENDBRANCH  74  95
ENDBRANCH  48  49
ENDBRANCH  41  43
ENDBRANCH  40  41
ENDBRANCH  39  40
ENDBRANCH  38  39
ENDBRANCH   1  38
TORSDOF 23
