REMARK SMILES CCCOc1ccc(N[C@H](C)[C@H](C)C(=O)OCCOCCOC(=O)c2ccc(-c3c4nc(c(-c5ccc(S(=O)(=O)[O-])cc5)c5ccc([nH]5)c(-c5ccc(S(=O)(=O)[O-])cc5)c5nc(c(-c6ccc(S(=O)(=O)[O-])cc6)c6ccc3[nH]6)C=C5)C=C4)cc2)cc1
REMARK SMILES IDX 17 1 16 2 14 3 15 4 12 5 13 6 10 7 11 8 9 9 8 11 5 12 6 13
REMARK SMILES IDX 86 14 7 15 85 16 4 17 3 18 2 19 1 20 18 21 19 22 20 23 21 24
REMARK SMILES IDX 22 25 23 26 24 27 25 28 26 29 84 30 27 31 83 32 28 33 29 34
REMARK SMILES IDX 30 35 77 36 31 37 82 38 76 39 78 40 32 41 81 42 75 43 74 44
REMARK SMILES IDX 33 46 63 47 44 48 62 49 45 50 48 51 61 52 79 53 46 54 47 55
REMARK SMILES IDX 60 57 80 58 49 59 34 60 35 61 43 62 36 63 42 64 37 65 38 66
REMARK SMILES IDX 39 67 40 68 41 69 64 70 65 71 73 72 66 73 72 74 67 75 68 76
REMARK SMILES IDX 69 77 70 78 71 79 50 80 51 81 59 82 52 83 58 84 53 85 54 86
REMARK SMILES IDX 55 87 56 88 57 89
REMARK H PARENT 9 10 78 45 48 56
REMARK Flexibility Score: inf
ROOT
ATOM      1  C   UNL     1       2.326   9.130  -5.591  1.00  0.00     0.261 C 
ENDROOT
BRANCH   1   2
ATOM      2  O   UNL     1       2.049   7.925  -4.858  1.00  0.00    -0.463 OA
BRANCH   2   3
ATOM      3  C   UNL     1       1.443   6.919  -5.543  1.00  0.00     0.310 C 
ATOM      4  O   UNL     1       1.109   6.962  -6.721  1.00  0.00    -0.252 OA
BRANCH   3   5
ATOM      5  C   UNL     1       1.165   5.720  -4.657  1.00  0.00     0.118 C 
ATOM      6  C   UNL     1       2.213   5.495  -3.567  1.00  0.00     0.022 C 
BRANCH   5   7
ATOM      7  C   UNL     1      -0.265   5.803  -4.088  1.00  0.00     0.090 C 
ATOM      8  C   UNL     1      -0.697   7.214  -3.670  1.00  0.00     0.031 C 
BRANCH   7   9
ATOM      9  N   UNL     1      -1.191   5.294  -5.096  1.00  0.00    -0.382 N 
ATOM     10  H   UNL     1      -0.866   5.225  -6.023  1.00  0.00     0.160 HD
BRANCH   9  11
ATOM     11  C   UNL     1      -2.492   4.904  -4.841  1.00  0.00     0.034 A 
ATOM     12  C   UNL     1      -5.140   4.063  -4.466  1.00  0.00     0.119 A 
ATOM     13  C   UNL     1      -4.300   4.196  -3.368  1.00  0.00     0.048 A 
ATOM     14  C   UNL     1      -4.698   4.401  -5.739  1.00  0.00     0.048 A 
ATOM     15  C   UNL     1      -2.979   4.607  -3.561  1.00  0.00     0.029 A 
ATOM     16  C   UNL     1      -3.373   4.788  -5.924  1.00  0.00     0.029 A 
BRANCH  12  17
ATOM     17  O   UNL     1      -6.423   3.624  -4.313  1.00  0.00    -0.494 OA
BRANCH  17  18
ATOM     18  C   UNL     1      -6.472   2.191  -4.222  1.00  0.00     0.229 C 
BRANCH  18  19
ATOM     19  C   UNL     1      -6.559   1.548  -5.610  1.00  0.00     0.038 C 
ATOM     20  C   UNL     1      -5.232   0.957  -6.071  1.00  0.00     0.007 C 
ENDBRANCH  18  19
ENDBRANCH  17  18
ENDBRANCH  12  17
ENDBRANCH   9  11
ENDBRANCH   7   9
ENDBRANCH   5   7
ENDBRANCH   3   5
ENDBRANCH   2   3
ENDBRANCH   1   2
BRANCH   1  21
ATOM     21  C   UNL     1       3.830   9.396  -5.670  1.00  0.00     0.202 C 
BRANCH  21  22
ATOM     22  O   UNL     1       4.586   8.502  -6.485  1.00  0.00    -0.374 OA
BRANCH  22  23
ATOM     23  C   UNL     1       4.814   7.183  -5.992  1.00  0.00     0.202 C 
BRANCH  23  24
ATOM     24  C   UNL     1       5.858   7.028  -4.880  1.00  0.00     0.261 C 
BRANCH  24  25
ATOM     25  O   UNL     1       5.473   7.669  -3.650  1.00  0.00    -0.460 OA
BRANCH  25  26
ATOM     26  C   UNL     1       6.226   8.747  -3.323  1.00  0.00     0.338 C 
ATOM     27  O   UNL     1       7.183   9.190  -3.947  1.00  0.00    -0.246 OA
BRANCH  26  28
ATOM     28  C   UNL     1       5.660   9.457  -2.163  1.00  0.00     0.060 A 
ATOM     29  C   UNL     1       5.445  10.835  -2.296  1.00  0.00     0.016 A 
ATOM     30  C   UNL     1       5.468   8.826  -0.932  1.00  0.00     0.016 A 
ATOM     31  C   UNL     1       5.101  11.599  -1.184  1.00  0.00     0.010 A 
ATOM     32  C   UNL     1       5.129   9.597   0.186  1.00  0.00     0.010 A 
ATOM     33  C   UNL     1       4.989  10.993   0.074  1.00  0.00    -0.014 A 
BRANCH  33  34
ATOM     34  C   UNL     1       4.893  11.847   1.283  1.00  0.00     0.031 A 
ATOM     35  C   UNL     1       6.143  12.140   2.071  1.00  0.00     0.074 A 
ATOM     36  C   UNL     1       3.722  12.399   1.647  1.00  0.00     0.049 A 
ATOM     37  N   UNL     1       6.291  12.869   3.147  1.00  0.00    -0.248 NA
ATOM     38  C   UNL     1       7.391  11.534   1.577  1.00  0.00     0.031 C 
ATOM     39  C   UNL     1       2.452  12.231   0.942  1.00  0.00     0.029 A 
ATOM     40  N   UNL     1       3.415  13.219   2.704  1.00  0.00    -0.354 N 
ATOM     41  C   UNL     1       7.644  12.806   3.463  1.00  0.00     0.074 A 
ATOM     42  C   UNL     1       8.268  11.946   2.480  1.00  0.00     0.031 C 
ATOM     43  C   UNL     1       1.499  12.924   1.590  1.00  0.00     0.029 A 
ATOM     44  C   UNL     1       2.086  13.563   2.767  1.00  0.00     0.049 A 
ATOM     45  H   UNL     1       4.084  13.531   3.356  1.00  0.00     0.167 HD
ATOM     46  C   UNL     1       8.310  13.413   4.474  1.00  0.00     0.031 A 
ATOM     47  C   UNL     1       1.416  14.296   3.678  1.00  0.00     0.031 A 
ATOM     48  C   UNL     1       7.689  14.259   5.458  1.00  0.00     0.049 A 
ATOM     49  C   UNL     1       2.165  14.907   4.832  1.00  0.00     0.074 A 
ATOM     50  C   UNL     1       8.280  14.927   6.516  1.00  0.00     0.029 A 
ATOM     51  N   UNL     1       6.334  14.549   5.509  1.00  0.00    -0.354 N 
ATOM     52  N   UNL     1       3.447  14.853   5.105  1.00  0.00    -0.248 NA
ATOM     53  C   UNL     1       1.376  15.686   5.798  1.00  0.00     0.031 C 
ATOM     54  C   UNL     1       7.275  15.583   7.235  1.00  0.00     0.029 A 
ATOM     55  C   UNL     1       6.066  15.366   6.594  1.00  0.00     0.049 A 
ATOM     56  H   UNL     1       5.662  14.222   4.868  1.00  0.00     0.167 HD
ATOM     57  C   UNL     1       3.622  15.610   6.258  1.00  0.00     0.074 A 
ATOM     58  C   UNL     1       2.317  16.120   6.627  1.00  0.00     0.031 C 
ATOM     59  C   UNL     1       4.761  15.864   6.949  1.00  0.00     0.031 A 
BRANCH  46  60
ATOM     60  C   UNL     1       9.788  13.152   4.585  1.00  0.00    -0.014 A 
ATOM     61  C   UNL     1      10.698  13.726   3.679  1.00  0.00     0.010 A 
ATOM     62  C   UNL     1      10.276  12.345   5.628  1.00  0.00     0.010 A 
ATOM     63  C   UNL     1      12.066  13.464   3.791  1.00  0.00     0.020 A 
ATOM     64  C   UNL     1      11.646  12.100   5.757  1.00  0.00     0.020 A 
ATOM     65  C   UNL     1      12.531  12.647   4.827  1.00  0.00     0.054 A 
BRANCH  65  66
ATOM     66  S   UNL     1      14.313  12.332   4.958  1.00  0.00     0.124 S 
ATOM     67  O   UNL     1      14.531  11.385   3.868  1.00  0.00    -0.237 OA
ATOM     68  O   UNL     1      14.890  13.660   4.762  1.00  0.00    -0.237 OA
ATOM     69  O   UNL     1      14.469  11.781   6.302  1.00  0.00    -0.744 OA
ENDBRANCH  65  66
ENDBRANCH  46  60
BRANCH  47  70
ATOM     70  C   UNL     1      -0.054  14.481   3.542  1.00  0.00    -0.014 A 
ATOM     71  C   UNL     1      -0.592  15.729   3.184  1.00  0.00     0.010 A 
ATOM     72  C   UNL     1      -0.924  13.398   3.766  1.00  0.00     0.010 A 
ATOM     73  C   UNL     1      -1.975  15.894   3.064  1.00  0.00     0.020 A 
ATOM     74  C   UNL     1      -2.305  13.554   3.624  1.00  0.00     0.020 A 
ATOM     75  C   UNL     1      -2.823  14.805   3.284  1.00  0.00     0.054 A 
BRANCH  75  76
ATOM     76  S   UNL     1      -4.611  15.025   3.067  1.00  0.00     0.124 S 
ATOM     77  O   UNL     1      -4.977  15.745   4.282  1.00  0.00    -0.237 OA
ATOM     78  O   UNL     1      -4.687  15.794   1.827  1.00  0.00    -0.237 OA
ATOM     79  O   UNL     1      -5.113  13.656   2.973  1.00  0.00    -0.744 OA
ENDBRANCH  75  76
ENDBRANCH  47  70
BRANCH  59  80
ATOM     80  C   UNL     1       4.658  16.757   8.156  1.00  0.00    -0.014 A 
ATOM     81  C   UNL     1       4.093  16.295   9.357  1.00  0.00     0.010 A 
ATOM     82  C   UNL     1       5.190  18.058   8.103  1.00  0.00     0.010 A 
ATOM     83  C   UNL     1       4.035  17.130  10.477  1.00  0.00     0.020 A 
ATOM     84  C   UNL     1       5.155  18.887   9.227  1.00  0.00     0.020 A 
ATOM     85  C   UNL     1       4.565  18.422  10.404  1.00  0.00     0.054 A 
BRANCH  85  86
ATOM     86  S   UNL     1       4.520  19.472  11.883  1.00  0.00     0.124 S 
ATOM     87  O   UNL     1       3.120  19.888  11.917  1.00  0.00    -0.237 OA
ATOM     88  O   UNL     1       4.929  18.554  12.943  1.00  0.00    -0.237 OA
ATOM     89  O   UNL     1       5.479  20.533  11.583  1.00  0.00    -0.744 OA
ENDBRANCH  85  86
ENDBRANCH  59  80
ENDBRANCH  33  34
ENDBRANCH  26  28
ENDBRANCH  25  26
ENDBRANCH  24  25
ENDBRANCH  23  24
ENDBRANCH  22  23
ENDBRANCH  21  22
ENDBRANCH   1  21
TORSDOF 23
