REMARK SMILES C=CCOc1ccc(C(=O)N2CCC[C@H]2C(=O)OCCOCCOC(=O)c2ccc(-c3c4nc(c(-c5ccc(S(=O)(=O)[O-])cc5)c5ccc([nH]5)c(-c5ccc(S(=O)(=O)[O-])cc5)c5nc(c(-c6ccc(S(=O)(=O)[O-])cc6)c6ccc3[nH]6)C=C5)C=C4)cc2)cc1
REMARK SMILES IDX 20 1 19 2 18 3 16 4 17 5 15 6 11 7 12 8 13 9 14 10 9 11
REMARK SMILES IDX 10 12 8 13 5 14 6 15 88 16 7 17 87 18 4 19 3 20 2 21 1 22
REMARK SMILES IDX 21 23 22 24 23 25 24 26 25 27 26 28 27 29 28 30 86 31 29 32
REMARK SMILES IDX 85 33 30 34 31 35 32 36 79 37 33 38 84 39 78 40 80 41 34 42
REMARK SMILES IDX 83 43 77 44 76 45 35 47 65 48 46 49 64 50 47 51 50 52 63 53
REMARK SMILES IDX 81 54 48 55 49 56 62 58 82 59 51 60 36 61 37 62 45 63 38 64
REMARK SMILES IDX 44 65 39 66 40 67 41 68 42 69 43 70 66 71 67 72 75 73 68 74
REMARK SMILES IDX 74 75 69 76 70 77 71 78 72 79 73 80 52 81 53 82 61 83 54 84
REMARK SMILES IDX 60 85 55 86 56 87 57 88 58 89 59 90
REMARK H PARENT 80 46 50 57
REMARK Flexibility Score: inf
ROOT
ATOM      1  C   UNL     1       0.759  -2.650  11.514  1.00  0.00     0.202 C 
ENDROOT
BRANCH   1   2
ATOM      2  C   UNL     1       0.509  -1.249  10.952  1.00  0.00     0.261 C 
BRANCH   2   3
ATOM      3  O   UNL     1       0.470  -1.316   9.525  1.00  0.00    -0.462 OA
BRANCH   3   4
ATOM      4  C   UNL     1       1.356  -0.527   8.860  1.00  0.00     0.328 C 
ATOM      5  O   UNL     1       2.030   0.369   9.355  1.00  0.00    -0.250 OA
BRANCH   4   6
ATOM      6  C   UNL     1       1.468  -0.992   7.407  1.00  0.00     0.195 C 
ATOM      7  N   UNL     1       1.133   0.077   6.493  1.00  0.00    -0.325 N 
ATOM      8  C   UNL     1       2.333   0.815   6.141  1.00  0.00     0.121 C 
ATOM      9  C   UNL     1       3.371  -0.288   6.032  1.00  0.00     0.024 C 
ATOM     10  C   UNL     1       2.927  -1.339   7.061  1.00  0.00     0.039 C 
BRANCH   7  11
ATOM     11  C   UNL     1      -0.184   0.228   6.110  1.00  0.00     0.254 C 
ATOM     12  O   UNL     1      -1.108  -0.210   6.792  1.00  0.00    -0.269 OA
BRANCH  11  13
ATOM     13  C   UNL     1      -0.496   0.782   4.772  1.00  0.00     0.040 A 
ATOM     14  C   UNL     1      -1.188   1.597   2.186  1.00  0.00     0.119 A 
ATOM     15  C   UNL     1      -2.092   1.769   3.235  1.00  0.00     0.047 A 
ATOM     16  C   UNL     1       0.061   1.039   2.436  1.00  0.00     0.047 A 
ATOM     17  C   UNL     1      -1.749   1.358   4.529  1.00  0.00     0.017 A 
ATOM     18  C   UNL     1       0.383   0.586   3.707  1.00  0.00     0.017 A 
BRANCH  14  19
ATOM     19  O   UNL     1      -1.550   2.039   0.942  1.00  0.00    -0.490 OA
BRANCH  19  20
ATOM     20  C   UNL     1      -1.408   1.050  -0.091  1.00  0.00     0.257 C 
BRANCH  20  21
ATOM     21  C   UNL     1      -0.045   1.119  -0.729  1.00  0.00     0.006 C 
ATOM     22  C   UNL     1       0.764   0.063  -0.896  1.00  0.00     0.007 C 
ENDBRANCH  20  21
ENDBRANCH  19  20
ENDBRANCH  14  19
ENDBRANCH  11  13
ENDBRANCH   7  11
ENDBRANCH   4   6
ENDBRANCH   3   4
ENDBRANCH   2   3
ENDBRANCH   1   2
BRANCH   1  23
ATOM     23  O   UNL     1       2.012  -3.245  11.167  1.00  0.00    -0.374 OA
BRANCH  23  24
ATOM     24  C   UNL     1       2.146  -3.796   9.855  1.00  0.00     0.202 C 
BRANCH  24  25
ATOM     25  C   UNL     1       1.462  -5.140   9.583  1.00  0.00     0.261 C 
BRANCH  25  26
ATOM     26  O   UNL     1       0.028  -5.034   9.579  1.00  0.00    -0.460 OA
BRANCH  26  27
ATOM     27  C   UNL     1      -0.588  -5.650  10.614  1.00  0.00     0.338 C 
ATOM     28  O   UNL     1      -0.055  -6.311  11.500  1.00  0.00    -0.246 OA
BRANCH  27  29
ATOM     29  C   UNL     1      -2.011  -5.279  10.661  1.00  0.00     0.060 A 
ATOM     30  C   UNL     1      -2.496  -4.722  11.851  1.00  0.00     0.016 A 
ATOM     31  C   UNL     1      -2.876  -5.556   9.600  1.00  0.00     0.016 A 
ATOM     32  C   UNL     1      -3.859  -4.487  12.005  1.00  0.00     0.010 A 
ATOM     33  C   UNL     1      -4.247  -5.330   9.762  1.00  0.00     0.010 A 
ATOM     34  C   UNL     1      -4.747  -4.829  10.978  1.00  0.00    -0.014 A 
BRANCH  34  35
ATOM     35  C   UNL     1      -6.206  -4.799  11.239  1.00  0.00     0.031 A 
ATOM     36  C   UNL     1      -6.909  -6.080  11.597  1.00  0.00     0.074 A 
ATOM     37  C   UNL     1      -6.888  -3.641  11.193  1.00  0.00     0.049 A 
ATOM     38  N   UNL     1      -8.175  -6.286  11.852  1.00  0.00    -0.248 NA
ATOM     39  C   UNL     1      -6.074  -7.290  11.679  1.00  0.00     0.031 C 
ATOM     40  C   UNL     1      -6.308  -2.330  10.900  1.00  0.00     0.029 A 
ATOM     41  N   UNL     1      -8.221  -3.384  11.391  1.00  0.00    -0.354 N 
ATOM     42  C   UNL     1      -8.291  -7.646  12.117  1.00  0.00     0.074 A 
ATOM     43  C   UNL     1      -6.972  -8.221  11.967  1.00  0.00     0.031 C 
ATOM     44  C   UNL     1      -7.284  -1.406  10.932  1.00  0.00     0.029 A 
ATOM     45  C   UNL     1      -8.559  -2.064  11.215  1.00  0.00     0.049 A 
ATOM     46  H   UNL     1      -8.873  -4.079  11.636  1.00  0.00     0.167 HD
ATOM     47  C   UNL     1      -9.396  -8.352  12.457  1.00  0.00     0.031 A 
ATOM     48  C   UNL     1      -9.762  -1.459  11.257  1.00  0.00     0.031 A 
ATOM     49  C   UNL     1     -10.709  -7.779  12.592  1.00  0.00     0.049 A 
ATOM     50  C   UNL     1     -10.987  -2.277  11.570  1.00  0.00     0.074 A 
ATOM     51  C   UNL     1     -11.889  -8.408  12.946  1.00  0.00     0.029 A 
ATOM     52  N   UNL     1     -11.016  -6.445  12.370  1.00  0.00    -0.354 N 
ATOM     53  N   UNL     1     -11.077  -3.558  11.841  1.00  0.00    -0.248 NA
ATOM     54  C   UNL     1     -12.273  -1.565  11.591  1.00  0.00     0.031 C 
ATOM     55  C   UNL     1     -12.921  -7.464  12.887  1.00  0.00     0.029 A 
ATOM     56  C   UNL     1     -12.372  -6.235  12.553  1.00  0.00     0.049 A 
ATOM     57  H   UNL     1     -10.365  -5.750  12.120  1.00  0.00     0.167 HD
ATOM     58  C   UNL     1     -12.425  -3.800  12.088  1.00  0.00     0.074 A 
ATOM     59  C   UNL     1     -13.110  -2.531  11.947  1.00  0.00     0.031 C 
ATOM     60  C   UNL     1     -13.039  -4.966  12.407  1.00  0.00     0.031 A 
BRANCH  47  61
ATOM     61  C   UNL     1      -9.235  -9.833  12.671  1.00  0.00    -0.014 A 
ATOM     62  C   UNL     1      -8.580 -10.339  13.809  1.00  0.00     0.010 A 
ATOM     63  C   UNL     1      -9.775 -10.734  11.735  1.00  0.00     0.010 A 
ATOM     64  C   UNL     1      -8.436 -11.718  13.986  1.00  0.00     0.020 A 
ATOM     65  C   UNL     1      -9.655 -12.114  11.922  1.00  0.00     0.020 A 
ATOM     66  C   UNL     1      -8.970 -12.597  13.039  1.00  0.00     0.054 A 
BRANCH  66  67
ATOM     67  S   UNL     1      -8.785 -14.382  13.302  1.00  0.00     0.124 S 
ATOM     68  O   UNL     1      -7.371 -14.586  12.995  1.00  0.00    -0.237 OA
ATOM     69  O   UNL     1      -9.151 -14.540  14.707  1.00  0.00    -0.237 OA
ATOM     70  O   UNL     1      -9.720 -14.973  12.347  1.00  0.00    -0.744 OA
ENDBRANCH  66  67
ENDBRANCH  47  61
BRANCH  48  71
ATOM     71  C   UNL     1      -9.869  -0.002  10.976  1.00  0.00    -0.014 A 
ATOM     72  C   UNL     1     -10.184   0.908  11.999  1.00  0.00     0.010 A 
ATOM     73  C   UNL     1      -9.649   0.484   9.673  1.00  0.00     0.010 A 
ATOM     74  C   UNL     1     -10.292   2.275  11.723  1.00  0.00     0.020 A 
ATOM     75  C   UNL     1      -9.730   1.852   9.399  1.00  0.00     0.020 A 
ATOM     76  C   UNL     1     -10.062   2.738  10.425  1.00  0.00     0.054 A 
BRANCH  76  77
ATOM     77  S   UNL     1     -10.158   4.521  10.100  1.00  0.00     0.124 S 
ATOM     78  O   UNL     1     -11.597   4.757  10.124  1.00  0.00    -0.237 OA
ATOM     79  O   UNL     1      -9.404   5.087  11.216  1.00  0.00    -0.237 OA
ATOM     80  O   UNL     1      -9.521   4.665   8.792  1.00  0.00    -0.744 OA
ENDBRANCH  76  77
ENDBRANCH  48  71
BRANCH  60  81
ATOM     81  C   UNL     1     -14.523  -4.924  12.658  1.00  0.00    -0.014 A 
ATOM     82  C   UNL     1     -15.438  -4.772  11.602  1.00  0.00     0.010 A 
ATOM     83  C   UNL     1     -15.009  -5.099  13.967  1.00  0.00     0.010 A 
ATOM     84  C   UNL     1     -16.813  -4.767  11.854  1.00  0.00     0.020 A 
ATOM     85  C   UNL     1     -16.383  -5.120  14.220  1.00  0.00     0.020 A 
ATOM     86  C   UNL     1     -17.277  -4.940  13.162  1.00  0.00     0.054 A 
BRANCH  86  87
ATOM     87  S   UNL     1     -19.066  -4.975  13.458  1.00  0.00     0.124 S 
ATOM     88  O   UNL     1     -19.422  -3.564  13.335  1.00  0.00    -0.237 OA
ATOM     89  O   UNL     1     -19.553  -5.843  12.388  1.00  0.00    -0.237 OA
ATOM     90  O   UNL     1     -19.184  -5.532  14.804  1.00  0.00    -0.744 OA
ENDBRANCH  86  87
ENDBRANCH  60  81
ENDBRANCH  34  35
ENDBRANCH  27  29
ENDBRANCH  26  27
ENDBRANCH  25  26
ENDBRANCH  24  25
ENDBRANCH  23  24
ENDBRANCH   1  23
TORSDOF 22
