REMARK SMILES O=C(C[NH+]1CCN(c2ncc(C(F)(F)F)cc2Cl)CC1)OCCOCCOC(=O)c1ccc(-c2c3nc(c(-c4ccc(S(=O)(=O)[O-])cc4)c4ccc([nH]4)c(-c4ccc(S(=O)(=O)[O-])cc4)c4nc(c(-c5ccc(S(=O)(=O)[O-])cc5)c5ccc2[nH]5)C=C4)C=C3)cc1
REMARK SMILES IDX 24 1 23 2 22 3 21 4 2 5 1 6 3 7 4 8 5 9 20 10 6 12 19 13
REMARK SMILES IDX 7 14 8 15 9 16 17 17 10 18 16 19 18 20 11 21 12 22 13 23
REMARK SMILES IDX 14 24 15 25 25 26 26 27 27 28 28 29 29 30 30 31 31 32 89 33
REMARK SMILES IDX 32 34 88 35 33 36 34 37 35 38 82 39 36 40 87 41 81 42 83 43
REMARK SMILES IDX 37 44 86 45 80 46 79 47 38 49 68 50 49 51 67 52 50 53 53 54
REMARK SMILES IDX 66 55 84 56 51 57 52 58 65 60 85 61 54 62 39 63 40 64 48 65
REMARK SMILES IDX 41 66 47 67 42 68 43 69 44 70 45 71 46 72 69 73 70 74 78 75
REMARK SMILES IDX 71 76 77 77 72 78 73 79 74 80 75 81 76 82 55 83 56 84 64 85
REMARK SMILES IDX 57 86 63 87 58 88 59 89 60 90 61 91 62 92
REMARK H PARENT 4 11 83 48 53 59
REMARK Flexibility Score: inf
ROOT
ATOM      1  O   UNL     1       3.958  -2.488  -1.329  1.00  0.00    -0.374 OA
ENDROOT
BRANCH   1   2
ATOM      2  C   UNL     1       4.689  -1.910  -0.269  1.00  0.00     0.202 C 
BRANCH   2   3
ATOM      3  C   UNL     1       3.922  -1.133   0.808  1.00  0.00     0.261 C 
BRANCH   3   4
ATOM      4  O   UNL     1       2.669  -0.439   0.528  1.00  0.00    -0.459 OA
BRANCH   4   5
ATOM      5  C   UNL     1       2.113   0.524  -0.225  1.00  0.00     0.361 C 
ATOM      6  O   UNL     1       0.953   0.855   0.036  1.00  0.00    -0.245 OA
BRANCH   5   7
ATOM      7  C   UNL     1       2.805   1.135  -1.429  1.00  0.00     0.386 C 
BRANCH   7   8
ATOM      8  N   UNL     1       3.897   2.101  -1.237  1.00  0.00    -0.323 N 
ATOM      9  C   UNL     1       3.624   3.529  -0.925  1.00  0.00     0.284 C 
ATOM     10  C   UNL     1       4.971   1.597  -0.409  1.00  0.00     0.284 C 
ATOM     11  H   UNL     1       4.175   2.169  -2.216  1.00  0.00     0.348 HD
ATOM     12  C   UNL     1       3.963   4.135   0.524  1.00  0.00     0.179 C 
ATOM     13  C   UNL     1       4.690   1.913   1.057  1.00  0.00     0.179 C 
ATOM     14  N   UNL     1       4.983   3.319   1.194  1.00  0.00    -0.344 N 
BRANCH  14  15
ATOM     15  C   UNL     1       5.693   3.583   2.350  1.00  0.00     0.147 A 
ATOM     16  N   UNL     1       5.121   4.344   3.307  1.00  0.00    -0.237 NA
ATOM     17  C   UNL     1       6.924   2.915   2.606  1.00  0.00     0.084 A 
ATOM     18  C   UNL     1       5.722   4.384   4.532  1.00  0.00     0.126 A 
ATOM     19  C   UNL     1       7.488   2.941   3.873  1.00  0.00     0.039 A 
ATOM     20  Cl  UNL     1       7.809   2.005   1.414  1.00  0.00    -0.080 Cl
ATOM     21  C   UNL     1       6.881   3.694   4.869  1.00  0.00     0.075 A 
BRANCH  21  22
ATOM     22  C   UNL     1       7.492   3.794   6.233  1.00  0.00     0.417 C 
ATOM     23  F   UNL     1       7.959   5.041   6.489  1.00  0.00    -0.166 F 
ATOM     24  F   UNL     1       6.623   3.472   7.221  1.00  0.00    -0.166 F 
ATOM     25  F   UNL     1       8.562   2.959   6.384  1.00  0.00    -0.166 F 
ENDBRANCH  21  22
ENDBRANCH  14  15
ENDBRANCH   7   8
ENDBRANCH   5   7
ENDBRANCH   4   5
ENDBRANCH   3   4
ENDBRANCH   2   3
ENDBRANCH   1   2
BRANCH   1  26
ATOM     26  C   UNL     1       2.720  -3.106  -1.018  1.00  0.00     0.202 C 
BRANCH  26  27
ATOM     27  C   UNL     1       2.726  -4.312  -0.066  1.00  0.00     0.261 C 
BRANCH  27  28
ATOM     28  O   UNL     1       3.141  -4.014   1.283  1.00  0.00    -0.460 OA
BRANCH  28  29
ATOM     29  C   UNL     1       4.353  -4.501   1.662  1.00  0.00     0.338 C 
ATOM     30  O   UNL     1       5.115  -5.160   0.982  1.00  0.00    -0.246 OA
BRANCH  29  31
ATOM     31  C   UNL     1       4.733  -3.955   2.989  1.00  0.00     0.060 A 
ATOM     32  C   UNL     1       5.962  -3.288   3.116  1.00  0.00     0.016 A 
ATOM     33  C   UNL     1       3.936  -4.173   4.114  1.00  0.00     0.016 A 
ATOM     34  C   UNL     1       6.425  -2.892   4.375  1.00  0.00     0.010 A 
ATOM     35  C   UNL     1       4.410  -3.793   5.376  1.00  0.00     0.010 A 
ATOM     36  C   UNL     1       5.675  -3.193   5.519  1.00  0.00    -0.014 A 
BRANCH  36  37
ATOM     37  C   UNL     1       6.294  -3.102   6.869  1.00  0.00     0.031 A 
ATOM     38  C   UNL     1       6.866  -4.360   7.474  1.00  0.00     0.074 A 
ATOM     39  C   UNL     1       6.337  -1.947   7.556  1.00  0.00     0.049 A 
ATOM     40  N   UNL     1       7.363  -4.558   8.667  1.00  0.00    -0.248 NA
ATOM     41  C   UNL     1       6.867  -5.557   6.616  1.00  0.00     0.031 C 
ATOM     42  C   UNL     1       5.858  -0.654   7.071  1.00  0.00     0.029 A 
ATOM     43  N   UNL     1       6.792  -1.683   8.826  1.00  0.00    -0.354 N 
ATOM     44  C   UNL     1       7.716  -5.903   8.711  1.00  0.00     0.074 A 
ATOM     45  C   UNL     1       7.356  -6.477   7.433  1.00  0.00     0.031 C 
ATOM     46  C   UNL     1       6.024   0.262   8.041  1.00  0.00     0.029 A 
ATOM     47  C   UNL     1       6.591  -0.382   9.225  1.00  0.00     0.049 A 
ATOM     48  H   UNL     1       7.221  -2.361   9.396  1.00  0.00     0.167 HD
ATOM     49  C   UNL     1       8.287  -6.600   9.722  1.00  0.00     0.031 A 
ATOM     50  C   UNL     1       6.811   0.212  10.417  1.00  0.00     0.031 A 
ATOM     51  C   UNL     1       8.625  -6.031  11.000  1.00  0.00     0.049 A 
ATOM     52  C   UNL     1       7.381  -0.599  11.554  1.00  0.00     0.074 A 
ATOM     53  C   UNL     1       9.218  -6.650  12.086  1.00  0.00     0.029 A 
ATOM     54  N   UNL     1       8.389  -4.715  11.368  1.00  0.00    -0.354 N 
ATOM     55  N   UNL     1       7.730  -1.864  11.573  1.00  0.00    -0.248 NA
ATOM     56  C   UNL     1       7.590   0.100  12.831  1.00  0.00     0.031 C 
ATOM     57  C   UNL     1       9.281  -5.725  13.133  1.00  0.00     0.029 A 
ATOM     58  C   UNL     1       8.797  -4.510  12.675  1.00  0.00     0.049 A 
ATOM     59  H   UNL     1       7.990  -4.029  10.786  1.00  0.00     0.167 HD
ATOM     60  C   UNL     1       8.228  -2.103  12.851  1.00  0.00     0.074 A 
ATOM     61  C   UNL     1       8.147  -0.849  13.572  1.00  0.00     0.031 C 
ATOM     62  C   UNL     1       8.712  -3.255  13.380  1.00  0.00     0.031 A 
BRANCH  49  63
ATOM     63  C   UNL     1       8.542  -8.069   9.500  1.00  0.00    -0.014 A 
ATOM     64  C   UNL     1       9.527  -8.514   8.600  1.00  0.00     0.010 A 
ATOM     65  C   UNL     1       7.804  -9.020  10.229  1.00  0.00     0.010 A 
ATOM     66  C   UNL     1       9.741  -9.881   8.403  1.00  0.00     0.020 A 
ATOM     67  C   UNL     1       8.037 -10.388  10.059  1.00  0.00     0.020 A 
ATOM     68  C   UNL     1       8.993 -10.810   9.134  1.00  0.00     0.054 A 
BRANCH  68  69
ATOM     69  S   UNL     1       9.310 -12.577   8.876  1.00  0.00     0.124 S 
ATOM     70  O   UNL     1       8.762 -12.789   7.538  1.00  0.00    -0.237 OA
ATOM     71  O   UNL     1      10.764 -12.659   8.979  1.00  0.00    -0.237 OA
ATOM     72  O   UNL     1       8.574 -13.224   9.959  1.00  0.00    -0.744 OA
ENDBRANCH  68  69
ENDBRANCH  49  63
BRANCH  50  73
ATOM     73  C   UNL     1       6.471   1.652  10.608  1.00  0.00    -0.014 A 
ATOM     74  C   UNL     1       7.483   2.610  10.804  1.00  0.00     0.010 A 
ATOM     75  C   UNL     1       5.129   2.074  10.597  1.00  0.00     0.010 A 
ATOM     76  C   UNL     1       7.158   3.957  10.996  1.00  0.00     0.020 A 
ATOM     77  C   UNL     1       4.802   3.424  10.757  1.00  0.00     0.020 A 
ATOM     78  C   UNL     1       5.819   4.356  10.965  1.00  0.00     0.054 A 
BRANCH  78  79
ATOM     79  S   UNL     1       5.427   6.118  11.152  1.00  0.00     0.124 S 
ATOM     80  O   UNL     1       5.720   6.348  12.563  1.00  0.00    -0.237 OA
ATOM     81  O   UNL     1       6.343   6.746  10.203  1.00  0.00    -0.237 OA
ATOM     82  O   UNL     1       4.014   6.195  10.784  1.00  0.00    -0.744 OA
ENDBRANCH  78  79
ENDBRANCH  50  73
BRANCH  62  83
ATOM     83  C   UNL     1       9.236  -3.213  14.794  1.00  0.00    -0.014 A 
ATOM     84  C   UNL     1       8.373  -3.073  15.895  1.00  0.00     0.010 A 
ATOM     85  C   UNL     1      10.615  -3.381  15.023  1.00  0.00     0.010 A 
ATOM     86  C   UNL     1       8.884  -3.069  17.197  1.00  0.00     0.020 A 
ATOM     87  C   UNL     1      11.125  -3.410  16.324  1.00  0.00     0.020 A 
ATOM     88  C   UNL     1      10.257  -3.239  17.403  1.00  0.00     0.054 A 
BRANCH  88  89
ATOM     89  S   UNL     1      10.887  -3.273  19.103  1.00  0.00     0.124 S 
ATOM     90  O   UNL     1      10.756  -1.875  19.505  1.00  0.00    -0.237 OA
ATOM     91  O   UNL     1       9.977  -4.206  19.763  1.00  0.00    -0.237 OA
ATOM     92  O   UNL     1      12.260  -3.752  18.955  1.00  0.00    -0.744 OA
ENDBRANCH  88  89
ENDBRANCH  62  83
ENDBRANCH  36  37
ENDBRANCH  29  31
ENDBRANCH  28  29
ENDBRANCH  27  28
ENDBRANCH  26  27
ENDBRANCH   1  26
TORSDOF 20
