REMARK SMILES CCC(CC)(CC(=O)Nc1ccc(NC(C)=O)cc1)C(=O)OCCOCCOC(=O)c1ccc(-c2c3nc(c(-c4ccc(S(=O)(=O)[O-])cc4)c4ccc([nH]4)c(-c4ccc(S(=O)(=O)[O-])cc4)c4nc(c(-c5ccc(S(=O)(=O)[O-])cc5)c5ccc2[nH]5)C=C4)C=C3)cc1
REMARK SMILES IDX 24 1 23 2 22 3 20 4 21 5 3 6 2 7 1 8 4 9 5 10 6 11 7 12 8 13
REMARK SMILES IDX 9 14 10 16 11 17 19 18 12 19 18 20 13 21 14 22 15 23 16 25
REMARK SMILES IDX 17 26 25 27 26 28 27 29 28 30 29 31 30 32 31 33 32 34 90 35
REMARK SMILES IDX 33 36 89 37 34 38 35 39 36 40 83 41 37 42 88 43 82 44 84 45
REMARK SMILES IDX 38 46 87 47 81 48 80 49 39 51 69 52 50 53 68 54 51 55 54 56
REMARK SMILES IDX 67 57 85 58 52 59 53 60 66 62 86 63 55 64 40 65 41 66 49 67
REMARK SMILES IDX 42 68 48 69 43 70 44 71 45 72 46 73 47 74 70 75 71 76 79 77
REMARK SMILES IDX 72 78 78 79 73 80 74 81 75 82 76 83 77 84 56 85 57 86 65 87
REMARK SMILES IDX 58 88 64 89 59 90 60 91 61 92 62 93 63 94
REMARK H PARENT 9 15 14 24 84 50 54 61
REMARK Flexibility Score: inf
ROOT
ATOM      1  C   UNL     1       5.529   0.525   2.735  1.00  0.00     0.202 C 
ENDROOT
BRANCH   1   2
ATOM      2  C   UNL     1       4.592   1.724   2.976  1.00  0.00     0.261 C 
BRANCH   2   3
ATOM      3  O   UNL     1       3.185   1.405   2.969  1.00  0.00    -0.463 OA
BRANCH   3   4
ATOM      4  C   UNL     1       2.487   1.966   1.961  1.00  0.00     0.312 C 
ATOM      5  O   UNL     1       2.986   2.744   1.149  1.00  0.00    -0.252 OA
BRANCH   4   6
ATOM      6  C   UNL     1       1.014   1.535   1.838  1.00  0.00     0.076 C 
BRANCH   6   7
ATOM      7  C   UNL     1       0.920   0.699   0.542  1.00  0.00     0.016 C 
ATOM      8  C   UNL     1       1.216   1.348  -0.807  1.00  0.00     0.005 C 
ENDBRANCH   6   7
BRANCH   6   9
ATOM      9  C   UNL     1       0.251   2.905   1.690  1.00  0.00     0.016 C 
ATOM     10  C   UNL     1      -1.262   2.826   1.527  1.00  0.00     0.005 C 
ENDBRANCH   6   9
BRANCH   6  11
ATOM     11  C   UNL     1       0.325   0.778   3.024  1.00  0.00     0.119 C 
BRANCH  11  12
ATOM     12  C   UNL     1       0.734  -0.529   3.727  1.00  0.00     0.225 C 
ATOM     13  O   UNL     1       1.512  -0.500   4.683  1.00  0.00    -0.275 OA
ATOM     14  N   UNL     1       0.003  -1.687   3.548  1.00  0.00    -0.326 N 
ATOM     15  H   UNL     1      -0.061  -2.266   4.342  1.00  0.00     0.169 HD
BRANCH  14  16
ATOM     16  C   UNL     1      -0.661  -2.167   2.414  1.00  0.00     0.041 A 
ATOM     17  C   UNL     1      -1.917  -2.762   2.515  1.00  0.00     0.028 A 
ATOM     18  C   UNL     1      -0.038  -2.152   1.178  1.00  0.00     0.028 A 
ATOM     19  C   UNL     1      -2.630  -3.104   1.350  1.00  0.00     0.028 A 
ATOM     20  C   UNL     1      -0.746  -2.457   0.015  1.00  0.00     0.028 A 
ATOM     21  C   UNL     1      -2.074  -2.874   0.089  1.00  0.00     0.041 A 
BRANCH  21  22
ATOM     22  N   UNL     1      -2.775  -2.961  -1.129  1.00  0.00    -0.326 N 
ATOM     23  C   UNL     1      -4.081  -3.365  -1.323  1.00  0.00     0.221 C 
ATOM     24  H   UNL     1      -2.276  -2.704  -1.937  1.00  0.00     0.169 HD
ATOM     25  C   UNL     1      -4.581  -3.031  -2.709  1.00  0.00     0.114 C 
ATOM     26  O   UNL     1      -4.797  -3.945  -0.515  1.00  0.00    -0.275 OA
ENDBRANCH  21  22
ENDBRANCH  14  16
ENDBRANCH  11  12
ENDBRANCH   6  11
ENDBRANCH   4   6
ENDBRANCH   3   4
ENDBRANCH   2   3
ENDBRANCH   1   2
BRANCH   1  27
ATOM     27  O   UNL     1       4.985  -0.635   2.112  1.00  0.00    -0.374 OA
BRANCH  27  28
ATOM     28  C   UNL     1       4.002  -1.362   2.854  1.00  0.00     0.202 C 
BRANCH  28  29
ATOM     29  C   UNL     1       4.319  -1.671   4.322  1.00  0.00     0.261 C 
BRANCH  29  30
ATOM     30  O   UNL     1       4.358  -0.468   5.113  1.00  0.00    -0.460 OA
BRANCH  30  31
ATOM     31  C   UNL     1       5.184  -0.529   6.174  1.00  0.00     0.338 C 
ATOM     32  O   UNL     1       5.792  -1.516   6.579  1.00  0.00    -0.246 OA
BRANCH  31  33
ATOM     33  C   UNL     1       5.447   0.823   6.688  1.00  0.00     0.060 A 
ATOM     34  C   UNL     1       6.720   1.360   6.460  1.00  0.00     0.016 A 
ATOM     35  C   UNL     1       4.534   1.480   7.516  1.00  0.00     0.016 A 
ATOM     36  C   UNL     1       7.120   2.505   7.143  1.00  0.00     0.010 A 
ATOM     37  C   UNL     1       4.940   2.632   8.203  1.00  0.00     0.010 A 
ATOM     38  C   UNL     1       6.258   3.108   8.071  1.00  0.00    -0.014 A 
BRANCH  38  39
ATOM     39  C   UNL     1       6.842   4.066   9.046  1.00  0.00     0.031 A 
ATOM     40  C   UNL     1       7.257   3.550  10.403  1.00  0.00     0.074 A 
ATOM     41  C   UNL     1       7.111   5.338   8.702  1.00  0.00     0.049 A 
ATOM     42  N   UNL     1       7.911   4.160  11.358  1.00  0.00    -0.248 NA
ATOM     43  C   UNL     1       6.895   2.158  10.720  1.00  0.00     0.031 C 
ATOM     44  C   UNL     1       6.799   5.950   7.411  1.00  0.00     0.029 A 
ATOM     45  N   UNL     1       7.733   6.338   9.408  1.00  0.00    -0.354 N 
ATOM     46  C   UNL     1       8.039   3.230  12.384  1.00  0.00     0.074 A 
ATOM     47  C   UNL     1       7.366   2.026  11.950  1.00  0.00     0.031 C 
ATOM     48  C   UNL     1       7.248   7.217   7.410  1.00  0.00     0.029 A 
ATOM     49  C   UNL     1       7.867   7.510   8.703  1.00  0.00     0.049 A 
ATOM     50  H   UNL     1       8.054   6.226  10.332  1.00  0.00     0.167 HD
ATOM     51  C   UNL     1       8.670   3.356  13.577  1.00  0.00     0.031 A 
ATOM     52  C   UNL     1       8.432   8.683   9.054  1.00  0.00     0.031 A 
ATOM     53  C   UNL     1       9.335   4.552  14.017  1.00  0.00     0.049 A 
ATOM     54  C   UNL     1       9.091   8.815  10.403  1.00  0.00     0.074 A 
ATOM     55  C   UNL     1      10.011   4.775  15.205  1.00  0.00     0.029 A 
ATOM     56  N   UNL     1       9.405   5.730  13.290  1.00  0.00    -0.354 N 
ATOM     57  N   UNL     1       9.229   7.913  11.347  1.00  0.00    -0.248 NA
ATOM     58  C   UNL     1       9.688  10.119  10.725  1.00  0.00     0.031 C 
ATOM     59  C   UNL     1      10.451   6.103  15.214  1.00  0.00     0.029 A 
ATOM     60  C   UNL     1      10.096   6.689  14.010  1.00  0.00     0.049 A 
ATOM     61  H   UNL     1       9.020   5.864  12.394  1.00  0.00     0.167 HD
ATOM     62  C   UNL     1       9.959   8.532  12.358  1.00  0.00     0.074 A 
ATOM     63  C   UNL     1      10.239   9.880  11.907  1.00  0.00     0.031 C 
ATOM     64  C   UNL     1      10.368   8.027  13.548  1.00  0.00     0.031 A 
BRANCH  51  65
ATOM     65  C   UNL     1       8.638   2.170  14.504  1.00  0.00    -0.014 A 
ATOM     66  C   UNL     1       9.406   1.020  14.245  1.00  0.00     0.010 A 
ATOM     67  C   UNL     1       7.842   2.216  15.662  1.00  0.00     0.010 A 
ATOM     68  C   UNL     1       9.346  -0.079  15.107  1.00  0.00     0.020 A 
ATOM     69  C   UNL     1       7.798   1.128  16.539  1.00  0.00     0.020 A 
ATOM     70  C   UNL     1       8.536  -0.020  16.246  1.00  0.00     0.054 A 
BRANCH  70  71
ATOM     71  S   UNL     1       8.482  -1.454  17.356  1.00  0.00     0.124 S 
ATOM     72  O   UNL     1       7.648  -2.387  16.602  1.00  0.00    -0.237 OA
ATOM     73  O   UNL     1       9.890  -1.825  17.474  1.00  0.00    -0.237 OA
ATOM     74  O   UNL     1       7.877  -0.925  18.576  1.00  0.00    -0.744 OA
ENDBRANCH  70  71
ENDBRANCH  51  65
BRANCH  52  75
ATOM     75  C   UNL     1       8.415   9.830   8.105  1.00  0.00    -0.014 A 
ATOM     76  C   UNL     1       9.597  10.264   7.479  1.00  0.00     0.010 A 
ATOM     77  C   UNL     1       7.208  10.497   7.828  1.00  0.00     0.010 A 
ATOM     78  C   UNL     1       9.575  11.356   6.606  1.00  0.00     0.020 A 
ATOM     79  C   UNL     1       7.178  11.573   6.937  1.00  0.00     0.020 A 
ATOM     80  C   UNL     1       8.364  12.004   6.340  1.00  0.00     0.054 A 
BRANCH  80  81
ATOM     81  S   UNL     1       8.347  13.386   5.163  1.00  0.00     0.124 S 
ATOM     82  O   UNL     1       8.921  14.467   5.957  1.00  0.00    -0.237 OA
ATOM     83  O   UNL     1       9.181  12.886   4.074  1.00  0.00    -0.237 OA
ATOM     84  O   UNL     1       6.931  13.534   4.834  1.00  0.00    -0.744 OA
ENDBRANCH  80  81
ENDBRANCH  52  75
BRANCH  64  85
ATOM     85  C   UNL     1      11.202   8.918  14.430  1.00  0.00    -0.014 A 
ATOM     86  C   UNL     1      10.636  10.007  15.116  1.00  0.00     0.010 A 
ATOM     87  C   UNL     1      12.570   8.636  14.601  1.00  0.00     0.010 A 
ATOM     88  C   UNL     1      11.433  10.825  15.923  1.00  0.00     0.020 A 
ATOM     89  C   UNL     1      13.364   9.436  15.427  1.00  0.00     0.020 A 
ATOM     90  C   UNL     1      12.794  10.538  16.068  1.00  0.00     0.054 A 
BRANCH  90  91
ATOM     91  S   UNL     1      13.807  11.599  17.134  1.00  0.00     0.124 S 
ATOM     92  O   UNL     1      14.016  12.769  16.286  1.00  0.00    -0.237 OA
ATOM     93  O   UNL     1      12.945  11.810  18.295  1.00  0.00    -0.237 OA
ATOM     94  O   UNL     1      14.999  10.794  17.391  1.00  0.00    -0.744 OA
ENDBRANCH  90  91
ENDBRANCH  64  85
ENDBRANCH  38  39
ENDBRANCH  31  33
ENDBRANCH  30  31
ENDBRANCH  29  30
ENDBRANCH  28  29
ENDBRANCH  27  28
ENDBRANCH   1  27
TORSDOF 23
