REMARK SMILES CC[C@@H]1CCCN1C(=O)N1CC[C@@H](C(=O)OCCOCCOC(=O)c2ccc(-c3c4nc(c(-c5ccc(S(=O)(=O)[O-])cc5)c5ccc([nH]5)c(-c5ccc(S(=O)(=O)[O-])cc5)c5nc(c(-c6ccc(S(=O)(=O)[O-])cc6)c6ccc3[nH]6)C=C5)C=C4)cc2)[C@@H]1C
REMARK SMILES IDX 19 1 18 2 17 3 16 4 14 5 15 6 13 7 10 8 11 9 85 10 12 11
REMARK SMILES IDX 86 12 8 13 9 14 7 15 3 16 4 17 5 18 6 19 2 20 1 21 20 22
REMARK SMILES IDX 21 23 22 24 23 25 24 26 25 27 26 28 84 29 27 30 83 31 28 32
REMARK SMILES IDX 29 33 30 34 77 35 31 36 82 37 76 38 78 39 32 40 81 41 75 42
REMARK SMILES IDX 74 43 33 45 63 46 44 47 62 48 45 49 48 50 61 51 79 52 46 53
REMARK SMILES IDX 47 54 60 56 80 57 49 58 34 59 35 60 43 61 36 62 42 63 37 64
REMARK SMILES IDX 38 65 39 66 40 67 41 68 64 69 65 70 73 71 66 72 72 73 67 74
REMARK SMILES IDX 68 75 69 76 70 77 71 78 50 79 51 80 59 81 52 82 58 83 53 84
REMARK SMILES IDX 54 85 55 86 56 87 57 88
REMARK H PARENT 78 44 48 55
REMARK Flexibility Score: inf
ROOT
ATOM      1  O   UNL     1       1.539   7.474   1.986  1.00  0.00    -0.374 OA
ENDROOT
BRANCH   1   2
ATOM      2  C   UNL     1       2.889   7.870   1.763  1.00  0.00     0.202 C 
BRANCH   2   3
ATOM      3  C   UNL     1       3.864   6.839   1.176  1.00  0.00     0.261 C 
BRANCH   3   4
ATOM      4  O   UNL     1       3.334   6.184   0.014  1.00  0.00    -0.463 OA
BRANCH   4   5
ATOM      5  C   UNL     1       3.199   4.837   0.143  1.00  0.00     0.311 C 
ATOM      6  O   UNL     1       3.690   4.170   1.045  1.00  0.00    -0.252 OA
BRANCH   5   7
ATOM      7  C   UNL     1       2.209   4.290  -0.873  1.00  0.00     0.123 C 
ATOM      8  N   UNL     1       2.530   2.116  -1.775  1.00  0.00    -0.321 N 
ATOM      9  C   UNL     1       2.197   1.990  -0.378  1.00  0.00     0.122 C 
ATOM     10  C   UNL     1       2.873   3.524  -2.031  1.00  0.00     0.098 C 
ATOM     11  C   UNL     1       1.357   3.231  -0.157  1.00  0.00     0.039 C 
ATOM     12  C   UNL     1       2.332   3.985  -3.384  1.00  0.00     0.032 C 
BRANCH   8  13
ATOM     13  C   UNL     1       3.078   1.107  -2.513  1.00  0.00     0.320 C 
ATOM     14  O   UNL     1       4.131   1.306  -3.124  1.00  0.00    -0.248 OA
BRANCH  13  15
ATOM     15  N   UNL     1       2.413  -0.106  -2.600  1.00  0.00    -0.322 N 
ATOM     16  C   UNL     1       0.964  -0.414  -2.590  1.00  0.00     0.086 C 
ATOM     17  C   UNL     1       0.927  -1.919  -2.902  1.00  0.00     0.027 C 
ATOM     18  C   UNL     1       2.052  -2.086  -3.897  1.00  0.00     0.024 C 
ATOM     19  C   UNL     1       3.116  -1.137  -3.369  1.00  0.00     0.122 C 
BRANCH  16  20
ATOM     20  C   UNL     1       0.049  -0.119  -1.395  1.00  0.00     0.022 C 
ATOM     21  C   UNL     1       0.347  -0.895  -0.113  1.00  0.00     0.006 C 
ENDBRANCH  16  20
ENDBRANCH  13  15
ENDBRANCH   8  13
ENDBRANCH   5   7
ENDBRANCH   4   5
ENDBRANCH   3   4
ENDBRANCH   2   3
ENDBRANCH   1   2
BRANCH   1  22
ATOM     22  C   UNL     1       0.709   7.200   0.860  1.00  0.00     0.202 C 
BRANCH  22  23
ATOM     23  C   UNL     1       0.514   8.276  -0.220  1.00  0.00     0.261 C 
BRANCH  23  24
ATOM     24  O   UNL     1       1.723   8.611  -0.924  1.00  0.00    -0.460 OA
BRANCH  24  25
ATOM     25  C   UNL     1       2.119   9.901  -0.794  1.00  0.00     0.338 C 
ATOM     26  O   UNL     1       1.556  10.789  -0.167  1.00  0.00    -0.246 OA
BRANCH  25  27
ATOM     27  C   UNL     1       3.456  10.076  -1.377  1.00  0.00     0.060 A 
ATOM     28  C   UNL     1       4.523  10.389  -0.523  1.00  0.00     0.016 A 
ATOM     29  C   UNL     1       3.630  10.054  -2.760  1.00  0.00     0.016 A 
ATOM     30  C   UNL     1       5.771  10.707  -1.054  1.00  0.00     0.010 A 
ATOM     31  C   UNL     1       4.876  10.393  -3.290  1.00  0.00     0.010 A 
ATOM     32  C   UNL     1       5.941  10.750  -2.442  1.00  0.00    -0.014 A 
BRANCH  32  33
ATOM     33  C   UNL     1       7.167  11.334  -3.030  1.00  0.00     0.031 A 
ATOM     34  C   UNL     1       7.123  12.760  -3.501  1.00  0.00     0.074 A 
ATOM     35  C   UNL     1       8.282  10.598  -3.172  1.00  0.00     0.049 A 
ATOM     36  N   UNL     1       8.004  13.429  -4.197  1.00  0.00    -0.248 NA
ATOM     37  C   UNL     1       5.920  13.532  -3.146  1.00  0.00     0.031 C 
ATOM     38  C   UNL     1       8.461   9.229  -2.690  1.00  0.00     0.029 A 
ATOM     39  N   UNL     1       9.470  10.898  -3.788  1.00  0.00    -0.354 N 
ATOM     40  C   UNL     1       7.452  14.690  -4.387  1.00  0.00     0.074 A 
ATOM     41  C   UNL     1       6.158  14.691  -3.742  1.00  0.00     0.031 C 
ATOM     42  C   UNL     1       9.681   8.797  -3.054  1.00  0.00     0.029 A 
ATOM     43  C   UNL     1      10.345   9.839  -3.835  1.00  0.00     0.049 A 
ATOM     44  H   UNL     1       9.677  11.786  -4.161  1.00  0.00     0.167 HD
ATOM     45  C   UNL     1       7.977  15.748  -5.048  1.00  0.00     0.031 A 
ATOM     46  C   UNL     1      11.527   9.714  -4.471  1.00  0.00     0.031 A 
ATOM     47  C   UNL     1       9.259  15.729  -5.698  1.00  0.00     0.049 A 
ATOM     48  C   UNL     1      12.056  10.877  -5.271  1.00  0.00     0.074 A 
ATOM     49  C   UNL     1       9.886  16.745  -6.397  1.00  0.00     0.029 A 
ATOM     50  N   UNL     1      10.110  14.633  -5.730  1.00  0.00    -0.354 N 
ATOM     51  N   UNL     1      11.525  12.063  -5.450  1.00  0.00    -0.248 NA
ATOM     52  C   UNL     1      13.345  10.686  -5.953  1.00  0.00     0.031 C 
ATOM     53  C   UNL     1      11.093  16.247  -6.896  1.00  0.00     0.029 A 
ATOM     54  C   UNL     1      11.248  14.943  -6.452  1.00  0.00     0.049 A 
ATOM     55  H   UNL     1       9.930  13.765  -5.303  1.00  0.00     0.167 HD
ATOM     56  C   UNL     1      12.432  12.773  -6.230  1.00  0.00     0.074 A 
ATOM     57  C   UNL     1      13.544  11.882  -6.493  1.00  0.00     0.031 C 
ATOM     58  C   UNL     1      12.356  14.049  -6.680  1.00  0.00     0.031 A 
BRANCH  45  59
ATOM     59  C   UNL     1       7.141  16.996  -5.142  1.00  0.00    -0.014 A 
ATOM     60  C   UNL     1       6.920  17.815  -4.020  1.00  0.00     0.010 A 
ATOM     61  C   UNL     1       6.594  17.372  -6.382  1.00  0.00     0.010 A 
ATOM     62  C   UNL     1       6.134  18.965  -4.129  1.00  0.00     0.020 A 
ATOM     63  C   UNL     1       5.830  18.536  -6.502  1.00  0.00     0.020 A 
ATOM     64  C   UNL     1       5.591  19.317  -5.369  1.00  0.00     0.054 A 
BRANCH  64  65
ATOM     65  S   UNL     1       4.589  20.824  -5.486  1.00  0.00     0.124 S 
ATOM     66  O   UNL     1       3.357  20.419  -4.813  1.00  0.00    -0.237 OA
ATOM     67  O   UNL     1       5.401  21.805  -4.771  1.00  0.00    -0.237 OA
ATOM     68  O   UNL     1       4.466  21.049  -6.924  1.00  0.00    -0.744 OA
ENDBRANCH  64  65
ENDBRANCH  45  59
BRANCH  46  69
ATOM     69  C   UNL     1      12.275   8.429  -4.402  1.00  0.00    -0.014 A 
ATOM     70  C   UNL     1      13.483   8.344  -3.689  1.00  0.00     0.010 A 
ATOM     71  C   UNL     1      11.778   7.279  -5.044  1.00  0.00     0.010 A 
ATOM     72  C   UNL     1      14.189   7.138  -3.632  1.00  0.00     0.020 A 
ATOM     73  C   UNL     1      12.466   6.065  -4.967  1.00  0.00     0.020 A 
ATOM     74  C   UNL     1      13.675   6.005  -4.271  1.00  0.00     0.054 A 
BRANCH  74  75
ATOM     75  S   UNL     1      14.586   4.441  -4.144  1.00  0.00     0.124 S 
ATOM     76  O   UNL     1      15.728   4.684  -5.020  1.00  0.00    -0.237 OA
ATOM     77  O   UNL     1      14.888   4.368  -2.716  1.00  0.00    -0.237 OA
ATOM     78  O   UNL     1      13.629   3.447  -4.622  1.00  0.00    -0.744 OA
ENDBRANCH  74  75
ENDBRANCH  46  69
BRANCH  58  79
ATOM     79  C   UNL     1      13.530  14.601  -7.443  1.00  0.00    -0.014 A 
ATOM     80  C   UNL     1      13.768  14.246  -8.781  1.00  0.00     0.010 A 
ATOM     81  C   UNL     1      14.336  15.584  -6.837  1.00  0.00     0.010 A 
ATOM     82  C   UNL     1      14.796  14.864  -9.500  1.00  0.00     0.020 A 
ATOM     83  C   UNL     1      15.347  16.220  -7.559  1.00  0.00     0.020 A 
ATOM     84  C   UNL     1      15.573  15.853  -8.887  1.00  0.00     0.054 A 
BRANCH  84  85
ATOM     85  S   UNL     1      16.837  16.707  -9.870  1.00  0.00     0.124 S 
ATOM     86  O   UNL     1      17.874  15.685  -9.986  1.00  0.00    -0.237 OA
ATOM     87  O   UNL     1      16.123  17.022 -11.105  1.00  0.00    -0.237 OA
ATOM     88  O   UNL     1      17.191  17.864  -9.050  1.00  0.00    -0.744 OA
ENDBRANCH  84  85
ENDBRANCH  58  79
ENDBRANCH  32  33
ENDBRANCH  25  27
ENDBRANCH  24  25
ENDBRANCH  23  24
ENDBRANCH  22  23
ENDBRANCH   1  22
TORSDOF 20
