REMARK SMILES O=C(OCCOCCOC(=O)[C@H]1CCC[N@@H+]1Cc1ccccc1[N+](=O)[O-])c1ccc(-c2c3nc(c(-c4ccc(S(=O)(=O)[O-])cc4)c4ccc([nH]4)c(-c4ccc(S(=O)(=O)[O-])cc4)c4nc(c(-c5ccc(S(=O)(=O)[O-])cc5)c5ccc2[nH]5)C=C4)C=C3)cc1
REMARK SMILES IDX 6 1 5 2 4 3 3 4 2 5 1 6 27 7 28 8 86 9 29 10 85 11 30 12
REMARK SMILES IDX 31 13 32 14 79 15 33 16 84 17 78 18 80 19 34 20 83 21 77 22
REMARK SMILES IDX 76 23 35 25 65 26 46 27 64 28 47 29 50 30 63 31 81 32 48 33
REMARK SMILES IDX 49 34 62 36 82 37 51 38 36 39 37 40 45 41 38 42 44 43 39 44
REMARK SMILES IDX 40 45 41 46 42 47 43 48 66 49 67 50 75 51 68 52 74 53 69 54
REMARK SMILES IDX 70 55 71 56 72 57 73 58 52 59 53 60 61 61 54 62 60 63 55 64
REMARK SMILES IDX 56 65 57 66 58 67 59 68 7 69 8 70 9 71 10 72 11 73 12 74
REMARK SMILES IDX 13 75 16 76 14 77 15 78 17 80 18 81 19 82 23 83 20 84 22 85
REMARK SMILES IDX 21 86 24 87 25 88 26 89
REMARK H PARENT 80 24 50 35 16 79
REMARK Flexibility Score: inf
ROOT
ATOM      1  O   UNL     1       7.698   0.533   3.240  1.00  0.00    -0.374 OA
ENDROOT
BRANCH   1   2
ATOM      2  C   UNL     1       6.890   0.800   2.093  1.00  0.00     0.202 C 
BRANCH   2   3
ATOM      3  C   UNL     1       7.628   0.669   0.757  1.00  0.00     0.261 C 
BRANCH   3   4
ATOM      4  O   UNL     1       8.274  -0.606   0.652  1.00  0.00    -0.460 OA
BRANCH   4   5
ATOM      5  C   UNL     1       9.545  -0.908   1.010  1.00  0.00     0.338 C 
ATOM      6  O   UNL     1       9.901  -2.085   0.956  1.00  0.00    -0.246 OA
BRANCH   5   7
ATOM      7  C   UNL     1      10.552   0.108   1.450  1.00  0.00     0.060 A 
ATOM      8  C   UNL     1      10.257   1.298   2.121  1.00  0.00     0.016 A 
ATOM      9  C   UNL     1      11.905  -0.218   1.261  1.00  0.00     0.016 A 
ATOM     10  C   UNL     1      11.247   2.141   2.585  1.00  0.00     0.010 A 
ATOM     11  C   UNL     1      12.917   0.615   1.746  1.00  0.00     0.010 A 
ATOM     12  C   UNL     1      12.579   1.793   2.418  1.00  0.00    -0.014 A 
BRANCH  12  13
ATOM     13  C   UNL     1      13.578   2.746   2.912  1.00  0.00     0.031 A 
ATOM     14  C   UNL     1      14.240   3.646   1.922  1.00  0.00     0.074 A 
ATOM     15  C   UNL     1      13.745   2.880   4.240  1.00  0.00     0.049 A 
ATOM     16  N   UNL     1      15.172   4.533   2.118  1.00  0.00    -0.248 NA
ATOM     17  C   UNL     1      13.778   3.548   0.524  1.00  0.00     0.031 C 
ATOM     18  C   UNL     1      13.005   2.133   5.265  1.00  0.00     0.029 A 
ATOM     19  N   UNL     1      14.559   3.710   4.960  1.00  0.00    -0.354 N 
ATOM     20  C   UNL     1      15.440   5.071   0.867  1.00  0.00     0.074 A 
ATOM     21  C   UNL     1      14.563   4.426  -0.082  1.00  0.00     0.031 C 
ATOM     22  C   UNL     1      13.396   2.548   6.481  1.00  0.00     0.029 A 
ATOM     23  C   UNL     1      14.463   3.527   6.320  1.00  0.00     0.049 A 
ATOM     24  H   UNL     1      15.156   4.374   4.546  1.00  0.00     0.167 HD
ATOM     25  C   UNL     1      16.361   6.007   0.555  1.00  0.00     0.031 A 
ATOM     26  C   UNL     1      15.201   4.059   7.312  1.00  0.00     0.031 A 
ATOM     27  C   UNL     1      17.215   6.616   1.537  1.00  0.00     0.049 A 
ATOM     28  C   UNL     1      16.295   5.015   6.916  1.00  0.00     0.074 A 
ATOM     29  C   UNL     1      18.223   7.540   1.348  1.00  0.00     0.029 A 
ATOM     30  N   UNL     1      17.156   6.349   2.899  1.00  0.00    -0.354 N 
ATOM     31  N   UNL     1      16.584   5.485   5.723  1.00  0.00    -0.248 NA
ATOM     32  C   UNL     1      17.174   5.498   7.986  1.00  0.00     0.031 C 
ATOM     33  C   UNL     1      18.817   7.783   2.590  1.00  0.00     0.029 A 
ATOM     34  C   UNL     1      18.135   7.064   3.561  1.00  0.00     0.049 A 
ATOM     35  H   UNL     1      16.512   5.742   3.329  1.00  0.00     0.167 HD
ATOM     36  C   UNL     1      17.672   6.328   5.901  1.00  0.00     0.074 A 
ATOM     37  C   UNL     1      17.966   6.329   7.322  1.00  0.00     0.031 C 
ATOM     38  C   UNL     1      18.378   7.032   4.981  1.00  0.00     0.031 A 
BRANCH  25  39
ATOM     39  C   UNL     1      16.552   6.343  -0.896  1.00  0.00    -0.014 A 
ATOM     40  C   UNL     1      15.622   7.122  -1.607  1.00  0.00     0.010 A 
ATOM     41  C   UNL     1      17.710   5.888  -1.551  1.00  0.00     0.010 A 
ATOM     42  C   UNL     1      15.846   7.430  -2.953  1.00  0.00     0.020 A 
ATOM     43  C   UNL     1      17.948   6.212  -2.888  1.00  0.00     0.020 A 
ATOM     44  C   UNL     1      17.011   6.978  -3.582  1.00  0.00     0.054 A 
BRANCH  44  45
ATOM     45  S   UNL     1      17.306   7.447  -5.309  1.00  0.00     0.124 S 
ATOM     46  O   UNL     1      16.302   6.655  -6.015  1.00  0.00    -0.237 OA
ATOM     47  O   UNL     1      17.071   8.889  -5.292  1.00  0.00    -0.237 OA
ATOM     48  O   UNL     1      18.692   7.048  -5.546  1.00  0.00    -0.744 OA
ENDBRANCH  44  45
ENDBRANCH  25  39
BRANCH  26  49
ATOM     49  C   UNL     1      15.015   3.624   8.726  1.00  0.00    -0.014 A 
ATOM     50  C   UNL     1      14.659   4.539   9.732  1.00  0.00     0.010 A 
ATOM     51  C   UNL     1      15.247   2.282   9.085  1.00  0.00     0.010 A 
ATOM     52  C   UNL     1      14.584   4.131  11.070  1.00  0.00     0.020 A 
ATOM     53  C   UNL     1      15.137   1.861  10.413  1.00  0.00     0.020 A 
ATOM     54  C   UNL     1      14.832   2.795  11.402  1.00  0.00     0.054 A 
BRANCH  54  55
ATOM     55  S   UNL     1      14.750   2.289  13.143  1.00  0.00     0.124 S 
ATOM     56  O   UNL     1      15.962   2.892  13.690  1.00  0.00    -0.237 OA
ATOM     57  O   UNL     1      13.492   2.883  13.587  1.00  0.00    -0.237 OA
ATOM     58  O   UNL     1      14.752   0.829  13.076  1.00  0.00    -0.744 OA
ENDBRANCH  54  55
ENDBRANCH  26  49
BRANCH  38  59
ATOM     59  C   UNL     1      19.511   7.873   5.496  1.00  0.00    -0.014 A 
ATOM     60  C   UNL     1      20.704   7.282   5.945  1.00  0.00     0.010 A 
ATOM     61  C   UNL     1      19.399   9.274   5.459  1.00  0.00     0.010 A 
ATOM     62  C   UNL     1      21.761   8.083   6.376  1.00  0.00     0.020 A 
ATOM     63  C   UNL     1      20.467  10.077   5.856  1.00  0.00     0.020 A 
ATOM     64  C   UNL     1      21.637   9.476   6.324  1.00  0.00     0.054 A 
BRANCH  64  65
ATOM     65  S   UNL     1      23.048  10.492   6.832  1.00  0.00     0.124 S 
ATOM     66  O   UNL     1      23.035  10.326   8.282  1.00  0.00    -0.237 OA
ATOM     67  O   UNL     1      24.166   9.858   6.136  1.00  0.00    -0.237 OA
ATOM     68  O   UNL     1      22.702  11.829   6.354  1.00  0.00    -0.744 OA
ENDBRANCH  64  65
ENDBRANCH  38  59
ENDBRANCH  12  13
ENDBRANCH   5   7
ENDBRANCH   4   5
ENDBRANCH   3   4
ENDBRANCH   2   3
ENDBRANCH   1   2
BRANCH   1  69
ATOM     69  C   UNL     1       7.761  -0.827   3.674  1.00  0.00     0.202 C 
BRANCH  69  70
ATOM     70  C   UNL     1       7.189  -0.939   5.084  1.00  0.00     0.261 C 
BRANCH  70  71
ATOM     71  O   UNL     1       5.828  -0.483   5.039  1.00  0.00    -0.459 OA
BRANCH  71  72
ATOM     72  C   UNL     1       5.705   0.864   5.247  1.00  0.00     0.365 C 
ATOM     73  O   UNL     1       6.538   1.568   5.795  1.00  0.00    -0.245 OA
BRANCH  72  74
ATOM     74  C   UNL     1       4.359   1.358   4.688  1.00  0.00     0.295 C 
ATOM     75  C   UNL     1       3.636   2.057   5.826  1.00  0.00     0.083 C 
ATOM     76  N   UNL     1       4.566   2.410   3.663  1.00  0.00    -0.319 N 
ATOM     77  C   UNL     1       4.154   3.490   5.767  1.00  0.00     0.068 C 
ATOM     78  C   UNL     1       4.817   3.650   4.400  1.00  0.00     0.263 C 
ATOM     79  H   UNL     1       5.370   2.152   3.091  1.00  0.00     0.349 HD
BRANCH  76  80
ATOM     80  C   UNL     1       3.586   2.507   2.571  1.00  0.00     0.307 C 
BRANCH  80  81
ATOM     81  C   UNL     1       2.128   2.474   2.974  1.00  0.00     0.084 A 
ATOM     82  C   UNL     1       1.474   1.226   2.980  1.00  0.00     0.017 A 
ATOM     83  C   UNL     1       1.423   3.578   3.489  1.00  0.00     0.278 A 
ATOM     84  C   UNL     1       0.232   1.066   3.596  1.00  0.00     0.001 A 
ATOM     85  C   UNL     1       0.195   3.413   4.146  1.00  0.00     0.086 A 
ATOM     86  C   UNL     1      -0.386   2.149   4.217  1.00  0.00     0.007 A 
BRANCH  83  87
ATOM     87  N   UNL     1       1.920   4.941   3.344  1.00  0.00     0.063 N 
ATOM     88  O   UNL     1       1.844   5.685   4.331  1.00  0.00    -0.258 OA
ATOM     89  O   UNL     1       2.333   5.280   2.227  1.00  0.00    -0.258 OA
ENDBRANCH  83  87
ENDBRANCH  80  81
ENDBRANCH  76  80
ENDBRANCH  72  74
ENDBRANCH  71  72
ENDBRANCH  70  71
ENDBRANCH  69  70
ENDBRANCH   1  69
TORSDOF 20
