REMARK SMILES O=C(OCCOCCOC(=O)[C@@H]1CCCC[C@@H]1C(=O)Nc1nc(-c2ccc(Cl)c(Cl)c2)cs1)c1ccc(-c2c3nc(c(-c4ccc(S(=O)(=O)[O-])cc4)c4ccc([nH]4)c(-c4ccc(S(=O)(=O)[O-])cc4)c4nc(c(-c5ccc(S(=O)(=O)[O-])cc5)c5ccc2[nH]5)C=C4)C=C3)cc1
REMARK SMILES IDX 6 1 5 2 4 3 3 4 2 5 1 6 34 7 35 8 93 9 36 10 92 11 37 12
REMARK SMILES IDX 38 13 39 14 86 15 40 16 91 17 85 18 87 19 41 20 90 21 84 22
REMARK SMILES IDX 83 23 42 25 72 26 53 27 71 28 54 29 57 30 70 31 88 32 55 33
REMARK SMILES IDX 56 34 69 36 89 37 58 38 43 39 44 40 52 41 45 42 51 43 46 44
REMARK SMILES IDX 47 45 48 46 49 47 50 48 73 49 74 50 82 51 75 52 81 53 76 54
REMARK SMILES IDX 77 55 78 56 79 57 80 58 59 59 60 60 68 61 61 62 67 63 62 64
REMARK SMILES IDX 63 65 64 66 65 67 66 68 7 69 8 70 9 71 10 72 11 73 12 74
REMARK SMILES IDX 13 75 17 76 14 77 16 78 15 79 18 80 19 81 20 82 21 84 22 85
REMARK SMILES IDX 33 86 23 87 32 88 24 89 25 90 31 91 26 92 29 93 27 94 30 95
REMARK SMILES IDX 28 96
REMARK H PARENT 87 24 57 35 20 83
REMARK Flexibility Score: inf
ROOT
ATOM      1  O   UNL     1       4.179  -1.788  -3.171  1.00  0.00    -0.374 OA
ENDROOT
BRANCH   1   2
ATOM      2  C   UNL     1       4.869  -1.462  -1.969  1.00  0.00     0.202 C 
BRANCH   2   3
ATOM      3  C   UNL     1       4.151  -1.009  -0.678  1.00  0.00     0.261 C 
BRANCH   3   4
ATOM      4  O   UNL     1       2.713  -0.834  -0.656  1.00  0.00    -0.460 OA
BRANCH   4   5
ATOM      5  C   UNL     1       2.028   0.347  -0.608  1.00  0.00     0.338 C 
ATOM      6  O   UNL     1       0.953   0.439  -0.043  1.00  0.00    -0.246 OA
BRANCH   5   7
ATOM      7  C   UNL     1       2.589   1.511  -1.336  1.00  0.00     0.060 A 
ATOM      8  C   UNL     1       3.558   1.303  -2.297  1.00  0.00     0.016 A 
ATOM      9  C   UNL     1       2.144   2.816  -1.120  1.00  0.00     0.016 A 
ATOM     10  C   UNL     1       4.277   2.316  -2.855  1.00  0.00     0.010 A 
ATOM     11  C   UNL     1       2.702   3.859  -1.874  1.00  0.00     0.010 A 
ATOM     12  C   UNL     1       3.775   3.596  -2.740  1.00  0.00    -0.014 A 
BRANCH  12  13
ATOM     13  C   UNL     1       4.416   4.588  -3.610  1.00  0.00     0.031 A 
ATOM     14  C   UNL     1       5.210   5.673  -2.977  1.00  0.00     0.074 A 
ATOM     15  C   UNL     1       4.402   4.366  -4.941  1.00  0.00     0.049 A 
ATOM     16  N   UNL     1       5.798   6.685  -3.542  1.00  0.00    -0.248 NA
ATOM     17  C   UNL     1       5.366   5.611  -1.514  1.00  0.00     0.031 C 
ATOM     18  C   UNL     1       3.766   3.213  -5.604  1.00  0.00     0.029 A 
ATOM     19  N   UNL     1       4.980   5.047  -5.974  1.00  0.00    -0.354 N 
ATOM     20  C   UNL     1       6.328   7.429  -2.499  1.00  0.00     0.074 A 
ATOM     21  C   UNL     1       6.025   6.733  -1.270  1.00  0.00     0.031 C 
ATOM     22  C   UNL     1       4.049   3.236  -6.912  1.00  0.00     0.029 A 
ATOM     23  C   UNL     1       4.746   4.475  -7.204  1.00  0.00     0.049 A 
ATOM     24  H   UNL     1       5.512   5.866  -5.851  1.00  0.00     0.167 HD
ATOM     25  C   UNL     1       6.967   8.616  -2.588  1.00  0.00     0.031 A 
ATOM     26  C   UNL     1       4.997   4.947  -8.438  1.00  0.00     0.031 A 
ATOM     27  C   UNL     1       7.206   9.258  -3.852  1.00  0.00     0.049 A 
ATOM     28  C   UNL     1       5.633   6.301  -8.515  1.00  0.00     0.074 A 
ATOM     29  C   UNL     1       7.767  10.493  -4.105  1.00  0.00     0.029 A 
ATOM     30  N   UNL     1       6.885   8.696  -5.085  1.00  0.00    -0.354 N 
ATOM     31  N   UNL     1       6.030   7.067  -7.523  1.00  0.00    -0.248 NA
ATOM     32  C   UNL     1       5.833   6.871  -9.847  1.00  0.00     0.031 C 
ATOM     33  C   UNL     1       7.731  10.700  -5.489  1.00  0.00     0.029 A 
ATOM     34  C   UNL     1       7.219   9.564  -6.105  1.00  0.00     0.049 A 
ATOM     35  H   UNL     1       6.479   7.808  -5.212  1.00  0.00     0.167 HD
ATOM     36  C   UNL     1       6.541   8.213  -8.109  1.00  0.00     0.074 A 
ATOM     37  C   UNL     1       6.410   8.029  -9.546  1.00  0.00     0.031 C 
ATOM     38  C   UNL     1       7.069   9.314  -7.521  1.00  0.00     0.031 A 
BRANCH  25  39
ATOM     39  C   UNL     1       7.285   9.314  -1.294  1.00  0.00    -0.014 A 
ATOM     40  C   UNL     1       8.238   8.815  -0.386  1.00  0.00     0.010 A 
ATOM     41  C   UNL     1       6.542  10.455  -0.941  1.00  0.00     0.010 A 
ATOM     42  C   UNL     1       8.387   9.401   0.876  1.00  0.00     0.020 A 
ATOM     43  C   UNL     1       6.710  11.063   0.306  1.00  0.00     0.020 A 
ATOM     44  C   UNL     1       7.611  10.513   1.218  1.00  0.00     0.054 A 
BRANCH  44  45
ATOM     45  S   UNL     1       7.785  11.226   2.877  1.00  0.00     0.124 S 
ATOM     46  O   UNL     1       7.121  10.222   3.705  1.00  0.00    -0.237 OA
ATOM     47  O   UNL     1       9.234  11.314   3.038  1.00  0.00    -0.237 OA
ATOM     48  O   UNL     1       7.092  12.508   2.779  1.00  0.00    -0.744 OA
ENDBRANCH  44  45
ENDBRANCH  25  39
BRANCH  26  49
ATOM     49  C   UNL     1       4.538   4.179  -9.630  1.00  0.00    -0.014 A 
ATOM     50  C   UNL     1       5.452   3.579 -10.511  1.00  0.00     0.010 A 
ATOM     51  C   UNL     1       3.159   3.955  -9.830  1.00  0.00     0.010 A 
ATOM     52  C   UNL     1       4.998   2.757 -11.553  1.00  0.00     0.020 A 
ATOM     53  C   UNL     1       2.704   3.111 -10.846  1.00  0.00     0.020 A 
ATOM     54  C   UNL     1       3.628   2.518 -11.705  1.00  0.00     0.054 A 
BRANCH  54  55
ATOM     55  S   UNL     1       3.070   1.372 -12.998  1.00  0.00     0.124 S 
ATOM     56  O   UNL     1       3.306   2.147 -14.213  1.00  0.00    -0.237 OA
ATOM     57  O   UNL     1       3.947   0.222 -12.800  1.00  0.00    -0.237 OA
ATOM     58  O   UNL     1       1.665   1.139 -12.668  1.00  0.00    -0.744 OA
ENDBRANCH  54  55
ENDBRANCH  26  49
BRANCH  38  59
ATOM     59  C   UNL     1       7.599  10.375  -8.437  1.00  0.00    -0.014 A 
ATOM     60  C   UNL     1       6.736  11.256  -9.107  1.00  0.00     0.010 A 
ATOM     61  C   UNL     1       8.991  10.555  -8.523  1.00  0.00     0.010 A 
ATOM     62  C   UNL     1       7.262  12.309  -9.854  1.00  0.00     0.020 A 
ATOM     63  C   UNL     1       9.518  11.623  -9.245  1.00  0.00     0.020 A 
ATOM     64  C   UNL     1       8.649  12.492  -9.907  1.00  0.00     0.054 A 
BRANCH  64  65
ATOM     65  S   UNL     1       9.302  13.931 -10.793  1.00  0.00     0.124 S 
ATOM     66  O   UNL     1       9.083  13.553 -12.186  1.00  0.00    -0.237 OA
ATOM     67  O   UNL     1       8.463  15.018 -10.296  1.00  0.00    -0.237 OA
ATOM     68  O   UNL     1      10.701  13.989 -10.374  1.00  0.00    -0.744 OA
ENDBRANCH  64  65
ENDBRANCH  38  59
ENDBRANCH  12  13
ENDBRANCH   5   7
ENDBRANCH   4   5
ENDBRANCH   3   4
ENDBRANCH   2   3
ENDBRANCH   1   2
BRANCH   1  69
ATOM     69  C   UNL     1       2.777  -2.017  -3.203  1.00  0.00     0.202 C 
BRANCH  69  70
ATOM     70  C   UNL     1       2.304  -3.357  -2.653  1.00  0.00     0.261 C 
BRANCH  70  71
ATOM     71  O   UNL     1       2.790  -3.627  -1.329  1.00  0.00    -0.463 OA
BRANCH  71  72
ATOM     72  C   UNL     1       3.981  -4.254  -1.303  1.00  0.00     0.309 C 
ATOM     73  O   UNL     1       4.631  -4.539  -2.308  1.00  0.00    -0.252 OA
BRANCH  72  74
ATOM     74  C   UNL     1       4.474  -4.678   0.068  1.00  0.00     0.111 C 
ATOM     75  C   UNL     1       4.425  -6.211  -0.047  1.00  0.00     0.016 C 
ATOM     76  C   UNL     1       3.968  -4.039   1.402  1.00  0.00     0.093 C 
ATOM     77  C   UNL     1       4.824  -6.926   1.217  1.00  0.00     0.001 C 
ATOM     78  C   UNL     1       4.187  -4.968   2.624  1.00  0.00     0.014 C 
ATOM     79  C   UNL     1       3.935  -6.448   2.345  1.00  0.00     0.001 C 
BRANCH  76  80
ATOM     80  C   UNL     1       2.523  -3.549   1.482  1.00  0.00     0.230 C 
ATOM     81  O   UNL     1       1.609  -4.303   1.122  1.00  0.00    -0.274 OA
ATOM     82  N   UNL     1       2.162  -2.385   2.105  1.00  0.00    -0.302 N 
ATOM     83  H   UNL     1       1.205  -2.338   2.330  1.00  0.00     0.172 HD
BRANCH  82  84
ATOM     84  C   UNL     1       2.871  -1.268   2.481  1.00  0.00     0.189 A 
ATOM     85  N   UNL     1       4.129  -0.925   2.324  1.00  0.00    -0.220 NA
ATOM     86  S   UNL     1       1.861  -0.050   3.156  1.00  0.00    -0.105 S 
ATOM     87  C   UNL     1       4.268   0.454   2.548  1.00  0.00     0.084 A 
ATOM     88  C   UNL     1       3.131   1.094   2.996  1.00  0.00     0.097 A 
BRANCH  87  89
ATOM     89  C   UNL     1       5.480   1.169   2.159  1.00  0.00     0.003 A 
ATOM     90  C   UNL     1       5.512   1.874   0.948  1.00  0.00     0.012 A 
ATOM     91  C   UNL     1       6.654   1.070   2.906  1.00  0.00     0.032 A 
ATOM     92  C   UNL     1       6.717   2.325   0.404  1.00  0.00     0.023 A 
ATOM     93  C   UNL     1       7.858   1.581   2.395  1.00  0.00     0.060 A 
ATOM     94  C   UNL     1       7.899   2.163   1.121  1.00  0.00     0.059 A 
ATOM     95  Cl  UNL     1       9.273   1.429   3.376  1.00  0.00    -0.083 Cl
ATOM     96  Cl  UNL     1       9.369   2.661   0.365  1.00  0.00    -0.083 Cl
ENDBRANCH  87  89
ENDBRANCH  82  84
ENDBRANCH  76  80
ENDBRANCH  72  74
ENDBRANCH  71  72
ENDBRANCH  70  71
ENDBRANCH  69  70
ENDBRANCH   1  69
TORSDOF 20
