REMARK SMILES CCc1ccc2nc(NC(=O)/C=C/C(=O)OCCOCCOC(=O)c3ccc(-c4c5nc(c(-c6ccc(S(=O)(=O)[O-])cc6)c6ccc([nH]6)c(-c6ccc(S(=O)(=O)[O-])cc6)c6nc(c(-c7ccc(S(=O)(=O)[O-])cc7)c7ccc4[nH]7)C=C6)C=C5)cc3)sc2c1
REMARK SMILES IDX 19 1 18 2 17 3 16 4 14 5 15 6 13 7 12 8 10 9 9 10 11 12 8 13
REMARK SMILES IDX 3 14 4 15 87 16 5 17 86 18 6 19 85 20 7 21 2 22 1 23 20 24
REMARK SMILES IDX 21 25 22 26 23 27 24 28 25 29 26 30 84 31 27 32 83 33 28 34
REMARK SMILES IDX 29 35 30 36 77 37 31 38 82 39 76 40 78 41 32 42 81 43 75 44
REMARK SMILES IDX 74 45 33 47 63 48 44 49 62 50 45 51 48 52 61 53 79 54 46 55
REMARK SMILES IDX 47 56 60 58 80 59 49 60 34 61 35 62 43 63 36 64 42 65 37 66
REMARK SMILES IDX 38 67 39 68 40 69 41 70 64 71 65 72 73 73 66 74 72 75 67 76
REMARK SMILES IDX 68 77 69 78 70 79 71 80 50 81 51 82 59 83 52 84 58 85 53 86
REMARK SMILES IDX 54 87 55 88 56 89 57 90
REMARK H PARENT 9 11 78 46 48 57
REMARK Flexibility Score: inf
ROOT
ATOM      1  O   UNL     1      -0.728   6.677  -0.573  1.00  0.00    -0.374 OA
ENDROOT
BRANCH   1   2
ATOM      2  C   UNL     1      -1.345   7.926  -0.246  1.00  0.00     0.202 C 
BRANCH   2   3
ATOM      3  C   UNL     1      -1.439   8.287   1.240  1.00  0.00     0.261 C 
BRANCH   3   4
ATOM      4  O   UNL     1      -0.120   8.490   1.768  1.00  0.00    -0.460 OA
BRANCH   4   5
ATOM      5  C   UNL     1       0.059   8.116   3.053  1.00  0.00     0.331 C 
ATOM      6  O   UNL     1      -0.815   7.851   3.871  1.00  0.00    -0.247 OA
BRANCH   5   7
ATOM      7  C   UNL     1       1.503   7.937   3.271  1.00  0.00     0.099 C 
ATOM      8  C   UNL     1       1.973   7.866   4.522  1.00  0.00     0.079 C 
BRANCH   8   9
ATOM      9  C   UNL     1       3.356   7.424   4.784  1.00  0.00     0.250 C 
ATOM     10  N   UNL     1       3.696   6.106   4.681  1.00  0.00    -0.298 N 
ATOM     11  H   UNL     1       4.581   5.857   5.033  1.00  0.00     0.172 HD
ATOM     12  O   UNL     1       4.179   8.237   5.201  1.00  0.00    -0.270 OA
BRANCH  10  13
ATOM     13  C   UNL     1       2.951   5.093   4.147  1.00  0.00     0.190 A 
ATOM     14  C   UNL     1       0.987   1.312   2.104  1.00  0.00    -0.047 A 
ATOM     15  C   UNL     1       0.116   2.353   1.767  1.00  0.00     0.006 A 
ATOM     16  C   UNL     1       2.115   1.570   2.904  1.00  0.00     0.025 A 
ATOM     17  C   UNL     1       0.335   3.651   2.234  1.00  0.00     0.030 A 
ATOM     18  C   UNL     1       2.343   2.889   3.340  1.00  0.00     0.057 A 
ATOM     19  C   UNL     1       1.464   3.926   3.025  1.00  0.00     0.084 A 
ATOM     20  S   UNL     1       3.648   3.540   4.269  1.00  0.00    -0.097 S 
ATOM     21  N   UNL     1       1.812   5.167   3.516  1.00  0.00    -0.220 NA
BRANCH  14  22
ATOM     22  C   UNL     1       0.711  -0.079   1.585  1.00  0.00     0.032 C 
ATOM     23  C   UNL     1       1.124  -0.242   0.129  1.00  0.00     0.009 C 
ENDBRANCH  14  22
ENDBRANCH  10  13
ENDBRANCH   8   9
ENDBRANCH   5   7
ENDBRANCH   4   5
ENDBRANCH   3   4
ENDBRANCH   2   3
ENDBRANCH   1   2
BRANCH   1  24
ATOM     24  C   UNL     1       0.632   6.477  -0.194  1.00  0.00     0.202 C 
BRANCH  24  25
ATOM     25  C   UNL     1       1.722   7.276  -0.927  1.00  0.00     0.261 C 
BRANCH  25  26
ATOM     26  O   UNL     1       1.573   8.702  -0.835  1.00  0.00    -0.460 OA
BRANCH  26  27
ATOM     27  C   UNL     1       1.217   9.312  -1.992  1.00  0.00     0.338 C 
ATOM     28  O   UNL     1       1.032   8.783  -3.081  1.00  0.00    -0.246 OA
BRANCH  27  29
ATOM     29  C   UNL     1       0.896  10.726  -1.738  1.00  0.00     0.060 A 
ATOM     30  C   UNL     1      -0.408  11.162  -2.005  1.00  0.00     0.016 A 
ATOM     31  C   UNL     1       1.877  11.628  -1.323  1.00  0.00     0.016 A 
ATOM     32  C   UNL     1      -0.735  12.509  -1.873  1.00  0.00     0.010 A 
ATOM     33  C   UNL     1       1.551  12.983  -1.206  1.00  0.00     0.010 A 
ATOM     34  C   UNL     1       0.251  13.433  -1.503  1.00  0.00    -0.014 A 
BRANCH  34  35
ATOM     35  C   UNL     1      -0.048  14.884  -1.553  1.00  0.00     0.031 A 
ATOM     36  C   UNL     1       0.422  15.686  -2.735  1.00  0.00     0.074 A 
ATOM     37  C   UNL     1      -0.748  15.472  -0.566  1.00  0.00     0.049 A 
ATOM     38  N   UNL     1       0.307  16.968  -2.962  1.00  0.00    -0.248 NA
ATOM     39  C   UNL     1       1.116  14.944  -3.800  1.00  0.00     0.031 C 
ATOM     40  C   UNL     1      -1.297  14.787   0.605  1.00  0.00     0.029 A 
ATOM     41  N   UNL     1      -1.113  16.783  -0.391  1.00  0.00    -0.354 N 
ATOM     42  C   UNL     1       0.923  17.190  -4.189  1.00  0.00     0.074 A 
ATOM     43  C   UNL     1       1.433  15.915  -4.644  1.00  0.00     0.031 C 
ATOM     44  C   UNL     1      -1.921  15.687   1.383  1.00  0.00     0.029 A 
ATOM     45  C   UNL     1      -1.784  17.014   0.786  1.00  0.00     0.049 A 
ATOM     46  H   UNL     1      -0.912  17.490  -1.045  1.00  0.00     0.167 HD
ATOM     47  C   UNL     1       1.049  18.352  -4.874  1.00  0.00     0.031 A 
ATOM     48  C   UNL     1      -2.217  18.169   1.331  1.00  0.00     0.031 A 
ATOM     49  C   UNL     1       0.552  19.619  -4.406  1.00  0.00     0.049 A 
ATOM     50  C   UNL     1      -2.000  19.459   0.585  1.00  0.00     0.074 A 
ATOM     51  C   UNL     1       0.617  20.852  -5.031  1.00  0.00     0.029 A 
ATOM     52  N   UNL     1      -0.094  19.818  -3.195  1.00  0.00    -0.354 N 
ATOM     53  N   UNL     1      -1.435  19.651  -0.584  1.00  0.00    -0.248 NA
ATOM     54  C   UNL     1      -2.486  20.689   1.227  1.00  0.00     0.031 C 
ATOM     55  C   UNL     1       0.066  21.806  -4.171  1.00  0.00     0.029 A 
ATOM     56  C   UNL     1      -0.408  21.157  -3.041  1.00  0.00     0.049 A 
ATOM     57  H   UNL     1      -0.298  19.111  -2.541  1.00  0.00     0.167 HD
ATOM     58  C   UNL     1      -1.529  21.017  -0.832  1.00  0.00     0.074 A 
ATOM     59  C   UNL     1      -2.213  21.601   0.304  1.00  0.00     0.031 C 
ATOM     60  C   UNL     1      -1.094  21.723  -1.906  1.00  0.00     0.031 A 
BRANCH  47  61
ATOM     61  C   UNL     1       1.789  18.311  -6.186  1.00  0.00    -0.014 A 
ATOM     62  C   UNL     1       1.236  17.687  -7.319  1.00  0.00     0.010 A 
ATOM     63  C   UNL     1       3.041  18.943  -6.297  1.00  0.00     0.010 A 
ATOM     64  C   UNL     1       1.939  17.664  -8.528  1.00  0.00     0.020 A 
ATOM     65  C   UNL     1       3.734  18.947  -7.511  1.00  0.00     0.020 A 
ATOM     66  C   UNL     1       3.185  18.293  -8.615  1.00  0.00     0.054 A 
BRANCH  66  67
ATOM     67  S   UNL     1       4.063  18.266 -10.202  1.00  0.00     0.124 S 
ATOM     68  O   UNL     1       4.482  16.869 -10.291  1.00  0.00    -0.237 OA
ATOM     69  O   UNL     1       3.027  18.673 -11.148  1.00  0.00    -0.237 OA
ATOM     70  O   UNL     1       5.146  19.229 -10.016  1.00  0.00    -0.744 OA
ENDBRANCH  66  67
ENDBRANCH  47  61
BRANCH  48  71
ATOM     71  C   UNL     1      -2.886  18.158   2.661  1.00  0.00    -0.014 A 
ATOM     72  C   UNL     1      -4.253  18.460   2.782  1.00  0.00     0.010 A 
ATOM     73  C   UNL     1      -2.153  17.838   3.820  1.00  0.00     0.010 A 
ATOM     74  C   UNL     1      -4.872  18.459   4.036  1.00  0.00     0.020 A 
ATOM     75  C   UNL     1      -2.774  17.807   5.071  1.00  0.00     0.020 A 
ATOM     76  C   UNL     1      -4.128  18.129   5.173  1.00  0.00     0.054 A 
BRANCH  76  77
ATOM     77  S   UNL     1      -4.965  18.085   6.782  1.00  0.00     0.124 S 
ATOM     78  O   UNL     1      -5.180  19.503   7.052  1.00  0.00    -0.237 OA
ATOM     79  O   UNL     1      -6.165  17.306   6.491  1.00  0.00    -0.237 OA
ATOM     80  O   UNL     1      -3.997  17.422   7.653  1.00  0.00    -0.744 OA
ENDBRANCH  76  77
ENDBRANCH  48  71
BRANCH  60  81
ATOM     81  C   UNL     1      -1.385  23.201  -1.934  1.00  0.00    -0.014 A 
ATOM     82  C   UNL     1      -0.710  24.100  -1.090  1.00  0.00     0.010 A 
ATOM     83  C   UNL     1      -2.307  23.704  -2.872  1.00  0.00     0.010 A 
ATOM     84  C   UNL     1      -0.973  25.471  -1.164  1.00  0.00     0.020 A 
ATOM     85  C   UNL     1      -2.550  25.076  -2.970  1.00  0.00     0.020 A 
ATOM     86  C   UNL     1      -1.891  25.950  -2.105  1.00  0.00     0.054 A 
BRANCH  86  87
ATOM     87  S   UNL     1      -2.177  27.738  -2.215  1.00  0.00     0.124 S 
ATOM     88  O   UNL     1      -2.947  27.998  -1.002  1.00  0.00    -0.237 OA
ATOM     89  O   UNL     1      -0.820  28.280  -2.227  1.00  0.00    -0.237 OA
ATOM     90  O   UNL     1      -2.915  27.896  -3.466  1.00  0.00    -0.744 OA
ENDBRANCH  86  87
ENDBRANCH  60  81
ENDBRANCH  34  35
ENDBRANCH  27  29
ENDBRANCH  26  27
ENDBRANCH  25  26
ENDBRANCH  24  25
ENDBRANCH   1  24
TORSDOF 20
