REMARK SMILES COc1cccc([C@@H]2[NH2+][C@@](C)(C(=O)OCCOCCOC(=O)c3ccc(-c4c5nc(c(-c6ccc(S(=O)(=O)[O-])cc6)c6ccc([nH]6)c(-c6ccc(S(=O)(=O)[O-])cc6)c6nc(c(-c7ccc(S(=O)(=O)[O-])cc7)c7ccc4[nH]7)C=C6)C=C5)cc3)[C@@H]3C(=O)N(C)C(=O)[C@@H]32)c1O
REMARK SMILES IDX 18 1 17 2 16 3 15 4 14 5 12 6 13 7 10 8 8 9 9 10 90 11 83 14
REMARK SMILES IDX 88 15 11 16 84 17 86 18 89 19 85 20 87 21 7 22 3 23 4 24
REMARK SMILES IDX 91 25 5 26 6 27 2 28 1 29 92 30 19 32 20 33 21 34 22 35
REMARK SMILES IDX 23 36 24 37 82 38 25 39 81 40 26 41 27 42 28 43 75 44 29 45
REMARK SMILES IDX 80 46 74 47 76 48 30 49 79 50 73 51 72 52 31 54 61 55 42 56
REMARK SMILES IDX 60 57 43 58 46 59 59 60 77 61 44 62 45 63 58 65 78 66 47 67
REMARK SMILES IDX 32 68 33 69 41 70 34 71 40 72 35 73 36 74 37 75 38 76 39 77
REMARK SMILES IDX 62 78 63 79 71 80 64 81 70 82 65 83 66 84 67 85 68 86 69 87
REMARK SMILES IDX 48 88 49 89 57 90 50 91 56 92 51 93 52 94 53 95 54 96 55 97
REMARK H PARENT 9 12 9 13 92 31 76 53 46 64
REMARK Flexibility Score: inf
ROOT
ATOM      1  C   UNL     1       8.374  -3.304   2.143  1.00  0.00     0.202 C 
ENDROOT
BRANCH   1   2
ATOM      2  O   UNL     1       9.528  -2.663   2.683  1.00  0.00    -0.374 OA
BRANCH   2   3
ATOM      3  C   UNL     1       9.464  -2.254   4.050  1.00  0.00     0.202 C 
BRANCH   3   4
ATOM      4  C   UNL     1       8.657  -0.992   4.362  1.00  0.00     0.261 C 
BRANCH   4   5
ATOM      5  O   UNL     1       7.283  -1.107   3.953  1.00  0.00    -0.459 OA
BRANCH   5   6
ATOM      6  C   UNL     1       6.919  -0.281   2.935  1.00  0.00     0.368 C 
ATOM      7  O   UNL     1       7.658   0.575   2.453  1.00  0.00    -0.245 OA
BRANCH   6   8
ATOM      8  C   UNL     1       5.455  -0.474   2.444  1.00  0.00     0.204 C 
ATOM      9  C   UNL     1       4.657  -2.564   1.468  1.00  0.00     0.232 C 
ATOM     10  N   UNL     1       4.910  -1.841   2.736  1.00  0.00    -0.325 N 
ATOM     11  C   UNL     1       5.415  -1.791   0.395  1.00  0.00     0.161 C 
ATOM     12  H   UNL     1       5.585  -2.363   3.294  1.00  0.00     0.347 HD
ATOM     13  H   UNL     1       4.034  -1.751   3.251  1.00  0.00     0.347 HD
ATOM     14  C   UNL     1       5.526  -0.369   0.920  1.00  0.00     0.170 C 
ATOM     15  C   UNL     1       4.732  -1.615  -0.927  1.00  0.00     0.239 C 
ATOM     16  C   UNL     1       4.696   0.609   3.217  1.00  0.00     0.093 C 
ATOM     17  C   UNL     1       4.474   0.381   0.152  1.00  0.00     0.240 C 
ATOM     18  N   UNL     1       4.182  -0.364  -0.963  1.00  0.00    -0.285 N 
ATOM     19  O   UNL     1       4.680  -2.465  -1.804  1.00  0.00    -0.274 OA
ATOM     20  O   UNL     1       4.061   1.501   0.406  1.00  0.00    -0.274 OA
ATOM     21  C   UNL     1       3.390   0.104  -2.071  1.00  0.00     0.156 C 
BRANCH   9  22
ATOM     22  C   UNL     1       3.204  -2.899   1.143  1.00  0.00     0.056 A 
ATOM     23  C   UNL     1       0.876  -2.282   0.675  1.00  0.00     0.161 A 
ATOM     24  C   UNL     1       0.618  -3.554   0.178  1.00  0.00     0.050 A 
ATOM     25  C   UNL     1       2.141  -1.988   1.205  1.00  0.00     0.166 A 
ATOM     26  C   UNL     1       1.631  -4.509   0.171  1.00  0.00     0.005 A 
ATOM     27  C   UNL     1       2.912  -4.180   0.633  1.00  0.00     0.014 A 
BRANCH  23  28
ATOM     28  O   UNL     1      -0.169  -1.395   0.674  1.00  0.00    -0.493 OA
ATOM     29  C   UNL     1       0.121  -0.136   0.059  1.00  0.00     0.278 C 
ENDBRANCH  23  28
BRANCH  25  30
ATOM     30  O   UNL     1       2.337  -0.793   1.823  1.00  0.00    -0.504 OA
ATOM     31  H   UNL     1       1.637  -0.171   1.875  1.00  0.00     0.293 HD
ENDBRANCH  25  30
ENDBRANCH   9  22
ENDBRANCH   6   8
ENDBRANCH   5   6
ENDBRANCH   4   5
ENDBRANCH   3   4
ENDBRANCH   2   3
ENDBRANCH   1   2
BRANCH   1  32
ATOM     32  C   UNL     1       8.116  -4.759   2.548  1.00  0.00     0.261 C 
BRANCH  32  33
ATOM     33  O   UNL     1       7.822  -4.892   3.948  1.00  0.00    -0.460 OA
BRANCH  33  34
ATOM     34  C   UNL     1       8.781  -5.524   4.664  1.00  0.00     0.338 C 
ATOM     35  O   UNL     1       9.789  -6.066   4.225  1.00  0.00    -0.246 OA
BRANCH  34  36
ATOM     36  C   UNL     1       8.566  -5.314   6.107  1.00  0.00     0.060 A 
ATOM     37  C   UNL     1       9.664  -4.870   6.856  1.00  0.00     0.016 A 
ATOM     38  C   UNL     1       7.351  -5.606   6.730  1.00  0.00     0.016 A 
ATOM     39  C   UNL     1       9.574  -4.785   8.241  1.00  0.00     0.010 A 
ATOM     40  C   UNL     1       7.265  -5.528   8.125  1.00  0.00     0.010 A 
ATOM     41  C   UNL     1       8.390  -5.162   8.887  1.00  0.00    -0.014 A 
BRANCH  41  42
ATOM     42  C   UNL     1       8.401  -5.339  10.358  1.00  0.00     0.031 A 
ATOM     43  C   UNL     1       8.582  -6.726  10.917  1.00  0.00     0.074 A 
ATOM     44  C   UNL     1       8.316  -4.279  11.181  1.00  0.00     0.049 A 
ATOM     45  N   UNL     1       8.641  -7.114  12.164  1.00  0.00    -0.248 NA
ATOM     46  C   UNL     1       8.717  -7.819   9.939  1.00  0.00     0.031 C 
ATOM     47  C   UNL     1       8.189  -2.886  10.754  1.00  0.00     0.029 A 
ATOM     48  N   UNL     1       8.330  -4.213  12.551  1.00  0.00    -0.354 N 
ATOM     49  C   UNL     1       8.819  -8.493  12.122  1.00  0.00     0.074 A 
ATOM     50  C   UNL     1       8.824  -8.878  10.727  1.00  0.00     0.031 C 
ATOM     51  C   UNL     1       8.132  -2.101  11.844  1.00  0.00     0.029 A 
ATOM     52  C   UNL     1       8.191  -2.937  13.041  1.00  0.00     0.049 A 
ATOM     53  H   UNL     1       8.430  -5.004  13.128  1.00  0.00     0.167 HD
ATOM     54  C   UNL     1       8.973  -9.360  13.150  1.00  0.00     0.031 A 
ATOM     55  C   UNL     1       8.106  -2.497  14.312  1.00  0.00     0.031 A 
ATOM     56  C   UNL     1       8.950  -8.975  14.536  1.00  0.00     0.049 A 
ATOM     57  C   UNL     1       8.207  -3.489  15.442  1.00  0.00     0.074 A 
ATOM     58  C   UNL     1       9.095  -9.776  15.655  1.00  0.00     0.029 A 
ATOM     59  N   UNL     1       8.767  -7.678  14.992  1.00  0.00    -0.354 N 
ATOM     60  N   UNL     1       8.389  -4.787  15.385  1.00  0.00    -0.248 NA
ATOM     61  C   UNL     1       8.101  -2.955  16.806  1.00  0.00     0.031 C 
ATOM     62  C   UNL     1       8.948  -8.970  16.789  1.00  0.00     0.029 A 
ATOM     63  C   UNL     1       8.772  -7.659  16.376  1.00  0.00     0.049 A 
ATOM     64  H   UNL     1       8.649  -6.888  14.416  1.00  0.00     0.167 HD
ATOM     65  C   UNL     1       8.448  -5.221  16.705  1.00  0.00     0.074 A 
ATOM     66  C   UNL     1       8.294  -4.045  17.538  1.00  0.00     0.031 C 
ATOM     67  C   UNL     1       8.617  -6.477  17.187  1.00  0.00     0.031 A 
BRANCH  54  68
ATOM     68  C   UNL     1       9.145 -10.817  12.810  1.00  0.00    -0.014 A 
ATOM     69  C   UNL     1      10.336 -11.294  12.233  1.00  0.00     0.010 A 
ATOM     70  C   UNL     1       8.111 -11.726  13.095  1.00  0.00     0.010 A 
ATOM     71  C   UNL     1      10.474 -12.648  11.913  1.00  0.00     0.020 A 
ATOM     72  C   UNL     1       8.255 -13.085  12.801  1.00  0.00     0.020 A 
ATOM     73  C   UNL     1       9.430 -13.534  12.195  1.00  0.00     0.054 A 
BRANCH  73  74
ATOM     74  S   UNL     1       9.641 -15.289  11.785  1.00  0.00     0.124 S 
ATOM     75  O   UNL     1       9.521 -15.273  10.329  1.00  0.00    -0.237 OA
ATOM     76  O   UNL     1      10.976 -15.581  12.301  1.00  0.00    -0.237 OA
ATOM     77  O   UNL     1       8.545 -15.945  12.493  1.00  0.00    -0.744 OA
ENDBRANCH  73  74
ENDBRANCH  54  68
BRANCH  55  78
ATOM     78  C   UNL     1       7.896  -1.048  14.585  1.00  0.00    -0.014 A 
ATOM     79  C   UNL     1       8.911  -0.268  15.165  1.00  0.00     0.010 A 
ATOM     80  C   UNL     1       6.668  -0.442  14.261  1.00  0.00     0.010 A 
ATOM     81  C   UNL     1       8.695   1.088  15.432  1.00  0.00     0.020 A 
ATOM     82  C   UNL     1       6.459   0.919  14.502  1.00  0.00     0.020 A 
ATOM     83  C   UNL     1       7.471   1.673  15.097  1.00  0.00     0.054 A 
BRANCH  83  84
ATOM     84  S   UNL     1       7.229   3.444  15.408  1.00  0.00     0.124 S 
ATOM     85  O   UNL     1       7.054   3.477  16.856  1.00  0.00    -0.237 OA
ATOM     86  O   UNL     1       8.471   4.026  14.906  1.00  0.00    -0.237 OA
ATOM     87  O   UNL     1       6.038   3.768  14.625  1.00  0.00    -0.744 OA
ENDBRANCH  83  84
ENDBRANCH  55  78
BRANCH  67  88
ATOM     88  C   UNL     1       8.684  -6.644  18.682  1.00  0.00    -0.014 A 
ATOM     89  C   UNL     1       7.535  -6.521  19.483  1.00  0.00     0.010 A 
ATOM     90  C   UNL     1       9.909  -6.983  19.286  1.00  0.00     0.010 A 
ATOM     91  C   UNL     1       7.617  -6.702  20.866  1.00  0.00     0.020 A 
ATOM     92  C   UNL     1       9.989  -7.192  20.665  1.00  0.00     0.020 A 
ATOM     93  C   UNL     1       8.844  -7.035  21.449  1.00  0.00     0.054 A 
BRANCH  93  94
ATOM     94  S   UNL     1       8.917  -7.305  23.241  1.00  0.00     0.124 S 
ATOM     95  O   UNL     1       8.839  -5.941  23.757  1.00  0.00    -0.237 OA
ATOM     96  O   UNL     1       7.743  -8.139  23.488  1.00  0.00    -0.237 OA
ATOM     97  O   UNL     1      10.201  -7.974  23.439  1.00  0.00    -0.744 OA
ENDBRANCH  93  94
ENDBRANCH  67  88
ENDBRANCH  41  42
ENDBRANCH  34  36
ENDBRANCH  33  34
ENDBRANCH  32  33
ENDBRANCH   1  32
TORSDOF 20
