REMARK SMILES COC(=O)c1ccc2c(c1)=N[C@H](c1cn(CCC(=O)OCCOCCOC(=O)c3ccc(-c4c5nc(c(-c6ccc(S(=O)(=O)[O-])cc6)c6ccc([nH]6)c(-c6ccc(S(=O)(=O)[O-])cc6)c6nc(c(-c7ccc(S(=O)(=O)[O-])cc7)c7ccc4[nH]7)C=C6)C=C5)cc3)c3ccccc13)N=2
REMARK SMILES IDX 22 1 21 2 20 3 18 4 19 5 17 6 16 7 15 8 13 9 14 10 94 11
REMARK SMILES IDX 89 12 93 13 90 14 92 15 91 16 12 17 5 18 6 19 10 20 7 21
REMARK SMILES IDX 9 22 8 23 11 24 95 25 3 26 4 27 2 28 1 29 23 30 24 31 25 32
REMARK SMILES IDX 26 33 27 34 28 35 29 36 30 37 88 38 31 39 87 40 32 41 33 42
REMARK SMILES IDX 34 43 81 44 35 45 86 46 80 47 82 48 36 49 85 50 79 51 78 52
REMARK SMILES IDX 37 54 67 55 48 56 66 57 49 58 52 59 65 60 83 61 50 62 51 63
REMARK SMILES IDX 64 65 84 66 53 67 38 68 39 69 47 70 40 71 46 72 41 73 42 74
REMARK SMILES IDX 43 75 44 76 45 77 68 78 69 79 77 80 70 81 76 82 71 83 72 84
REMARK SMILES IDX 73 85 74 86 75 87 54 88 55 89 63 90 56 91 62 92 57 93 58 94
REMARK SMILES IDX 59 95 60 96 61 97
REMARK H PARENT 82 53 52 64
REMARK Flexibility Score: inf
ROOT
ATOM      1  C   UNL     1      -2.982 -10.007   7.502  1.00  0.00     0.202 C 
ENDROOT
BRANCH   1   2
ATOM      2  C   UNL     1      -2.919  -9.752   9.011  1.00  0.00     0.261 C 
BRANCH   2   3
ATOM      3  O   UNL     1      -1.780  -8.943   9.369  1.00  0.00    -0.463 OA
BRANCH   3   4
ATOM      4  C   UNL     1      -0.701  -9.589   9.871  1.00  0.00     0.307 C 
ATOM      5  O   UNL     1      -0.588 -10.803   9.988  1.00  0.00    -0.252 OA
BRANCH   4   6
ATOM      6  C   UNL     1       0.407  -8.629  10.227  1.00  0.00     0.144 C 
BRANCH   6   7
ATOM      7  C   UNL     1       1.226  -8.162   9.021  1.00  0.00     0.134 C 
BRANCH   7   8
ATOM      8  N   UNL     1       0.827  -6.855   8.530  1.00  0.00    -0.346 N 
ATOM      9  C   UNL     1       0.383  -4.709   8.551  1.00  0.00     0.024 A 
ATOM     10  C   UNL     1       1.388  -5.638   8.848  1.00  0.00     0.094 A 
ATOM     11  C   UNL     1      -0.831  -5.524   8.500  1.00  0.00     0.007 A 
ATOM     12  C   UNL     1      -0.245  -6.541   7.729  1.00  0.00     0.048 A 
ATOM     13  C   UNL     1      -2.151  -5.206   8.147  1.00  0.00     0.011 A 
ATOM     14  C   UNL     1      -0.445  -6.519   6.339  1.00  0.00     0.027 A 
ATOM     15  C   UNL     1      -2.397  -5.130   6.783  1.00  0.00     0.001 A 
ATOM     16  C   UNL     1      -1.466  -5.664   5.890  1.00  0.00     0.002 A 
BRANCH   9  17
ATOM     17  C   UNL     1       0.582  -3.269   8.120  1.00  0.00     0.255 C 
ATOM     18  C   UNL     1       0.518  -1.904   3.775  1.00  0.00     0.062 A 
ATOM     19  C   UNL     1      -0.838  -1.539   4.171  1.00  0.00     0.018 A 
ATOM     20  C   UNL     1       1.366  -2.512   4.627  1.00  0.00     0.046 A 
ATOM     21  C   UNL     1      -1.329  -1.750   5.405  1.00  0.00     0.031 A 
ATOM     22  C   UNL     1       0.918  -2.759   6.009  1.00  0.00     0.087 A 
ATOM     23  C   UNL     1      -0.446  -2.367   6.409  1.00  0.00     0.086 A 
ATOM     24  N   UNL     1       1.587  -3.250   6.994  1.00  0.00    -0.252 NA
ATOM     25  N   UNL     1      -0.671  -2.604   7.654  1.00  0.00    -0.252 NA
BRANCH  18  26
ATOM     26  C   UNL     1       1.047  -1.632   2.398  1.00  0.00     0.337 C 
ATOM     27  O   UNL     1       1.958  -2.259   1.878  1.00  0.00    -0.246 OA
BRANCH  26  28
ATOM     28  O   UNL     1       0.412  -0.566   1.841  1.00  0.00    -0.465 OA
ATOM     29  C   UNL     1       0.905  -0.189   0.550  1.00  0.00     0.282 C 
ENDBRANCH  26  28
ENDBRANCH  18  26
ENDBRANCH   9  17
ENDBRANCH   7   8
ENDBRANCH   6   7
ENDBRANCH   4   6
ENDBRANCH   3   4
ENDBRANCH   2   3
ENDBRANCH   1   2
BRANCH   1  30
ATOM     30  O   UNL     1      -2.079 -11.003   6.995  1.00  0.00    -0.374 OA
BRANCH  30  31
ATOM     31  C   UNL     1      -0.767 -10.517   6.712  1.00  0.00     0.202 C 
BRANCH  31  32
ATOM     32  C   UNL     1      -0.551 -10.063   5.263  1.00  0.00     0.261 C 
BRANCH  32  33
ATOM     33  O   UNL     1      -1.526  -9.073   4.911  1.00  0.00    -0.460 OA
BRANCH  33  34
ATOM     34  C   UNL     1      -2.369  -9.397   3.901  1.00  0.00     0.338 C 
ATOM     35  O   UNL     1      -2.147 -10.146   2.965  1.00  0.00    -0.246 OA
BRANCH  34  36
ATOM     36  C   UNL     1      -3.703  -8.909   4.301  1.00  0.00     0.060 A 
ATOM     37  C   UNL     1      -3.857  -7.631   4.817  1.00  0.00     0.016 A 
ATOM     38  C   UNL     1      -4.751  -9.820   4.379  1.00  0.00     0.016 A 
ATOM     39  C   UNL     1      -4.961  -7.323   5.597  1.00  0.00     0.010 A 
ATOM     40  C   UNL     1      -5.907  -9.477   5.082  1.00  0.00     0.010 A 
ATOM     41  C   UNL     1      -5.986  -8.262   5.771  1.00  0.00    -0.014 A 
BRANCH  41  42
ATOM     42  C   UNL     1      -7.135  -7.865   6.609  1.00  0.00     0.031 A 
ATOM     43  C   UNL     1      -7.640  -6.469   6.376  1.00  0.00     0.074 A 
ATOM     44  C   UNL     1      -7.794  -8.678   7.466  1.00  0.00     0.049 A 
ATOM     45  N   UNL     1      -7.790  -5.509   7.233  1.00  0.00    -0.248 NA
ATOM     46  C   UNL     1      -7.884  -6.065   4.979  1.00  0.00     0.031 C 
ATOM     47  C   UNL     1      -7.603 -10.114   7.686  1.00  0.00     0.029 A 
ATOM     48  N   UNL     1      -8.882  -8.402   8.249  1.00  0.00    -0.354 N 
ATOM     49  C   UNL     1      -8.300  -4.426   6.516  1.00  0.00     0.074 A 
ATOM     50  C   UNL     1      -8.206  -4.781   5.123  1.00  0.00     0.031 C 
ATOM     51  C   UNL     1      -8.695 -10.625   8.297  1.00  0.00     0.029 A 
ATOM     52  C   UNL     1      -9.580  -9.534   8.662  1.00  0.00     0.049 A 
ATOM     53  H   UNL     1      -9.147  -7.487   8.498  1.00  0.00     0.167 HD
ATOM     54  C   UNL     1      -8.922  -3.365   7.105  1.00  0.00     0.031 A 
ATOM     55  C   UNL     1     -10.825  -9.584   9.204  1.00  0.00     0.031 A 
ATOM     56  C   UNL     1      -8.616  -3.256   8.502  1.00  0.00     0.049 A 
ATOM     57  C   UNL     1     -11.119  -8.245   9.761  1.00  0.00     0.074 A 
ATOM     58  C   UNL     1      -7.465  -3.025   9.227  1.00  0.00     0.029 A 
ATOM     59  N   UNL     1      -9.540  -3.725   9.401  1.00  0.00    -0.354 N 
ATOM     60  N   UNL     1     -10.502  -7.736  10.788  1.00  0.00    -0.248 NA
ATOM     61  C   UNL     1     -11.831  -7.300   8.919  1.00  0.00     0.031 C 
ATOM     62  C   UNL     1      -7.604  -3.822  10.398  1.00  0.00     0.029 A 
ATOM     63  C   UNL     1      -8.854  -4.440  10.348  1.00  0.00     0.049 A 
ATOM     64  H   UNL     1     -10.513  -3.577   9.371  1.00  0.00     0.167 HD
ATOM     65  C   UNL     1     -10.379  -6.389  10.486  1.00  0.00     0.074 A 
ATOM     66  C   UNL     1     -11.293  -6.165   9.368  1.00  0.00     0.031 C 
ATOM     67  C   UNL     1      -9.357  -5.638  10.990  1.00  0.00     0.031 A 
BRANCH  54  68
ATOM     68  C   UNL     1     -10.046  -2.598   6.453  1.00  0.00    -0.014 A 
ATOM     69  C   UNL     1     -10.756  -3.097   5.340  1.00  0.00     0.010 A 
ATOM     70  C   UNL     1     -10.584  -1.459   7.088  1.00  0.00     0.010 A 
ATOM     71  C   UNL     1     -11.909  -2.482   4.854  1.00  0.00     0.020 A 
ATOM     72  C   UNL     1     -11.770  -0.859   6.636  1.00  0.00     0.020 A 
ATOM     73  C   UNL     1     -12.417  -1.369   5.512  1.00  0.00     0.054 A 
BRANCH  73  74
ATOM     74  S   UNL     1     -13.964  -0.659   4.900  1.00  0.00     0.124 S 
ATOM     75  O   UNL     1     -13.549  -0.104   3.614  1.00  0.00    -0.237 OA
ATOM     76  O   UNL     1     -14.838  -1.826   4.830  1.00  0.00    -0.237 OA
ATOM     77  O   UNL     1     -14.318   0.324   5.920  1.00  0.00    -0.744 OA
ENDBRANCH  73  74
ENDBRANCH  54  68
BRANCH  55  78
ATOM     78  C   UNL     1     -11.920 -10.531   8.857  1.00  0.00    -0.014 A 
ATOM     79  C   UNL     1     -11.936 -11.152   7.592  1.00  0.00     0.010 A 
ATOM     80  C   UNL     1     -13.110 -10.554   9.614  1.00  0.00     0.010 A 
ATOM     81  C   UNL     1     -13.115 -11.685   7.059  1.00  0.00     0.020 A 
ATOM     82  C   UNL     1     -14.298 -11.086   9.084  1.00  0.00     0.020 A 
ATOM     83  C   UNL     1     -14.299 -11.609   7.790  1.00  0.00     0.054 A 
BRANCH  83  84
ATOM     84  S   UNL     1     -15.845 -12.105   6.973  1.00  0.00     0.124 S 
ATOM     85  O   UNL     1     -15.988 -11.075   5.948  1.00  0.00    -0.237 OA
ATOM     86  O   UNL     1     -15.525 -13.441   6.477  1.00  0.00    -0.237 OA
ATOM     87  O   UNL     1     -16.834 -12.062   8.046  1.00  0.00    -0.744 OA
ENDBRANCH  83  84
ENDBRANCH  55  78
BRANCH  67  88
ATOM     88  C   UNL     1      -8.512  -6.191  12.118  1.00  0.00    -0.014 A 
ATOM     89  C   UNL     1      -8.298  -5.352  13.228  1.00  0.00     0.010 A 
ATOM     90  C   UNL     1      -7.779  -7.392  12.038  1.00  0.00     0.010 A 
ATOM     91  C   UNL     1      -7.354  -5.672  14.204  1.00  0.00     0.020 A 
ATOM     92  C   UNL     1      -6.847  -7.735  13.033  1.00  0.00     0.020 A 
ATOM     93  C   UNL     1      -6.624  -6.856  14.096  1.00  0.00     0.054 A 
BRANCH  93  94
ATOM     94  S   UNL     1      -5.366  -7.197  15.358  1.00  0.00     0.124 S 
ATOM     95  O   UNL     1      -4.342  -6.200  15.053  1.00  0.00    -0.237 OA
ATOM     96  O   UNL     1      -6.094  -6.979  16.606  1.00  0.00    -0.237 OA
ATOM     97  O   UNL     1      -4.976  -8.582  15.105  1.00  0.00    -0.744 OA
ENDBRANCH  93  94
ENDBRANCH  67  88
ENDBRANCH  41  42
ENDBRANCH  34  36
ENDBRANCH  33  34
ENDBRANCH  32  33
ENDBRANCH  31  32
ENDBRANCH  30  31
ENDBRANCH   1  30
TORSDOF 22
