REMARK SMILES CC(C)[NH2+][C@](C)(C[N@@H+]1CCC(C)(C)C1)C(=O)OCCOCCOC(=O)c1ccc(-c2c3nc(c(-c4ccc(S(=O)(=O)[O-])cc4)c4ccc([nH]4)c(-c4ccc(S(=O)(=O)[O-])cc4)c4nc(c(-c5ccc(S(=O)(=O)[O-])cc5)c5ccc2[nH]5)C=C4)C=C3)cc1
REMARK SMILES IDX 21 1 20 2 19 3 18 4 17 5 15 6 16 7 5 8 6 9 4 10 2 13 1 14
REMARK SMILES IDX 3 15 7 16 8 17 9 18 14 19 10 21 11 22 12 23 13 24 22 25
REMARK SMILES IDX 23 26 24 27 25 28 26 29 27 30 85 31 28 32 84 33 29 34 30 35
REMARK SMILES IDX 31 36 78 37 32 38 83 39 77 40 79 41 33 42 82 43 76 44 75 45
REMARK SMILES IDX 34 47 64 48 45 49 63 50 46 51 49 52 62 53 80 54 47 55 48 56
REMARK SMILES IDX 61 58 81 59 50 60 35 61 36 62 44 63 37 64 43 65 38 66 39 67
REMARK SMILES IDX 40 68 41 69 42 70 65 71 66 72 74 73 67 74 73 75 68 76 69 77
REMARK SMILES IDX 70 78 71 79 72 80 51 81 52 82 60 83 53 84 59 85 54 86 55 87
REMARK SMILES IDX 56 88 57 89 58 90
REMARK H PARENT 4 11 4 12 8 20 79 46 49 57
REMARK Flexibility Score: inf
ROOT
ATOM      1  C   UNL     1      -0.182   4.250  -3.638  1.00  0.00     0.202 C 
ENDROOT
BRANCH   1   2
ATOM      2  O   UNL     1       0.814   3.758  -4.530  1.00  0.00    -0.374 OA
BRANCH   2   3
ATOM      3  C   UNL     1       0.444   3.276  -5.810  1.00  0.00     0.202 C 
BRANCH   3   4
ATOM      4  C   UNL     1       0.131   1.774  -5.861  1.00  0.00     0.261 C 
BRANCH   4   5
ATOM      5  O   UNL     1      -0.787   1.290  -4.860  1.00  0.00    -0.458 OA
BRANCH   5   6
ATOM      6  C   UNL     1      -0.196   0.888  -3.696  1.00  0.00     0.373 C 
ATOM      7  O   UNL     1       1.006   1.028  -3.469  1.00  0.00    -0.244 OA
BRANCH   6   8
ATOM      8  C   UNL     1      -1.115  -0.010  -2.784  1.00  0.00     0.240 C 
ATOM      9  C   UNL     1      -0.376  -0.043  -1.431  1.00  0.00     0.099 C 
BRANCH   8  10
ATOM     10  N   UNL     1      -1.006  -1.349  -3.445  1.00  0.00    -0.326 N 
ATOM     11  H   UNL     1      -1.291  -1.204  -4.413  1.00  0.00     0.347 HD
ATOM     12  H   UNL     1      -0.045  -1.602  -3.218  1.00  0.00     0.347 HD
BRANCH  10  13
ATOM     13  C   UNL     1      -1.723  -2.537  -2.994  1.00  0.00     0.177 C 
ATOM     14  C   UNL     1      -1.144  -3.717  -3.799  1.00  0.00     0.075 C 
ATOM     15  C   UNL     1      -1.611  -2.884  -1.511  1.00  0.00     0.075 C 
ENDBRANCH  10  13
ENDBRANCH   8  10
BRANCH   8  16
ATOM     16  C   UNL     1      -2.597   0.547  -2.632  1.00  0.00     0.343 C 
BRANCH  16  17
ATOM     17  N   UNL     1      -2.804   1.760  -1.784  1.00  0.00    -0.329 N 
ATOM     18  C   UNL     1      -2.923   1.482  -0.345  1.00  0.00     0.263 C 
ATOM     19  C   UNL     1      -4.080   2.475  -2.049  1.00  0.00     0.269 C 
ATOM     20  H   UNL     1      -1.973   2.299  -2.026  1.00  0.00     0.348 HD
ATOM     21  C   UNL     1      -3.274   2.857   0.202  1.00  0.00     0.073 C 
ATOM     22  C   UNL     1      -4.236   3.448  -0.841  1.00  0.00     0.019 C 
ATOM     23  C   UNL     1      -5.680   3.464  -0.324  1.00  0.00     0.017 C 
ATOM     24  C   UNL     1      -3.841   4.906  -1.124  1.00  0.00     0.017 C 
ENDBRANCH  16  17
ENDBRANCH   8  16
ENDBRANCH   6   8
ENDBRANCH   5   6
ENDBRANCH   4   5
ENDBRANCH   3   4
ENDBRANCH   2   3
ENDBRANCH   1   2
BRANCH   1  25
ATOM     25  C   UNL     1      -1.666   4.069  -3.928  1.00  0.00     0.261 C 
BRANCH  25  26
ATOM     26  O   UNL     1      -2.062   4.592  -5.191  1.00  0.00    -0.460 OA
BRANCH  26  27
ATOM     27  C   UNL     1      -3.361   4.931  -5.282  1.00  0.00     0.338 C 
ATOM     28  O   UNL     1      -4.139   5.195  -4.377  1.00  0.00    -0.246 OA
BRANCH  27  29
ATOM     29  C   UNL     1      -3.773   4.705  -6.665  1.00  0.00     0.060 A 
ATOM     30  C   UNL     1      -3.023   5.223  -7.723  1.00  0.00     0.016 A 
ATOM     31  C   UNL     1      -4.920   3.935  -6.888  1.00  0.00     0.016 A 
ATOM     32  C   UNL     1      -3.463   5.016  -9.022  1.00  0.00     0.010 A 
ATOM     33  C   UNL     1      -5.336   3.696  -8.191  1.00  0.00     0.010 A 
ATOM     34  C   UNL     1      -4.629   4.270  -9.257  1.00  0.00    -0.014 A 
BRANCH  34  35
ATOM     35  C   UNL     1      -5.152   4.178 -10.631  1.00  0.00     0.031 A 
ATOM     36  C   UNL     1      -6.310   5.046 -11.025  1.00  0.00     0.074 A 
ATOM     37  C   UNL     1      -4.542   3.367 -11.511  1.00  0.00     0.049 A 
ATOM     38  N   UNL     1      -6.861   5.197 -12.199  1.00  0.00    -0.248 NA
ATOM     39  C   UNL     1      -6.927   5.855  -9.959  1.00  0.00     0.031 C 
ATOM     40  C   UNL     1      -3.401   2.500 -11.207  1.00  0.00     0.029 A 
ATOM     41  N   UNL     1      -4.779   3.158 -12.842  1.00  0.00    -0.354 N 
ATOM     42  C   UNL     1      -7.883   6.121 -12.017  1.00  0.00     0.074 A 
ATOM     43  C   UNL     1      -7.904   6.465 -10.613  1.00  0.00     0.031 C 
ATOM     44  C   UNL     1      -3.019   1.872 -12.331  1.00  0.00     0.029 A 
ATOM     45  C   UNL     1      -3.903   2.272 -13.421  1.00  0.00     0.049 A 
ATOM     46  H   UNL     1      -5.506   3.599 -13.337  1.00  0.00     0.167 HD
ATOM     47  C   UNL     1      -8.719   6.641 -12.945  1.00  0.00     0.031 A 
ATOM     48  C   UNL     1      -3.828   1.837 -14.693  1.00  0.00     0.031 A 
ATOM     49  C   UNL     1      -8.693   6.263 -14.332  1.00  0.00     0.049 A 
ATOM     50  C   UNL     1      -4.800   2.396 -15.696  1.00  0.00     0.074 A 
ATOM     51  C   UNL     1      -9.490   6.717 -15.366  1.00  0.00     0.029 A 
ATOM     52  N   UNL     1      -7.823   5.327 -14.875  1.00  0.00    -0.354 N 
ATOM     53  N   UNL     1      -5.741   3.294 -15.517  1.00  0.00    -0.248 NA
ATOM     54  C   UNL     1      -4.696   1.892 -17.070  1.00  0.00     0.031 C 
ATOM     55  C   UNL     1      -9.134   6.019 -16.525  1.00  0.00     0.029 A 
ATOM     56  C   UNL     1      -8.077   5.171 -16.225  1.00  0.00     0.049 A 
ATOM     57  H   UNL     1      -7.127   4.845 -14.372  1.00  0.00     0.167 HD
ATOM     58  C   UNL     1      -6.330   3.478 -16.761  1.00  0.00     0.074 A 
ATOM     59  C   UNL     1      -5.626   2.611 -17.686  1.00  0.00     0.031 C 
ATOM     60  C   UNL     1      -7.359   4.289 -17.112  1.00  0.00     0.031 A 
BRANCH  47  61
ATOM     61  C   UNL     1      -9.740   7.642 -12.474  1.00  0.00    -0.014 A 
ATOM     62  C   UNL     1      -9.360   8.936 -12.071  1.00  0.00     0.010 A 
ATOM     63  C   UNL     1     -11.100   7.288 -12.439  1.00  0.00     0.010 A 
ATOM     64  C   UNL     1     -10.316   9.842 -11.604  1.00  0.00     0.020 A 
ATOM     65  C   UNL     1     -12.063   8.200 -11.996  1.00  0.00     0.020 A 
ATOM     66  C   UNL     1     -11.662   9.466 -11.563  1.00  0.00     0.054 A 
BRANCH  66  67
ATOM     67  S   UNL     1     -12.885  10.662 -10.959  1.00  0.00     0.124 S 
ATOM     68  O   UNL     1     -12.623  10.661  -9.522  1.00  0.00    -0.237 OA
ATOM     69  O   UNL     1     -12.512  11.886 -11.664  1.00  0.00    -0.237 OA
ATOM     70  O   UNL     1     -14.165  10.083 -11.359  1.00  0.00    -0.744 OA
ENDBRANCH  66  67
ENDBRANCH  47  61
BRANCH  48  71
ATOM     71  C   UNL     1      -2.797   0.836 -15.075  1.00  0.00    -0.014 A 
ATOM     72  C   UNL     1      -1.713   1.193 -15.894  1.00  0.00     0.010 A 
ATOM     73  C   UNL     1      -2.880  -0.482 -14.588  1.00  0.00     0.010 A 
ATOM     74  C   UNL     1      -0.737   0.249 -16.229  1.00  0.00     0.020 A 
ATOM     75  C   UNL     1      -1.893  -1.422 -14.899  1.00  0.00     0.020 A 
ATOM     76  C   UNL     1      -0.832  -1.053 -15.727  1.00  0.00     0.054 A 
BRANCH  76  77
ATOM     77  S   UNL     1       0.475  -2.247 -16.127  1.00  0.00     0.124 S 
ATOM     78  O   UNL     1       0.179  -2.565 -17.520  1.00  0.00    -0.237 OA
ATOM     79  O   UNL     1       1.692  -1.471 -15.899  1.00  0.00    -0.237 OA
ATOM     80  O   UNL     1       0.249  -3.331 -15.174  1.00  0.00    -0.744 OA
ENDBRANCH  76  77
ENDBRANCH  48  71
BRANCH  60  81
ATOM     81  C   UNL     1      -7.767   4.284 -18.559  1.00  0.00    -0.014 A 
ATOM     82  C   UNL     1      -8.473   3.200 -19.109  1.00  0.00     0.010 A 
ATOM     83  C   UNL     1      -7.486   5.405 -19.361  1.00  0.00     0.010 A 
ATOM     84  C   UNL     1      -8.863   3.224 -20.449  1.00  0.00     0.020 A 
ATOM     85  C   UNL     1      -7.898   5.442 -20.694  1.00  0.00     0.020 A 
ATOM     86  C   UNL     1      -8.572   4.345 -21.234  1.00  0.00     0.054 A 
BRANCH  86  87
ATOM     87  S   UNL     1      -9.127   4.370 -22.959  1.00  0.00     0.124 S 
ATOM     88  O   UNL     1      -8.173   3.467 -23.597  1.00  0.00    -0.237 OA
ATOM     89  O   UNL     1     -10.497   3.871 -22.864  1.00  0.00    -0.237 OA
ATOM     90  O   UNL     1      -9.007   5.775 -23.341  1.00  0.00    -0.744 OA
ENDBRANCH  86  87
ENDBRANCH  60  81
ENDBRANCH  34  35
ENDBRANCH  27  29
ENDBRANCH  26  27
ENDBRANCH  25  26
ENDBRANCH   1  25
TORSDOF 21
