REMARK SMILES Cc1cccc(C(=O)OCCOCCOC(=O)c2ccc(-c3c4nc(c(-c5ccc(S(=O)(=O)[O-])cc5)c5ccc([nH]5)c(-c5ccc(S(=O)(=O)[O-])cc5)c5nc(c(-c6ccc(S(=O)(=O)[O-])cc6)c6ccc3[nH]6)C=C5)C=C4)cc2)c1NC(=O)Cc1ccccc1
REMARK SMILES IDX 12 1 11 2 10 3 9 4 7 5 8 6 6 7 1 8 2 9 3 10 78 11 4 12 5 13
REMARK SMILES IDX 79 14 80 15 81 17 82 18 83 19 84 20 88 21 85 22 87 23 86 24
REMARK SMILES IDX 13 25 14 26 15 27 16 28 17 29 18 30 19 31 77 32 20 33 76 34
REMARK SMILES IDX 21 35 22 36 23 37 70 38 24 39 75 40 69 41 71 42 25 43 74 44
REMARK SMILES IDX 68 45 67 46 26 48 56 49 37 50 55 51 38 52 41 53 54 54 72 55
REMARK SMILES IDX 39 56 40 57 53 59 73 60 42 61 27 62 28 63 36 64 29 65 35 66
REMARK SMILES IDX 30 67 31 68 32 69 33 70 34 71 57 72 58 73 66 74 59 75 65 76
REMARK SMILES IDX 60 77 61 78 62 79 63 80 64 81 43 82 44 83 52 84 45 85 51 86
REMARK SMILES IDX 46 87 47 88 48 89 49 90 50 91
REMARK H PARENT 79 16 71 47 41 58
REMARK Flexibility Score: inf
ROOT
ATOM      1  O   UNL     1      -3.438   1.680  -1.806  1.00  0.00    -0.374 OA
ENDROOT
BRANCH   1   2
ATOM      2  C   UNL     1      -2.500   2.624  -1.341  1.00  0.00     0.202 C 
BRANCH   2   3
ATOM      3  C   UNL     1      -2.620   2.902   0.134  1.00  0.00     0.261 C 
BRANCH   3   4
ATOM      4  O   UNL     1      -1.520   2.467   0.870  1.00  0.00    -0.460 OA
BRANCH   4   5
ATOM      5  C   UNL     1      -1.707   1.176   1.053  1.00  0.00     0.340 C 
ATOM      6  O   UNL     1      -2.584   0.636   1.733  1.00  0.00    -0.246 OA
BRANCH   5   7
ATOM      7  C   UNL     1      -0.839   0.533   0.083  1.00  0.00     0.083 A 
ATOM      8  C   UNL     1       2.867   0.172  -0.298  1.00  0.00     0.046 C 
ATOM      9  C   UNL     1       1.371   0.019  -0.411  1.00  0.00    -0.027 A 
ATOM     10  C   UNL     1       0.977  -1.362  -0.514  1.00  0.00     0.005 A 
ATOM     11  C   UNL     1       0.421   1.072  -0.271  1.00  0.00     0.058 A 
ATOM     12  C   UNL     1      -0.342  -1.768  -0.457  1.00  0.00     0.001 A 
ATOM     13  C   UNL     1      -1.258  -0.808  -0.128  1.00  0.00     0.018 A 
BRANCH  11  14
ATOM     14  N   UNL     1       0.884   2.472  -0.328  1.00  0.00    -0.325 N 
ATOM     15  C   UNL     1       0.743   3.853  -0.467  1.00  0.00     0.228 C 
ATOM     16  H   UNL     1       1.853   2.376  -0.186  1.00  0.00     0.169 HD
ATOM     17  O   UNL     1       1.833   4.313  -0.095  1.00  0.00    -0.274 OA
BRANCH  15  18
ATOM     18  C   UNL     1      -0.259   4.916  -1.173  1.00  0.00     0.135 C 
BRANCH  18  19
ATOM     19  C   UNL     1      -0.577   6.417  -0.708  1.00  0.00    -0.039 A 
ATOM     20  C   UNL     1      -1.401   6.701   0.370  1.00  0.00     0.004 A 
ATOM     21  C   UNL     1      -0.342   7.597  -1.430  1.00  0.00     0.004 A 
ATOM     22  C   UNL     1      -1.764   7.956   0.912  1.00  0.00     0.000 A 
ATOM     23  C   UNL     1      -0.775   8.898  -0.988  1.00  0.00     0.000 A 
ATOM     24  C   UNL     1      -1.462   9.084   0.206  1.00  0.00     0.000 A 
ENDBRANCH  18  19
ENDBRANCH  15  18
ENDBRANCH  11  14
ENDBRANCH   5   7
ENDBRANCH   4   5
ENDBRANCH   3   4
ENDBRANCH   2   3
ENDBRANCH   1   2
BRANCH   1  25
ATOM     25  C   UNL     1      -3.318   1.522  -3.225  1.00  0.00     0.202 C 
BRANCH  25  26
ATOM     26  C   UNL     1      -3.256   2.847  -4.034  1.00  0.00     0.261 C 
BRANCH  26  27
ATOM     27  O   UNL     1      -4.444   3.619  -3.728  1.00  0.00    -0.460 OA
BRANCH  27  28
ATOM     28  C   UNL     1      -4.273   4.940  -3.427  1.00  0.00     0.338 C 
ATOM     29  O   UNL     1      -3.647   5.732  -4.108  1.00  0.00    -0.246 OA
BRANCH  28  30
ATOM     30  C   UNL     1      -4.761   5.213  -2.029  1.00  0.00     0.060 A 
ATOM     31  C   UNL     1      -4.416   6.397  -1.367  1.00  0.00     0.016 A 
ATOM     32  C   UNL     1      -5.311   4.186  -1.269  1.00  0.00     0.016 A 
ATOM     33  C   UNL     1      -4.376   6.441   0.044  1.00  0.00     0.010 A 
ATOM     34  C   UNL     1      -5.165   4.219   0.121  1.00  0.00     0.010 A 
ATOM     35  C   UNL     1      -4.489   5.272   0.780  1.00  0.00    -0.014 A 
BRANCH  35  36
ATOM     36  C   UNL     1      -4.012   5.013   2.202  1.00  0.00     0.031 A 
ATOM     37  C   UNL     1      -5.158   4.846   3.142  1.00  0.00     0.074 A 
ATOM     38  C   UNL     1      -2.764   4.605   2.679  1.00  0.00     0.049 A 
ATOM     39  N   UNL     1      -5.062   4.570   4.396  1.00  0.00    -0.248 NA
ATOM     40  C   UNL     1      -6.558   5.019   2.716  1.00  0.00     0.031 C 
ATOM     41  C   UNL     1      -2.607   3.447   3.580  1.00  0.00     0.029 A 
ATOM     42  N   UNL     1      -1.388   4.857   2.380  1.00  0.00    -0.354 N 
ATOM     43  C   UNL     1      -6.272   4.007   4.721  1.00  0.00     0.074 A 
ATOM     44  C   UNL     1      -7.212   4.542   3.775  1.00  0.00     0.031 C 
ATOM     45  C   UNL     1      -1.309   3.212   3.845  1.00  0.00     0.029 A 
ATOM     46  C   UNL     1      -0.502   4.290   3.296  1.00  0.00     0.049 A 
ATOM     47  H   UNL     1      -1.093   5.382   1.600  1.00  0.00     0.167 HD
ATOM     48  C   UNL     1      -6.298   2.934   5.554  1.00  0.00     0.031 A 
ATOM     49  C   UNL     1       0.564   4.911   3.892  1.00  0.00     0.031 A 
ATOM     50  C   UNL     1      -5.011   2.708   6.221  1.00  0.00     0.049 A 
ATOM     51  C   UNL     1       0.265   4.993   5.378  1.00  0.00     0.074 A 
ATOM     52  C   UNL     1      -4.113   1.655   6.248  1.00  0.00     0.029 A 
ATOM     53  N   UNL     1      -4.349   3.790   6.804  1.00  0.00    -0.354 N 
ATOM     54  N   UNL     1      -0.865   4.541   5.848  1.00  0.00    -0.248 NA
ATOM     55  C   UNL     1       1.069   5.577   6.447  1.00  0.00     0.031 C 
ATOM     56  C   UNL     1      -2.882   2.145   6.785  1.00  0.00     0.029 A 
ATOM     57  C   UNL     1      -3.043   3.478   7.131  1.00  0.00     0.049 A 
ATOM     58  H   UNL     1      -4.763   4.669   6.963  1.00  0.00     0.167 HD
ATOM     59  C   UNL     1      -1.009   4.793   7.162  1.00  0.00     0.074 A 
ATOM     60  C   UNL     1       0.242   5.445   7.510  1.00  0.00     0.031 C 
ATOM     61  C   UNL     1      -2.183   4.477   7.782  1.00  0.00     0.031 A 
BRANCH  48  62
ATOM     62  C   UNL     1      -7.460   1.964   5.592  1.00  0.00    -0.014 A 
ATOM     63  C   UNL     1      -7.558   1.049   6.653  1.00  0.00     0.010 A 
ATOM     64  C   UNL     1      -8.451   1.861   4.586  1.00  0.00     0.010 A 
ATOM     65  C   UNL     1      -8.621   0.135   6.745  1.00  0.00     0.020 A 
ATOM     66  C   UNL     1      -9.542   0.988   4.687  1.00  0.00     0.020 A 
ATOM     67  C   UNL     1      -9.624   0.130   5.775  1.00  0.00     0.054 A 
BRANCH  67  68
ATOM     68  S   UNL     1     -11.034  -0.992   5.956  1.00  0.00     0.124 S 
ATOM     69  O   UNL     1     -10.411  -2.304   5.810  1.00  0.00    -0.237 OA
ATOM     70  O   UNL     1     -11.524  -0.669   7.293  1.00  0.00    -0.237 OA
ATOM     71  O   UNL     1     -11.928  -0.607   4.864  1.00  0.00    -0.744 OA
ENDBRANCH  67  68
ENDBRANCH  48  62
BRANCH  49  72
ATOM     72  C   UNL     1       1.534   5.746   3.081  1.00  0.00    -0.014 A 
ATOM     73  C   UNL     1       2.745   5.169   2.631  1.00  0.00     0.010 A 
ATOM     74  C   UNL     1       1.166   6.949   2.455  1.00  0.00     0.010 A 
ATOM     75  C   UNL     1       3.445   5.664   1.497  1.00  0.00     0.020 A 
ATOM     76  C   UNL     1       1.836   7.427   1.290  1.00  0.00     0.020 A 
ATOM     77  C   UNL     1       2.915   6.722   0.756  1.00  0.00     0.054 A 
BRANCH  77  78
ATOM     78  S   UNL     1       3.463   6.975  -1.001  1.00  0.00     0.124 S 
ATOM     79  O   UNL     1       3.847   8.385  -1.020  1.00  0.00    -0.237 OA
ATOM     80  O   UNL     1       4.574   6.037  -1.169  1.00  0.00    -0.237 OA
ATOM     81  O   UNL     1       2.304   6.650  -1.826  1.00  0.00    -0.744 OA
ENDBRANCH  77  78
ENDBRANCH  49  72
BRANCH  61  82
ATOM     82  C   UNL     1      -2.611   5.051   9.099  1.00  0.00    -0.014 A 
ATOM     83  C   UNL     1      -2.066   6.224   9.640  1.00  0.00     0.010 A 
ATOM     84  C   UNL     1      -3.701   4.463   9.781  1.00  0.00     0.010 A 
ATOM     85  C   UNL     1      -2.507   6.718  10.869  1.00  0.00     0.020 A 
ATOM     86  C   UNL     1      -4.192   4.985  10.974  1.00  0.00     0.020 A 
ATOM     87  C   UNL     1      -3.554   6.083  11.536  1.00  0.00     0.054 A 
BRANCH  87  88
ATOM     88  S   UNL     1      -4.071   6.708  13.147  1.00  0.00     0.124 S 
ATOM     89  O   UNL     1      -3.014   6.195  14.015  1.00  0.00    -0.237 OA
ATOM     90  O   UNL     1      -4.072   8.155  12.947  1.00  0.00    -0.237 OA
ATOM     91  O   UNL     1      -5.389   6.111  13.345  1.00  0.00    -0.744 OA
ENDBRANCH  87  88
ENDBRANCH  61  82
ENDBRANCH  35  36
ENDBRANCH  28  30
ENDBRANCH  27  28
ENDBRANCH  26  27
ENDBRANCH  25  26
ENDBRANCH   1  25
TORSDOF 20
