REMARK SMILES Cc1ccccc1C(=O)Nc1cc(C(=O)OCCOCCOC(=O)c2ccc(-c3c4nc(c(-c5ccc(S(=O)(=O)[O-])cc5)c5ccc([nH]5)c(-c5ccc(S(=O)(=O)[O-])cc5)c5nc(c(-c6ccc(S(=O)(=O)[O-])cc6)c6ccc3[nH]6)C=C5)C=C4)cc2)ccc1N1CC[NH+](CC(=O)Nc2ccc(F)cc2)CC1
REMARK SMILES IDX 18 1 17 2 16 3 14 4 15 5 13 6 11 7 12 8 87 9 86 10 85 11
REMARK SMILES IDX 10 12 8 13 9 14 7 16 1 17 2 18 3 19 4 20 6 21 5 22 88 23
REMARK SMILES IDX 89 24 104 25 90 26 103 27 91 28 92 30 93 31 94 32 95 33
REMARK SMILES IDX 96 35 97 36 102 37 98 38 101 39 99 40 100 41 19 42 20 43
REMARK SMILES IDX 21 44 22 45 23 46 24 47 25 48 26 49 84 50 27 51 83 52 28 53
REMARK SMILES IDX 29 54 30 55 77 56 31 57 82 58 76 59 78 60 32 61 81 62 75 63
REMARK SMILES IDX 74 64 33 66 63 67 44 68 62 69 45 70 48 71 61 72 79 73 46 74
REMARK SMILES IDX 47 75 60 77 80 78 49 79 34 80 35 81 43 82 36 83 42 84 37 85
REMARK SMILES IDX 38 86 39 87 40 88 41 89 64 90 65 91 73 92 66 93 72 94 67 95
REMARK SMILES IDX 68 96 69 97 70 98 71 99 50 100 51 101 59 102 52 103 58 104
REMARK SMILES IDX 53 105 54 106 55 107 56 108 57 109
REMARK H PARENT 10 15 91 29 95 34 78 65 48 76
REMARK Flexibility Score: inf
ROOT
ATOM      1  C   UNL     1       3.438  -1.207  -4.056  1.00  0.00     0.202 C 
ENDROOT
BRANCH   1   2
ATOM      2  C   UNL     1       2.179  -1.447  -3.271  1.00  0.00     0.261 C 
BRANCH   2   3
ATOM      3  O   UNL     1       2.296  -1.757  -1.851  1.00  0.00    -0.460 OA
BRANCH   3   4
ATOM      4  C   UNL     1       3.489  -1.953  -1.251  1.00  0.00     0.338 C 
ATOM      5  O   UNL     1       3.830  -3.005  -0.708  1.00  0.00    -0.246 OA
BRANCH   4   6
ATOM      6  C   UNL     1       4.200  -0.684  -0.994  1.00  0.00     0.062 A 
ATOM      7  C   UNL     1       3.972   1.660  -0.602  1.00  0.00     0.065 A 
ATOM      8  C   UNL     1       3.505   0.500  -1.177  1.00  0.00     0.044 A 
ATOM      9  C   UNL     1       5.225   1.738   0.076  1.00  0.00     0.061 A 
ATOM     10  C   UNL     1       5.971   0.546   0.134  1.00  0.00     0.029 A 
ATOM     11  C   UNL     1       5.445  -0.663  -0.357  1.00  0.00     0.018 A 
BRANCH   7  12
ATOM     12  N   UNL     1       3.082   2.731  -0.614  1.00  0.00    -0.320 N 
ATOM     13  C   UNL     1       1.804   2.795  -0.077  1.00  0.00     0.255 C 
ATOM     14  O   UNL     1       1.297   3.928  -0.070  1.00  0.00    -0.269 OA
ATOM     15  H   UNL     1       3.401   3.549  -1.060  1.00  0.00     0.170 HD
BRANCH  13  16
ATOM     16  C   UNL     1       1.014   1.680   0.595  1.00  0.00     0.043 A 
ATOM     17  C   UNL     1       2.780   0.249   1.933  1.00  0.00     0.045 C 
ATOM     18  C   UNL     1       1.412   0.610   1.437  1.00  0.00    -0.038 A 
ATOM     19  C   UNL     1       0.424  -0.253   1.975  1.00  0.00     0.004 A 
ATOM     20  C   UNL     1      -0.933  -0.007   1.825  1.00  0.00     0.000 A 
ATOM     21  C   UNL     1      -0.381   1.884   0.450  1.00  0.00     0.014 A 
ATOM     22  C   UNL     1      -1.337   1.078   1.075  1.00  0.00     0.001 A 
ENDBRANCH  13  16
ENDBRANCH   7  12
BRANCH   9  23
ATOM     23  N   UNL     1       5.596   2.881   0.802  1.00  0.00    -0.359 N 
ATOM     24  C   UNL     1       6.926   3.036   1.450  1.00  0.00     0.178 C 
ATOM     25  C   UNL     1       4.553   3.440   1.666  1.00  0.00     0.178 C 
ATOM     26  C   UNL     1       7.100   4.463   2.109  1.00  0.00     0.284 C 
ATOM     27  C   UNL     1       4.795   4.935   1.816  1.00  0.00     0.284 C 
ATOM     28  N   UNL     1       5.925   5.147   2.706  1.00  0.00    -0.324 N 
ATOM     29  H   UNL     1       6.211   6.123   2.776  1.00  0.00     0.348 HD
BRANCH  28  30
ATOM     30  C   UNL     1       5.575   4.926   4.135  1.00  0.00     0.364 C 
BRANCH  30  31
ATOM     31  C   UNL     1       5.332   3.507   4.659  1.00  0.00     0.279 C 
ATOM     32  O   UNL     1       6.310   2.761   4.828  1.00  0.00    -0.268 OA
ATOM     33  N   UNL     1       4.124   2.994   5.064  1.00  0.00    -0.321 N 
ATOM     34  H   UNL     1       4.267   2.233   5.672  1.00  0.00     0.170 HD
BRANCH  33  35
ATOM     35  C   UNL     1       2.736   3.217   4.881  1.00  0.00     0.041 A 
ATOM     36  C   UNL     1       1.871   2.424   5.661  1.00  0.00     0.029 A 
ATOM     37  C   UNL     1       2.140   4.039   3.930  1.00  0.00     0.029 A 
ATOM     38  C   UNL     1       0.478   2.444   5.481  1.00  0.00     0.041 A 
ATOM     39  C   UNL     1       0.751   4.022   3.700  1.00  0.00     0.041 A 
ATOM     40  C   UNL     1      -0.070   3.232   4.485  1.00  0.00     0.123 A 
ATOM     41  F   UNL     1      -1.395   3.238   4.288  1.00  0.00    -0.207 F 
ENDBRANCH  33  35
ENDBRANCH  30  31
ENDBRANCH  28  30
ENDBRANCH   9  23
ENDBRANCH   4   6
ENDBRANCH   3   4
ENDBRANCH   2   3
ENDBRANCH   1   2
BRANCH   1  42
ATOM     42  O   UNL     1       4.367  -2.225  -3.710  1.00  0.00    -0.374 OA
BRANCH  42  43
ATOM     43  C   UNL     1       5.651  -2.091  -4.284  1.00  0.00     0.202 C 
BRANCH  43  44
ATOM     44  C   UNL     1       5.622  -2.112  -5.815  1.00  0.00     0.261 C 
BRANCH  44  45
ATOM     45  O   UNL     1       5.355  -3.443  -6.313  1.00  0.00    -0.460 OA
BRANCH  45  46
ATOM     46  C   UNL     1       4.111  -3.662  -6.824  1.00  0.00     0.338 C 
ATOM     47  O   UNL     1       3.820  -3.456  -8.002  1.00  0.00    -0.246 OA
BRANCH  46  48
ATOM     48  C   UNL     1       3.211  -4.295  -5.824  1.00  0.00     0.060 A 
ATOM     49  C   UNL     1       1.811  -4.256  -5.950  1.00  0.00     0.016 A 
ATOM     50  C   UNL     1       3.780  -4.816  -4.667  1.00  0.00     0.016 A 
ATOM     51  C   UNL     1       0.990  -4.617  -4.866  1.00  0.00     0.010 A 
ATOM     52  C   UNL     1       2.979  -5.052  -3.573  1.00  0.00     0.010 A 
ATOM     53  C   UNL     1       1.581  -4.950  -3.650  1.00  0.00    -0.014 A 
BRANCH  53  54
ATOM     54  C   UNL     1       0.921  -5.163  -2.357  1.00  0.00     0.031 A 
ATOM     55  C   UNL     1       1.200  -6.445  -1.660  1.00  0.00     0.074 A 
ATOM     56  C   UNL     1       0.440  -4.113  -1.648  1.00  0.00     0.049 A 
ATOM     57  N   UNL     1       0.882  -6.685  -0.442  1.00  0.00    -0.248 NA
ATOM     58  C   UNL     1       1.900  -7.573  -2.276  1.00  0.00     0.031 C 
ATOM     59  C   UNL     1       0.331  -3.975  -0.197  1.00  0.00     0.029 A 
ATOM     60  N   UNL     1      -0.131  -2.922  -2.104  1.00  0.00    -0.354 N 
ATOM     61  C   UNL     1       1.595  -7.774  -0.012  1.00  0.00     0.074 A 
ATOM     62  C   UNL     1       2.162  -8.339  -1.210  1.00  0.00     0.031 C 
ATOM     63  C   UNL     1      -0.548  -3.007   0.097  1.00  0.00     0.029 A 
ATOM     64  C   UNL     1      -1.090  -2.532  -1.160  1.00  0.00     0.049 A 
ATOM     65  H   UNL     1       0.098  -2.446  -2.934  1.00  0.00     0.167 HD
ATOM     66  C   UNL     1       1.679  -7.973   1.333  1.00  0.00     0.031 A 
ATOM     67  C   UNL     1      -2.400  -2.439  -1.502  1.00  0.00     0.031 A 
ATOM     68  C   UNL     1       0.708  -7.115   2.034  1.00  0.00     0.049 A 
ATOM     69  C   UNL     1      -3.128  -3.458  -0.672  1.00  0.00     0.074 A 
ATOM     70  C   UNL     1       0.802  -6.002   2.852  1.00  0.00     0.029 A 
ATOM     71  N   UNL     1      -0.631  -7.186   1.634  1.00  0.00    -0.354 N 
ATOM     72  N   UNL     1      -2.589  -4.599  -0.306  1.00  0.00    -0.248 NA
ATOM     73  C   UNL     1      -4.348  -3.138   0.062  1.00  0.00     0.031 C 
ATOM     74  C   UNL     1      -0.469  -5.341   2.827  1.00  0.00     0.029 A 
ATOM     75  C   UNL     1      -1.337  -6.060   2.011  1.00  0.00     0.049 A 
ATOM     76  H   UNL     1      -1.022  -7.946   1.144  1.00  0.00     0.167 HD
ATOM     77  C   UNL     1      -3.229  -5.032   0.822  1.00  0.00     0.074 A 
ATOM     78  C   UNL     1      -4.366  -4.128   0.970  1.00  0.00     0.031 C 
ATOM     79  C   UNL     1      -2.765  -5.949   1.723  1.00  0.00     0.031 A 
BRANCH  66  80
ATOM     80  C   UNL     1       2.717  -8.838   2.021  1.00  0.00    -0.014 A 
ATOM     81  C   UNL     1       2.797  -8.845   3.429  1.00  0.00     0.010 A 
ATOM     82  C   UNL     1       3.686  -9.614   1.351  1.00  0.00     0.010 A 
ATOM     83  C   UNL     1       3.771  -9.589   4.122  1.00  0.00     0.020 A 
ATOM     84  C   UNL     1       4.653 -10.377   2.028  1.00  0.00     0.020 A 
ATOM     85  C   UNL     1       4.691 -10.360   3.415  1.00  0.00     0.054 A 
BRANCH  85  86
ATOM     86  S   UNL     1       5.926 -11.332   4.319  1.00  0.00     0.124 S 
ATOM     87  O   UNL     1       6.696 -10.299   5.009  1.00  0.00    -0.237 OA
ATOM     88  O   UNL     1       5.098 -12.178   5.175  1.00  0.00    -0.237 OA
ATOM     89  O   UNL     1       6.651 -12.041   3.267  1.00  0.00    -0.744 OA
ENDBRANCH  85  86
ENDBRANCH  66  80
BRANCH  67  90
ATOM     90  C   UNL     1      -2.579  -1.894  -2.888  1.00  0.00    -0.014 A 
ATOM     91  C   UNL     1      -2.282  -0.511  -3.017  1.00  0.00     0.010 A 
ATOM     92  C   UNL     1      -2.410  -2.704  -4.027  1.00  0.00     0.010 A 
ATOM     93  C   UNL     1      -1.623  -0.007  -4.149  1.00  0.00     0.020 A 
ATOM     94  C   UNL     1      -1.760  -2.193  -5.175  1.00  0.00     0.020 A 
ATOM     95  C   UNL     1      -1.306  -0.870  -5.195  1.00  0.00     0.054 A 
BRANCH  95  96
ATOM     96  S   UNL     1      -0.079  -0.312  -6.430  1.00  0.00     0.124 S 
ATOM     97  O   UNL     1      -0.846   0.635  -7.232  1.00  0.00    -0.237 OA
ATOM     98  O   UNL     1       0.971   0.278  -5.599  1.00  0.00    -0.237 OA
ATOM     99  O   UNL     1       0.312  -1.544  -7.107  1.00  0.00    -0.744 OA
ENDBRANCH  95  96
ENDBRANCH  67  90
BRANCH  79 100
ATOM    100  C   UNL     1      -3.721  -6.841   2.469  1.00  0.00    -0.014 A 
ATOM    101  C   UNL     1      -5.081  -6.937   2.132  1.00  0.00     0.010 A 
ATOM    102  C   UNL     1      -3.219  -7.767   3.411  1.00  0.00     0.010 A 
ATOM    103  C   UNL     1      -5.919  -7.857   2.756  1.00  0.00     0.020 A 
ATOM    104  C   UNL     1      -4.035  -8.735   3.994  1.00  0.00     0.020 A 
ATOM    105  C   UNL     1      -5.389  -8.752   3.682  1.00  0.00     0.054 A 
BRANCH 105 106
ATOM    106  S   UNL     1      -6.488  -9.974   4.422  1.00  0.00     0.124 S 
ATOM    107  O   UNL     1      -7.149  -9.185   5.459  1.00  0.00    -0.237 OA
ATOM    108  O   UNL     1      -7.336 -10.367   3.298  1.00  0.00    -0.237 OA
ATOM    109  O   UNL     1      -5.579 -11.010   4.902  1.00  0.00    -0.744 OA
ENDBRANCH 105 106
ENDBRANCH  79 100
ENDBRANCH  53  54
ENDBRANCH  46  48
ENDBRANCH  45  46
ENDBRANCH  44  45
ENDBRANCH  43  44
ENDBRANCH  42  43
ENDBRANCH   1  42
TORSDOF 23
