REMARK SMILES Cn1ccc(C(=O)N[C@H]2CCCCC[C@H]2C(=O)OCCOCCOC(=O)c2ccc(-c3c4nc(c(-c5ccc(S(=O)(=O)[O-])cc5)c5ccc([nH]5)c(-c5ccc(S(=O)(=O)[O-])cc5)c5nc(c(-c6ccc(S(=O)(=O)[O-])cc6)c6ccc3[nH]6)C=C5)C=C4)cc2)cc1=O
REMARK SMILES IDX 21 1 20 2 19 3 18 4 16 5 17 6 15 7 9 8 8 9 6 10 7 11 5 13
REMARK SMILES IDX 1 14 2 15 3 16 88 17 4 18 87 19 89 20 10 21 11 22 14 24
REMARK SMILES IDX 13 25 12 26 22 28 23 29 24 30 25 31 26 32 27 33 28 34 86 35
REMARK SMILES IDX 29 36 85 37 30 38 31 39 32 40 79 41 33 42 84 43 78 44 80 45
REMARK SMILES IDX 34 46 83 47 77 48 76 49 35 51 65 52 46 53 64 54 47 55 50 56
REMARK SMILES IDX 63 57 81 58 48 59 49 60 62 62 82 63 51 64 36 65 37 66 45 67
REMARK SMILES IDX 38 68 44 69 39 70 40 71 41 72 42 73 43 74 66 75 67 76 75 77
REMARK SMILES IDX 68 78 74 79 69 80 70 81 71 82 72 83 73 84 52 85 53 86 61 87
REMARK SMILES IDX 54 88 60 89 55 90 56 91 57 92 58 93 59 94
REMARK H PARENT 8 12 80 50 50 61
REMARK Flexibility Score: 100.00
ROOT
ATOM      1  O   UNL     1      -2.578   2.543  -2.841  1.00  0.00    -0.374 OA
ENDROOT
BRANCH   1   2
ATOM      2  C   UNL     1      -3.160   3.378  -1.844  1.00  0.00     0.202 C 
BRANCH   2   3
ATOM      3  C   UNL     1      -2.719   3.114  -0.405  1.00  0.00     0.261 C 
BRANCH   3   4
ATOM      4  O   UNL     1      -1.345   3.468  -0.141  1.00  0.00    -0.463 OA
BRANCH   4   5
ATOM      5  C   UNL     1      -0.541   2.449   0.245  1.00  0.00     0.311 C 
ATOM      6  O   UNL     1      -0.827   1.260   0.131  1.00  0.00    -0.252 OA
BRANCH   5   7
ATOM      7  C   UNL     1       0.730   2.889   0.953  1.00  0.00     0.121 C 
BRANCH   7   8
ATOM      8  C   UNL     1       1.361   4.273   0.679  1.00  0.00     0.096 C 
BRANCH   8   9
ATOM      9  N   UNL     1       1.482   4.595  -0.755  1.00  0.00    -0.348 N 
ATOM     10  C   UNL     1       2.260   5.513  -1.417  1.00  0.00     0.251 C 
ATOM     11  O   UNL     1       2.302   5.499  -2.646  1.00  0.00    -0.269 OA
ATOM     12  H   UNL     1       0.903   4.057  -1.341  1.00  0.00     0.164 HD
BRANCH  10  13
ATOM     13  C   UNL     1       2.914   6.610  -0.652  1.00  0.00     0.046 A 
ATOM     14  C   UNL     1       3.662   9.648   2.160  1.00  0.00     0.153 C 
ATOM     15  N   UNL     1       3.507   8.629   1.134  1.00  0.00    -0.319 N 
ATOM     16  C   UNL     1       2.733   8.915   0.026  1.00  0.00     0.089 A 
ATOM     17  C   UNL     1       4.167   7.410   1.284  1.00  0.00     0.251 A 
ATOM     18  C   UNL     1       2.465   7.967  -0.877  1.00  0.00     0.032 A 
ATOM     19  C   UNL     1       3.823   6.348   0.297  1.00  0.00     0.085 A 
ATOM     20  O   UNL     1       4.944   7.137   2.195  1.00  0.00    -0.269 OA
ENDBRANCH  10  13
ENDBRANCH   8   9
BRANCH   8  21
ATOM     21  C   UNL     1       0.919   5.448   1.572  1.00  0.00     0.026 C 
BRANCH  21  22
ATOM     22  C   UNL     1      -0.509   5.495   2.084  1.00  0.00     0.002 CG0
ATOM     23  G   UNL     1      -0.738   4.635   3.319  1.00  0.00     0.000 G0
ENDBRANCH  21  22
ENDBRANCH   8  21
ENDBRANCH   7   8
BRANCH   7  24
ATOM     24  C   UNL     1       0.581   2.579   2.453  1.00  0.00     0.017 C 
BRANCH  24  25
ATOM     25  C   UNL     1      -0.686   3.128   3.115  1.00  0.00     0.001 C 
BRANCH  25  26
ATOM     26  C   UNL     1      -0.738   4.635   3.319  1.00  0.00     0.000 CG0
ATOM     27  G   UNL     1      -0.509   5.495   2.084  1.00  0.00     0.000 G0
ENDBRANCH  25  26
ENDBRANCH  24  25
ENDBRANCH   7  24
ENDBRANCH   5   7
ENDBRANCH   4   5
ENDBRANCH   3   4
ENDBRANCH   2   3
ENDBRANCH   1   2
BRANCH   1  28
ATOM     28  C   UNL     1      -1.195   2.736  -3.136  1.00  0.00     0.202 C 
BRANCH  28  29
ATOM     29  C   UNL     1      -0.841   4.047  -3.844  1.00  0.00     0.261 C 
BRANCH  29  30
ATOM     30  O   UNL     1      -1.098   5.197  -3.015  1.00  0.00    -0.460 OA
BRANCH  30  31
ATOM     31  C   UNL     1      -1.737   6.205  -3.660  1.00  0.00     0.338 C 
ATOM     32  O   UNL     1      -2.021   6.261  -4.845  1.00  0.00    -0.246 OA
BRANCH  31  33
ATOM     33  C   UNL     1      -2.202   7.230  -2.709  1.00  0.00     0.060 A 
ATOM     34  C   UNL     1      -3.579   7.364  -2.508  1.00  0.00     0.016 A 
ATOM     35  C   UNL     1      -1.316   8.169  -2.180  1.00  0.00     0.016 A 
ATOM     36  C   UNL     1      -4.076   8.475  -1.824  1.00  0.00     0.010 A 
ATOM     37  C   UNL     1      -1.816   9.280  -1.486  1.00  0.00     0.010 A 
ATOM     38  C   UNL     1      -3.203   9.464  -1.346  1.00  0.00    -0.014 A 
BRANCH  38  39
ATOM     39  C   UNL     1      -3.768  10.737  -0.822  1.00  0.00     0.031 A 
ATOM     40  C   UNL     1      -3.780  11.967  -1.696  1.00  0.00     0.074 A 
ATOM     41  C   UNL     1      -4.329  10.785   0.401  1.00  0.00     0.049 A 
ATOM     42  N   UNL     1      -4.301  13.144  -1.456  1.00  0.00    -0.248 NA
ATOM     43  C   UNL     1      -3.121  11.861  -3.009  1.00  0.00     0.031 C 
ATOM     44  C   UNL     1      -4.395   9.670   1.346  1.00  0.00     0.029 A 
ATOM     45  N   UNL     1      -4.961  11.815   1.053  1.00  0.00    -0.354 N 
ATOM     46  C   UNL     1      -4.034  13.917  -2.582  1.00  0.00     0.074 A 
ATOM     47  C   UNL     1      -3.278  13.085  -3.493  1.00  0.00     0.031 C 
ATOM     48  C   UNL     1      -5.041  10.074   2.454  1.00  0.00     0.029 A 
ATOM     49  C   UNL     1      -5.420  11.478   2.304  1.00  0.00     0.049 A 
ATOM     50  H   UNL     1      -5.075  12.711   0.661  1.00  0.00     0.167 HD
ATOM     51  C   UNL     1      -4.395  15.196  -2.842  1.00  0.00     0.031 A 
ATOM     52  C   UNL     1      -6.070  12.214   3.227  1.00  0.00     0.031 A 
ATOM     53  C   UNL     1      -5.159  16.028  -1.949  1.00  0.00     0.049 A 
ATOM     54  C   UNL     1      -6.434  13.644   2.923  1.00  0.00     0.074 A 
ATOM     55  C   UNL     1      -5.612  17.320  -2.156  1.00  0.00     0.029 A 
ATOM     56  N   UNL     1      -5.579  15.657  -0.683  1.00  0.00    -0.354 N 
ATOM     57  N   UNL     1      -6.224  14.333   1.827  1.00  0.00    -0.248 NA
ATOM     58  C   UNL     1      -7.135  14.390   3.980  1.00  0.00     0.031 C 
ATOM     59  C   UNL     1      -6.264  17.748  -0.995  1.00  0.00     0.029 A 
ATOM     60  C   UNL     1      -6.258  16.705  -0.085  1.00  0.00     0.049 A 
ATOM     61  H   UNL     1      -5.418  14.778  -0.269  1.00  0.00     0.167 HD
ATOM     62  C   UNL     1      -6.786  15.585   2.057  1.00  0.00     0.074 A 
ATOM     63  C   UNL     1      -7.360  15.553   3.385  1.00  0.00     0.031 C 
ATOM     64  C   UNL     1      -6.821  16.666   1.239  1.00  0.00     0.031 A 
BRANCH  51  65
ATOM     65  C   UNL     1      -3.962  15.798  -4.152  1.00  0.00    -0.014 A 
ATOM     66  C   UNL     1      -4.609  15.462  -5.353  1.00  0.00     0.010 A 
ATOM     67  C   UNL     1      -2.954  16.780  -4.165  1.00  0.00     0.010 A 
ATOM     68  C   UNL     1      -4.246  16.087  -6.550  1.00  0.00     0.020 A 
ATOM     69  C   UNL     1      -2.602  17.421  -5.356  1.00  0.00     0.020 A 
ATOM     70  C   UNL     1      -3.245  17.064  -6.543  1.00  0.00     0.054 A 
BRANCH  70  71
ATOM     71  S   UNL     1      -2.833  17.902  -8.099  1.00  0.00     0.124 S 
ATOM     72  O   UNL     1      -2.074  16.872  -8.803  1.00  0.00    -0.237 OA
ATOM     73  O   UNL     1      -4.148  18.206  -8.658  1.00  0.00    -0.237 OA
ATOM     74  O   UNL     1      -2.058  19.064  -7.671  1.00  0.00    -0.744 OA
ENDBRANCH  70  71
ENDBRANCH  51  65
BRANCH  52  75
ATOM     75  C   UNL     1      -6.410  11.622   4.549  1.00  0.00    -0.014 A 
ATOM     76  C   UNL     1      -7.745  11.345   4.894  1.00  0.00     0.010 A 
ATOM     77  C   UNL     1      -5.393  11.365   5.485  1.00  0.00     0.010 A 
ATOM     78  C   UNL     1      -8.058  10.849   6.163  1.00  0.00     0.020 A 
ATOM     79  C   UNL     1      -5.699  10.845   6.744  1.00  0.00     0.020 A 
ATOM     80  C   UNL     1      -7.033  10.607   7.081  1.00  0.00     0.054 A 
BRANCH  80  81
ATOM     81  S   UNL     1      -7.450   9.936   8.715  1.00  0.00     0.124 S 
ATOM     82  O   UNL     1      -7.908  11.128   9.422  1.00  0.00    -0.237 OA
ATOM     83  O   UNL     1      -8.481   8.950   8.401  1.00  0.00    -0.237 OA
ATOM     84  O   UNL     1      -6.185   9.374   9.182  1.00  0.00    -0.744 OA
ENDBRANCH  80  81
ENDBRANCH  52  75
BRANCH  64  85
ATOM     85  C   UNL     1      -7.521  17.898   1.749  1.00  0.00    -0.014 A 
ATOM     86  C   UNL     1      -6.937  18.705   2.742  1.00  0.00     0.010 A 
ATOM     87  C   UNL     1      -8.764  18.270   1.206  1.00  0.00     0.010 A 
ATOM     88  C   UNL     1      -7.602  19.841   3.211  1.00  0.00     0.020 A 
ATOM     89  C   UNL     1      -9.421  19.419   1.656  1.00  0.00     0.020 A 
ATOM     90  C   UNL     1      -8.843  20.187   2.669  1.00  0.00     0.054 A 
BRANCH  90  91
ATOM     91  S   UNL     1      -9.680  21.679   3.276  1.00  0.00     0.124 S 
ATOM     92  O   UNL     1     -10.236  21.218   4.545  1.00  0.00    -0.237 OA
ATOM     93  O   UNL     1      -8.588  22.643   3.381  1.00  0.00    -0.237 OA
ATOM     94  O   UNL     1     -10.662  21.971   2.234  1.00  0.00    -0.744 OA
ENDBRANCH  90  91
ENDBRANCH  64  85
ENDBRANCH  38  39
ENDBRANCH  31  33
ENDBRANCH  30  31
ENDBRANCH  29  30
ENDBRANCH  28  29
ENDBRANCH   1  28
TORSDOF 19
