REMARK SMILES CCOc1cc(C(=O)OCCOCCOC(=O)c2ccc(-c3c4nc(c(-c5ccc(S(=O)(=O)[O-])cc5)c5ccc([nH]5)c(-c5ccc(S(=O)(=O)[O-])cc5)c5nc(c(-c6ccc(S(=O)(=O)[O-])cc6)c6ccc3[nH]6)C=C5)C=C4)cc2)c(NC(=O)c2ccccc2OC)cc1OC
REMARK SMILES IDX 12 1 11 2 10 3 9 4 7 5 8 6 6 7 4 8 5 9 91 10 90 11 78 12
REMARK SMILES IDX 3 13 2 14 1 15 92 16 93 17 79 18 80 19 81 21 82 22 83 23
REMARK SMILES IDX 87 24 84 25 86 26 85 27 88 28 89 29 13 30 14 31 15 32 16 33
REMARK SMILES IDX 17 34 18 35 19 36 77 37 20 38 76 39 21 40 22 41 23 42 70 43
REMARK SMILES IDX 24 44 75 45 69 46 71 47 25 48 74 49 68 50 67 51 26 53 56 54
REMARK SMILES IDX 37 55 55 56 38 57 41 58 54 59 72 60 39 61 40 62 53 64 73 65
REMARK SMILES IDX 42 66 27 67 28 68 36 69 29 70 35 71 30 72 31 73 32 74 33 75
REMARK SMILES IDX 34 76 57 77 58 78 66 79 59 80 65 81 60 82 61 83 62 84 63 85
REMARK SMILES IDX 64 86 43 87 44 88 52 89 45 90 51 91 46 92 47 93 48 94 49 95
REMARK SMILES IDX 50 96
REMARK H PARENT 79 20 71 52 41 63
REMARK Flexibility Score: inf
ROOT
ATOM      1  O   UNL     1       4.310  -7.841   4.504  1.00  0.00    -0.374 OA
ENDROOT
BRANCH   1   2
ATOM      2  C   UNL     1       5.024  -7.859   3.268  1.00  0.00     0.202 C 
BRANCH   2   3
ATOM      3  C   UNL     1       5.832  -6.600   2.958  1.00  0.00     0.261 C 
BRANCH   3   4
ATOM      4  O   UNL     1       5.134  -5.407   2.561  1.00  0.00    -0.460 OA
BRANCH   4   5
ATOM      5  C   UNL     1       4.215  -5.421   1.566  1.00  0.00     0.340 C 
ATOM      6  O   UNL     1       3.570  -6.356   1.155  1.00  0.00    -0.246 OA
BRANCH   5   7
ATOM      7  C   UNL     1       4.045  -4.014   1.139  1.00  0.00     0.087 A 
ATOM      8  C   UNL     1       2.518  -2.136   0.978  1.00  0.00     0.162 A 
ATOM      9  C   UNL     1       2.734  -3.515   1.073  1.00  0.00     0.068 A 
ATOM     10  C   UNL     1       3.598  -1.254   1.072  1.00  0.00     0.162 A 
ATOM     11  C   UNL     1       4.899  -1.776   1.041  1.00  0.00     0.077 A 
ATOM     12  C   UNL     1       5.139  -3.155   0.976  1.00  0.00     0.060 A 
BRANCH   8  13
ATOM     13  O   UNL     1       1.235  -1.672   0.868  1.00  0.00    -0.490 OA
BRANCH  13  14
ATOM     14  C   UNL     1       0.707  -1.879  -0.450  1.00  0.00     0.226 C 
ATOM     15  C   UNL     1       0.001  -0.607  -0.893  1.00  0.00     0.049 C 
ENDBRANCH  13  14
ENDBRANCH   8  13
BRANCH  10  16
ATOM     16  O   UNL     1       3.570   0.112   1.138  1.00  0.00    -0.493 OA
ATOM     17  C   UNL     1       2.370   0.736   1.574  1.00  0.00     0.278 C 
ENDBRANCH  10  16
BRANCH  12  18
ATOM     18  N   UNL     1       6.481  -3.528   0.735  1.00  0.00    -0.321 N 
ATOM     19  C   UNL     1       7.067  -4.621   0.129  1.00  0.00     0.259 C 
ATOM     20  H   UNL     1       7.133  -2.871   1.069  1.00  0.00     0.170 HD
ATOM     21  O   UNL     1       8.294  -4.723   0.183  1.00  0.00    -0.269 OA
BRANCH  19  22
ATOM     22  C   UNL     1       6.323  -5.667  -0.616  1.00  0.00     0.082 A 
ATOM     23  C   UNL     1       6.711  -6.995  -0.356  1.00  0.00     0.018 A 
ATOM     24  C   UNL     1       5.272  -5.434  -1.511  1.00  0.00     0.131 A 
ATOM     25  C   UNL     1       5.955  -8.070  -0.821  1.00  0.00     0.001 A 
ATOM     26  C   UNL     1       4.509  -6.518  -1.968  1.00  0.00     0.047 A 
ATOM     27  C   UNL     1       4.833  -7.828  -1.605  1.00  0.00     0.004 A 
BRANCH  24  28
ATOM     28  O   UNL     1       4.846  -4.210  -1.952  1.00  0.00    -0.496 OA
ATOM     29  C   UNL     1       5.888  -3.385  -2.475  1.00  0.00     0.278 C 
ENDBRANCH  24  28
ENDBRANCH  19  22
ENDBRANCH  12  18
ENDBRANCH   5   7
ENDBRANCH   4   5
ENDBRANCH   3   4
ENDBRANCH   2   3
ENDBRANCH   1   2
BRANCH   1  30
ATOM     30  C   UNL     1       3.297  -6.849   4.613  1.00  0.00     0.202 C 
BRANCH  30  31
ATOM     31  C   UNL     1       3.626  -5.791   5.676  1.00  0.00     0.261 C 
BRANCH  31  32
ATOM     32  O   UNL     1       5.032  -5.521   5.782  1.00  0.00    -0.460 OA
BRANCH  32  33
ATOM     33  C   UNL     1       5.705  -6.406   6.564  1.00  0.00     0.338 C 
ATOM     34  O   UNL     1       5.228  -7.283   7.265  1.00  0.00    -0.246 OA
BRANCH  33  35
ATOM     35  C   UNL     1       7.160  -6.233   6.371  1.00  0.00     0.060 A 
ATOM     36  C   UNL     1       7.938  -7.374   6.135  1.00  0.00     0.016 A 
ATOM     37  C   UNL     1       7.759  -4.975   6.473  1.00  0.00     0.016 A 
ATOM     38  C   UNL     1       9.328  -7.269   6.075  1.00  0.00     0.010 A 
ATOM     39  C   UNL     1       9.152  -4.872   6.426  1.00  0.00     0.010 A 
ATOM     40  C   UNL     1       9.943  -6.026   6.279  1.00  0.00    -0.014 A 
BRANCH  40  41
ATOM     41  C   UNL     1      11.391  -5.971   6.599  1.00  0.00     0.031 A 
ATOM     42  C   UNL     1      11.793  -6.031   8.050  1.00  0.00     0.074 A 
ATOM     43  C   UNL     1      12.330  -5.888   5.639  1.00  0.00     0.049 A 
ATOM     44  N   UNL     1      12.985  -5.995   8.585  1.00  0.00    -0.248 NA
ATOM     45  C   UNL     1      10.697  -6.148   9.029  1.00  0.00     0.031 C 
ATOM     46  C   UNL     1      12.074  -5.861   4.201  1.00  0.00     0.029 A 
ATOM     47  N   UNL     1      13.697  -5.808   5.741  1.00  0.00    -0.354 N 
ATOM     48  C   UNL     1      12.784  -6.088   9.958  1.00  0.00     0.074 A 
ATOM     49  C   UNL     1      11.356  -6.150  10.177  1.00  0.00     0.031 C 
ATOM     50  C   UNL     1      13.249  -5.764   3.553  1.00  0.00     0.029 A 
ATOM     51  C   UNL     1      14.336  -5.696   4.529  1.00  0.00     0.049 A 
ATOM     52  H   UNL     1      14.175  -5.828   6.602  1.00  0.00     0.167 HD
ATOM     53  C   UNL     1      13.703  -6.123  10.951  1.00  0.00     0.031 A 
ATOM     54  C   UNL     1      15.645  -5.541   4.245  1.00  0.00     0.031 A 
ATOM     55  C   UNL     1      15.121  -6.027  10.739  1.00  0.00     0.049 A 
ATOM     56  C   UNL     1      16.647  -5.500   5.372  1.00  0.00     0.074 A 
ATOM     57  C   UNL     1      16.136  -6.049  11.678  1.00  0.00     0.029 A 
ATOM     58  N   UNL     1      15.723  -5.876   9.499  1.00  0.00    -0.354 N 
ATOM     59  N   UNL     1      16.444  -5.620   6.664  1.00  0.00    -0.248 NA
ATOM     60  C   UNL     1      18.058  -5.310   5.003  1.00  0.00     0.031 C 
ATOM     61  C   UNL     1      17.351  -5.858  11.010  1.00  0.00     0.029 A 
ATOM     62  C   UNL     1      17.095  -5.776   9.650  1.00  0.00     0.049 A 
ATOM     63  H   UNL     1      15.246  -5.844   8.639  1.00  0.00     0.167 HD
ATOM     64  C   UNL     1      17.702  -5.547   7.256  1.00  0.00     0.074 A 
ATOM     65  C   UNL     1      18.660  -5.384   6.182  1.00  0.00     0.031 C 
ATOM     66  C   UNL     1      18.035  -5.614   8.569  1.00  0.00     0.031 A 
BRANCH  53  67
ATOM     67  C   UNL     1      13.188  -6.229  12.361  1.00  0.00    -0.014 A 
ATOM     68  C   UNL     1      12.626  -7.426  12.842  1.00  0.00     0.010 A 
ATOM     69  C   UNL     1      13.274  -5.119  13.220  1.00  0.00     0.010 A 
ATOM     70  C   UNL     1      12.119  -7.497  14.143  1.00  0.00     0.020 A 
ATOM     71  C   UNL     1      12.792  -5.194  14.530  1.00  0.00     0.020 A 
ATOM     72  C   UNL     1      12.200  -6.378  14.976  1.00  0.00     0.054 A 
BRANCH  72  73
ATOM     73  S   UNL     1      11.542  -6.497  16.662  1.00  0.00     0.124 S 
ATOM     74  O   UNL     1      10.100  -6.470  16.425  1.00  0.00    -0.237 OA
ATOM     75  O   UNL     1      12.078  -7.773  17.128  1.00  0.00    -0.237 OA
ATOM     76  O   UNL     1      12.084  -5.316  17.331  1.00  0.00    -0.744 OA
ENDBRANCH  72  73
ENDBRANCH  53  67
BRANCH  54  77
ATOM     77  C   UNL     1      16.090  -5.395   2.830  1.00  0.00    -0.014 A 
ATOM     78  C   UNL     1      16.830  -6.410   2.199  1.00  0.00     0.010 A 
ATOM     79  C   UNL     1      15.779  -4.228   2.108  1.00  0.00     0.010 A 
ATOM     80  C   UNL     1      17.264  -6.255   0.878  1.00  0.00     0.020 A 
ATOM     81  C   UNL     1      16.188  -4.080   0.779  1.00  0.00     0.020 A 
ATOM     82  C   UNL     1      16.938  -5.091   0.175  1.00  0.00     0.054 A 
BRANCH  82  83
ATOM     83  S   UNL     1      17.468  -4.933  -1.554  1.00  0.00     0.124 S 
ATOM     84  O   UNL     1      18.897  -4.676  -1.412  1.00  0.00    -0.237 OA
ATOM     85  O   UNL     1      17.110  -6.233  -2.115  1.00  0.00    -0.237 OA
ATOM     86  O   UNL     1      16.677  -3.809  -2.052  1.00  0.00    -0.744 OA
ENDBRANCH  82  83
ENDBRANCH  54  77
BRANCH  66  87
ATOM     87  C   UNL     1      19.497  -5.544   8.925  1.00  0.00    -0.014 A 
ATOM     88  C   UNL     1      20.210  -4.335   8.848  1.00  0.00     0.010 A 
ATOM     89  C   UNL     1      20.146  -6.694   9.411  1.00  0.00     0.010 A 
ATOM     90  C   UNL     1      21.555  -4.284   9.226  1.00  0.00     0.020 A 
ATOM     91  C   UNL     1      21.483  -6.641   9.813  1.00  0.00     0.020 A 
ATOM     92  C   UNL     1      22.183  -5.438   9.706  1.00  0.00     0.054 A 
BRANCH  92  93
ATOM     93  S   UNL     1      23.916  -5.336  10.236  1.00  0.00     0.124 S 
ATOM     94  O   UNL     1      24.621  -5.274   8.959  1.00  0.00    -0.237 OA
ATOM     95  O   UNL     1      23.939  -4.108  11.027  1.00  0.00    -0.237 OA
ATOM     96  O   UNL     1      24.117  -6.565  11.000  1.00  0.00    -0.744 OA
ENDBRANCH  92  93
ENDBRANCH  66  87
ENDBRANCH  40  41
ENDBRANCH  33  35
ENDBRANCH  32  33
ENDBRANCH  31  32
ENDBRANCH  30  31
ENDBRANCH   1  30
TORSDOF 23
