REMARK SMILES C=CC[N@H+](CC(=O)OCCOCCOC(=O)c1ccc(-c2c3nc(c(-c4ccc(S(=O)(=O)[O-])cc4)c4ccc([nH]4)c(-c4ccc(S(=O)(=O)[O-])cc4)c4nc(c(-c5ccc(S(=O)(=O)[O-])cc5)c5ccc2[nH]5)C=C4)C=C3)cc1)Cc1cccc2ccccc12
REMARK SMILES IDX 11 1 10 2 9 3 8 4 6 5 7 6 5 7 4 8 3 10 2 11 1 12 77 13 78 14
REMARK SMILES IDX 79 15 87 16 80 17 82 18 86 19 81 20 83 21 85 22 84 23 12 24
REMARK SMILES IDX 13 25 14 26 15 27 16 28 17 29 18 30 76 31 19 32 75 33 20 34
REMARK SMILES IDX 21 35 22 36 69 37 23 38 74 39 68 40 70 41 24 42 73 43 67 44
REMARK SMILES IDX 66 45 25 47 55 48 36 49 54 50 37 51 40 52 53 53 71 54 38 55
REMARK SMILES IDX 39 56 52 58 72 59 41 60 26 61 27 62 35 63 28 64 34 65 29 66
REMARK SMILES IDX 30 67 31 68 32 69 33 70 56 71 57 72 65 73 58 74 64 75 59 76
REMARK SMILES IDX 60 77 61 78 62 79 63 80 42 81 43 82 51 83 44 84 50 85 45 86
REMARK SMILES IDX 46 87 47 88 48 89 49 90
REMARK H PARENT 4 9 70 46 40 57
REMARK Flexibility Score: inf
ROOT
ATOM      1  O   UNL     1      -4.589   3.485   0.544  1.00  0.00    -0.374 OA
ENDROOT
BRANCH   1   2
ATOM      2  C   UNL     1      -5.462   2.392   0.879  1.00  0.00     0.202 C 
BRANCH   2   3
ATOM      3  C   UNL     1      -5.811   1.172  -0.023  1.00  0.00     0.261 C 
BRANCH   3   4
ATOM      4  O   UNL     1      -4.768   0.352  -0.591  1.00  0.00    -0.459 OA
BRANCH   4   5
ATOM      5  C   UNL     1      -4.511   0.480  -1.927  1.00  0.00     0.361 C 
ATOM      6  O   UNL     1      -5.067   1.291  -2.662  1.00  0.00    -0.245 OA
BRANCH   5   7
ATOM      7  C   UNL     1      -3.448  -0.520  -2.427  1.00  0.00     0.387 C 
BRANCH   7   8
ATOM      8  N   UNL     1      -2.060  -0.186  -2.091  1.00  0.00    -0.319 N 
ATOM      9  H   UNL     1      -2.148   0.009  -1.093  1.00  0.00     0.349 HD
BRANCH   8  10
ATOM     10  C   UNL     1      -1.132  -1.261  -1.785  1.00  0.00     0.291 C 
BRANCH  10  11
ATOM     11  C   UNL     1       0.330  -0.901  -1.727  1.00  0.00     0.025 C 
ATOM     12  C   UNL     1       0.966  -0.417  -0.649  1.00  0.00     0.010 C 
ENDBRANCH  10  11
ENDBRANCH   8  10
BRANCH   8  13
ATOM     13  C   UNL     1      -1.595   1.156  -2.316  1.00  0.00     0.300 C 
BRANCH  13  14
ATOM     14  C   UNL     1      -1.780   2.071  -1.127  1.00  0.00     0.014 A 
ATOM     15  C   UNL     1      -1.739   3.832  -1.546  1.00  0.00     0.010 A 
ATOM     16  C   UNL     1      -2.256   1.504   0.562  1.00  0.00    -0.010 A 
ATOM     17  C   UNL     1      -2.202   5.047  -0.316  1.00  0.00     0.001 A 
ATOM     18  C   UNL     1      -2.680   2.744   1.797  1.00  0.00    -0.018 A 
ATOM     19  C   UNL     1      -2.476   0.200   1.047  1.00  0.00     0.009 A 
ATOM     20  C   UNL     1      -2.630   4.502   1.343  1.00  0.00     0.009 A 
ATOM     21  C   UNL     1      -3.058   2.269   3.061  1.00  0.00     0.009 A 
ATOM     22  C   UNL     1      -2.958  -0.085   2.337  1.00  0.00     0.001 A 
ATOM     23  C   UNL     1      -3.204   0.897   3.309  1.00  0.00     0.001 A 
ENDBRANCH  13  14
ENDBRANCH   8  13
ENDBRANCH   7   8
ENDBRANCH   5   7
ENDBRANCH   4   5
ENDBRANCH   3   4
ENDBRANCH   2   3
ENDBRANCH   1   2
BRANCH   1  24
ATOM     24  C   UNL     1      -3.261   3.201  -0.178  1.00  0.00     0.202 C 
BRANCH  24  25
ATOM     25  C   UNL     1      -1.169   3.342   0.429  1.00  0.00     0.261 C 
BRANCH  25  26
ATOM     26  O   UNL     1      -0.411   2.621   1.550  1.00  0.00    -0.460 OA
BRANCH  26  27
ATOM     27  C   UNL     1       0.101   3.341   2.577  1.00  0.00     0.338 C 
ATOM     28  O   UNL     1       0.173   4.546   2.724  1.00  0.00    -0.246 OA
BRANCH  27  29
ATOM     29  C   UNL     1       0.281   2.343   3.625  1.00  0.00     0.060 A 
ATOM     30  C   UNL     1      -0.428   2.532   4.813  1.00  0.00     0.016 A 
ATOM     31  C   UNL     1       0.985   1.164   3.349  1.00  0.00     0.016 A 
ATOM     32  C   UNL     1      -0.459   1.507   5.734  1.00  0.00     0.010 A 
ATOM     33  C   UNL     1       0.990   0.149   4.290  1.00  0.00     0.010 A 
ATOM     34  C   UNL     1       0.296   0.348   5.492  1.00  0.00    -0.014 A 
BRANCH  34  35
ATOM     35  C   UNL     1       0.664  -0.418   6.685  1.00  0.00     0.031 A 
ATOM     36  C   UNL     1       1.832   0.127   7.453  1.00  0.00     0.074 A 
ATOM     37  C   UNL     1      -0.121  -1.409   7.129  1.00  0.00     0.049 A 
ATOM     38  N   UNL     1       2.250  -0.179   8.646  1.00  0.00    -0.248 NA
ATOM     39  C   UNL     1       2.606   1.204   6.800  1.00  0.00     0.031 C 
ATOM     40  C   UNL     1      -1.317  -1.914   6.453  1.00  0.00     0.029 A 
ATOM     41  N   UNL     1      -0.050  -2.133   8.284  1.00  0.00    -0.354 N 
ATOM     42  C   UNL     1       3.308   0.687   8.894  1.00  0.00     0.074 A 
ATOM     43  C   UNL     1       3.497   1.507   7.726  1.00  0.00     0.031 C 
ATOM     44  C   UNL     1      -1.883  -2.860   7.225  1.00  0.00     0.029 A 
ATOM     45  C   UNL     1      -1.075  -3.034   8.430  1.00  0.00     0.049 A 
ATOM     46  H   UNL     1       0.667  -2.019   8.948  1.00  0.00     0.167 HD
ATOM     47  C   UNL     1       4.056   0.787  10.013  1.00  0.00     0.031 A 
ATOM     48  C   UNL     1      -1.311  -3.896   9.436  1.00  0.00     0.031 A 
ATOM     49  C   UNL     1       3.884  -0.097  11.128  1.00  0.00     0.049 A 
ATOM     50  C   UNL     1      -0.377  -3.853  10.620  1.00  0.00     0.074 A 
ATOM     51  C   UNL     1       4.617  -0.170  12.294  1.00  0.00     0.029 A 
ATOM     52  N   UNL     1       2.909  -1.085  11.192  1.00  0.00    -0.354 N 
ATOM     53  N   UNL     1       0.632  -3.041  10.847  1.00  0.00    -0.248 NA
ATOM     54  C   UNL     1      -0.620  -4.829  11.687  1.00  0.00     0.031 C 
ATOM     55  C   UNL     1       4.132  -1.255  13.031  1.00  0.00     0.029 A 
ATOM     56  C   UNL     1       3.040  -1.799  12.366  1.00  0.00     0.049 A 
ATOM     57  H   UNL     1       2.226  -1.252  10.503  1.00  0.00     0.167 HD
ATOM     58  C   UNL     1       1.131  -3.392  12.096  1.00  0.00     0.074 A 
ATOM     59  C   UNL     1       0.290  -4.471  12.581  1.00  0.00     0.031 C 
ATOM     60  C   UNL     1       2.183  -2.879  12.787  1.00  0.00     0.031 A 
BRANCH  47  61
ATOM     61  C   UNL     1       5.157   1.809  10.013  1.00  0.00    -0.014 A 
ATOM     62  C   UNL     1       4.885   3.191  10.032  1.00  0.00     0.010 A 
ATOM     63  C   UNL     1       6.493   1.377   9.955  1.00  0.00     0.010 A 
ATOM     64  C   UNL     1       5.929   4.119   9.967  1.00  0.00     0.020 A 
ATOM     65  C   UNL     1       7.540   2.300   9.920  1.00  0.00     0.020 A 
ATOM     66  C   UNL     1       7.251   3.666   9.916  1.00  0.00     0.054 A 
BRANCH  66  67
ATOM     67  S   UNL     1       8.590   4.889   9.874  1.00  0.00     0.124 S 
ATOM     68  O   UNL     1       8.430   5.470   8.544  1.00  0.00    -0.237 OA
ATOM     69  O   UNL     1       8.250   5.768  10.990  1.00  0.00    -0.237 OA
ATOM     70  O   UNL     1       9.797   4.088  10.061  1.00  0.00    -0.744 OA
ENDBRANCH  66  67
ENDBRANCH  47  61
BRANCH  48  71
ATOM     71  C   UNL     1      -2.437  -4.869   9.351  1.00  0.00    -0.014 A 
ATOM     72  C   UNL     1      -3.510  -4.841  10.259  1.00  0.00     0.010 A 
ATOM     73  C   UNL     1      -2.432  -5.851   8.341  1.00  0.00     0.010 A 
ATOM     74  C   UNL     1      -4.540  -5.785  10.172  1.00  0.00     0.020 A 
ATOM     75  C   UNL     1      -3.474  -6.775   8.230  1.00  0.00     0.020 A 
ATOM     76  C   UNL     1      -4.517  -6.744   9.155  1.00  0.00     0.054 A 
BRANCH  76  77
ATOM     77  S   UNL     1      -5.883  -7.934   9.035  1.00  0.00     0.124 S 
ATOM     78  O   UNL     1      -5.671  -8.762  10.217  1.00  0.00    -0.237 OA
ATOM     79  O   UNL     1      -7.057  -7.066   9.069  1.00  0.00    -0.237 OA
ATOM     80  O   UNL     1      -5.646  -8.598   7.755  1.00  0.00    -0.744 OA
ENDBRANCH  76  77
ENDBRANCH  48  71
BRANCH  60  81
ATOM     81  C   UNL     1       2.447  -3.465  14.147  1.00  0.00    -0.014 A 
ATOM     82  C   UNL     1       2.913  -4.781  14.301  1.00  0.00     0.010 A 
ATOM     83  C   UNL     1       2.255  -2.661  15.286  1.00  0.00     0.010 A 
ATOM     84  C   UNL     1       3.118  -5.306  15.577  1.00  0.00     0.020 A 
ATOM     85  C   UNL     1       2.503  -3.168  16.561  1.00  0.00     0.020 A 
ATOM     86  C   UNL     1       2.907  -4.496  16.698  1.00  0.00     0.054 A 
BRANCH  86  87
ATOM     87  S   UNL     1       3.182  -5.202  18.343  1.00  0.00     0.124 S 
ATOM     88  O   UNL     1       2.046  -6.110  18.474  1.00  0.00    -0.237 OA
ATOM     89  O   UNL     1       4.487  -5.843  18.201  1.00  0.00    -0.237 OA
ATOM     90  O   UNL     1       3.156  -4.040  19.228  1.00  0.00    -0.744 OA
ENDBRANCH  86  87
ENDBRANCH  60  81
ENDBRANCH  34  35
ENDBRANCH  27  29
ENDBRANCH  26  27
ENDBRANCH  25  26
ENDBRANCH  24  25
ENDBRANCH   1  24
TORSDOF 22
