REMARK SMILES C[C@H](C(=O)OCCOCCOC(=O)c1ccc(-c2c3nc(c(-c4ccc(S(=O)(=O)[O-])cc4)c4ccc([nH]4)c(-c4ccc(S(=O)(=O)[O-])cc4)c4nc(c(-c5ccc(S(=O)(=O)[O-])cc5)c5ccc2[nH]5)C=C4)C=C3)cc1)n1ccc(C(=O)N(C)Cc2cnn(C)c2)n1
REMARK SMILES IDX 7 1 6 2 5 3 3 4 4 5 2 6 1 7 74 8 75 9 89 10 76 11 77 12
REMARK SMILES IDX 78 13 79 14 80 15 81 16 82 17 83 18 84 19 88 20 85 21 86 22
REMARK SMILES IDX 87 23 8 24 9 25 10 26 11 27 12 28 13 29 14 30 15 31 73 32
REMARK SMILES IDX 16 33 72 34 17 35 18 36 19 37 66 38 20 39 71 40 65 41 67 42
REMARK SMILES IDX 21 43 70 44 64 45 63 46 22 48 52 49 33 50 51 51 34 52 37 53
REMARK SMILES IDX 50 54 68 55 35 56 36 57 49 59 69 60 38 61 23 62 24 63 32 64
REMARK SMILES IDX 25 65 31 66 26 67 27 68 28 69 29 70 30 71 53 72 54 73 62 74
REMARK SMILES IDX 55 75 61 76 56 77 57 78 58 79 59 80 60 81 39 82 40 83 48 84
REMARK SMILES IDX 41 85 47 86 42 87 43 88 44 89 45 90 46 91
REMARK H PARENT 67 47 37 58
REMARK Flexibility Score: inf
ROOT
ATOM      1  C   UNL     1       1.463  -2.075  -1.746  1.00  0.00     0.202 C 
ENDROOT
BRANCH   1   2
ATOM      2  C   UNL     1       1.581  -1.907  -0.230  1.00  0.00     0.261 C 
BRANCH   2   3
ATOM      3  O   UNL     1       0.721  -0.831   0.200  1.00  0.00    -0.462 OA
BRANCH   3   4
ATOM      4  C   UNL     1       1.188  -0.024   1.183  1.00  0.00     0.330 C 
ATOM      5  O   UNL     1       2.254  -0.210   1.766  1.00  0.00    -0.250 OA
BRANCH   4   6
ATOM      6  C   UNL     1       0.361   1.226   1.414  1.00  0.00     0.213 C 
ATOM      7  C   UNL     1       1.034   2.396   0.683  1.00  0.00     0.046 C 
BRANCH   6   8
ATOM      8  N   UNL     1      -1.078   1.163   1.129  1.00  0.00    -0.258 N 
ATOM      9  C   UNL     1      -1.892   0.077   1.004  1.00  0.00     0.110 A 
ATOM     10  N   UNL     1      -1.775   2.330   1.155  1.00  0.00    -0.167 NA
ATOM     11  C   UNL     1      -3.169   0.564   0.885  1.00  0.00     0.056 A 
ATOM     12  C   UNL     1      -3.063   1.978   0.989  1.00  0.00     0.150 A 
BRANCH  12  13
ATOM     13  C   UNL     1      -4.224   2.894   1.006  1.00  0.00     0.274 C 
ATOM     14  O   UNL     1      -5.333   2.431   1.291  1.00  0.00    -0.267 OA
BRANCH  13  15
ATOM     15  N   UNL     1      -4.100   4.253   0.677  1.00  0.00    -0.336 N 
ATOM     16  C   UNL     1      -2.875   4.946   0.313  1.00  0.00     0.147 C 
BRANCH  15  17
ATOM     17  C   UNL     1      -5.313   5.063   0.723  1.00  0.00     0.158 C 
BRANCH  17  18
ATOM     18  C   UNL     1      -6.034   5.024  -0.586  1.00  0.00     0.009 A 
ATOM     19  C   UNL     1      -6.411   3.884  -1.339  1.00  0.00     0.140 A 
ATOM     20  C   UNL     1      -6.560   6.077  -1.312  1.00  0.00     0.113 A 
ATOM     21  N   UNL     1      -7.092   4.193  -2.443  1.00  0.00    -0.181 NA
ATOM     22  N   UNL     1      -7.201   5.527  -2.385  1.00  0.00    -0.275 N 
ATOM     23  C   UNL     1      -7.989   6.207  -3.383  1.00  0.00     0.173 C 
ENDBRANCH  17  18
ENDBRANCH  15  17
ENDBRANCH  13  15
ENDBRANCH  12  13
ENDBRANCH   6   8
ENDBRANCH   4   6
ENDBRANCH   3   4
ENDBRANCH   2   3
ENDBRANCH   1   2
BRANCH   1  24
ATOM     24  O   UNL     1       2.114  -1.059  -2.517  1.00  0.00    -0.374 OA
BRANCH  24  25
ATOM     25  C   UNL     1       1.521   0.238  -2.509  1.00  0.00     0.202 C 
BRANCH  25  26
ATOM     26  C   UNL     1       0.364   0.470  -3.487  1.00  0.00     0.261 C 
BRANCH  26  27
ATOM     27  O   UNL     1      -0.732  -0.433  -3.279  1.00  0.00    -0.460 OA
BRANCH  27  28
ATOM     28  C   UNL     1      -0.794  -1.445  -4.176  1.00  0.00     0.338 C 
ATOM     29  O   UNL     1      -0.055  -1.626  -5.135  1.00  0.00    -0.246 OA
BRANCH  28  30
ATOM     30  C   UNL     1      -1.800  -2.437  -3.757  1.00  0.00     0.060 A 
ATOM     31  C   UNL     1      -1.403  -3.780  -3.723  1.00  0.00     0.016 A 
ATOM     32  C   UNL     1      -3.120  -2.079  -3.476  1.00  0.00     0.016 A 
ATOM     33  C   UNL     1      -2.339  -4.776  -3.458  1.00  0.00     0.010 A 
ATOM     34  C   UNL     1      -4.060  -3.083  -3.217  1.00  0.00     0.010 A 
ATOM     35  C   UNL     1      -3.681  -4.437  -3.242  1.00  0.00    -0.014 A 
BRANCH  35  36
ATOM     36  C   UNL     1      -4.701  -5.510  -3.183  1.00  0.00     0.031 A 
ATOM     37  C   UNL     1      -5.511  -5.819  -4.413  1.00  0.00     0.074 A 
ATOM     38  C   UNL     1      -4.876  -6.229  -2.059  1.00  0.00     0.049 A 
ATOM     39  N   UNL     1      -6.451  -6.712  -4.582  1.00  0.00    -0.248 NA
ATOM     40  C   UNL     1      -5.218  -5.016  -5.613  1.00  0.00     0.031 C 
ATOM     41  C   UNL     1      -4.124  -6.051  -0.817  1.00  0.00     0.029 A 
ATOM     42  N   UNL     1      -5.746  -7.254  -1.783  1.00  0.00    -0.354 N 
ATOM     43  C   UNL     1      -6.866  -6.578  -5.902  1.00  0.00     0.074 A 
ATOM     44  C   UNL     1      -6.095  -5.499  -6.482  1.00  0.00     0.031 C 
ATOM     45  C   UNL     1      -4.573  -6.934   0.093  1.00  0.00     0.029 A 
ATOM     46  C   UNL     1      -5.660  -7.716  -0.492  1.00  0.00     0.049 A 
ATOM     47  H   UNL     1      -6.372  -7.622  -2.448  1.00  0.00     0.167 HD
ATOM     48  C   UNL     1      -7.800  -7.293  -6.574  1.00  0.00     0.031 A 
ATOM     49  C   UNL     1      -6.389  -8.650   0.150  1.00  0.00     0.031 A 
ATOM     50  C   UNL     1      -8.579  -8.352  -5.991  1.00  0.00     0.049 A 
ATOM     51  C   UNL     1      -7.471  -9.384  -0.597  1.00  0.00     0.074 A 
ATOM     52  C   UNL     1      -9.546  -9.140  -6.590  1.00  0.00     0.029 A 
ATOM     53  N   UNL     1      -8.487  -8.767  -4.671  1.00  0.00    -0.354 N 
ATOM     54  N   UNL     1      -7.835  -9.262  -1.852  1.00  0.00    -0.248 NA
ATOM     55  C   UNL     1      -8.235 -10.388   0.157  1.00  0.00     0.031 C 
ATOM     56  C   UNL     1     -10.075  -9.997  -5.618  1.00  0.00     0.029 A 
ATOM     57  C   UNL     1      -9.395  -9.783  -4.429  1.00  0.00     0.049 A 
ATOM     58  H   UNL     1      -7.867  -8.393  -4.003  1.00  0.00     0.167 HD
ATOM     59  C   UNL     1      -8.853 -10.191  -2.044  1.00  0.00     0.074 A 
ATOM     60  C   UNL     1      -9.037 -10.876  -0.781  1.00  0.00     0.031 C 
ATOM     61  C   UNL     1      -9.568 -10.454  -3.165  1.00  0.00     0.031 A 
BRANCH  48  62
ATOM     62  C   UNL     1      -8.050  -6.928  -8.014  1.00  0.00    -0.014 A 
ATOM     63  C   UNL     1      -7.109  -7.232  -9.015  1.00  0.00     0.010 A 
ATOM     64  C   UNL     1      -9.257  -6.303  -8.376  1.00  0.00     0.010 A 
ATOM     65  C   UNL     1      -7.356  -6.885 -10.346  1.00  0.00     0.020 A 
ATOM     66  C   UNL     1      -9.518  -5.977  -9.710  1.00  0.00     0.020 A 
ATOM     67  C   UNL     1      -8.558  -6.256 -10.684  1.00  0.00     0.054 A 
BRANCH  67  68
ATOM     68  S   UNL     1      -8.862  -5.835 -12.423  1.00  0.00     0.124 S 
ATOM     69  O   UNL     1      -7.964  -4.699 -12.619  1.00  0.00    -0.237 OA
ATOM     70  O   UNL     1      -8.484  -7.061 -13.121  1.00  0.00    -0.237 OA
ATOM     71  O   UNL     1     -10.287  -5.515 -12.459  1.00  0.00    -0.744 OA
ENDBRANCH  67  68
ENDBRANCH  48  62
BRANCH  49  72
ATOM     72  C   UNL     1      -6.131  -8.930   1.589  1.00  0.00    -0.014 A 
ATOM     73  C   UNL     1      -5.556 -10.146   1.996  1.00  0.00     0.010 A 
ATOM     74  C   UNL     1      -6.460  -7.968   2.564  1.00  0.00     0.010 A 
ATOM     75  C   UNL     1      -5.327 -10.401   3.352  1.00  0.00     0.020 A 
ATOM     76  C   UNL     1      -6.208  -8.209   3.917  1.00  0.00     0.020 A 
ATOM     77  C   UNL     1      -5.652  -9.430   4.304  1.00  0.00     0.054 A 
BRANCH  77  78
ATOM     78  S   UNL     1      -5.294  -9.759   6.052  1.00  0.00     0.124 S 
ATOM     79  O   UNL     1      -6.344 -10.710   6.403  1.00  0.00    -0.237 OA
ATOM     80  O   UNL     1      -3.939 -10.303   6.000  1.00  0.00    -0.237 OA
ATOM     81  O   UNL     1      -5.404  -8.443   6.677  1.00  0.00    -0.744 OA
ENDBRANCH  77  78
ENDBRANCH  49  72
BRANCH  61  82
ATOM     82  C   UNL     1     -10.596 -11.552  -3.092  1.00  0.00    -0.014 A 
ATOM     83  C   UNL     1     -11.806 -11.375  -2.398  1.00  0.00     0.010 A 
ATOM     84  C   UNL     1     -10.370 -12.760  -3.778  1.00  0.00     0.010 A 
ATOM     85  C   UNL     1     -12.758 -12.398  -2.365  1.00  0.00     0.020 A 
ATOM     86  C   UNL     1     -11.331 -13.774  -3.770  1.00  0.00     0.020 A 
ATOM     87  C   UNL     1     -12.514 -13.592  -3.051  1.00  0.00     0.054 A 
BRANCH  87  88
ATOM     88  S   UNL     1     -13.783 -14.888  -3.030  1.00  0.00     0.124 S 
ATOM     89  O   UNL     1     -13.646 -15.426  -1.680  1.00  0.00    -0.237 OA
ATOM     90  O   UNL     1     -15.011 -14.140  -3.288  1.00  0.00    -0.237 OA
ATOM     91  O   UNL     1     -13.374 -15.790  -4.105  1.00  0.00    -0.744 OA
ENDBRANCH  87  88
ENDBRANCH  61  82
ENDBRANCH  35  36
ENDBRANCH  28  30
ENDBRANCH  27  28
ENDBRANCH  26  27
ENDBRANCH  25  26
ENDBRANCH  24  25
ENDBRANCH   1  24
TORSDOF 22
