REMARK SMILES CCc1cc(/C=C/C(=O)OCCOCCOC(=O)c2ccc(-c3c4nc(c(-c5ccc(S(=O)(=O)[O-])cc5)c5ccc([nH]5)c(-c5ccc(S(=O)(=O)[O-])cc5)c5nc(c(-c6ccc(S(=O)(=O)[O-])cc6)c6ccc3[nH]6)C=C5)C=C4)cc2)cc(C(=O)c2ccccc2)c1
REMARK SMILES IDX 13 1 12 2 11 3 10 4 8 5 9 6 7 7 6 8 5 9 3 10 4 11 89 12
REMARK SMILES IDX 80 13 79 14 2 15 1 16 81 17 82 18 83 19 84 20 88 21 85 22
REMARK SMILES IDX 87 23 86 24 14 25 15 26 16 27 17 28 18 29 19 30 20 31 78 32
REMARK SMILES IDX 21 33 77 34 22 35 23 36 24 37 71 38 25 39 76 40 70 41 72 42
REMARK SMILES IDX 26 43 75 44 69 45 68 46 27 48 57 49 38 50 56 51 39 52 42 53
REMARK SMILES IDX 55 54 73 55 40 56 41 57 54 59 74 60 43 61 28 62 29 63 37 64
REMARK SMILES IDX 30 65 36 66 31 67 32 68 33 69 34 70 35 71 58 72 59 73 67 74
REMARK SMILES IDX 60 75 66 76 61 77 62 78 63 79 64 80 65 81 44 82 45 83 53 84
REMARK SMILES IDX 46 85 52 86 47 87 48 88 49 89 50 90 51 91
REMARK H PARENT 72 47 42 58
REMARK Flexibility Score: inf
ROOT
ATOM      1  O   UNL     1      -4.248  -7.224   0.851  1.00  0.00    -0.374 OA
ENDROOT
BRANCH   1   2
ATOM      2  C   UNL     1      -3.693  -8.448   0.364  1.00  0.00     0.202 C 
BRANCH   2   3
ATOM      3  C   UNL     1      -3.284  -8.435  -1.111  1.00  0.00     0.261 C 
BRANCH   3   4
ATOM      4  O   UNL     1      -2.213  -7.501  -1.335  1.00  0.00    -0.460 OA
BRANCH   4   5
ATOM      5  C   UNL     1      -2.519  -6.444  -2.120  1.00  0.00     0.330 C 
ATOM      6  O   UNL     1      -3.559  -6.269  -2.740  1.00  0.00    -0.247 OA
BRANCH   5   7
ATOM      7  C   UNL     1      -1.479  -5.396  -2.079  1.00  0.00     0.094 C 
ATOM      8  C   UNL     1      -0.282  -5.468  -1.473  1.00  0.00     0.015 C 
BRANCH   8   9
ATOM      9  C   UNL     1       0.649  -4.325  -1.437  1.00  0.00    -0.024 A 
ATOM     10  C   UNL     1       1.054  -1.913  -1.347  1.00  0.00    -0.047 A 
ATOM     11  C   UNL     1       0.178  -3.005  -1.333  1.00  0.00     0.011 A 
ATOM     12  C   UNL     1       2.428  -2.152  -1.446  1.00  0.00     0.016 A 
ATOM     13  C   UNL     1       2.930  -3.459  -1.462  1.00  0.00     0.023 A 
ATOM     14  C   UNL     1       2.034  -4.542  -1.466  1.00  0.00     0.020 A 
BRANCH  10  15
ATOM     15  C   UNL     1       0.529  -0.502  -1.257  1.00  0.00     0.032 C 
ATOM     16  C   UNL     1       0.907   0.166   0.058  1.00  0.00     0.009 C 
ENDBRANCH  10  15
BRANCH  13  17
ATOM     17  C   UNL     1       4.397  -3.734  -1.527  1.00  0.00     0.193 C 
ATOM     18  O   UNL     1       4.802  -4.859  -1.806  1.00  0.00    -0.289 OA
BRANCH  17  19
ATOM     19  C   UNL     1       5.398  -2.660  -1.311  1.00  0.00     0.022 A 
ATOM     20  C   UNL     1       6.405  -2.493  -2.267  1.00  0.00     0.012 A 
ATOM     21  C   UNL     1       5.349  -1.825  -0.189  1.00  0.00     0.012 A 
ATOM     22  C   UNL     1       7.329  -1.456  -2.129  1.00  0.00     0.001 A 
ATOM     23  C   UNL     1       6.272  -0.785  -0.058  1.00  0.00     0.001 A 
ATOM     24  C   UNL     1       7.254  -0.596  -1.032  1.00  0.00     0.000 A 
ENDBRANCH  17  19
ENDBRANCH  13  17
ENDBRANCH   8   9
ENDBRANCH   5   7
ENDBRANCH   4   5
ENDBRANCH   3   4
ENDBRANCH   2   3
ENDBRANCH   1   2
BRANCH   1  25
ATOM     25  C   UNL     1      -3.315  -6.230   1.280  1.00  0.00     0.202 C 
BRANCH  25  26
ATOM     26  C   UNL     1      -2.749  -6.421   2.693  1.00  0.00     0.261 C 
BRANCH  26  27
ATOM     27  O   UNL     1      -1.843  -7.538   2.756  1.00  0.00    -0.460 OA
BRANCH  27  28
ATOM     28  C   UNL     1      -2.300  -8.609   3.448  1.00  0.00     0.338 C 
ATOM     29  O   UNL     1      -3.342  -8.684   4.086  1.00  0.00    -0.246 OA
BRANCH  28  30
ATOM     30  C   UNL     1      -1.443  -9.781   3.185  1.00  0.00     0.060 A 
ATOM     31  C   UNL     1      -2.076 -10.975   2.814  1.00  0.00     0.016 A 
ATOM     32  C   UNL     1      -0.056  -9.736   3.345  1.00  0.00     0.016 A 
ATOM     33  C   UNL     1      -1.329 -12.140   2.647  1.00  0.00     0.010 A 
ATOM     34  C   UNL     1       0.691 -10.909   3.183  1.00  0.00     0.010 A 
ATOM     35  C   UNL     1       0.054 -12.123   2.866  1.00  0.00    -0.014 A 
BRANCH  35  36
ATOM     36  C   UNL     1       0.810 -13.399   2.892  1.00  0.00     0.031 A 
ATOM     37  C   UNL     1       1.142 -14.026   4.219  1.00  0.00     0.074 A 
ATOM     38  C   UNL     1       1.174 -14.006   1.748  1.00  0.00     0.049 A 
ATOM     39  N   UNL     1       1.805 -15.125   4.473  1.00  0.00    -0.248 NA
ATOM     40  C   UNL     1       0.661 -13.321   5.419  1.00  0.00     0.031 C 
ATOM     41  C   UNL     1       0.878 -13.521   0.401  1.00  0.00     0.029 A 
ATOM     42  N   UNL     1       1.878 -15.166   1.541  1.00  0.00    -0.354 N 
ATOM     43  C   UNL     1       1.829 -15.240   5.858  1.00  0.00     0.074 A 
ATOM     44  C   UNL     1       1.137 -14.086   6.391  1.00  0.00     0.031 C 
ATOM     45  C   UNL     1       1.403 -14.375  -0.495  1.00  0.00     0.029 A 
ATOM     46  C   UNL     1       2.097 -15.449   0.214  1.00  0.00     0.049 A 
ATOM     47  H   UNL     1       2.196 -15.742   2.274  1.00  0.00     0.167 HD
ATOM     48  C   UNL     1       2.373 -16.220   6.618  1.00  0.00     0.031 A 
ATOM     49  C   UNL     1       2.793 -16.448  -0.363  1.00  0.00     0.031 A 
ATOM     50  C   UNL     1       3.074 -17.360   6.087  1.00  0.00     0.049 A 
ATOM     51  C   UNL     1       3.450 -17.489   0.504  1.00  0.00     0.074 A 
ATOM     52  C   UNL     1       3.648 -18.414   6.777  1.00  0.00     0.029 A 
ATOM     53  N   UNL     1       3.304 -17.590   4.740  1.00  0.00    -0.354 N 
ATOM     54  N   UNL     1       3.441 -17.598   1.812  1.00  0.00    -0.248 NA
ATOM     55  C   UNL     1       4.204 -18.548  -0.183  1.00  0.00     0.031 C 
ATOM     56  C   UNL     1       4.271 -19.255   5.848  1.00  0.00     0.029 A 
ATOM     57  C   UNL     1       4.034 -18.756   4.577  1.00  0.00     0.049 A 
ATOM     58  H   UNL     1       2.994 -17.011   4.006  1.00  0.00     0.167 HD
ATOM     59  C   UNL     1       4.164 -18.751   2.101  1.00  0.00     0.074 A 
ATOM     60  C   UNL     1       4.586 -19.310   0.833  1.00  0.00     0.031 C 
ATOM     61  C   UNL     1       4.449 -19.300   3.308  1.00  0.00     0.031 A 
BRANCH  48  62
ATOM     62  C   UNL     1       2.260 -16.082   8.113  1.00  0.00    -0.014 A 
ATOM     63  C   UNL     1       1.031 -16.266   8.771  1.00  0.00     0.010 A 
ATOM     64  C   UNL     1       3.408 -15.793   8.873  1.00  0.00     0.010 A 
ATOM     65  C   UNL     1       0.945 -16.125  10.159  1.00  0.00     0.020 A 
ATOM     66  C   UNL     1       3.331 -15.677  10.264  1.00  0.00     0.020 A 
ATOM     67  C   UNL     1       2.095 -15.826  10.896  1.00  0.00     0.054 A 
BRANCH  67  68
ATOM     68  S   UNL     1       1.958 -15.664  12.698  1.00  0.00     0.124 S 
ATOM     69  O   UNL     1       1.286 -14.374  12.833  1.00  0.00    -0.237 OA
ATOM     70  O   UNL     1       1.159 -16.829  13.066  1.00  0.00    -0.237 OA
ATOM     71  O   UNL     1       3.345 -15.693  13.156  1.00  0.00    -0.744 OA
ENDBRANCH  67  68
ENDBRANCH  48  62
BRANCH  49  72
ATOM     72  C   UNL     1       2.918 -16.504  -1.846  1.00  0.00    -0.014 A 
ATOM     73  C   UNL     1       2.259 -17.503  -2.584  1.00  0.00     0.010 A 
ATOM     74  C   UNL     1       3.695 -15.550  -2.528  1.00  0.00     0.010 A 
ATOM     75  C   UNL     1       2.386 -17.554  -3.976  1.00  0.00     0.020 A 
ATOM     76  C   UNL     1       3.803 -15.582  -3.921  1.00  0.00     0.020 A 
ATOM     77  C   UNL     1       3.155 -16.591  -4.635  1.00  0.00     0.054 A 
BRANCH  77  78
ATOM     78  S   UNL     1       3.258 -16.642  -6.447  1.00  0.00     0.124 S 
ATOM     79  O   UNL     1       4.153 -17.774  -6.668  1.00  0.00    -0.237 OA
ATOM     80  O   UNL     1       1.865 -16.850  -6.836  1.00  0.00    -0.237 OA
ATOM     81  O   UNL     1       3.804 -15.332  -6.795  1.00  0.00    -0.744 OA
ENDBRANCH  77  78
ENDBRANCH  49  72
BRANCH  61  82
ATOM     82  C   UNL     1       5.225 -20.590   3.321  1.00  0.00    -0.014 A 
ATOM     83  C   UNL     1       6.599 -20.620   3.022  1.00  0.00     0.010 A 
ATOM     84  C   UNL     1       4.580 -21.783   3.697  1.00  0.00     0.010 A 
ATOM     85  C   UNL     1       7.306 -21.825   3.071  1.00  0.00     0.020 A 
ATOM     86  C   UNL     1       5.290 -22.985   3.772  1.00  0.00     0.020 A 
ATOM     87  C   UNL     1       6.647 -23.000   3.445  1.00  0.00     0.054 A 
BRANCH  87  88
ATOM     88  S   UNL     1       7.596 -24.543   3.545  1.00  0.00     0.124 S 
ATOM     89  O   UNL     1       7.775 -24.881   2.136  1.00  0.00    -0.237 OA
ATOM     90  O   UNL     1       8.807 -24.131   4.251  1.00  0.00    -0.237 OA
ATOM     91  O   UNL     1       6.721 -25.440   4.296  1.00  0.00    -0.744 OA
ENDBRANCH  87  88
ENDBRANCH  61  82
ENDBRANCH  35  36
ENDBRANCH  28  30
ENDBRANCH  27  28
ENDBRANCH  26  27
ENDBRANCH  25  26
ENDBRANCH   1  25
TORSDOF 21
