REMARK SMILES Cc1n[nH]c(C(=O)N[C@@H](CC(C)C)C(=O)OCCOCCOC(=O)c2ccc(-c3c4nc(c(-c5ccc(S(=O)(=O)[O-])cc5)c5ccc([nH]5)c(-c5ccc(S(=O)(=O)[O-])cc5)c5nc(c(-c6ccc(S(=O)(=O)[O-])cc6)c6ccc3[nH]6)C=C5)C=C4)cc2)n1
REMARK SMILES IDX 20 1 19 2 18 3 17 4 16 5 14 6 15 7 9 8 8 9 6 10 7 11 5 13
REMARK SMILES IDX 1 14 2 15 3 16 85 17 4 18 10 20 11 21 12 22 13 23 21 24
REMARK SMILES IDX 22 25 23 26 24 27 25 28 26 29 84 30 27 31 83 32 28 33 29 34
REMARK SMILES IDX 30 35 77 36 31 37 82 38 76 39 78 40 32 41 81 42 75 43 74 44
REMARK SMILES IDX 33 46 63 47 44 48 62 49 45 50 48 51 61 52 79 53 46 54 47 55
REMARK SMILES IDX 60 57 80 58 49 59 34 60 35 61 43 62 36 63 42 64 37 65 38 66
REMARK SMILES IDX 39 67 40 68 41 69 64 70 65 71 73 72 66 73 72 74 67 75 68 76
REMARK SMILES IDX 69 77 70 78 71 79 50 80 51 81 59 82 52 83 58 84 53 85 54 86
REMARK SMILES IDX 55 87 56 88 57 89
REMARK H PARENT 8 12 4 19 78 45 48 56
REMARK Flexibility Score: inf
ROOT
ATOM      1  C   UNL     1       2.551  -0.433  -6.682  1.00  0.00     0.202 C 
ENDROOT
BRANCH   1   2
ATOM      2  O   UNL     1       2.872  -1.161  -7.862  1.00  0.00    -0.374 OA
BRANCH   2   3
ATOM      3  C   UNL     1       2.136  -0.929  -9.060  1.00  0.00     0.202 C 
BRANCH   3   4
ATOM      4  C   UNL     1       0.641  -1.232  -9.037  1.00  0.00     0.261 C 
BRANCH   4   5
ATOM      5  O   UNL     1      -0.044  -0.557  -7.970  1.00  0.00    -0.462 OA
BRANCH   5   6
ATOM      6  C   UNL     1      -0.777  -1.354  -7.149  1.00  0.00     0.328 C 
ATOM      7  O   UNL     1      -0.878  -2.572  -7.251  1.00  0.00    -0.250 OA
BRANCH   6   8
ATOM      8  C   UNL     1      -1.574  -0.561  -6.105  1.00  0.00     0.192 C 
BRANCH   8   9
ATOM      9  N   UNL     1      -1.099   0.784  -5.796  1.00  0.00    -0.336 N 
ATOM     10  C   UNL     1      -0.574   1.355  -4.654  1.00  0.00     0.289 C 
ATOM     11  O   UNL     1      -0.410   2.575  -4.728  1.00  0.00    -0.266 OA
ATOM     12  H   UNL     1      -1.167   1.409  -6.554  1.00  0.00     0.164 HD
BRANCH  10  13
ATOM     13  C   UNL     1      -0.216   0.591  -3.464  1.00  0.00     0.214 A 
ATOM     14  C   UNL     1       0.882   0.304  -0.090  1.00  0.00     0.092 C 
ATOM     15  C   UNL     1       0.430   0.117  -1.485  1.00  0.00     0.148 A 
ATOM     16  N   UNL     1       0.438  -1.074  -2.092  1.00  0.00    -0.159 NA
ATOM     17  N   UNL     1       0.025   1.151  -2.285  1.00  0.00    -0.207 NA
ATOM     18  N   UNL     1       0.060  -0.741  -3.337  1.00  0.00    -0.255 N 
ATOM     19  H   UNL     1      -0.011  -1.386  -4.077  1.00  0.00     0.192 HD
ENDBRANCH  10  13
ENDBRANCH   8   9
BRANCH   8  20
ATOM     20  C   UNL     1      -3.068  -0.595  -6.460  1.00  0.00     0.040 C 
BRANCH  20  21
ATOM     21  C   UNL     1      -3.595   0.249  -7.643  1.00  0.00    -0.015 C 
ATOM     22  C   UNL     1      -2.862   0.060  -8.970  1.00  0.00     0.007 C 
ATOM     23  C   UNL     1      -5.075  -0.103  -7.846  1.00  0.00     0.007 C 
ENDBRANCH  20  21
ENDBRANCH   8  20
ENDBRANCH   6   8
ENDBRANCH   5   6
ENDBRANCH   4   5
ENDBRANCH   3   4
ENDBRANCH   2   3
ENDBRANCH   1   2
BRANCH   1  24
ATOM     24  C   UNL     1       2.710   1.083  -6.672  1.00  0.00     0.261 C 
BRANCH  24  25
ATOM     25  O   UNL     1       1.956   1.750  -7.676  1.00  0.00    -0.460 OA
BRANCH  25  26
ATOM     26  C   UNL     1       2.738   2.215  -8.680  1.00  0.00     0.338 C 
ATOM     27  O   UNL     1       3.821   1.774  -9.023  1.00  0.00    -0.246 OA
BRANCH  26  28
ATOM     28  C   UNL     1       2.180   3.458  -9.214  1.00  0.00     0.060 A 
ATOM     29  C   UNL     1       2.839   4.002 -10.319  1.00  0.00     0.016 A 
ATOM     30  C   UNL     1       1.266   4.196  -8.449  1.00  0.00     0.016 A 
ATOM     31  C   UNL     1       2.737   5.356 -10.535  1.00  0.00     0.010 A 
ATOM     32  C   UNL     1       1.170   5.551  -8.666  1.00  0.00     0.010 A 
ATOM     33  C   UNL     1       1.972   6.124  -9.649  1.00  0.00    -0.014 A 
BRANCH  33  34
ATOM     34  C   UNL     1       1.943   7.556  -9.858  1.00  0.00     0.031 A 
ATOM     35  C   UNL     1       1.142   7.917 -11.043  1.00  0.00     0.074 A 
ATOM     36  C   UNL     1       2.504   8.439  -9.011  1.00  0.00     0.049 A 
ATOM     37  N   UNL     1       1.577   8.253 -12.210  1.00  0.00    -0.248 NA
ATOM     38  C   UNL     1      -0.305   7.642 -10.991  1.00  0.00     0.031 C 
ATOM     39  C   UNL     1       3.048   8.171  -7.676  1.00  0.00     0.029 A 
ATOM     40  N   UNL     1       2.607   9.791  -9.119  1.00  0.00    -0.354 N 
ATOM     41  C   UNL     1       0.432   8.507 -12.954  1.00  0.00     0.074 A 
ATOM     42  C   UNL     1      -0.654   7.868 -12.258  1.00  0.00     0.031 C 
ATOM     43  C   UNL     1       3.193   9.342  -7.012  1.00  0.00     0.029 A 
ATOM     44  C   UNL     1       2.904  10.437  -7.924  1.00  0.00     0.049 A 
ATOM     45  H   UNL     1       2.482  10.271  -9.970  1.00  0.00     0.167 HD
ATOM     46  C   UNL     1       0.406   9.531 -13.851  1.00  0.00     0.031 A 
ATOM     47  C   UNL     1       2.860  11.774  -7.698  1.00  0.00     0.031 A 
ATOM     48  C   UNL     1       1.732  10.021 -14.123  1.00  0.00     0.049 A 
ATOM     49  C   UNL     1       2.968  12.446  -9.014  1.00  0.00     0.074 A 
ATOM     50  C   UNL     1       2.840   9.591 -14.818  1.00  0.00     0.029 A 
ATOM     51  N   UNL     1       2.146  10.993 -13.247  1.00  0.00    -0.354 N 
ATOM     52  N   UNL     1       4.034  12.378  -9.763  1.00  0.00    -0.248 NA
ATOM     53  C   UNL     1       1.759  12.899  -9.692  1.00  0.00     0.031 C 
ATOM     54  C   UNL     1       3.962  10.211 -14.193  1.00  0.00     0.029 A 
ATOM     55  C   UNL     1       3.510  11.037 -13.164  1.00  0.00     0.049 A 
ATOM     56  H   UNL     1       1.538  11.582 -12.743  1.00  0.00     0.167 HD
ATOM     57  C   UNL     1       3.547  12.357 -11.057  1.00  0.00     0.074 A 
ATOM     58  C   UNL     1       2.178  12.848 -10.960  1.00  0.00     0.031 C 
ATOM     59  C   UNL     1       4.183  11.649 -12.034  1.00  0.00     0.031 A 
BRANCH  46  60
ATOM     60  C   UNL     1      -0.799  10.429 -14.037  1.00  0.00    -0.014 A 
ATOM     61  C   UNL     1      -0.735  11.454 -15.001  1.00  0.00     0.010 A 
ATOM     62  C   UNL     1      -1.864  10.494 -13.112  1.00  0.00     0.010 A 
ATOM     63  C   UNL     1      -1.663  12.505 -15.010  1.00  0.00     0.020 A 
ATOM     64  C   UNL     1      -2.815  11.513 -13.135  1.00  0.00     0.020 A 
ATOM     65  C   UNL     1      -2.695  12.528 -14.070  1.00  0.00     0.054 A 
BRANCH  65  66
ATOM     66  S   UNL     1      -3.849  13.919 -14.041  1.00  0.00     0.124 S 
ATOM     67  O   UNL     1      -2.979  15.027 -13.662  1.00  0.00    -0.237 OA
ATOM     68  O   UNL     1      -4.341  13.937 -15.416  1.00  0.00    -0.237 OA
ATOM     69  O   UNL     1      -4.836  13.522 -13.039  1.00  0.00    -0.744 OA
ENDBRANCH  65  66
ENDBRANCH  46  60
BRANCH  47  70
ATOM     70  C   UNL     1       2.436  12.494  -6.471  1.00  0.00    -0.014 A 
ATOM     71  C   UNL     1       2.711  13.865  -6.302  1.00  0.00     0.010 A 
ATOM     72  C   UNL     1       1.496  11.902  -5.604  1.00  0.00     0.010 A 
ATOM     73  C   UNL     1       2.018  14.630  -5.347  1.00  0.00     0.020 A 
ATOM     74  C   UNL     1       0.804  12.658  -4.648  1.00  0.00     0.020 A 
ATOM     75  C   UNL     1       1.051  14.025  -4.541  1.00  0.00     0.054 A 
BRANCH  75  76
ATOM     76  S   UNL     1       0.030  15.055  -3.442  1.00  0.00     0.124 S 
ATOM     77  O   UNL     1       0.987  15.459  -2.416  1.00  0.00    -0.237 OA
ATOM     78  O   UNL     1      -0.426  16.117  -4.334  1.00  0.00    -0.237 OA
ATOM     79  O   UNL     1      -1.017  14.140  -2.987  1.00  0.00    -0.744 OA
ENDBRANCH  75  76
ENDBRANCH  47  70
BRANCH  59  80
ATOM     80  C   UNL     1       5.651  11.374 -11.863  1.00  0.00    -0.014 A 
ATOM     81  C   UNL     1       6.204  10.551 -10.865  1.00  0.00     0.010 A 
ATOM     82  C   UNL     1       6.505  11.926 -12.834  1.00  0.00     0.010 A 
ATOM     83  C   UNL     1       7.586  10.304 -10.835  1.00  0.00     0.020 A 
ATOM     84  C   UNL     1       7.875  11.669 -12.821  1.00  0.00     0.020 A 
ATOM     85  C   UNL     1       8.412  10.866 -11.816  1.00  0.00     0.054 A 
BRANCH  85  86
ATOM     86  S   UNL     1      10.193  10.522 -11.799  1.00  0.00     0.124 S 
ATOM     87  O   UNL     1      10.641  11.222 -10.598  1.00  0.00    -0.237 OA
ATOM     88  O   UNL     1      10.241   9.063 -11.733  1.00  0.00    -0.237 OA
ATOM     89  O   UNL     1      10.670  11.092 -13.059  1.00  0.00    -0.744 OA
ENDBRANCH  85  86
ENDBRANCH  59  80
ENDBRANCH  33  34
ENDBRANCH  26  28
ENDBRANCH  25  26
ENDBRANCH  24  25
ENDBRANCH   1  24
TORSDOF 21
