REMARK SMILES C[C@H](CC(=O)OCCOCCOC(=O)c1ccc(-c2c3nc(c(-c4ccc(S(=O)(=O)[O-])cc4)c4ccc([nH]4)c(-c4ccc(S(=O)(=O)[O-])cc4)c4nc(c(-c5ccc(S(=O)(=O)[O-])cc5)c5ccc2[nH]5)C=C4)C=C3)cc1)NC(=O)[C@@H]1Cc2ccccc2O1
REMARK SMILES IDX 9 1 8 2 7 3 6 4 4 5 5 6 3 7 2 8 1 9 75 10 76 11 77 13 78 14
REMARK SMILES IDX 79 15 86 16 80 17 85 18 81 19 84 20 82 21 83 22 10 23 11 24
REMARK SMILES IDX 12 25 13 26 14 27 15 28 16 29 74 30 17 31 73 32 18 33 19 34
REMARK SMILES IDX 20 35 67 36 21 37 72 38 66 39 68 40 22 41 71 42 65 43 64 44
REMARK SMILES IDX 23 46 53 47 34 48 52 49 35 50 38 51 51 52 69 53 36 54 37 55
REMARK SMILES IDX 50 57 70 58 39 59 24 60 25 61 33 62 26 63 32 64 27 65 28 66
REMARK SMILES IDX 29 67 30 68 31 69 54 70 55 71 63 72 56 73 62 74 57 75 58 76
REMARK SMILES IDX 59 77 60 78 61 79 40 80 41 81 49 82 42 83 48 84 43 85 44 86
REMARK SMILES IDX 45 87 46 88 47 89
REMARK H PARENT 75 12 68 45 38 56
REMARK Flexibility Score: inf
ROOT
ATOM      1  O   UNL     1      -3.216   2.267  -4.332  1.00  0.00    -0.374 OA
ENDROOT
BRANCH   1   2
ATOM      2  C   UNL     1      -4.584   1.944  -4.584  1.00  0.00     0.202 C 
BRANCH   2   3
ATOM      3  C   UNL     1      -4.838   0.811  -5.582  1.00  0.00     0.261 C 
BRANCH   3   4
ATOM      4  O   UNL     1      -4.564  -0.468  -4.975  1.00  0.00    -0.463 OA
BRANCH   4   5
ATOM      5  C   UNL     1      -3.417  -1.083  -5.351  1.00  0.00     0.307 C 
ATOM      6  O   UNL     1      -2.655  -0.681  -6.221  1.00  0.00    -0.252 OA
BRANCH   5   7
ATOM      7  C   UNL     1      -3.184  -2.362  -4.585  1.00  0.00     0.147 C 
BRANCH   7   8
ATOM      8  C   UNL     1      -3.068  -2.311  -3.042  1.00  0.00     0.090 C 
ATOM      9  C   UNL     1      -4.396  -1.973  -2.362  1.00  0.00     0.031 C 
BRANCH   8  10
ATOM     10  N   UNL     1      -2.675  -3.663  -2.619  1.00  0.00    -0.350 N 
ATOM     11  C   UNL     1      -2.040  -4.288  -1.616  1.00  0.00     0.261 C 
ATOM     12  H   UNL     1      -2.973  -4.321  -3.287  1.00  0.00     0.163 HD
ATOM     13  O   UNL     1      -2.118  -5.527  -1.726  1.00  0.00    -0.271 OA
BRANCH  11  14
ATOM     14  C   UNL     1      -1.269  -3.719  -0.425  1.00  0.00     0.266 C 
ATOM     15  C   UNL     1      -0.915  -2.256  -0.154  1.00  0.00     0.095 C 
ATOM     16  O   UNL     1      -0.003  -4.459  -0.524  1.00  0.00    -0.480 OA
ATOM     17  C   UNL     1       0.408  -2.455   0.519  1.00  0.00    -0.002 A 
ATOM     18  C   UNL     1       0.879  -3.719   0.203  1.00  0.00     0.123 A 
ATOM     19  C   UNL     1       1.182  -1.619   1.307  1.00  0.00     0.008 A 
ATOM     20  C   UNL     1       2.122  -4.183   0.585  1.00  0.00     0.047 A 
ATOM     21  C   UNL     1       2.439  -2.079   1.739  1.00  0.00     0.001 A 
ATOM     22  C   UNL     1       2.914  -3.347   1.366  1.00  0.00     0.004 A 
ENDBRANCH  11  14
ENDBRANCH   8  10
ENDBRANCH   7   8
ENDBRANCH   5   7
ENDBRANCH   4   5
ENDBRANCH   3   4
ENDBRANCH   2   3
ENDBRANCH   1   2
BRANCH   1  23
ATOM     23  C   UNL     1      -2.497   1.427  -3.433  1.00  0.00     0.202 C 
BRANCH  23  24
ATOM     24  C   UNL     1      -2.696   1.685  -1.935  1.00  0.00     0.261 C 
BRANCH  24  25
ATOM     25  O   UNL     1      -4.034   1.377  -1.504  1.00  0.00    -0.460 OA
BRANCH  25  26
ATOM     26  C   UNL     1      -4.831   2.459  -1.334  1.00  0.00     0.338 C 
ATOM     27  O   UNL     1      -4.501   3.634  -1.438  1.00  0.00    -0.246 OA
BRANCH  26  28
ATOM     28  C   UNL     1      -6.240   2.042  -1.187  1.00  0.00     0.060 A 
ATOM     29  C   UNL     1      -7.198   2.718  -1.956  1.00  0.00     0.016 A 
ATOM     30  C   UNL     1      -6.630   1.064  -0.271  1.00  0.00     0.016 A 
ATOM     31  C   UNL     1      -8.556   2.470  -1.764  1.00  0.00     0.010 A 
ATOM     32  C   UNL     1      -7.994   0.821  -0.075  1.00  0.00     0.010 A 
ATOM     33  C   UNL     1      -8.963   1.556  -0.785  1.00  0.00    -0.014 A 
BRANCH  33  34
ATOM     34  C   UNL     1     -10.383   1.505  -0.358  1.00  0.00     0.031 A 
ATOM     35  C   UNL     1     -10.767   2.189   0.928  1.00  0.00     0.074 A 
ATOM     36  C   UNL     1     -11.317   0.871  -1.090  1.00  0.00     0.049 A 
ATOM     37  N   UNL     1     -11.909   2.179   1.564  1.00  0.00    -0.248 NA
ATOM     38  C   UNL     1      -9.717   2.985   1.587  1.00  0.00     0.031 C 
ATOM     39  C   UNL     1     -11.090   0.232  -2.385  1.00  0.00     0.029 A 
ATOM     40  N   UNL     1     -12.648   0.651  -0.834  1.00  0.00    -0.354 N 
ATOM     41  C   UNL     1     -11.709   2.943   2.709  1.00  0.00     0.074 A 
ATOM     42  C   UNL     1     -10.332   3.382   2.691  1.00  0.00     0.031 C 
ATOM     43  C   UNL     1     -12.240  -0.326  -2.802  1.00  0.00     0.029 A 
ATOM     44  C   UNL     1     -13.271  -0.123  -1.784  1.00  0.00     0.049 A 
ATOM     45  H   UNL     1     -13.112   1.013  -0.045  1.00  0.00     0.167 HD
ATOM     46  C   UNL     1     -12.593   3.251   3.687  1.00  0.00     0.031 A 
ATOM     47  C   UNL     1     -14.517  -0.638  -1.813  1.00  0.00     0.031 A 
ATOM     48  C   UNL     1     -13.961   2.807   3.701  1.00  0.00     0.049 A 
ATOM     49  C   UNL     1     -15.462  -0.354  -0.672  1.00  0.00     0.074 A 
ATOM     50  C   UNL     1     -14.940   3.072   4.642  1.00  0.00     0.029 A 
ATOM     51  N   UNL     1     -14.543   2.004   2.732  1.00  0.00    -0.354 N 
ATOM     52  N   UNL     1     -15.260   0.369   0.404  1.00  0.00    -0.248 NA
ATOM     53  C   UNL     1     -16.804  -0.951  -0.751  1.00  0.00     0.031 C 
ATOM     54  C   UNL     1     -16.096   2.378   4.274  1.00  0.00     0.029 A 
ATOM     55  C   UNL     1     -15.860   1.746   3.064  1.00  0.00     0.049 A 
ATOM     56  H   UNL     1     -14.086   1.669   1.927  1.00  0.00     0.167 HD
ATOM     57  C   UNL     1     -16.463   0.351   1.105  1.00  0.00     0.074 A 
ATOM     58  C   UNL     1     -17.385  -0.457   0.335  1.00  0.00     0.031 C 
ATOM     59  C   UNL     1     -16.776   0.961   2.275  1.00  0.00     0.031 A 
BRANCH  46  60
ATOM     60  C   UNL     1     -12.097   4.074   4.846  1.00  0.00    -0.014 A 
ATOM     61  C   UNL     1     -11.768   5.433   4.694  1.00  0.00     0.010 A 
ATOM     62  C   UNL     1     -11.999   3.485   6.121  1.00  0.00     0.010 A 
ATOM     63  C   UNL     1     -11.312   6.176   5.787  1.00  0.00     0.020 A 
ATOM     64  C   UNL     1     -11.574   4.233   7.222  1.00  0.00     0.020 A 
ATOM     65  C   UNL     1     -11.217   5.570   7.044  1.00  0.00     0.054 A 
BRANCH  65  66
ATOM     66  S   UNL     1     -10.642   6.565   8.447  1.00  0.00     0.124 S 
ATOM     67  O   UNL     1      -9.225   6.736   8.133  1.00  0.00    -0.237 OA
ATOM     68  O   UNL     1     -11.459   7.770   8.340  1.00  0.00    -0.237 OA
ATOM     69  O   UNL     1     -10.923   5.724   9.608  1.00  0.00    -0.744 OA
ENDBRANCH  65  66
ENDBRANCH  46  60
BRANCH  47  70
ATOM     70  C   UNL     1     -14.940  -1.499  -2.953  1.00  0.00    -0.014 A 
ATOM     71  C   UNL     1     -15.921  -1.061  -3.860  1.00  0.00     0.010 A 
ATOM     72  C   UNL     1     -14.362  -2.769  -3.136  1.00  0.00     0.010 A 
ATOM     73  C   UNL     1     -16.327  -1.881  -4.916  1.00  0.00     0.020 A 
ATOM     74  C   UNL     1     -14.743  -3.580  -4.208  1.00  0.00     0.020 A 
ATOM     75  C   UNL     1     -15.732  -3.135  -5.086  1.00  0.00     0.054 A 
BRANCH  75  76
ATOM     76  S   UNL     1     -16.240  -4.160  -6.494  1.00  0.00     0.124 S 
ATOM     77  O   UNL     1     -17.581  -4.577  -6.098  1.00  0.00    -0.237 OA
ATOM     78  O   UNL     1     -16.172  -3.218  -7.608  1.00  0.00    -0.237 OA
ATOM     79  O   UNL     1     -15.236  -5.222  -6.524  1.00  0.00    -0.744 OA
ENDBRANCH  75  76
ENDBRANCH  47  70
BRANCH  59  80
ATOM     80  C   UNL     1     -18.194   0.856   2.776  1.00  0.00    -0.014 A 
ATOM     81  C   UNL     1     -18.692  -0.330   3.341  1.00  0.00     0.010 A 
ATOM     82  C   UNL     1     -18.999   2.011   2.784  1.00  0.00     0.010 A 
ATOM     83  C   UNL     1     -19.973  -0.359   3.901  1.00  0.00     0.020 A 
ATOM     84  C   UNL     1     -20.268   1.993   3.367  1.00  0.00     0.020 A 
ATOM     85  C   UNL     1     -20.749   0.806   3.919  1.00  0.00     0.054 A 
BRANCH  85  86
ATOM     86  S   UNL     1     -22.369   0.765   4.735  1.00  0.00     0.124 S 
ATOM     87  O   UNL     1     -23.160  -0.034   3.804  1.00  0.00    -0.237 OA
ATOM     88  O   UNL     1     -22.066   0.125   6.013  1.00  0.00    -0.237 OA
ATOM     89  O   UNL     1     -22.749   2.173   4.825  1.00  0.00    -0.744 OA
ENDBRANCH  85  86
ENDBRANCH  59  80
ENDBRANCH  33  34
ENDBRANCH  26  28
ENDBRANCH  25  26
ENDBRANCH  24  25
ENDBRANCH  23  24
ENDBRANCH   1  23
TORSDOF 20
