REMARK SMILES O=C(CC[N@@H+]1CCC[C@@]2(CCC(=O)N(CCc3ccccc3)C2)C1)OCCOCCOC(=O)c1ccc(-c2c3nc(c(-c4ccc(S(=O)(=O)[O-])cc4)c4ccc([nH]4)c(-c4ccc(S(=O)(=O)[O-])cc4)c4nc(c(-c5ccc(S(=O)(=O)[O-])cc5)c5ccc2[nH]5)C=C4)C=C3)cc1
REMARK SMILES IDX 27 1 26 2 25 3 2 4 1 5 3 6 4 7 5 8 6 9 24 10 7 12 9 13 8 14
REMARK SMILES IDX 10 15 23 16 11 17 14 18 12 19 13 20 15 21 16 22 17 23 18 24
REMARK SMILES IDX 22 25 19 26 21 27 20 28 28 29 29 30 30 31 31 32 32 33 33 34
REMARK SMILES IDX 34 35 35 36 93 37 36 38 92 39 37 40 38 41 39 42 86 43 40 44
REMARK SMILES IDX 91 45 85 46 87 47 41 48 90 49 84 50 83 51 42 53 72 54 53 55
REMARK SMILES IDX 71 56 54 57 57 58 70 59 88 60 55 61 56 62 69 64 89 65 58 66
REMARK SMILES IDX 43 67 44 68 52 69 45 70 51 71 46 72 47 73 48 74 49 75 50 76
REMARK SMILES IDX 73 77 74 78 82 79 75 80 81 81 76 82 77 83 78 84 79 85 80 86
REMARK SMILES IDX 59 87 60 88 68 89 61 90 67 91 62 92 63 93 64 94 65 95 66 96
REMARK H PARENT 5 11 87 52 57 63
REMARK Flexibility Score: inf
ROOT
ATOM      1  C   UNL     1       3.297  -1.562   0.313  1.00  0.00     0.202 C 
ENDROOT
BRANCH   1   2
ATOM      2  C   UNL     1       2.945  -0.321   1.129  1.00  0.00     0.261 C 
BRANCH   2   3
ATOM      3  O   UNL     1       1.886   0.457   0.573  1.00  0.00    -0.463 OA
BRANCH   3   4
ATOM      4  C   UNL     1       2.193   1.684   0.082  1.00  0.00     0.311 C 
ATOM      5  O   UNL     1       1.432   2.635   0.250  1.00  0.00    -0.252 OA
BRANCH   4   6
ATOM      6  C   UNL     1       3.407   1.790  -0.814  1.00  0.00     0.184 C 
BRANCH   6   7
ATOM      7  C   UNL     1       4.549   2.648  -0.259  1.00  0.00     0.274 C 
BRANCH   7   8
ATOM      8  N   UNL     1       5.591   2.009   0.579  1.00  0.00    -0.334 N 
ATOM      9  C   UNL     1       6.648   3.003   0.876  1.00  0.00     0.262 C 
ATOM     10  C   UNL     1       6.204   0.796   0.012  1.00  0.00     0.271 C 
ATOM     11  H   UNL     1       5.110   1.696   1.422  1.00  0.00     0.348 HD
ATOM     12  C   UNL     1       7.760   2.462   1.782  1.00  0.00     0.062 C 
ATOM     13  C   UNL     1       7.157   0.114   1.043  1.00  0.00     0.038 C 
ATOM     14  C   UNL     1       8.303   1.117   1.300  1.00  0.00     0.020 C 
ATOM     15  C   UNL     1       6.407  -0.274   2.337  1.00  0.00     0.024 C 
ATOM     16  C   UNL     1       7.695  -1.205   0.455  1.00  0.00     0.132 C 
ATOM     17  C   UNL     1       7.317  -0.953   3.341  1.00  0.00     0.101 C 
ATOM     18  N   UNL     1       8.408  -2.064   1.399  1.00  0.00    -0.342 N 
ATOM     19  C   UNL     1       8.146  -2.080   2.763  1.00  0.00     0.222 C 
ATOM     20  O   UNL     1       8.626  -2.930   3.511  1.00  0.00    -0.275 OA
BRANCH  18  21
ATOM     21  C   UNL     1       9.360  -3.059   0.871  1.00  0.00     0.124 C 
BRANCH  21  22
ATOM     22  C   UNL     1       8.835  -4.496   0.674  1.00  0.00     0.057 C 
BRANCH  22  23
ATOM     23  C   UNL     1       8.005  -4.843  -0.546  1.00  0.00    -0.046 A 
ATOM     24  C   UNL     1       7.506  -6.155  -0.649  1.00  0.00     0.004 A 
ATOM     25  C   UNL     1       7.744  -3.962  -1.599  1.00  0.00     0.004 A 
ATOM     26  C   UNL     1       6.741  -6.556  -1.746  1.00  0.00     0.000 A 
ATOM     27  C   UNL     1       6.963  -4.354  -2.691  1.00  0.00     0.000 A 
ATOM     28  C   UNL     1       6.461  -5.650  -2.763  1.00  0.00     0.000 A 
ENDBRANCH  22  23
ENDBRANCH  21  22
ENDBRANCH  18  21
ENDBRANCH   7   8
ENDBRANCH   6   7
ENDBRANCH   4   6
ENDBRANCH   3   4
ENDBRANCH   2   3
ENDBRANCH   1   2
BRANCH   1  29
ATOM     29  O   UNL     1       3.008  -1.479  -1.082  1.00  0.00    -0.374 OA
BRANCH  29  30
ATOM     30  C   UNL     1       1.737  -2.047  -1.426  1.00  0.00     0.202 C 
BRANCH  30  31
ATOM     31  C   UNL     1       1.802  -3.572  -1.598  1.00  0.00     0.261 C 
BRANCH  31  32
ATOM     32  O   UNL     1       2.196  -4.187  -0.357  1.00  0.00    -0.460 OA
BRANCH  32  33
ATOM     33  C   UNL     1       3.100  -5.185  -0.456  1.00  0.00     0.338 C 
ATOM     34  O   UNL     1       3.409  -5.793  -1.472  1.00  0.00    -0.246 OA
BRANCH  33  35
ATOM     35  C   UNL     1       3.735  -5.398   0.858  1.00  0.00     0.060 A 
ATOM     36  C   UNL     1       4.843  -4.625   1.217  1.00  0.00     0.016 A 
ATOM     37  C   UNL     1       3.320  -6.442   1.683  1.00  0.00     0.016 A 
ATOM     38  C   UNL     1       5.566  -4.932   2.374  1.00  0.00     0.010 A 
ATOM     39  C   UNL     1       4.057  -6.752   2.838  1.00  0.00     0.010 A 
ATOM     40  C   UNL     1       5.223  -6.036   3.164  1.00  0.00    -0.014 A 
BRANCH  40  41
ATOM     41  C   UNL     1       6.191  -6.557   4.179  1.00  0.00     0.031 A 
ATOM     42  C   UNL     1       6.902  -7.866   3.911  1.00  0.00     0.074 A 
ATOM     43  C   UNL     1       6.535  -5.858   5.279  1.00  0.00     0.049 A 
ATOM     44  N   UNL     1       7.689  -8.565   4.691  1.00  0.00    -0.248 NA
ATOM     45  C   UNL     1       6.708  -8.457   2.576  1.00  0.00     0.031 C 
ATOM     46  C   UNL     1       6.053  -4.522   5.623  1.00  0.00     0.029 A 
ATOM     47  N   UNL     1       7.397  -6.175   6.305  1.00  0.00    -0.354 N 
ATOM     48  C   UNL     1       8.057  -9.688   3.957  1.00  0.00     0.074 A 
ATOM     49  C   UNL     1       7.409  -9.579   2.668  1.00  0.00     0.031 C 
ATOM     50  C   UNL     1       6.649  -4.121   6.760  1.00  0.00     0.029 A 
ATOM     51  C   UNL     1       7.498  -5.197   7.268  1.00  0.00     0.049 A 
ATOM     52  H   UNL     1       7.895  -7.023   6.346  1.00  0.00     0.167 HD
ATOM     53  C   UNL     1       8.849 -10.726   4.320  1.00  0.00     0.031 A 
ATOM     54  C   UNL     1       8.166  -5.177   8.441  1.00  0.00     0.031 A 
ATOM     55  C   UNL     1       9.496 -10.853   5.598  1.00  0.00     0.049 A 
ATOM     56  C   UNL     1       8.961  -6.386   8.870  1.00  0.00     0.074 A 
ATOM     57  C   UNL     1      10.236 -11.915   6.090  1.00  0.00     0.029 A 
ATOM     58  N   UNL     1       9.498  -9.879   6.583  1.00  0.00    -0.354 N 
ATOM     59  N   UNL     1       9.190  -7.501   8.219  1.00  0.00    -0.248 NA
ATOM     60  C   UNL     1       9.571  -6.339  10.209  1.00  0.00     0.031 C 
ATOM     61  C   UNL     1      10.650 -11.600   7.389  1.00  0.00     0.029 A 
ATOM     62  C   UNL     1      10.213 -10.319   7.685  1.00  0.00     0.049 A 
ATOM     63  H   UNL     1       9.055  -9.002   6.511  1.00  0.00     0.167 HD
ATOM     64  C   UNL     1       9.966  -8.285   9.068  1.00  0.00     0.074 A 
ATOM     65  C   UNL     1      10.201  -7.504  10.264  1.00  0.00     0.031 C 
ATOM     66  C   UNL     1      10.431  -9.546   8.880  1.00  0.00     0.031 A 
BRANCH  53  67
ATOM     67  C   UNL     1       8.993 -11.856   3.336  1.00  0.00    -0.014 A 
ATOM     68  C   UNL     1       9.812 -11.741   2.199  1.00  0.00     0.010 A 
ATOM     69  C   UNL     1       8.303 -13.060   3.567  1.00  0.00     0.010 A 
ATOM     70  C   UNL     1       9.907 -12.801   1.290  1.00  0.00     0.020 A 
ATOM     71  C   UNL     1       8.414 -14.128   2.675  1.00  0.00     0.020 A 
ATOM     72  C   UNL     1       9.202 -13.985   1.531  1.00  0.00     0.054 A 
BRANCH  72  73
ATOM     73  S   UNL     1       9.344 -15.346   0.341  1.00  0.00     0.124 S 
ATOM     74  O   UNL     1       8.538 -14.855  -0.774  1.00  0.00    -0.237 OA
ATOM     75  O   UNL     1      10.782 -15.411   0.095  1.00  0.00    -0.237 OA
ATOM     76  O   UNL     1       8.785 -16.492   1.055  1.00  0.00    -0.744 OA
ENDBRANCH  72  73
ENDBRANCH  53  67
BRANCH  54  77
ATOM     77  C   UNL     1       8.048  -4.001   9.352  1.00  0.00    -0.014 A 
ATOM     78  C   UNL     1       9.162  -3.197   9.650  1.00  0.00     0.010 A 
ATOM     79  C   UNL     1       6.814  -3.705   9.960  1.00  0.00     0.010 A 
ATOM     80  C   UNL     1       9.048  -2.133  10.553  1.00  0.00     0.020 A 
ATOM     81  C   UNL     1       6.688  -2.624  10.835  1.00  0.00     0.020 A 
ATOM     82  C   UNL     1       7.810  -1.854  11.140  1.00  0.00     0.054 A 
BRANCH  82  83
ATOM     83  S   UNL     1       7.662  -0.444  12.272  1.00  0.00     0.124 S 
ATOM     84  O   UNL     1       8.219  -0.986  13.507  1.00  0.00    -0.237 OA
ATOM     85  O   UNL     1       8.466   0.583  11.613  1.00  0.00    -0.237 OA
ATOM     86  O   UNL     1       6.226  -0.177  12.295  1.00  0.00    -0.744 OA
ENDBRANCH  82  83
ENDBRANCH  54  77
BRANCH  66  87
ATOM     87  C   UNL     1      11.243 -10.160   9.991  1.00  0.00    -0.014 A 
ATOM     88  C   UNL     1      10.637 -10.565  11.194  1.00  0.00     0.010 A 
ATOM     89  C   UNL     1      12.625 -10.359   9.822  1.00  0.00     0.010 A 
ATOM     90  C   UNL     1      11.406 -11.114  12.225  1.00  0.00     0.020 A 
ATOM     91  C   UNL     1      13.393 -10.932  10.841  1.00  0.00     0.020 A 
ATOM     92  C   UNL     1      12.781 -11.287  12.045  1.00  0.00     0.054 A 
BRANCH  92  93
ATOM     93  S   UNL     1      13.758 -12.013  13.391  1.00  0.00     0.124 S 
ATOM     94  O   UNL     1      13.871 -10.894  14.322  1.00  0.00    -0.237 OA
ATOM     95  O   UNL     1      12.917 -13.121  13.840  1.00  0.00    -0.237 OA
ATOM     96  O   UNL     1      15.004 -12.410  12.740  1.00  0.00    -0.744 OA
ENDBRANCH  92  93
ENDBRANCH  66  87
ENDBRANCH  40  41
ENDBRANCH  33  35
ENDBRANCH  32  33
ENDBRANCH  31  32
ENDBRANCH  30  31
ENDBRANCH  29  30
ENDBRANCH   1  29
TORSDOF 22
