REMARK SMILES Cc1ccc(C(C)C)c(OCC(=O)Nc2nc(CC(=O)OCCOCCOC(=O)c3ccc(-c4c5nc(c(-c6ccc(S(=O)(=O)[O-])cc6)c6ccc([nH]6)c(-c6ccc(S(=O)(=O)[O-])cc6)c6nc(c(-c7ccc(S(=O)(=O)[O-])cc7)c7ccc4[nH]7)C=C6)C=C5)cc3)cs2)c1
REMARK SMILES IDX 22 1 21 2 19 3 20 4 18 5 17 6 15 7 16 8 91 9 90 10 14 11
REMARK SMILES IDX 12 12 13 13 11 15 10 16 9 17 1 18 2 19 3 20 92 21 4 22 5 23
REMARK SMILES IDX 6 24 7 25 8 26 23 27 24 28 25 29 26 30 27 31 28 32 29 33
REMARK SMILES IDX 30 34 31 35 89 36 32 37 88 38 33 39 34 40 35 41 82 42 36 43
REMARK SMILES IDX 87 44 81 45 83 46 37 47 86 48 80 49 79 50 38 52 68 53 49 54
REMARK SMILES IDX 67 55 50 56 53 57 66 58 84 59 51 60 52 61 65 63 85 64 54 65
REMARK SMILES IDX 39 66 40 67 48 68 41 69 47 70 42 71 43 72 44 73 45 74 46 75
REMARK SMILES IDX 69 76 70 77 78 78 71 79 77 80 72 81 73 82 74 83 75 84 76 85
REMARK SMILES IDX 55 86 56 87 64 88 57 89 63 90 58 91 59 92 60 93 61 94 62 95
REMARK H PARENT 14 14 83 51 53 62
REMARK Flexibility Score: inf
ROOT
ATOM      1  C   UNL     1      -5.026   0.840   3.557  1.00  0.00     0.261 C 
ENDROOT
BRANCH   1   2
ATOM      2  O   UNL     1      -4.733   1.624   2.408  1.00  0.00    -0.463 OA
BRANCH   2   3
ATOM      3  C   UNL     1      -5.764   1.940   1.572  1.00  0.00     0.311 C 
ATOM      4  O   UNL     1      -6.801   1.327   1.440  1.00  0.00    -0.252 OA
BRANCH   3   5
ATOM      5  C   UNL     1      -5.419   3.212   0.816  1.00  0.00     0.179 C 
BRANCH   5   6
ATOM      6  C   UNL     1      -4.373   3.982   1.565  1.00  0.00     0.065 A 
ATOM      7  C   UNL     1      -2.296   4.123   2.248  1.00  0.00     0.189 A 
ATOM      8  N   UNL     1      -3.049   3.766   1.245  1.00  0.00    -0.224 NA
ATOM      9  S   UNL     1      -3.072   4.905   3.544  1.00  0.00    -0.105 S 
ATOM     10  C   UNL     1      -4.560   4.764   2.691  1.00  0.00     0.093 A 
BRANCH   7  11
ATOM     11  N   UNL     1      -0.946   4.017   2.360  1.00  0.00    -0.299 N 
ATOM     12  C   UNL     1      -0.103   3.802   1.313  1.00  0.00     0.264 C 
ATOM     13  O   UNL     1       1.116   3.804   1.534  1.00  0.00    -0.271 OA
ATOM     14  H   UNL     1      -0.552   4.100   3.259  1.00  0.00     0.172 HD
BRANCH  12  15
ATOM     15  C   UNL     1      -0.635   3.709  -0.136  1.00  0.00     0.329 C 
BRANCH  15  16
ATOM     16  O   UNL     1      -1.300   2.539  -0.574  1.00  0.00    -0.483 OA
BRANCH  16  17
ATOM     17  C   UNL     1      -0.623   1.352  -0.587  1.00  0.00     0.123 A 
ATOM     18  C   UNL     1       2.841  -0.108  -0.004  1.00  0.00     0.044 C 
ATOM     19  C   UNL     1       1.381  -0.008  -0.320  1.00  0.00    -0.047 A 
ATOM     20  C   UNL     1       0.621  -1.162  -0.499  1.00  0.00     0.004 A 
ATOM     21  C   UNL     1       0.758   1.242  -0.400  1.00  0.00     0.050 A 
ATOM     22  C   UNL     1      -0.745  -1.064  -0.745  1.00  0.00     0.008 A 
ATOM     23  C   UNL     1      -1.390   0.187  -0.780  1.00  0.00    -0.003 A 
BRANCH  23  24
ATOM     24  C   UNL     1      -2.911   0.238  -0.849  1.00  0.00     0.017 C 
ATOM     25  C   UNL     1      -3.515  -0.527  -2.031  1.00  0.00     0.012 C 
ATOM     26  C   UNL     1      -3.442  -0.323   0.463  1.00  0.00     0.012 C 
ENDBRANCH  23  24
ENDBRANCH  16  17
ENDBRANCH  15  16
ENDBRANCH  12  15
ENDBRANCH   7  11
ENDBRANCH   5   6
ENDBRANCH   3   5
ENDBRANCH   2   3
ENDBRANCH   1   2
BRANCH   1  27
ATOM     27  C   UNL     1      -5.440   1.745   4.689  1.00  0.00     0.202 C 
BRANCH  27  28
ATOM     28  O   UNL     1      -6.735   2.252   4.364  1.00  0.00    -0.374 OA
BRANCH  28  29
ATOM     29  C   UNL     1      -7.157   3.382   5.106  1.00  0.00     0.202 C 
BRANCH  29  30
ATOM     30  C   UNL     1      -6.936   3.319   6.621  1.00  0.00     0.261 C 
BRANCH  30  31
ATOM     31  O   UNL     1      -8.008   2.624   7.293  1.00  0.00    -0.460 OA
BRANCH  31  32
ATOM     32  C   UNL     1      -7.682   1.431   7.873  1.00  0.00     0.338 C 
ATOM     33  O   UNL     1      -7.490   1.298   9.071  1.00  0.00    -0.246 OA
BRANCH  32  34
ATOM     34  C   UNL     1      -7.785   0.309   6.905  1.00  0.00     0.060 A 
ATOM     35  C   UNL     1      -7.069  -0.885   7.083  1.00  0.00     0.016 A 
ATOM     36  C   UNL     1      -8.521   0.506   5.743  1.00  0.00     0.016 A 
ATOM     37  C   UNL     1      -6.994  -1.824   6.041  1.00  0.00     0.010 A 
ATOM     38  C   UNL     1      -8.345  -0.355   4.684  1.00  0.00     0.010 A 
ATOM     39  C   UNL     1      -7.595  -1.531   4.820  1.00  0.00    -0.014 A 
BRANCH  39  40
ATOM     40  C   UNL     1      -7.544  -2.329   3.596  1.00  0.00     0.031 A 
ATOM     41  C   UNL     1      -8.820  -2.836   3.032  1.00  0.00     0.074 A 
ATOM     42  C   UNL     1      -6.422  -2.394   2.843  1.00  0.00     0.049 A 
ATOM     43  N   UNL     1      -8.893  -3.643   2.035  1.00  0.00    -0.248 NA
ATOM     44  C   UNL     1     -10.140  -2.484   3.552  1.00  0.00     0.031 C 
ATOM     45  C   UNL     1      -6.313  -2.716   1.424  1.00  0.00     0.029 A 
ATOM     46  N   UNL     1      -5.104  -2.317   3.259  1.00  0.00    -0.354 N 
ATOM     47  C   UNL     1     -10.182  -3.623   1.565  1.00  0.00     0.074 A 
ATOM     48  C   UNL     1     -10.940  -2.950   2.589  1.00  0.00     0.031 C 
ATOM     49  C   UNL     1      -5.053  -3.080   1.145  1.00  0.00     0.029 A 
ATOM     50  C   UNL     1      -4.306  -3.056   2.389  1.00  0.00     0.049 A 
ATOM     51  H   UNL     1      -4.783  -1.819   4.045  1.00  0.00     0.167 HD
ATOM     52  C   UNL     1     -10.413  -4.071   0.299  1.00  0.00     0.031 A 
ATOM     53  C   UNL     1      -3.476  -4.015   2.874  1.00  0.00     0.031 A 
ATOM     54  C   UNL     1      -9.187  -4.638  -0.286  1.00  0.00     0.049 A 
ATOM     55  C   UNL     1      -3.983  -5.329   2.353  1.00  0.00     0.074 A 
ATOM     56  C   UNL     1      -8.300  -4.207  -1.258  1.00  0.00     0.029 A 
ATOM     57  N   UNL     1      -8.545  -5.678   0.390  1.00  0.00    -0.354 N 
ATOM     58  N   UNL     1      -5.236  -5.515   2.020  1.00  0.00    -0.248 NA
ATOM     59  C   UNL     1      -3.123  -6.438   1.957  1.00  0.00     0.031 C 
ATOM     60  C   UNL     1      -7.089  -4.947  -1.102  1.00  0.00     0.029 A 
ATOM     61  C   UNL     1      -7.246  -5.841  -0.051  1.00  0.00     0.049 A 
ATOM     62  H   UNL     1      -8.965  -6.226   1.092  1.00  0.00     0.167 HD
ATOM     63  C   UNL     1      -5.322  -6.614   1.220  1.00  0.00     0.074 A 
ATOM     64  C   UNL     1      -3.992  -7.207   1.275  1.00  0.00     0.031 C 
ATOM     65  C   UNL     1      -6.414  -6.926   0.465  1.00  0.00     0.031 A 
BRANCH  52  66
ATOM     66  C   UNL     1     -11.686  -3.807  -0.480  1.00  0.00    -0.014 A 
ATOM     67  C   UNL     1     -11.681  -3.900  -1.887  1.00  0.00     0.010 A 
ATOM     68  C   UNL     1     -12.918  -3.447   0.103  1.00  0.00     0.010 A 
ATOM     69  C   UNL     1     -12.819  -3.618  -2.663  1.00  0.00     0.020 A 
ATOM     70  C   UNL     1     -14.058  -3.137  -0.657  1.00  0.00     0.020 A 
ATOM     71  C   UNL     1     -14.004  -3.230  -2.041  1.00  0.00     0.054 A 
BRANCH  71  72
ATOM     72  S   UNL     1     -15.469  -2.885  -3.049  1.00  0.00     0.124 S 
ATOM     73  O   UNL     1     -15.003  -1.818  -3.931  1.00  0.00    -0.237 OA
ATOM     74  O   UNL     1     -15.717  -4.172  -3.692  1.00  0.00    -0.237 OA
ATOM     75  O   UNL     1     -16.477  -2.478  -2.071  1.00  0.00    -0.744 OA
ENDBRANCH  71  72
ENDBRANCH  52  66
BRANCH  53  76
ATOM     76  C   UNL     1      -2.864  -3.601   4.181  1.00  0.00    -0.014 A 
ATOM     77  C   UNL     1      -1.892  -2.571   4.078  1.00  0.00     0.010 A 
ATOM     78  C   UNL     1      -3.574  -3.710   5.393  1.00  0.00     0.010 A 
ATOM     79  C   UNL     1      -1.787  -1.566   5.051  1.00  0.00     0.020 A 
ATOM     80  C   UNL     1      -3.462  -2.702   6.378  1.00  0.00     0.020 A 
ATOM     81  C   UNL     1      -2.616  -1.606   6.170  1.00  0.00     0.054 A 
BRANCH  81  82
ATOM     82  S   UNL     1      -2.769  -0.095   7.186  1.00  0.00     0.124 S 
ATOM     83  O   UNL     1      -1.608  -0.185   8.062  1.00  0.00    -0.237 OA
ATOM     84  O   UNL     1      -2.725   0.975   6.187  1.00  0.00    -0.237 OA
ATOM     85  O   UNL     1      -4.067  -0.246   7.834  1.00  0.00    -0.744 OA
ENDBRANCH  81  82
ENDBRANCH  53  76
BRANCH  65  86
ATOM     86  C   UNL     1      -6.767  -8.340   0.095  1.00  0.00    -0.014 A 
ATOM     87  C   UNL     1      -6.148  -9.457   0.676  1.00  0.00     0.010 A 
ATOM     88  C   UNL     1      -7.901  -8.578  -0.717  1.00  0.00     0.010 A 
ATOM     89  C   UNL     1      -6.599 -10.751   0.417  1.00  0.00     0.020 A 
ATOM     90  C   UNL     1      -8.401  -9.861  -0.928  1.00  0.00     0.020 A 
ATOM     91  C   UNL     1      -7.726 -10.943  -0.378  1.00  0.00     0.054 A 
BRANCH  91  92
ATOM     92  S   UNL     1      -8.328 -12.624  -0.631  1.00  0.00     0.124 S 
ATOM     93  O   UNL     1      -7.394 -13.124  -1.636  1.00  0.00    -0.237 OA
ATOM     94  O   UNL     1      -8.194 -13.216   0.698  1.00  0.00    -0.237 OA
ATOM     95  O   UNL     1      -9.702 -12.437  -1.088  1.00  0.00    -0.744 OA
ENDBRANCH  91  92
ENDBRANCH  65  86
ENDBRANCH  39  40
ENDBRANCH  32  34
ENDBRANCH  31  32
ENDBRANCH  30  31
ENDBRANCH  29  30
ENDBRANCH  28  29
ENDBRANCH  27  28
ENDBRANCH   1  27
TORSDOF 23
