REMARK SMILES C[NH+](C)CCc1nc(Nc2ccc(O)c(C(=O)OCCOCCOC(=O)c3ccc(-c4c5nc(c(-c6ccc(S(=O)(=O)[O-])cc6)c6ccc([nH]6)c(-c6ccc(S(=O)(=O)[O-])cc6)c6nc(c(-c7ccc(S(=O)(=O)[O-])cc7)c7ccc4[nH]7)C=C6)C=C5)cc3)c2)c2ccccc2n1
REMARK SMILES IDX 20 1 19 2 18 3 16 4 17 5 15 6 10 7 11 8 87 9 12 10 13 11
REMARK SMILES IDX 9 12 8 14 6 15 7 16 94 17 93 18 88 19 92 20 89 21 91 22
REMARK SMILES IDX 90 23 5 24 4 25 2 26 1 27 3 28 14 30 21 32 22 33 23 34 24 35
REMARK SMILES IDX 25 36 26 37 27 38 28 39 86 40 29 41 85 42 30 43 31 44 32 45
REMARK SMILES IDX 79 46 33 47 84 48 78 49 80 50 34 51 83 52 77 53 76 54 35 56
REMARK SMILES IDX 65 57 46 58 64 59 47 60 50 61 63 62 81 63 48 64 49 65 62 67
REMARK SMILES IDX 82 68 51 69 36 70 37 71 45 72 38 73 44 74 39 75 40 76 41 77
REMARK SMILES IDX 42 78 43 79 66 80 67 81 75 82 68 83 74 84 69 85 70 86 71 87
REMARK SMILES IDX 72 88 73 89 52 90 53 91 61 92 54 93 60 94 55 95 56 96 57 97
REMARK SMILES IDX 58 98 59 99
REMARK H PARENT 9 13 2 29 14 31 80 55 50 66
REMARK Flexibility Score: inf
ROOT
ATOM      1  C   UNL     1      -4.152   5.323  -9.155  1.00  0.00     0.202 C 
ENDROOT
BRANCH   1   2
ATOM      2  C   UNL     1      -3.795   3.839  -9.048  1.00  0.00     0.261 C 
BRANCH   2   3
ATOM      3  O   UNL     1      -3.874   3.412  -7.680  1.00  0.00    -0.460 OA
BRANCH   3   4
ATOM      4  C   UNL     1      -2.735   2.904  -7.159  1.00  0.00     0.342 C 
ATOM      5  O   UNL     1      -1.702   2.659  -7.765  1.00  0.00    -0.246 OA
BRANCH   4   6
ATOM      6  C   UNL     1      -2.794   2.905  -5.681  1.00  0.00     0.103 A 
ATOM      7  C   UNL     1      -1.549   3.352  -3.636  1.00  0.00     0.041 A 
ATOM      8  C   UNL     1      -2.635   2.881  -2.894  1.00  0.00     0.030 A 
ATOM      9  C   UNL     1      -1.634   3.350  -5.029  1.00  0.00     0.045 A 
ATOM     10  C   UNL     1      -3.813   2.474  -3.532  1.00  0.00     0.049 A 
ATOM     11  C   UNL     1      -3.893   2.488  -4.927  1.00  0.00     0.130 A 
BRANCH   7  12
ATOM     12  N   UNL     1      -0.318   3.663  -3.019  1.00  0.00    -0.340 N 
ATOM     13  H   UNL     1      -0.095   4.610  -2.868  1.00  0.00     0.168 HD
BRANCH  12  14
ATOM     14  C   UNL     1       0.611   2.674  -2.608  1.00  0.00     0.142 A 
ATOM     15  C   UNL     1       1.169   0.449  -2.458  1.00  0.00     0.137 A 
ATOM     16  N   UNL     1       0.269   1.385  -2.778  1.00  0.00    -0.215 NA
ATOM     17  N   UNL     1       2.408   0.711  -2.016  1.00  0.00    -0.233 NA
ATOM     18  C   UNL     1       2.717   1.987  -1.777  1.00  0.00     0.076 A 
ATOM     19  C   UNL     1       1.838   3.046  -2.034  1.00  0.00     0.043 A 
ATOM     20  C   UNL     1       3.957   2.266  -1.219  1.00  0.00     0.029 A 
ATOM     21  C   UNL     1       2.230   4.370  -1.706  1.00  0.00     0.014 A 
ATOM     22  C   UNL     1       4.342   3.568  -0.890  1.00  0.00     0.002 A 
ATOM     23  C   UNL     1       3.474   4.624  -1.131  1.00  0.00     0.001 A 
BRANCH  15  24
ATOM     24  C   UNL     1       0.724  -0.981  -2.544  1.00  0.00     0.138 C 
BRANCH  24  25
ATOM     25  C   UNL     1       1.024  -1.810  -1.282  1.00  0.00     0.269 C 
BRANCH  25  26
ATOM     26  N   UNL     1       0.354  -1.502  -0.002  1.00  0.00    -0.339 N 
ATOM     27  C   UNL     1       0.846  -0.279   0.629  1.00  0.00     0.332 C 
ATOM     28  C   UNL     1      -1.101  -1.478  -0.109  1.00  0.00     0.332 C 
ATOM     29  H   UNL     1       0.605  -2.278   0.610  1.00  0.00     0.347 HD
ENDBRANCH  25  26
ENDBRANCH  24  25
ENDBRANCH  15  24
ENDBRANCH  12  14
ENDBRANCH   7  12
BRANCH  11  30
ATOM     30  O   UNL     1      -5.034   2.058  -5.539  1.00  0.00    -0.507 OA
ATOM     31  H   UNL     1      -5.766   1.781  -5.024  1.00  0.00     0.293 HD
ENDBRANCH  11  30
ENDBRANCH   4   6
ENDBRANCH   3   4
ENDBRANCH   2   3
ENDBRANCH   1   2
BRANCH   1  32
ATOM     32  O   UNL     1      -3.230   6.226  -8.537  1.00  0.00    -0.374 OA
BRANCH  32  33
ATOM     33  C   UNL     1      -3.336   6.385  -7.122  1.00  0.00     0.202 C 
BRANCH  33  34
ATOM     34  C   UNL     1      -4.430   7.338  -6.628  1.00  0.00     0.261 C 
BRANCH  34  35
ATOM     35  O   UNL     1      -5.750   6.825  -6.877  1.00  0.00    -0.460 OA
BRANCH  35  36
ATOM     36  C   UNL     1      -6.427   7.452  -7.868  1.00  0.00     0.338 C 
ATOM     37  O   UNL     1      -6.065   8.438  -8.497  1.00  0.00    -0.246 OA
BRANCH  36  38
ATOM     38  C   UNL     1      -7.628   6.677  -8.230  1.00  0.00     0.060 A 
ATOM     39  C   UNL     1      -7.830   6.394  -9.587  1.00  0.00     0.016 A 
ATOM     40  C   UNL     1      -8.571   6.287  -7.277  1.00  0.00     0.016 A 
ATOM     41  C   UNL     1      -9.001   5.764 -10.003  1.00  0.00     0.010 A 
ATOM     42  C   UNL     1      -9.750   5.662  -7.697  1.00  0.00     0.010 A 
ATOM     43  C   UNL     1      -9.986   5.429  -9.064  1.00  0.00    -0.014 A 
BRANCH  43  44
ATOM     44  C   UNL     1     -11.316   4.968  -9.529  1.00  0.00     0.031 A 
ATOM     45  C   UNL     1     -12.452   5.954  -9.582  1.00  0.00     0.074 A 
ATOM     46  C   UNL     1     -11.506   3.697  -9.925  1.00  0.00     0.049 A 
ATOM     47  N   UNL     1     -13.698   5.763  -9.930  1.00  0.00    -0.248 NA
ATOM     48  C   UNL     1     -12.141   7.339  -9.189  1.00  0.00     0.031 C 
ATOM     49  C   UNL     1     -10.475   2.660  -9.964  1.00  0.00     0.029 A 
ATOM     50  N   UNL     1     -12.639   3.062 -10.370  1.00  0.00    -0.354 N 
ATOM     51  C   UNL     1     -14.322   6.998  -9.792  1.00  0.00     0.074 A 
ATOM     52  C   UNL     1     -13.325   7.924  -9.301  1.00  0.00     0.031 C 
ATOM     53  C   UNL     1     -11.026   1.515 -10.404  1.00  0.00     0.029 A 
ATOM     54  C   UNL     1     -12.451   1.730 -10.647  1.00  0.00     0.049 A 
ATOM     55  H   UNL     1     -13.504   3.519 -10.479  1.00  0.00     0.167 HD
ATOM     56  C   UNL     1     -15.608   7.333 -10.055  1.00  0.00     0.031 A 
ATOM     57  C   UNL     1     -13.332   0.786 -11.034  1.00  0.00     0.031 A 
ATOM     58  C   UNL     1     -16.602   6.408 -10.530  1.00  0.00     0.049 A 
ATOM     59  C   UNL     1     -14.774   1.165 -11.248  1.00  0.00     0.074 A 
ATOM     60  C   UNL     1     -17.929   6.654 -10.837  1.00  0.00     0.029 A 
ATOM     61  N   UNL     1     -16.381   5.059 -10.761  1.00  0.00    -0.354 N 
ATOM     62  N   UNL     1     -15.344   2.341 -11.132  1.00  0.00    -0.248 NA
ATOM     63  C   UNL     1     -15.691   0.089 -11.653  1.00  0.00     0.031 C 
ATOM     64  C   UNL     1     -18.524   5.442 -11.203  1.00  0.00     0.029 A 
ATOM     65  C   UNL     1     -17.553   4.453 -11.181  1.00  0.00     0.049 A 
ATOM     66  H   UNL     1     -15.518   4.600 -10.644  1.00  0.00     0.167 HD
ATOM     67  C   UNL     1     -16.679   2.152 -11.477  1.00  0.00     0.074 A 
ATOM     68  C   UNL     1     -16.829   0.751 -11.816  1.00  0.00     0.031 C 
ATOM     69  C   UNL     1     -17.688   3.057 -11.515  1.00  0.00     0.031 A 
BRANCH  56  70
ATOM     70  C   UNL     1     -16.020   8.758  -9.798  1.00  0.00    -0.014 A 
ATOM     71  C   UNL     1     -15.584   9.805 -10.630  1.00  0.00     0.010 A 
ATOM     72  C   UNL     1     -16.881   9.050  -8.724  1.00  0.00     0.010 A 
ATOM     73  C   UNL     1     -15.969  11.123 -10.368  1.00  0.00     0.020 A 
ATOM     74  C   UNL     1     -17.290  10.364  -8.475  1.00  0.00     0.020 A 
ATOM     75  C   UNL     1     -16.816  11.395  -9.289  1.00  0.00     0.054 A 
BRANCH  75  76
ATOM     76  S   UNL     1     -17.311  13.112  -8.980  1.00  0.00     0.124 S 
ATOM     77  O   UNL     1     -16.084  13.685  -8.433  1.00  0.00    -0.237 OA
ATOM     78  O   UNL     1     -17.684  13.583 -10.311  1.00  0.00    -0.237 OA
ATOM     79  O   UNL     1     -18.417  12.989  -8.033  1.00  0.00    -0.744 OA
ENDBRANCH  75  76
ENDBRANCH  56  70
BRANCH  57  80
ATOM     80  C   UNL     1     -12.879  -0.618 -11.228  1.00  0.00    -0.014 A 
ATOM     81  C   UNL     1     -12.819  -1.182 -12.514  1.00  0.00     0.010 A 
ATOM     82  C   UNL     1     -12.502  -1.400 -10.120  1.00  0.00     0.010 A 
ATOM     83  C   UNL     1     -12.405  -2.507 -12.687  1.00  0.00     0.020 A 
ATOM     84  C   UNL     1     -12.062  -2.715 -10.292  1.00  0.00     0.020 A 
ATOM     85  C   UNL     1     -12.028  -3.264 -11.575  1.00  0.00     0.054 A 
BRANCH  85  86
ATOM     86  S   UNL     1     -11.445  -4.964 -11.828  1.00  0.00     0.124 S 
ATOM     87  O   UNL     1     -12.688  -5.670 -12.120  1.00  0.00    -0.237 OA
ATOM     88  O   UNL     1     -10.521  -4.817 -12.949  1.00  0.00    -0.237 OA
ATOM     89  O   UNL     1     -10.816  -5.302 -10.553  1.00  0.00    -0.744 OA
ENDBRANCH  85  86
ENDBRANCH  57  80
BRANCH  69  90
ATOM     90  C   UNL     1     -19.040   2.575 -11.972  1.00  0.00    -0.014 A 
ATOM     91  C   UNL     1     -19.843   1.764 -11.150  1.00  0.00     0.010 A 
ATOM     92  C   UNL     1     -19.538   2.992 -13.220  1.00  0.00     0.010 A 
ATOM     93  C   UNL     1     -21.108   1.355 -11.582  1.00  0.00     0.020 A 
ATOM     94  C   UNL     1     -20.812   2.607 -13.644  1.00  0.00     0.020 A 
ATOM     95  C   UNL     1     -21.584   1.780 -12.826  1.00  0.00     0.054 A 
BRANCH  95  96
ATOM     96  S   UNL     1     -23.248   1.274 -13.344  1.00  0.00     0.124 S 
ATOM     97  O   UNL     1     -23.044  -0.128 -13.696  1.00  0.00    -0.237 OA
ATOM     98  O   UNL     1     -24.045   1.512 -12.143  1.00  0.00    -0.237 OA
ATOM     99  O   UNL     1     -23.546   2.162 -14.466  1.00  0.00    -0.744 OA
ENDBRANCH  95  96
ENDBRANCH  69  90
ENDBRANCH  43  44
ENDBRANCH  36  38
ENDBRANCH  35  36
ENDBRANCH  34  35
ENDBRANCH  33  34
ENDBRANCH  32  33
ENDBRANCH   1  32
TORSDOF 23
