REMARK SMILES C[C@@H](NC(=O)[C@H]1CC=CC[C@@H]1C(=O)OCCOCCOC(=O)c1ccc(-c2c3nc(c(-c4ccc(S(=O)(=O)[O-])cc4)c4ccc([nH]4)c(-c4ccc(S(=O)(=O)[O-])cc4)c4nc(c(-c5ccc(S(=O)(=O)[O-])cc5)c5ccc2[nH]5)C=C4)C=C3)cc1)c1ccc(-n2ccnc2)cc1
REMARK SMILES IDX 16 1 15 2 14 3 12 4 13 5 11 6 6 7 7 8 8 9 10 10 9 11 4 12
REMARK SMILES IDX 3 13 5 15 2 16 1 17 83 18 84 19 93 20 85 21 92 22 86 23
REMARK SMILES IDX 87 24 88 25 91 26 89 27 90 28 17 29 18 30 19 31 20 32 21 33
REMARK SMILES IDX 22 34 23 35 24 36 82 37 25 38 81 39 26 40 27 41 28 42 75 43
REMARK SMILES IDX 29 44 80 45 74 46 76 47 30 48 79 49 73 50 72 51 31 53 61 54
REMARK SMILES IDX 42 55 60 56 43 57 46 58 59 59 77 60 44 61 45 62 58 64 78 65
REMARK SMILES IDX 47 66 32 67 33 68 41 69 34 70 40 71 35 72 36 73 37 74 38 75
REMARK SMILES IDX 39 76 62 77 63 78 71 79 64 80 70 81 65 82 66 83 67 84 68 85
REMARK SMILES IDX 69 86 48 87 49 88 57 89 50 90 56 91 51 92 52 93 53 94 54 95
REMARK SMILES IDX 55 96
REMARK H PARENT 3 14 76 52 46 63
REMARK Flexibility Score: inf
ROOT
ATOM      1  C   UNL     1      -6.196  -4.439  -2.247  1.00  0.00     0.202 C 
ENDROOT
BRANCH   1   2
ATOM      2  C   UNL     1      -5.579  -4.102  -3.602  1.00  0.00     0.261 C 
BRANCH   2   3
ATOM      3  O   UNL     1      -4.153  -4.280  -3.585  1.00  0.00    -0.463 OA
BRANCH   3   4
ATOM      4  C   UNL     1      -3.434  -3.126  -3.629  1.00  0.00     0.310 C 
ATOM      5  O   UNL     1      -3.926  -2.005  -3.641  1.00  0.00    -0.252 OA
BRANCH   4   6
ATOM      6  C   UNL     1      -1.941  -3.415  -3.558  1.00  0.00     0.115 C 
ATOM      7  C   UNL     1      -1.217  -2.126  -3.103  1.00  0.00     0.097 C 
ATOM      8  C   UNL     1      -1.198  -1.045  -4.197  1.00  0.00     0.041 C 
ATOM      9  C   UNL     1      -1.216  -1.561  -5.606  1.00  0.00    -0.030 C 
ATOM     10  C   UNL     1      -1.458  -3.945  -4.908  1.00  0.00     0.043 C 
ATOM     11  C   UNL     1      -1.310  -2.858  -5.928  1.00  0.00    -0.030 C 
BRANCH   7  12
ATOM     12  C   UNL     1       0.172  -2.404  -2.546  1.00  0.00     0.224 C 
ATOM     13  N   UNL     1       0.796  -1.546  -1.690  1.00  0.00    -0.349 N 
ATOM     14  H   UNL     1       1.578  -1.951  -1.251  1.00  0.00     0.164 HD
ATOM     15  O   UNL     1       0.778  -3.447  -2.806  1.00  0.00    -0.275 OA
BRANCH  13  16
ATOM     16  C   UNL     1       0.570  -0.153  -1.272  1.00  0.00     0.109 C 
ATOM     17  C   UNL     1       1.470   0.157  -0.070  1.00  0.00     0.036 C 
BRANCH  16  18
ATOM     18  C   UNL     1      -0.866   0.190  -0.942  1.00  0.00    -0.026 A 
ATOM     19  C   UNL     1      -1.520   1.191  -1.674  1.00  0.00     0.008 A 
ATOM     20  C   UNL     1      -1.596  -0.519   0.022  1.00  0.00     0.008 A 
ATOM     21  C   UNL     1      -2.905   1.343  -1.591  1.00  0.00     0.027 A 
ATOM     22  C   UNL     1      -2.979  -0.337   0.139  1.00  0.00     0.027 A 
ATOM     23  C   UNL     1      -3.652   0.523  -0.739  1.00  0.00     0.046 A 
BRANCH  23  24
ATOM     24  N   UNL     1      -5.072   0.485  -0.850  1.00  0.00    -0.306 N 
ATOM     25  C   UNL     1      -5.972  -0.105   0.008  1.00  0.00     0.113 A 
ATOM     26  C   UNL     1      -5.828   0.946  -1.909  1.00  0.00     0.204 A 
ATOM     27  C   UNL     1      -7.200  -0.013  -0.604  1.00  0.00     0.131 A 
ATOM     28  N   UNL     1      -7.109   0.683  -1.775  1.00  0.00    -0.245 NA
ENDBRANCH  23  24
ENDBRANCH  16  18
ENDBRANCH  13  16
ENDBRANCH   7  12
ENDBRANCH   4   6
ENDBRANCH   3   4
ENDBRANCH   2   3
ENDBRANCH   1   2
BRANCH   1  29
ATOM     29  O   UNL     1      -5.993  -3.530  -1.167  1.00  0.00    -0.374 OA
BRANCH  29  30
ATOM     30  C   UNL     1      -4.708  -3.457  -0.569  1.00  0.00     0.202 C 
BRANCH  30  31
ATOM     31  C   UNL     1      -4.250  -4.559   0.393  1.00  0.00     0.261 C 
BRANCH  31  32
ATOM     32  O   UNL     1      -4.723  -5.853   0.055  1.00  0.00    -0.460 OA
BRANCH  32  33
ATOM     33  C   UNL     1      -5.955  -6.125   0.554  1.00  0.00     0.338 C 
ATOM     34  O   UNL     1      -6.616  -5.451   1.324  1.00  0.00    -0.246 OA
BRANCH  33  35
ATOM     35  C   UNL     1      -6.447  -7.311  -0.158  1.00  0.00     0.060 A 
ATOM     36  C   UNL     1      -7.697  -7.233  -0.782  1.00  0.00     0.016 A 
ATOM     37  C   UNL     1      -5.652  -8.456  -0.257  1.00  0.00     0.016 A 
ATOM     38  C   UNL     1      -8.174  -8.327  -1.492  1.00  0.00     0.010 A 
ATOM     39  C   UNL     1      -6.135  -9.553  -0.958  1.00  0.00     0.010 A 
ATOM     40  C   UNL     1      -7.410  -9.499  -1.546  1.00  0.00    -0.014 A 
BRANCH  40  41
ATOM     41  C   UNL     1      -8.023 -10.744  -2.040  1.00  0.00     0.031 A 
ATOM     42  C   UNL     1      -8.575 -11.701  -1.025  1.00  0.00     0.074 A 
ATOM     43  C   UNL     1      -8.077 -11.003  -3.356  1.00  0.00     0.049 A 
ATOM     44  N   UNL     1      -9.117 -12.874  -1.204  1.00  0.00    -0.248 NA
ATOM     45  C   UNL     1      -8.493 -11.279   0.385  1.00  0.00     0.031 C 
ATOM     46  C   UNL     1      -7.586 -10.119  -4.413  1.00  0.00     0.029 A 
ATOM     47  N   UNL     1      -8.561 -12.096  -4.023  1.00  0.00    -0.354 N 
ATOM     48  C   UNL     1      -9.439 -13.332   0.068  1.00  0.00     0.074 A 
ATOM     49  C   UNL     1      -8.991 -12.332   1.011  1.00  0.00     0.031 C 
ATOM     50  C   UNL     1      -7.783 -10.714  -5.602  1.00  0.00     0.029 A 
ATOM     51  C   UNL     1      -8.383 -12.028  -5.383  1.00  0.00     0.049 A 
ATOM     52  H   UNL     1      -8.994 -12.856  -3.572  1.00  0.00     0.167 HD
ATOM     53  C   UNL     1     -10.061 -14.482   0.415  1.00  0.00     0.031 A 
ATOM     54  C   UNL     1      -8.656 -12.941  -6.335  1.00  0.00     0.031 A 
ATOM     55  C   UNL     1     -10.467 -15.477  -0.539  1.00  0.00     0.049 A 
ATOM     56  C   UNL     1      -9.292 -14.242  -5.925  1.00  0.00     0.074 A 
ATOM     57  C   UNL     1     -11.105 -16.681  -0.312  1.00  0.00     0.029 A 
ATOM     58  N   UNL     1     -10.259 -15.383  -1.909  1.00  0.00    -0.354 N 
ATOM     59  N   UNL     1      -9.620 -14.655  -4.722  1.00  0.00    -0.248 NA
ATOM     60  C   UNL     1      -9.607 -15.193  -6.997  1.00  0.00     0.031 C 
ATOM     61  C   UNL     1     -11.232 -17.341  -1.539  1.00  0.00     0.029 A 
ATOM     62  C   UNL     1     -10.734 -16.518  -2.539  1.00  0.00     0.049 A 
ATOM     63  H   UNL     1      -9.835 -14.620  -2.365  1.00  0.00     0.167 HD
ATOM     64  C   UNL     1     -10.201 -15.906  -4.894  1.00  0.00     0.074 A 
ATOM     65  C   UNL     1     -10.192 -16.173  -6.320  1.00  0.00     0.031 C 
ATOM     66  C   UNL     1     -10.700 -16.758  -3.962  1.00  0.00     0.031 A 
BRANCH  53  67
ATOM     67  C   UNL     1     -10.291 -14.722   1.883  1.00  0.00    -0.014 A 
ATOM     68  C   UNL     1     -11.195 -13.933   2.620  1.00  0.00     0.010 A 
ATOM     69  C   UNL     1      -9.580 -15.740   2.543  1.00  0.00     0.010 A 
ATOM     70  C   UNL     1     -11.341 -14.121   3.997  1.00  0.00     0.020 A 
ATOM     71  C   UNL     1      -9.747 -15.953   3.915  1.00  0.00     0.020 A 
ATOM     72  C   UNL     1     -10.611 -15.126   4.637  1.00  0.00     0.054 A 
BRANCH  72  73
ATOM     73  S   UNL     1     -10.815 -15.346   6.426  1.00  0.00     0.124 S 
ATOM     74  O   UNL     1     -10.118 -14.176   6.955  1.00  0.00    -0.237 OA
ATOM     75  O   UNL     1     -12.267 -15.336   6.586  1.00  0.00    -0.237 OA
ATOM     76  O   UNL     1     -10.171 -16.629   6.694  1.00  0.00    -0.744 OA
ENDBRANCH  72  73
ENDBRANCH  53  67
BRANCH  54  77
ATOM     77  C   UNL     1      -8.316 -12.646  -7.753  1.00  0.00    -0.014 A 
ATOM     78  C   UNL     1      -9.323 -12.390  -8.699  1.00  0.00     0.010 A 
ATOM     79  C   UNL     1      -6.968 -12.569  -8.153  1.00  0.00     0.010 A 
ATOM     80  C   UNL     1      -8.989 -12.065 -10.018  1.00  0.00     0.020 A 
ATOM     81  C   UNL     1      -6.630 -12.218  -9.462  1.00  0.00     0.020 A 
ATOM     82  C   UNL     1      -7.645 -11.973 -10.389  1.00  0.00     0.054 A 
BRANCH  82  83
ATOM     83  S   UNL     1      -7.237 -11.468 -12.084  1.00  0.00     0.124 S 
ATOM     84  O   UNL     1      -7.608 -12.652 -12.851  1.00  0.00    -0.237 OA
ATOM     85  O   UNL     1      -8.087 -10.296 -12.276  1.00  0.00    -0.237 OA
ATOM     86  O   UNL     1      -5.804 -11.185 -12.021  1.00  0.00    -0.744 OA
ENDBRANCH  82  83
ENDBRANCH  54  77
BRANCH  66  87
ATOM     87  C   UNL     1     -11.303 -18.045  -4.458  1.00  0.00    -0.014 A 
ATOM     88  C   UNL     1     -10.498 -19.082  -4.961  1.00  0.00     0.010 A 
ATOM     89  C   UNL     1     -12.693 -18.239  -4.359  1.00  0.00     0.010 A 
ATOM     90  C   UNL     1     -11.077 -20.280  -5.385  1.00  0.00     0.020 A 
ATOM     91  C   UNL     1     -13.272 -19.447  -4.753  1.00  0.00     0.020 A 
ATOM     92  C   UNL     1     -12.461 -20.455  -5.278  1.00  0.00     0.054 A 
BRANCH  92  93
ATOM     93  S   UNL     1     -13.182 -22.036  -5.794  1.00  0.00     0.124 S 
ATOM     94  O   UNL     1     -13.084 -21.954  -7.248  1.00  0.00    -0.237 OA
ATOM     95  O   UNL     1     -12.301 -23.013  -5.158  1.00  0.00    -0.237 OA
ATOM     96  O   UNL     1     -14.541 -21.989  -5.258  1.00  0.00    -0.744 OA
ENDBRANCH  92  93
ENDBRANCH  66  87
ENDBRANCH  40  41
ENDBRANCH  33  35
ENDBRANCH  32  33
ENDBRANCH  31  32
ENDBRANCH  30  31
ENDBRANCH  29  30
ENDBRANCH   1  29
TORSDOF 21
