REMARK SMILES O=C(CNc1nccs1)OCCOCCOC(=O)c1ccc(-c2c3nc(c(-c4ccc(S(=O)(=O)[O-])cc4)c4ccc([nH]4)c(-c4ccc(S(=O)(=O)[O-])cc4)c4nc(c(-c5ccc(S(=O)(=O)[O-])cc5)c5ccc2[nH]5)C=C4)C=C3)cc1
REMARK SMILES IDX 14 1 13 2 12 3 11 4 10 5 2 6 1 7 3 8 4 9 5 11 6 12 9 13 7 14
REMARK SMILES IDX 8 15 15 16 16 17 17 18 18 19 19 20 20 21 78 22 21 23 77 24
REMARK SMILES IDX 22 25 23 26 24 27 71 28 25 29 76 30 70 31 72 32 26 33 75 34
REMARK SMILES IDX 69 35 68 36 27 38 57 39 38 40 56 41 39 42 42 43 55 44 73 45
REMARK SMILES IDX 40 46 41 47 54 49 74 50 43 51 28 52 29 53 37 54 30 55 36 56
REMARK SMILES IDX 31 57 32 58 33 59 34 60 35 61 58 62 59 63 67 64 60 65 66 66
REMARK SMILES IDX 61 67 62 68 63 69 64 70 65 71 44 72 45 73 53 74 46 75 52 76
REMARK SMILES IDX 47 77 48 78 49 79 50 80 51 81
REMARK H PARENT 4 10 72 37 42 48
REMARK Flexibility Score: inf
ROOT
ATOM      1  C   UNL     1       2.892   1.533   1.432  1.00  0.00     0.202 C 
ENDROOT
BRANCH   1   2
ATOM      2  O   UNL     1       4.130   0.845   1.232  1.00  0.00    -0.374 OA
BRANCH   2   3
ATOM      3  C   UNL     1       4.637   0.865  -0.097  1.00  0.00     0.202 C 
BRANCH   3   4
ATOM      4  C   UNL     1       4.166  -0.244  -1.033  1.00  0.00     0.261 C 
BRANCH   4   5
ATOM      5  O   UNL     1       2.775  -0.571  -0.921  1.00  0.00    -0.462 OA
BRANCH   5   6
ATOM      6  C   UNL     1       2.236  -1.413  -0.009  1.00  0.00     0.325 C 
ATOM      7  O   UNL     1       1.011  -1.558   0.012  1.00  0.00    -0.250 OA
BRANCH   6   8
ATOM      8  C   UNL     1       3.107  -2.123   1.024  1.00  0.00     0.238 C 
BRANCH   8   9
ATOM      9  N   UNL     1       4.213  -2.892   0.468  1.00  0.00    -0.351 N 
ATOM     10  H   UNL     1       4.039  -3.591  -0.204  1.00  0.00     0.163 HD
BRANCH   9  11
ATOM     11  C   UNL     1       5.476  -2.647   0.876  1.00  0.00     0.183 A 
ATOM     12  N   UNL     1       5.800  -1.901   1.904  1.00  0.00    -0.229 NA
ATOM     13  S   UNL     1       6.818  -3.218  -0.047  1.00  0.00    -0.106 S 
ATOM     14  C   UNL     1       7.157  -1.663   1.920  1.00  0.00     0.125 A 
ATOM     15  C   UNL     1       7.873  -2.271   0.914  1.00  0.00     0.088 A 
ENDBRANCH   9  11
ENDBRANCH   8   9
ENDBRANCH   6   8
ENDBRANCH   5   6
ENDBRANCH   4   5
ENDBRANCH   3   4
ENDBRANCH   2   3
ENDBRANCH   1   2
BRANCH   1  16
ATOM     16  C   UNL     1       3.013   3.048   1.643  1.00  0.00     0.261 C 
BRANCH  16  17
ATOM     17  O   UNL     1       3.370   3.723   0.426  1.00  0.00    -0.460 OA
BRANCH  17  18
ATOM     18  C   UNL     1       4.676   4.064   0.305  1.00  0.00     0.338 C 
ATOM     19  O   UNL     1       5.551   3.958   1.149  1.00  0.00    -0.246 OA
BRANCH  18  20
ATOM     20  C   UNL     1       4.943   4.376  -1.114  1.00  0.00     0.060 A 
ATOM     21  C   UNL     1       6.069   3.800  -1.721  1.00  0.00     0.016 A 
ATOM     22  C   UNL     1       4.088   5.203  -1.843  1.00  0.00     0.016 A 
ATOM     23  C   UNL     1       6.368   4.083  -3.053  1.00  0.00     0.010 A 
ATOM     24  C   UNL     1       4.391   5.493  -3.171  1.00  0.00     0.010 A 
ATOM     25  C   UNL     1       5.550   4.963  -3.769  1.00  0.00    -0.014 A 
BRANCH  25  26
ATOM     26  C   UNL     1       5.972   5.496  -5.083  1.00  0.00     0.031 A 
ATOM     27  C   UNL     1       6.534   6.888  -5.128  1.00  0.00     0.074 A 
ATOM     28  C   UNL     1       5.787   4.791  -6.211  1.00  0.00     0.049 A 
ATOM     29  N   UNL     1       6.797   7.644  -6.160  1.00  0.00    -0.248 NA
ATOM     30  C   UNL     1       6.812   7.519  -3.827  1.00  0.00     0.031 C 
ATOM     31  C   UNL     1       5.279   3.422  -6.279  1.00  0.00     0.029 A 
ATOM     32  N   UNL     1       5.969   5.153  -7.522  1.00  0.00    -0.354 N 
ATOM     33  C   UNL     1       7.235   8.853  -5.634  1.00  0.00     0.074 A 
ATOM     34  C   UNL     1       7.185   8.735  -4.194  1.00  0.00     0.031 C 
ATOM     35  C   UNL     1       5.152   3.071  -7.570  1.00  0.00     0.029 A 
ATOM     36  C   UNL     1       5.525   4.207  -8.413  1.00  0.00     0.049 A 
ATOM     37  H   UNL     1       6.378   6.005  -7.796  1.00  0.00     0.167 HD
ATOM     38  C   UNL     1       7.634   9.964  -6.296  1.00  0.00     0.031 A 
ATOM     39  C   UNL     1       5.387   4.269  -9.753  1.00  0.00     0.031 A 
ATOM     40  C   UNL     1       7.656  10.069  -7.730  1.00  0.00     0.049 A 
ATOM     41  C   UNL     1       5.789   5.528 -10.474  1.00  0.00     0.074 A 
ATOM     42  C   UNL     1       8.078  11.131  -8.508  1.00  0.00     0.029 A 
ATOM     43  N   UNL     1       7.220   9.080  -8.600  1.00  0.00    -0.354 N 
ATOM     44  N   UNL     1       6.244   6.653  -9.973  1.00  0.00    -0.248 NA
ATOM     45  C   UNL     1       5.668   5.527 -11.938  1.00  0.00     0.031 C 
ATOM     46  C   UNL     1       7.830  10.811  -9.847  1.00  0.00     0.029 A 
ATOM     47  C   UNL     1       7.330   9.518  -9.908  1.00  0.00     0.049 A 
ATOM     48  H   UNL     1       6.882   8.196  -8.327  1.00  0.00     0.167 HD
ATOM     49  C   UNL     1       6.492   7.483 -11.062  1.00  0.00     0.074 A 
ATOM     50  C   UNL     1       6.139   6.729 -12.248  1.00  0.00     0.031 C 
ATOM     51  C   UNL     1       6.976   8.750 -11.077  1.00  0.00     0.031 A 
BRANCH  38  52
ATOM     52  C   UNL     1       8.013  11.165  -5.468  1.00  0.00    -0.014 A 
ATOM     53  C   UNL     1       9.152  11.165  -4.643  1.00  0.00     0.010 A 
ATOM     54  C   UNL     1       7.206  12.317  -5.514  1.00  0.00     0.010 A 
ATOM     55  C   UNL     1       9.440  12.266  -3.831  1.00  0.00     0.020 A 
ATOM     56  C   UNL     1       7.509  13.434  -4.732  1.00  0.00     0.020 A 
ATOM     57  C   UNL     1       8.610  13.391  -3.876  1.00  0.00     0.054 A 
BRANCH  57  58
ATOM     58  S   UNL     1       8.997  14.800  -2.801  1.00  0.00     0.124 S 
ATOM     59  O   UNL     1       8.639  14.280  -1.484  1.00  0.00    -0.237 OA
ATOM     60  O   UNL     1      10.426  14.995  -3.032  1.00  0.00    -0.237 OA
ATOM     61  O   UNL     1       8.136  15.867  -3.304  1.00  0.00    -0.744 OA
ENDBRANCH  57  58
ENDBRANCH  38  52
BRANCH  39  62
ATOM     62  C   UNL     1       4.814   3.103 -10.480  1.00  0.00    -0.014 A 
ATOM     63  C   UNL     1       5.626   2.288 -11.286  1.00  0.00     0.010 A 
ATOM     64  C   UNL     1       3.457   2.765 -10.313  1.00  0.00     0.010 A 
ATOM     65  C   UNL     1       5.095   1.151 -11.903  1.00  0.00     0.020 A 
ATOM     66  C   UNL     1       2.930   1.615 -10.906  1.00  0.00     0.020 A 
ATOM     67  C   UNL     1       3.753   0.814 -11.699  1.00  0.00     0.054 A 
BRANCH  67  68
ATOM     68  S   UNL     1       3.118  -0.722 -12.427  1.00  0.00     0.124 S 
ATOM     69  O   UNL     1       3.080  -0.393 -13.848  1.00  0.00    -0.237 OA
ATOM     70  O   UNL     1       4.129  -1.698 -12.028  1.00  0.00    -0.237 OA
ATOM     71  O   UNL     1       1.815  -0.891 -11.787  1.00  0.00    -0.744 OA
ENDBRANCH  67  68
ENDBRANCH  39  62
BRANCH  51  72
ATOM     72  C   UNL     1       7.208   9.400 -12.416  1.00  0.00    -0.014 A 
ATOM     73  C   UNL     1       6.140   9.857 -13.207  1.00  0.00     0.010 A 
ATOM     74  C   UNL     1       8.529   9.655 -12.833  1.00  0.00     0.010 A 
ATOM     75  C   UNL     1       6.389  10.551 -14.395  1.00  0.00     0.020 A 
ATOM     76  C   UNL     1       8.781  10.373 -14.004  1.00  0.00     0.020 A 
ATOM     77  C   UNL     1       7.709  10.812 -14.781  1.00  0.00     0.054 A 
BRANCH  77  78
ATOM     78  S   UNL     1       8.003  11.788 -16.282  1.00  0.00     0.124 S 
ATOM     79  O   UNL     1       7.620  10.851 -17.334  1.00  0.00    -0.237 OA
ATOM     80  O   UNL     1       7.110  12.930 -16.100  1.00  0.00    -0.237 OA
ATOM     81  O   UNL     1       9.429  12.103 -16.218  1.00  0.00    -0.744 OA
ENDBRANCH  77  78
ENDBRANCH  51  72
ENDBRANCH  25  26
ENDBRANCH  18  20
ENDBRANCH  17  18
ENDBRANCH  16  17
ENDBRANCH   1  16
TORSDOF 19
