REMARK SMILES CCCc1cc2c(cc1Cl)C=C(C(=O)OCCOCCOC(=O)c1ccc(-c3c4nc(c(-c5ccc(S(=O)(=O)[O-])cc5)c5ccc([nH]5)c(-c5ccc(S(=O)(=O)[O-])cc5)c5nc(c(-c6ccc(S(=O)(=O)[O-])cc6)c6ccc3[nH]6)C=C5)C=C4)cc1)[C@H](C(F)(F)F)O2
REMARK SMILES IDX 19 1 18 2 17 3 16 4 15 5 13 6 14 7 12 8 4 9 5 10 9 11 6 12
REMARK SMILES IDX 8 13 10 14 7 15 89 16 11 17 84 18 3 19 2 20 1 21 85 22 86 23
REMARK SMILES IDX 87 24 88 25 20 26 21 27 22 28 23 29 24 30 25 31 83 32 26 33
REMARK SMILES IDX 82 34 27 35 28 36 29 37 76 38 30 39 81 40 75 41 77 42 31 43
REMARK SMILES IDX 80 44 74 45 73 46 32 48 62 49 43 50 61 51 44 52 47 53 60 54
REMARK SMILES IDX 78 55 45 56 46 57 59 59 79 60 48 61 33 62 34 63 42 64 35 65
REMARK SMILES IDX 41 66 36 67 37 68 38 69 39 70 40 71 63 72 64 73 72 74 65 75
REMARK SMILES IDX 71 76 66 77 67 78 68 79 69 80 70 81 49 82 50 83 58 84 51 85
REMARK SMILES IDX 57 86 52 87 53 88 54 89 55 90 56 91
REMARK H PARENT 77 47 47 58
REMARK Flexibility Score: inf
ROOT
ATOM      1  C   UNL     1      -2.667   8.622   3.241  1.00  0.00     0.202 C 
ENDROOT
BRANCH   1   2
ATOM      2  O   UNL     1      -2.763   9.743   2.358  1.00  0.00    -0.374 OA
BRANCH   2   3
ATOM      3  C   UNL     1      -3.839   9.744   1.420  1.00  0.00     0.202 C 
BRANCH   3   4
ATOM      4  C   UNL     1      -3.611   8.979   0.114  1.00  0.00     0.261 C 
BRANCH   4   5
ATOM      5  O   UNL     1      -3.377   7.584   0.366  1.00  0.00    -0.460 OA
BRANCH   5   6
ATOM      6  C   UNL     1      -2.095   7.198   0.204  1.00  0.00     0.338 C 
ATOM      7  O   UNL     1      -1.190   7.865  -0.274  1.00  0.00    -0.246 OA
BRANCH   6   8
ATOM      8  C   UNL     1      -1.882   5.870   0.806  1.00  0.00     0.087 C 
ATOM      9  C   UNL     1       0.494   1.712   2.306  1.00  0.00    -0.026 A 
ATOM     10  C   UNL     1      -0.798   1.996   1.825  1.00  0.00     0.052 A 
ATOM     11  C   UNL     1       1.330   2.794   2.632  1.00  0.00     0.045 A 
ATOM     12  C   UNL     1      -1.191   3.302   1.544  1.00  0.00     0.128 A 
ATOM     13  C   UNL     1       0.922   4.108   2.382  1.00  0.00     0.032 A 
ATOM     14  Cl  UNL     1       2.908   2.580   3.305  1.00  0.00    -0.084 Cl
ATOM     15  C   UNL     1      -0.322   4.357   1.800  1.00  0.00     0.019 A 
ATOM     16  O   UNL     1      -2.400   3.448   0.926  1.00  0.00    -0.475 OA
ATOM     17  C   UNL     1      -0.665   5.687   1.337  1.00  0.00     0.027 C 
ATOM     18  C   UNL     1      -2.936   4.793   0.761  1.00  0.00     0.316 C 
BRANCH   9  19
ATOM     19  C   UNL     1       0.941   0.270   2.423  1.00  0.00     0.037 C 
BRANCH  19  20
ATOM     20  C   UNL     1       0.572  -0.624   1.226  1.00  0.00     0.001 C 
ATOM     21  C   UNL     1       1.116  -0.118  -0.105  1.00  0.00     0.004 C 
ENDBRANCH  19  20
ENDBRANCH   9  19
BRANCH  18  22
ATOM     22  C   UNL     1      -4.101   4.994   1.755  1.00  0.00     0.430 C 
ATOM     23  F   UNL     1      -4.614   3.810   2.174  1.00  0.00    -0.167 F 
ATOM     24  F   UNL     1      -3.721   5.661   2.869  1.00  0.00    -0.167 F 
ATOM     25  F   UNL     1      -5.124   5.678   1.194  1.00  0.00    -0.167 F 
ENDBRANCH  18  22
ENDBRANCH   6   8
ENDBRANCH   5   6
ENDBRANCH   4   5
ENDBRANCH   3   4
ENDBRANCH   2   3
ENDBRANCH   1   2
BRANCH   1  26
ATOM     26  C   UNL     1      -3.671   8.552   4.401  1.00  0.00     0.261 C 
BRANCH  26  27
ATOM     27  O   UNL     1      -5.004   8.262   3.942  1.00  0.00    -0.460 OA
BRANCH  27  28
ATOM     28  C   UNL     1      -5.883   9.293   4.015  1.00  0.00     0.338 C 
ATOM     29  O   UNL     1      -5.683  10.393   4.506  1.00  0.00    -0.246 OA
BRANCH  28  30
ATOM     30  C   UNL     1      -7.068   8.980   3.187  1.00  0.00     0.060 A 
ATOM     31  C   UNL     1      -7.741   7.761   3.287  1.00  0.00     0.016 A 
ATOM     32  C   UNL     1      -7.506   9.957   2.281  1.00  0.00     0.016 A 
ATOM     33  C   UNL     1      -8.878   7.539   2.501  1.00  0.00     0.010 A 
ATOM     34  C   UNL     1      -8.639   9.732   1.499  1.00  0.00     0.010 A 
ATOM     35  C   UNL     1      -9.349   8.530   1.619  1.00  0.00    -0.014 A 
BRANCH  35  36
ATOM     36  C   UNL     1     -10.657   8.371   0.931  1.00  0.00     0.031 A 
ATOM     37  C   UNL     1     -10.749   8.123  -0.546  1.00  0.00     0.074 A 
ATOM     38  C   UNL     1     -11.782   8.493   1.664  1.00  0.00     0.049 A 
ATOM     39  N   UNL     1     -11.818   7.922  -1.274  1.00  0.00    -0.248 NA
ATOM     40  C   UNL     1      -9.490   8.101  -1.306  1.00  0.00     0.031 C 
ATOM     41  C   UNL     1     -11.816   8.766   3.102  1.00  0.00     0.029 A 
ATOM     42  N   UNL     1     -13.106   8.396   1.312  1.00  0.00    -0.354 N 
ATOM     43  C   UNL     1     -11.365   7.729  -2.573  1.00  0.00     0.074 A 
ATOM     44  C   UNL     1      -9.926   7.889  -2.543  1.00  0.00     0.031 C 
ATOM     45  C   UNL     1     -13.091   8.775   3.516  1.00  0.00     0.029 A 
ATOM     46  C   UNL     1     -13.971   8.553   2.371  1.00  0.00     0.049 A 
ATOM     47  H   UNL     1     -13.408   8.231   0.390  1.00  0.00     0.167 HD
ATOM     48  C   UNL     1     -12.085   7.423  -3.679  1.00  0.00     0.031 A 
ATOM     49  C   UNL     1     -15.318   8.519   2.425  1.00  0.00     0.031 A 
ATOM     50  C   UNL     1     -13.521   7.279  -3.697  1.00  0.00     0.049 A 
ATOM     51  C   UNL     1     -16.096   8.226   1.172  1.00  0.00     0.074 A 
ATOM     52  C   UNL     1     -14.329   6.928  -4.766  1.00  0.00     0.029 A 
ATOM     53  N   UNL     1     -14.363   7.481  -2.614  1.00  0.00    -0.354 N 
ATOM     54  N   UNL     1     -15.645   7.962  -0.031  1.00  0.00    -0.248 NA
ATOM     55  C   UNL     1     -17.562   8.209   1.281  1.00  0.00     0.031 C 
ATOM     56  C   UNL     1     -15.659   7.000  -4.353  1.00  0.00     0.029 A 
ATOM     57  C   UNL     1     -15.682   7.302  -3.001  1.00  0.00     0.049 A 
ATOM     58  H   UNL     1     -14.068   7.716  -1.705  1.00  0.00     0.167 HD
ATOM     59  C   UNL     1     -16.768   7.724  -0.815  1.00  0.00     0.074 A 
ATOM     60  C   UNL     1     -17.920   7.855   0.053  1.00  0.00     0.031 C 
ATOM     61  C   UNL     1     -16.832   7.427  -2.136  1.00  0.00     0.031 A 
BRANCH  48  62
ATOM     62  C   UNL     1     -11.352   7.186  -4.978  1.00  0.00    -0.014 A 
ATOM     63  C   UNL     1     -11.585   8.027  -6.083  1.00  0.00     0.010 A 
ATOM     64  C   UNL     1     -10.564   6.034  -5.153  1.00  0.00     0.010 A 
ATOM     65  C   UNL     1     -11.086   7.697  -7.347  1.00  0.00     0.020 A 
ATOM     66  C   UNL     1     -10.036   5.717  -6.409  1.00  0.00     0.020 A 
ATOM     67  C   UNL     1     -10.325   6.536  -7.503  1.00  0.00     0.054 A 
BRANCH  67  68
ATOM     68  S   UNL     1      -9.735   6.092  -9.161  1.00  0.00     0.124 S 
ATOM     69  O   UNL     1     -10.965   5.675  -9.826  1.00  0.00    -0.237 OA
ATOM     70  O   UNL     1      -9.152   7.345  -9.635  1.00  0.00    -0.237 OA
ATOM     71  O   UNL     1      -8.769   5.025  -8.906  1.00  0.00    -0.744 OA
ENDBRANCH  67  68
ENDBRANCH  48  62
BRANCH  49  72
ATOM     72  C   UNL     1     -15.996   8.715   3.738  1.00  0.00    -0.014 A 
ATOM     73  C   UNL     1     -15.908   9.949   4.411  1.00  0.00     0.010 A 
ATOM     74  C   UNL     1     -16.658   7.644   4.364  1.00  0.00     0.010 A 
ATOM     75  C   UNL     1     -16.409  10.089   5.708  1.00  0.00     0.020 A 
ATOM     76  C   UNL     1     -17.194   7.792   5.648  1.00  0.00     0.020 A 
ATOM     77  C   UNL     1     -17.036   9.003   6.323  1.00  0.00     0.054 A 
BRANCH  77  78
ATOM     78  S   UNL     1     -17.619   9.191   8.031  1.00  0.00     0.124 S 
ATOM     79  O   UNL     1     -16.363   9.192   8.777  1.00  0.00    -0.237 OA
ATOM     80  O   UNL     1     -18.326  10.468   7.987  1.00  0.00    -0.237 OA
ATOM     81  O   UNL     1     -18.466   8.019   8.235  1.00  0.00    -0.744 OA
ENDBRANCH  77  78
ENDBRANCH  49  72
BRANCH  61  82
ATOM     82  C   UNL     1     -18.189   7.214  -2.764  1.00  0.00    -0.014 A 
ATOM     83  C   UNL     1     -18.520   5.955  -3.302  1.00  0.00     0.010 A 
ATOM     84  C   UNL     1     -19.072   8.291  -2.960  1.00  0.00     0.010 A 
ATOM     85  C   UNL     1     -19.675   5.790  -4.071  1.00  0.00     0.020 A 
ATOM     86  C   UNL     1     -20.248   8.121  -3.698  1.00  0.00     0.020 A 
ATOM     87  C   UNL     1     -20.525   6.880  -4.276  1.00  0.00     0.054 A 
BRANCH  87  88
ATOM     88  S   UNL     1     -21.984   6.661  -5.332  1.00  0.00     0.124 S 
ATOM     89  O   UNL     1     -21.391   6.574  -6.663  1.00  0.00    -0.237 OA
ATOM     90  O   UNL     1     -22.568   5.424  -4.820  1.00  0.00    -0.237 OA
ATOM     91  O   UNL     1     -22.775   7.865  -5.080  1.00  0.00    -0.744 OA
ENDBRANCH  87  88
ENDBRANCH  61  82
ENDBRANCH  35  36
ENDBRANCH  28  30
ENDBRANCH  27  28
ENDBRANCH  26  27
ENDBRANCH   1  26
TORSDOF 20
