REMARK SMILES Cc1coc2c(C)c3oc(=O)c(CC(=O)NCC(=O)N[C@H](C(=O)OCCOCCOC(=O)c4ccc(-c5c6nc(c(-c7ccc(S(=O)(=O)[O-])cc7)c7ccc([nH]7)c(-c7ccc(S(=O)(=O)[O-])cc7)c7nc(c(-c8ccc(S(=O)(=O)[O-])cc8)c8ccc5[nH]8)C=C7)C=C6)cc4)C(C)C)c(C)c3cc12
REMARK SMILES IDX 26 1 25 2 24 3 22 4 23 5 21 6 20 7 18 8 19 9 17 11 16 12
REMARK SMILES IDX 14 13 15 14 13 16 12 17 1 18 2 19 3 20 100 21 4 22 5 23
REMARK SMILES IDX 99 24 6 25 98 26 7 27 8 28 96 29 9 30 97 31 10 32 11 33
REMARK SMILES IDX 93 34 94 35 95 36 27 37 28 38 29 39 30 40 31 41 32 42 33 43
REMARK SMILES IDX 34 44 92 45 35 46 91 47 36 48 37 49 38 50 85 51 39 52 90 53
REMARK SMILES IDX 84 54 86 55 40 56 89 57 83 58 82 59 41 61 71 62 52 63 70 64
REMARK SMILES IDX 53 65 56 66 69 67 87 68 54 69 55 70 68 72 88 73 57 74 42 75
REMARK SMILES IDX 43 76 51 77 44 78 50 79 45 80 46 81 47 82 48 83 49 84 72 85
REMARK SMILES IDX 73 86 81 87 74 88 80 89 75 90 76 91 77 92 78 93 79 94 58 95
REMARK SMILES IDX 59 96 67 97 60 98 66 99 61 100 62 101 63 102 64 103 65 104
REMARK H PARENT 20 10 16 15 86 60 56 71
REMARK Flexibility Score: inf
ROOT
ATOM      1  C   UNL     1       5.596   5.506   4.268  1.00  0.00     0.202 C 
ENDROOT
BRANCH   1   2
ATOM      2  C   UNL     1       6.475   5.733   3.033  1.00  0.00     0.261 C 
BRANCH   2   3
ATOM      3  O   UNL     1       5.719   5.370   1.860  1.00  0.00    -0.462 OA
BRANCH   3   4
ATOM      4  C   UNL     1       6.123   4.337   1.087  1.00  0.00     0.328 C 
ATOM      5  O   UNL     1       7.258   3.874   1.095  1.00  0.00    -0.250 OA
BRANCH   4   6
ATOM      6  C   UNL     1       4.937   3.732   0.261  1.00  0.00     0.194 C 
BRANCH   6   7
ATOM      7  N   UNL     1       5.223   2.274   0.220  1.00  0.00    -0.341 N 
ATOM      8  C   UNL     1       4.982   1.258  -0.648  1.00  0.00     0.240 C 
ATOM      9  O   UNL     1       5.297   0.127  -0.257  1.00  0.00    -0.273 OA
ATOM     10  H   UNL     1       5.707   1.970   1.020  1.00  0.00     0.164 HD
BRANCH   8  11
ATOM     11  C   UNL     1       4.382   1.442  -2.056  1.00  0.00     0.216 C 
BRANCH  11  12
ATOM     12  N   UNL     1       2.947   1.640  -2.143  1.00  0.00    -0.347 N 
ATOM     13  C   UNL     1       2.188   2.547  -2.819  1.00  0.00     0.225 C 
ATOM     14  O   UNL     1       0.967   2.491  -2.638  1.00  0.00    -0.275 OA
ATOM     15  H   UNL     1       2.423   0.997  -1.614  1.00  0.00     0.164 HD
BRANCH  13  16
ATOM     16  C   UNL     1       2.760   3.593  -3.787  1.00  0.00     0.143 C 
BRANCH  16  17
ATOM     17  C   UNL     1       3.757   4.629  -3.275  1.00  0.00     0.051 A 
ATOM     18  C   UNL     1       4.894   9.396   1.877  1.00  0.00     0.048 C 
ATOM     19  C   UNL     1       5.870   8.807   0.926  1.00  0.00    -0.005 A 
ATOM     20  C   UNL     1       7.240   8.813   1.111  1.00  0.00     0.199 A 
ATOM     21  C   UNL     1       5.639   8.033  -0.268  1.00  0.00     0.024 A 
ATOM     22  O   UNL     1       7.852   8.026   0.201  1.00  0.00    -0.464 OA
ATOM     23  C   UNL     1       6.883   7.514  -0.603  1.00  0.00     0.140 A 
ATOM     24  C   UNL     1       4.514   7.606  -1.034  1.00  0.00     0.024 A 
ATOM     25  C   UNL     1       7.106   6.548  -1.581  1.00  0.00     0.036 A 
ATOM     26  C   UNL     1       4.645   6.562  -1.992  1.00  0.00     0.022 A 
ATOM     27  C   UNL     1       8.457   5.932  -1.769  1.00  0.00     0.052 C 
ATOM     28  C   UNL     1       5.945   6.107  -2.250  1.00  0.00     0.145 A 
ATOM     29  C   UNL     1       3.499   5.756  -2.557  1.00  0.00    -0.029 A 
ATOM     30  O   UNL     1       6.159   5.078  -3.186  1.00  0.00    -0.422 OA
ATOM     31  C   UNL     1       2.078   6.154  -2.215  1.00  0.00     0.046 C 
ATOM     32  C   UNL     1       5.138   4.357  -3.756  1.00  0.00     0.340 A 
ATOM     33  O   UNL     1       5.385   3.488  -4.585  1.00  0.00    -0.246 OA
ENDBRANCH  16  17
ENDBRANCH  13  16
ENDBRANCH  11  12
ENDBRANCH   8  11
ENDBRANCH   6   7
BRANCH   6  34
ATOM     34  C   UNL     1       3.551   3.997   0.934  1.00  0.00     0.017 C 
ATOM     35  C   UNL     1       3.121   5.460   1.074  1.00  0.00     0.010 C 
ATOM     36  C   UNL     1       2.409   3.265   0.268  1.00  0.00     0.010 C 
ENDBRANCH   6  34
ENDBRANCH   4   6
ENDBRANCH   3   4
ENDBRANCH   2   3
ENDBRANCH   1   2
BRANCH   1  37
ATOM     37  O   UNL     1       5.675   4.193   4.825  1.00  0.00    -0.374 OA
BRANCH  37  38
ATOM     38  C   UNL     1       4.976   3.150   4.159  1.00  0.00     0.202 C 
BRANCH  38  39
ATOM     39  C   UNL     1       3.472   3.069   4.421  1.00  0.00     0.261 C 
BRANCH  39  40
ATOM     40  O   UNL     1       2.735   4.165   3.883  1.00  0.00    -0.460 OA
BRANCH  40  41
ATOM     41  C   UNL     1       2.330   5.112   4.758  1.00  0.00     0.338 C 
ATOM     42  O   UNL     1       2.839   5.389   5.819  1.00  0.00    -0.246 OA
BRANCH  41  43
ATOM     43  C   UNL     1       1.047   5.652   4.269  1.00  0.00     0.060 A 
ATOM     44  C   UNL     1       0.406   6.596   5.068  1.00  0.00     0.016 A 
ATOM     45  C   UNL     1       0.389   5.048   3.186  1.00  0.00     0.016 A 
ATOM     46  C   UNL     1      -0.954   6.768   4.906  1.00  0.00     0.010 A 
ATOM     47  C   UNL     1      -0.948   5.263   2.983  1.00  0.00     0.010 A 
ATOM     48  C   UNL     1      -1.621   6.026   3.922  1.00  0.00    -0.014 A 
BRANCH  48  49
ATOM     49  C   UNL     1      -3.063   6.098   3.845  1.00  0.00     0.031 A 
ATOM     50  C   UNL     1      -3.525   7.421   3.385  1.00  0.00     0.074 A 
ATOM     51  C   UNL     1      -3.849   5.027   4.080  1.00  0.00     0.049 A 
ATOM     52  N   UNL     1      -4.064   8.346   4.104  1.00  0.00    -0.248 NA
ATOM     53  C   UNL     1      -3.126   7.861   2.035  1.00  0.00     0.031 C 
ATOM     54  C   UNL     1      -3.450   3.630   4.287  1.00  0.00     0.029 A 
ATOM     55  N   UNL     1      -5.204   4.949   4.087  1.00  0.00    -0.354 N 
ATOM     56  C   UNL     1      -4.318   9.388   3.224  1.00  0.00     0.074 A 
ATOM     57  C   UNL     1      -3.517   9.135   2.054  1.00  0.00     0.031 C 
ATOM     58  C   UNL     1      -4.532   2.827   4.153  1.00  0.00     0.029 A 
ATOM     59  C   UNL     1      -5.715   3.657   4.000  1.00  0.00     0.049 A 
ATOM     60  H   UNL     1      -5.780   5.744   4.150  1.00  0.00     0.167 HD
ATOM     61  C   UNL     1      -5.401  10.192   3.395  1.00  0.00     0.031 A 
ATOM     62  C   UNL     1      -7.011   3.314   3.768  1.00  0.00     0.031 A 
ATOM     63  C   UNL     1      -5.946  10.068   4.723  1.00  0.00     0.049 A 
ATOM     64  C   UNL     1      -7.829   4.501   4.124  1.00  0.00     0.074 A 
ATOM     65  C   UNL     1      -5.471  10.310   5.995  1.00  0.00     0.029 A 
ATOM     66  N   UNL     1      -7.026   9.227   4.864  1.00  0.00    -0.354 N 
ATOM     67  N   UNL     1      -7.921   4.966   5.340  1.00  0.00    -0.248 NA
ATOM     68  C   UNL     1      -8.142   5.450   3.067  1.00  0.00     0.031 C 
ATOM     69  C   UNL     1      -6.015   9.267   6.799  1.00  0.00     0.029 A 
ATOM     70  C   UNL     1      -6.852   8.483   6.001  1.00  0.00     0.049 A 
ATOM     71  H   UNL     1      -7.794   9.171   4.251  1.00  0.00     0.167 HD
ATOM     72  C   UNL     1      -7.873   6.346   5.196  1.00  0.00     0.074 A 
ATOM     73  C   UNL     1      -8.100   6.586   3.771  1.00  0.00     0.031 C 
ATOM     74  C   UNL     1      -7.369   7.140   6.187  1.00  0.00     0.031 A 
BRANCH  61  75
ATOM     75  C   UNL     1      -6.216  10.709   2.238  1.00  0.00    -0.014 A 
ATOM     76  C   UNL     1      -7.302  11.564   2.507  1.00  0.00     0.010 A 
ATOM     77  C   UNL     1      -6.132  10.171   0.935  1.00  0.00     0.010 A 
ATOM     78  C   UNL     1      -8.279  11.820   1.538  1.00  0.00     0.020 A 
ATOM     79  C   UNL     1      -7.075  10.454  -0.051  1.00  0.00     0.020 A 
ATOM     80  C   UNL     1      -8.160  11.256   0.266  1.00  0.00     0.054 A 
BRANCH  80  81
ATOM     81  S   UNL     1      -9.465  11.534  -0.952  1.00  0.00     0.124 S 
ATOM     82  O   UNL     1     -10.607  10.879  -0.325  1.00  0.00    -0.237 OA
ATOM     83  O   UNL     1      -9.520  12.992  -1.011  1.00  0.00    -0.237 OA
ATOM     84  O   UNL     1      -8.951  10.886  -2.157  1.00  0.00    -0.744 OA
ENDBRANCH  80  81
ENDBRANCH  61  75
BRANCH  62  85
ATOM     85  C   UNL     1      -7.536   2.207   2.917  1.00  0.00    -0.014 A 
ATOM     86  C   UNL     1      -8.915   1.911   2.876  1.00  0.00     0.010 A 
ATOM     87  C   UNL     1      -6.724   1.632   1.918  1.00  0.00     0.010 A 
ATOM     88  C   UNL     1      -9.466   1.133   1.839  1.00  0.00     0.020 A 
ATOM     89  C   UNL     1      -7.264   0.852   0.885  1.00  0.00     0.020 A 
ATOM     90  C   UNL     1      -8.638   0.628   0.834  1.00  0.00     0.054 A 
BRANCH  90  91
ATOM     91  S   UNL     1      -9.374  -0.220  -0.599  1.00  0.00     0.124 S 
ATOM     92  O   UNL     1      -9.905  -1.442  -0.001  1.00  0.00    -0.237 OA
ATOM     93  O   UNL     1     -10.371   0.743  -1.058  1.00  0.00    -0.237 OA
ATOM     94  O   UNL     1      -8.242  -0.414  -1.504  1.00  0.00    -0.744 OA
ENDBRANCH  90  91
ENDBRANCH  62  85
BRANCH  74  95
ATOM     95  C   UNL     1      -7.127   6.531   7.552  1.00  0.00    -0.014 A 
ATOM     96  C   UNL     1      -6.130   5.570   7.820  1.00  0.00     0.010 A 
ATOM     97  C   UNL     1      -7.800   7.119   8.637  1.00  0.00     0.010 A 
ATOM     98  C   UNL     1      -5.811   5.221   9.144  1.00  0.00     0.020 A 
ATOM     99  C   UNL     1      -7.475   6.789   9.954  1.00  0.00     0.020 A 
ATOM    100  C   UNL     1      -6.479   5.845  10.204  1.00  0.00     0.054 A 
BRANCH 100 101
ATOM    101  S   UNL     1      -5.996   5.474  11.915  1.00  0.00     0.124 S 
ATOM    102  O   UNL     1      -6.407   4.081  12.069  1.00  0.00    -0.237 OA
ATOM    103  O   UNL     1      -4.553   5.707  11.902  1.00  0.00    -0.237 OA
ATOM    104  O   UNL     1      -6.761   6.435  12.710  1.00  0.00    -0.744 OA
ENDBRANCH 100 101
ENDBRANCH  74  95
ENDBRANCH  48  49
ENDBRANCH  41  43
ENDBRANCH  40  41
ENDBRANCH  39  40
ENDBRANCH  38  39
ENDBRANCH  37  38
ENDBRANCH   1  37
TORSDOF 23
