REMARK SMILES COC(=O)[C@@H]1C[C@@H](C(=O)OCCOCCOC(=O)c2ccc(-c3c4nc(c(-c5ccc(S(=O)(=O)[O-])cc5)c5ccc([nH]5)c(-c5ccc(S(=O)(=O)[O-])cc5)c5nc(c(-c6ccc(S(=O)(=O)[O-])cc6)c6ccc3[nH]6)C=C5)C=C4)cc2)[C@@H](c2cccc(F)c2F)[N@H+]1C
REMARK SMILES IDX 14 1 13 2 12 3 11 4 10 5 8 6 9 7 7 8 5 9 6 10 88 11 79 12
REMARK SMILES IDX 89 13 3 15 4 16 2 17 1 18 80 19 81 20 86 21 82 22 84 23
REMARK SMILES IDX 87 24 83 25 85 26 15 27 16 28 17 29 18 30 19 31 20 32 78 33
REMARK SMILES IDX 21 34 77 35 22 36 23 37 24 38 71 39 25 40 76 41 70 42 72 43
REMARK SMILES IDX 26 44 75 45 69 46 68 47 27 49 57 50 38 51 56 52 39 53 42 54
REMARK SMILES IDX 55 55 73 56 40 57 41 58 54 60 74 61 43 62 28 63 29 64 37 65
REMARK SMILES IDX 30 66 36 67 31 68 32 69 33 70 34 71 35 72 58 73 59 74 67 75
REMARK SMILES IDX 60 76 66 77 61 78 62 79 63 80 64 81 65 82 44 83 45 84 53 85
REMARK SMILES IDX 46 86 52 87 47 88 48 89 49 90 50 91 51 92
REMARK H PARENT 88 14 72 48 42 59
REMARK Flexibility Score: inf
ROOT
ATOM      1  C   UNL     1       0.275   7.625   0.560  1.00  0.00     0.202 C 
ENDROOT
BRANCH   1   2
ATOM      2  O   UNL     1      -0.703   7.612   1.599  1.00  0.00    -0.374 OA
BRANCH   2   3
ATOM      3  C   UNL     1      -0.833   6.380   2.314  1.00  0.00     0.202 C 
BRANCH   3   4
ATOM      4  C   UNL     1      -1.840   5.408   1.695  1.00  0.00     0.261 C 
BRANCH   4   5
ATOM      5  O   UNL     1      -1.249   4.730   0.569  1.00  0.00    -0.463 OA
BRANCH   5   6
ATOM      6  C   UNL     1      -1.494   5.248  -0.655  1.00  0.00     0.315 C 
ATOM      7  O   UNL     1      -2.283   6.156  -0.882  1.00  0.00    -0.252 OA
BRANCH   6   8
ATOM      8  C   UNL     1      -0.678   4.590  -1.741  1.00  0.00     0.168 C 
ATOM      9  C   UNL     1       0.235   2.514  -2.566  1.00  0.00     0.296 C 
ATOM     10  C   UNL     1      -1.059   3.141  -2.035  1.00  0.00     0.099 C 
ATOM     11  N   UNL     1       1.070   3.701  -2.865  1.00  0.00    -0.319 N 
ATOM     12  C   UNL     1       0.865   4.631  -1.720  1.00  0.00     0.233 C 
ATOM     13  C   UNL     1       2.444   3.418  -3.243  1.00  0.00     0.334 C 
ATOM     14  H   UNL     1       0.772   4.154  -3.729  1.00  0.00     0.349 HD
BRANCH   9  15
ATOM     15  C   UNL     1       0.020   1.623  -3.785  1.00  0.00     0.364 C 
ATOM     16  O   UNL     1      -0.951   1.639  -4.529  1.00  0.00    -0.245 OA
BRANCH  15  17
ATOM     17  O   UNL     1       1.088   0.778  -3.913  1.00  0.00    -0.465 OA
ATOM     18  C   UNL     1       1.022  -0.092  -5.039  1.00  0.00     0.282 C 
ENDBRANCH  15  17
ENDBRANCH   9  15
BRANCH  12  19
ATOM     19  C   UNL     1       1.701   4.243  -0.500  1.00  0.00     0.049 A 
ATOM     20  C   UNL     1       1.292   3.348   0.501  1.00  0.00     0.013 A 
ATOM     21  C   UNL     1       3.029   4.711  -0.428  1.00  0.00     0.167 A 
ATOM     22  C   UNL     1       2.173   2.919   1.504  1.00  0.00     0.004 A 
ATOM     23  C   UNL     1       3.918   4.241   0.534  1.00  0.00     0.159 A 
ATOM     24  F   UNL     1       3.477   5.586  -1.342  1.00  0.00    -0.203 F 
ATOM     25  C   UNL     1       3.500   3.332   1.493  1.00  0.00     0.042 A 
ATOM     26  F   UNL     1       5.193   4.655   0.533  1.00  0.00    -0.204 F 
ENDBRANCH  12  19
ENDBRANCH   6   8
ENDBRANCH   5   6
ENDBRANCH   4   5
ENDBRANCH   3   4
ENDBRANCH   2   3
ENDBRANCH   1   2
BRANCH   1  27
ATOM     27  C   UNL     1       1.665   8.096   0.990  1.00  0.00     0.261 C 
BRANCH  27  28
ATOM     28  O   UNL     1       2.260   7.171   1.916  1.00  0.00    -0.460 OA
BRANCH  28  29
ATOM     29  C   UNL     1       2.097   7.495   3.220  1.00  0.00     0.338 C 
ATOM     30  O   UNL     1       1.588   8.511   3.669  1.00  0.00    -0.246 OA
BRANCH  29  31
ATOM     31  C   UNL     1       2.474   6.345   4.064  1.00  0.00     0.060 A 
ATOM     32  C   UNL     1       1.628   6.006   5.123  1.00  0.00     0.016 A 
ATOM     33  C   UNL     1       3.649   5.626   3.849  1.00  0.00     0.016 A 
ATOM     34  C   UNL     1       1.985   4.984   6.002  1.00  0.00     0.010 A 
ATOM     35  C   UNL     1       3.981   4.569   4.705  1.00  0.00     0.010 A 
ATOM     36  C   UNL     1       3.182   4.272   5.822  1.00  0.00    -0.014 A 
BRANCH  36  37
ATOM     37  C   UNL     1       3.651   3.340   6.887  1.00  0.00     0.031 A 
ATOM     38  C   UNL     1       4.897   3.676   7.674  1.00  0.00     0.074 A 
ATOM     39  C   UNL     1       2.942   2.238   7.207  1.00  0.00     0.049 A 
ATOM     40  N   UNL     1       5.415   3.059   8.707  1.00  0.00    -0.248 NA
ATOM     41  C   UNL     1       5.673   4.848   7.234  1.00  0.00     0.031 C 
ATOM     42  C   UNL     1       1.731   1.778   6.524  1.00  0.00     0.029 A 
ATOM     43  N   UNL     1       3.126   1.316   8.210  1.00  0.00    -0.354 N 
ATOM     44  C   UNL     1       6.572   3.760   9.028  1.00  0.00     0.074 A 
ATOM     45  C   UNL     1       6.721   4.803   8.040  1.00  0.00     0.031 C 
ATOM     46  C   UNL     1       1.258   0.690   7.155  1.00  0.00     0.029 A 
ATOM     47  C   UNL     1       2.142   0.356   8.270  1.00  0.00     0.049 A 
ATOM     48  H   UNL     1       3.891   1.341   8.829  1.00  0.00     0.167 HD
ATOM     49  C   UNL     1       7.424   3.584  10.067  1.00  0.00     0.031 A 
ATOM     50  C   UNL     1       1.963  -0.668   9.130  1.00  0.00     0.031 A 
ATOM     51  C   UNL     1       7.278   2.559  11.065  1.00  0.00     0.049 A 
ATOM     52  C   UNL     1       2.929  -0.855  10.271  1.00  0.00     0.074 A 
ATOM     53  C   UNL     1       8.065   2.327  12.180  1.00  0.00     0.029 A 
ATOM     54  N   UNL     1       6.282   1.596  11.072  1.00  0.00    -0.354 N 
ATOM     55  N   UNL     1       3.982  -0.139  10.591  1.00  0.00    -0.248 NA
ATOM     56  C   UNL     1       2.667  -1.978  11.183  1.00  0.00     0.031 C 
ATOM     57  C   UNL     1       7.580   1.185  12.826  1.00  0.00     0.029 A 
ATOM     58  C   UNL     1       6.448   0.751  12.156  1.00  0.00     0.049 A 
ATOM     59  H   UNL     1       5.562   1.523  10.404  1.00  0.00     0.167 HD
ATOM     60  C   UNL     1       4.487  -0.707  11.758  1.00  0.00     0.074 A 
ATOM     61  C   UNL     1       3.610  -1.808  12.098  1.00  0.00     0.031 C 
ATOM     62  C   UNL     1       5.577  -0.349  12.483  1.00  0.00     0.031 A 
BRANCH  49  63
ATOM     63  C   UNL     1       8.600   4.522  10.168  1.00  0.00    -0.014 A 
ATOM     64  C   UNL     1       8.424   5.886  10.466  1.00  0.00     0.010 A 
ATOM     65  C   UNL     1       9.904   4.027   9.988  1.00  0.00     0.010 A 
ATOM     66  C   UNL     1       9.523   6.745  10.535  1.00  0.00     0.020 A 
ATOM     67  C   UNL     1      11.010   4.876  10.091  1.00  0.00     0.020 A 
ATOM     68  C   UNL     1      10.810   6.234  10.345  1.00  0.00     0.054 A 
BRANCH  68  69
ATOM     69  S   UNL     1      12.221   7.368  10.464  1.00  0.00     0.124 S 
ATOM     70  O   UNL     1      12.074   8.159   9.245  1.00  0.00    -0.237 OA
ATOM     71  O   UNL     1      11.953   8.080  11.710  1.00  0.00    -0.237 OA
ATOM     72  O   UNL     1      13.380   6.479  10.493  1.00  0.00    -0.744 OA
ENDBRANCH  68  69
ENDBRANCH  49  63
BRANCH  50  73
ATOM     73  C   UNL     1       0.805  -1.593   8.962  1.00  0.00    -0.014 A 
ATOM     74  C   UNL     1      -0.241  -1.621   9.903  1.00  0.00     0.010 A 
ATOM     75  C   UNL     1       0.752  -2.467   7.861  1.00  0.00     0.010 A 
ATOM     76  C   UNL     1      -1.303  -2.520   9.758  1.00  0.00     0.020 A 
ATOM     77  C   UNL     1      -0.324  -3.344   7.695  1.00  0.00     0.020 A 
ATOM     78  C   UNL     1      -1.339  -3.373   8.652  1.00  0.00     0.054 A 
BRANCH  78  79
ATOM     79  S   UNL     1      -2.753  -4.494   8.455  1.00  0.00     0.124 S 
ATOM     80  O   UNL     1      -2.511  -5.476   9.507  1.00  0.00    -0.237 OA
ATOM     81  O   UNL     1      -3.891  -3.603   8.667  1.00  0.00    -0.237 OA
ATOM     82  O   UNL     1      -2.607  -4.990   7.088  1.00  0.00    -0.744 OA
ENDBRANCH  78  79
ENDBRANCH  50  73
BRANCH  62  83
ATOM     83  C   UNL     1       5.860  -1.130  13.742  1.00  0.00    -0.014 A 
ATOM     84  C   UNL     1       6.262  -2.478  13.700  1.00  0.00     0.010 A 
ATOM     85  C   UNL     1       5.738  -0.495  14.992  1.00  0.00     0.010 A 
ATOM     86  C   UNL     1       6.471  -3.191  14.884  1.00  0.00     0.020 A 
ATOM     87  C   UNL     1       5.982  -1.194  16.177  1.00  0.00     0.020 A 
ATOM     88  C   UNL     1       6.322  -2.546  16.115  1.00  0.00     0.054 A 
BRANCH  88  89
ATOM     89  S   UNL     1       6.591  -3.495  17.637  1.00  0.00     0.124 S 
ATOM     90  O   UNL     1       5.401  -4.340  17.682  1.00  0.00    -0.237 OA
ATOM     91  O   UNL     1       7.846  -4.191  17.363  1.00  0.00    -0.237 OA
ATOM     92  O   UNL     1       6.668  -2.471  18.676  1.00  0.00    -0.744 OA
ENDBRANCH  88  89
ENDBRANCH  62  83
ENDBRANCH  36  37
ENDBRANCH  29  31
ENDBRANCH  28  29
ENDBRANCH  27  28
ENDBRANCH   1  27
TORSDOF 20
