REMARK SMILES Cc1ccc(S(=O)(=O)N2C[C@@H](CC(=O)OCCOCCOC(=O)c3ccc(-c4c5nc(c(-c6ccc(S(=O)(=O)[O-])cc6)c6ccc([nH]6)c(-c6ccc(S(=O)(=O)[O-])cc6)c6nc(c(-c7ccc(S(=O)(=O)[O-])cc7)c7ccc4[nH]7)C=C6)C=C5)cc3)c3ccccc32)c(C)c1
REMARK SMILES IDX 18 1 17 2 16 3 15 4 13 5 14 6 12 7 11 8 9 9 10 10 89 11
REMARK SMILES IDX 84 12 88 13 85 14 87 15 86 16 6 17 7 18 8 19 5 20 1 21 2 22
REMARK SMILES IDX 3 23 92 24 4 25 90 26 91 27 19 28 20 29 21 30 22 31 23 32
REMARK SMILES IDX 24 33 25 34 83 35 26 36 82 37 27 38 28 39 29 40 76 41 30 42
REMARK SMILES IDX 81 43 75 44 77 45 31 46 80 47 74 48 73 49 32 51 62 52 43 53
REMARK SMILES IDX 61 54 44 55 47 56 60 57 78 58 45 59 46 60 59 62 79 63 48 64
REMARK SMILES IDX 33 65 34 66 42 67 35 68 41 69 36 70 37 71 38 72 39 73 40 74
REMARK SMILES IDX 63 75 64 76 72 77 65 78 71 79 66 80 67 81 68 82 69 83 70 84
REMARK SMILES IDX 49 85 50 86 58 87 51 88 57 89 52 90 53 91 54 92 55 93 56 94
REMARK H PARENT 77 50 47 61
REMARK Flexibility Score: inf
ROOT
ATOM      1  O   UNL     1      -2.899 -10.538   0.309  1.00  0.00    -0.374 OA
ENDROOT
BRANCH   1   2
ATOM      2  C   UNL     1      -1.558 -10.396   0.783  1.00  0.00     0.202 C 
BRANCH   2   3
ATOM      3  C   UNL     1      -0.526  -9.993  -0.277  1.00  0.00     0.261 C 
BRANCH   3   4
ATOM      4  O   UNL     1      -0.574  -8.573  -0.529  1.00  0.00    -0.463 OA
BRANCH   4   5
ATOM      5  C   UNL     1      -1.166  -8.143  -1.663  1.00  0.00     0.306 C 
ATOM      6  O   UNL     1      -1.595  -8.866  -2.553  1.00  0.00    -0.252 OA
BRANCH   5   7
ATOM      7  C   UNL     1      -1.239  -6.632  -1.717  1.00  0.00     0.133 C 
BRANCH   7   8
ATOM      8  C   UNL     1      -2.064  -5.938  -0.622  1.00  0.00     0.053 C 
ATOM      9  N   UNL     1      -2.375  -3.631   0.015  1.00  0.00    -0.265 N 
ATOM     10  C   UNL     1      -2.517  -4.535  -1.134  1.00  0.00     0.144 C 
ATOM     11  C   UNL     1      -1.616  -4.252   1.031  1.00  0.00     0.055 A 
ATOM     12  C   UNL     1      -1.385  -5.586   0.686  1.00  0.00    -0.018 A 
ATOM     13  C   UNL     1      -1.131  -3.698   2.206  1.00  0.00     0.027 A 
ATOM     14  C   UNL     1      -0.681  -6.395   1.566  1.00  0.00     0.006 A 
ATOM     15  C   UNL     1      -0.362  -4.498   3.048  1.00  0.00     0.002 A 
ATOM     16  C   UNL     1      -0.141  -5.840   2.729  1.00  0.00     0.000 A 
BRANCH   9  17
ATOM     17  S   UNL     1      -2.752  -2.013  -0.086  1.00  0.00     0.264 S 
ATOM     18  O   UNL     1      -3.363  -1.632   1.172  1.00  0.00    -0.201 OA
ATOM     19  O   UNL     1      -3.443  -1.805  -1.345  1.00  0.00    -0.201 OA
BRANCH  17  20
ATOM     20  C   UNL     1      -1.222  -1.086  -0.201  1.00  0.00     0.090 A 
ATOM     21  C   UNL     1       2.485   1.117  -0.004  1.00  0.00     0.044 C 
ATOM     22  C   UNL     1       1.203   0.343  -0.097  1.00  0.00    -0.051 A 
ATOM     23  C   UNL     1       1.208  -1.042  -0.265  1.00  0.00     0.005 A 
ATOM     24  C   UNL     1      -0.024   1.014  -0.028  1.00  0.00     0.008 A 
ATOM     25  C   UNL     1       0.005  -1.751  -0.331  1.00  0.00     0.023 A 
ATOM     26  C   UNL     1      -1.248   0.319  -0.077  1.00  0.00    -0.030 A 
ATOM     27  C   UNL     1      -2.501   1.152  -0.012  1.00  0.00     0.046 C 
ENDBRANCH  17  20
ENDBRANCH   9  17
ENDBRANCH   7   8
ENDBRANCH   5   7
ENDBRANCH   4   5
ENDBRANCH   3   4
ENDBRANCH   2   3
ENDBRANCH   1   2
BRANCH   1  28
ATOM     28  C   UNL     1      -3.660  -9.338   0.198  1.00  0.00     0.202 C 
BRANCH  28  29
ATOM     29  C   UNL     1      -4.376  -8.871   1.471  1.00  0.00     0.261 C 
BRANCH  29  30
ATOM     30  O   UNL     1      -3.447  -8.483   2.498  1.00  0.00    -0.460 OA
BRANCH  30  31
ATOM     31  C   UNL     1      -3.275  -9.405   3.475  1.00  0.00     0.338 C 
ATOM     32  O   UNL     1      -3.860 -10.473   3.588  1.00  0.00    -0.246 OA
BRANCH  31  33
ATOM     33  C   UNL     1      -2.124  -9.041   4.323  1.00  0.00     0.060 A 
ATOM     34  C   UNL     1      -1.167 -10.034   4.565  1.00  0.00     0.016 A 
ATOM     35  C   UNL     1      -2.005  -7.785   4.922  1.00  0.00     0.016 A 
ATOM     36  C   UNL     1      -0.118  -9.794   5.449  1.00  0.00     0.010 A 
ATOM     37  C   UNL     1      -0.946  -7.545   5.806  1.00  0.00     0.010 A 
ATOM     38  C   UNL     1      -0.017  -8.560   6.105  1.00  0.00    -0.014 A 
BRANCH  38  39
ATOM     39  C   UNL     1       0.969  -8.392   7.205  1.00  0.00     0.031 A 
ATOM     40  C   UNL     1       0.478  -8.370   8.630  1.00  0.00     0.074 A 
ATOM     41  C   UNL     1       2.288  -8.307   6.950  1.00  0.00     0.049 A 
ATOM     42  N   UNL     1       1.159  -8.232   9.739  1.00  0.00    -0.248 NA
ATOM     43  C   UNL     1      -0.973  -8.523   8.832  1.00  0.00     0.031 C 
ATOM     44  C   UNL     1       2.900  -8.359   5.622  1.00  0.00     0.029 A 
ATOM     45  N   UNL     1       3.355  -8.165   7.804  1.00  0.00    -0.354 N 
ATOM     46  C   UNL     1       0.221  -8.266  10.766  1.00  0.00     0.074 A 
ATOM     47  C   UNL     1      -1.079  -8.400  10.146  1.00  0.00     0.031 C 
ATOM     48  C   UNL     1       4.234  -8.255   5.751  1.00  0.00     0.029 A 
ATOM     49  C   UNL     1       4.570  -8.091   7.164  1.00  0.00     0.049 A 
ATOM     50  H   UNL     1       3.258  -8.119   8.782  1.00  0.00     0.167 HD
ATOM     51  C   UNL     1       0.422  -8.203  12.104  1.00  0.00     0.031 A 
ATOM     52  C   UNL     1       5.810  -7.897   7.657  1.00  0.00     0.031 A 
ATOM     53  C   UNL     1       1.714  -8.066  12.722  1.00  0.00     0.049 A 
ATOM     54  C   UNL     1       6.002  -7.756   9.146  1.00  0.00     0.074 A 
ATOM     55  C   UNL     1       2.021  -8.014  14.070  1.00  0.00     0.029 A 
ATOM     56  N   UNL     1       2.914  -7.951  12.036  1.00  0.00    -0.354 N 
ATOM     57  N   UNL     1       5.107  -7.819  10.103  1.00  0.00    -0.248 NA
ATOM     58  C   UNL     1       7.375  -7.529   9.621  1.00  0.00     0.031 C 
ATOM     59  C   UNL     1       3.396  -7.800  14.198  1.00  0.00     0.029 A 
ATOM     60  C   UNL     1       3.958  -7.796  12.932  1.00  0.00     0.049 A 
ATOM     61  H   UNL     1       3.009  -7.976  11.056  1.00  0.00     0.167 HD
ATOM     62  C   UNL     1       5.813  -7.671  11.294  1.00  0.00     0.074 A 
ATOM     63  C   UNL     1       7.209  -7.531  10.937  1.00  0.00     0.031 C 
ATOM     64  C   UNL     1       5.346  -7.656  12.568  1.00  0.00     0.031 A 
BRANCH  51  65
ATOM     65  C   UNL     1      -0.794  -8.246  12.994  1.00  0.00    -0.014 A 
ATOM     66  C   UNL     1      -1.558  -9.419  13.137  1.00  0.00     0.010 A 
ATOM     67  C   UNL     1      -1.153  -7.104  13.733  1.00  0.00     0.010 A 
ATOM     68  C   UNL     1      -2.681  -9.435  13.969  1.00  0.00     0.020 A 
ATOM     69  C   UNL     1      -2.256  -7.125  14.591  1.00  0.00     0.020 A 
ATOM     70  C   UNL     1      -3.023  -8.287  14.691  1.00  0.00     0.054 A 
BRANCH  70  71
ATOM     71  S   UNL     1      -4.471  -8.346  15.782  1.00  0.00     0.124 S 
ATOM     72  O   UNL     1      -5.570  -8.396  14.821  1.00  0.00    -0.237 OA
ATOM     73  O   UNL     1      -4.246  -9.572  16.543  1.00  0.00    -0.237 OA
ATOM     74  O   UNL     1      -4.375  -7.109  16.553  1.00  0.00    -0.744 OA
ENDBRANCH  70  71
ENDBRANCH  51  65
BRANCH  52  75
ATOM     75  C   UNL     1       6.974  -7.804   6.731  1.00  0.00    -0.014 A 
ATOM     76  C   UNL     1       7.970  -8.796   6.720  1.00  0.00     0.010 A 
ATOM     77  C   UNL     1       7.094  -6.710   5.854  1.00  0.00     0.010 A 
ATOM     78  C   UNL     1       9.070  -8.688   5.863  1.00  0.00     0.020 A 
ATOM     79  C   UNL     1       8.174  -6.614   4.973  1.00  0.00     0.020 A 
ATOM     80  C   UNL     1       9.162  -7.600   4.991  1.00  0.00     0.054 A 
BRANCH  80  81
ATOM     81  S   UNL     1      10.569  -7.509   3.848  1.00  0.00     0.124 S 
ATOM     82  O   UNL     1      11.673  -7.197   4.749  1.00  0.00    -0.237 OA
ATOM     83  O   UNL     1      10.585  -8.848   3.264  1.00  0.00    -0.237 OA
ATOM     84  O   UNL     1      10.191  -6.440   2.926  1.00  0.00    -0.744 OA
ENDBRANCH  80  81
ENDBRANCH  52  75
BRANCH  64  85
ATOM     85  C   UNL     1       6.354  -7.526  13.682  1.00  0.00    -0.014 A 
ATOM     86  C   UNL     1       7.046  -6.323  13.911  1.00  0.00     0.010 A 
ATOM     87  C   UNL     1       6.569  -8.612  14.551  1.00  0.00     0.010 A 
ATOM     88  C   UNL     1       7.959  -6.222  14.966  1.00  0.00     0.020 A 
ATOM     89  C   UNL     1       7.455  -8.505  15.626  1.00  0.00     0.020 A 
ATOM     90  C   UNL     1       8.157  -7.314  15.817  1.00  0.00     0.054 A 
BRANCH  90  91
ATOM     91  S   UNL     1       9.316  -7.142  17.202  1.00  0.00     0.124 S 
ATOM     92  O   UNL     1      10.606  -7.127  16.518  1.00  0.00    -0.237 OA
ATOM     93  O   UNL     1       8.909  -5.875  17.804  1.00  0.00    -0.237 OA
ATOM     94  O   UNL     1       9.059  -8.325  18.019  1.00  0.00    -0.744 OA
ENDBRANCH  90  91
ENDBRANCH  64  85
ENDBRANCH  38  39
ENDBRANCH  31  33
ENDBRANCH  30  31
ENDBRANCH  29  30
ENDBRANCH  28  29
ENDBRANCH   1  28
TORSDOF 20
