REMARK SMILES Cc1c(CC(=O)N[C@H](CO)C(=O)OCCOCCOC(=O)c2ccc(-c3c4nc(c(-c5ccc(S(=O)(=O)[O-])cc5)c5ccc([nH]5)c(-c5ccc(S(=O)(=O)[O-])cc5)c5nc(c(-c6ccc(S(=O)(=O)[O-])cc6)c6ccc3[nH]6)C=C5)C=C4)cc2)cc(-c2ccc(S(C)(=O)=O)cc2)n1-c1ccc(F)cc1
REMARK SMILES IDX 15 1 14 2 13 3 11 4 12 5 8 6 7 7 5 8 6 9 4 11 3 12 1 13 2 14
REMARK SMILES IDX 94 15 82 16 83 17 95 18 96 19 101 20 97 21 100 22 98 23
REMARK SMILES IDX 99 24 84 25 85 26 93 27 86 28 92 29 87 30 88 31 89 32 90 33
REMARK SMILES IDX 91 34 9 35 10 36 16 38 17 39 18 40 19 41 20 42 21 43 22 44
REMARK SMILES IDX 23 45 81 46 24 47 80 48 25 49 26 50 27 51 74 52 28 53 79 54
REMARK SMILES IDX 73 55 75 56 29 57 78 58 72 59 71 60 30 62 60 63 41 64 59 65
REMARK SMILES IDX 42 66 45 67 58 68 76 69 43 70 44 71 57 73 77 74 46 75 31 76
REMARK SMILES IDX 32 77 40 78 33 79 39 80 34 81 35 82 36 83 37 84 38 85 61 86
REMARK SMILES IDX 62 87 70 88 63 89 69 90 64 91 65 92 66 93 67 94 68 95 47 96
REMARK SMILES IDX 48 97 56 98 49 99 55 100 50 101 51 102 52 103 53 104 54 105
REMARK H PARENT 7 10 10 37 75 61 45 72
REMARK Flexibility Score: inf
ROOT
ATOM      1  C   UNL     1      -6.935   1.205   4.849  1.00  0.00     0.202 C 
ENDROOT
BRANCH   1   2
ATOM      2  C   UNL     1      -6.005   2.198   4.144  1.00  0.00     0.261 C 
BRANCH   2   3
ATOM      3  O   UNL     1      -4.885   1.585   3.429  1.00  0.00    -0.462 OA
BRANCH   3   4
ATOM      4  C   UNL     1      -3.695   2.245   3.398  1.00  0.00     0.331 C 
ATOM      5  O   UNL     1      -3.453   3.201   4.129  1.00  0.00    -0.250 OA
BRANCH   4   6
ATOM      6  C   UNL     1      -2.778   1.898   2.178  1.00  0.00     0.218 C 
BRANCH   6   7
ATOM      7  N   UNL     1      -3.097   2.682   0.979  1.00  0.00    -0.341 N 
ATOM      8  C   UNL     1      -4.190   2.558   0.173  1.00  0.00     0.225 C 
ATOM      9  O   UNL     1      -4.159   3.096  -0.935  1.00  0.00    -0.275 OA
ATOM     10  H   UNL     1      -2.447   3.377   0.727  1.00  0.00     0.164 HD
BRANCH   8  11
ATOM     11  C   UNL     1      -5.436   1.887   0.705  1.00  0.00     0.137 C 
BRANCH  11  12
ATOM     12  C   UNL     1      -5.576   0.379   0.530  1.00  0.00    -0.017 A 
ATOM     13  C   UNL     1      -7.019   0.750  -1.578  1.00  0.00     0.065 C 
ATOM     14  C   UNL     1      -6.338  -0.090  -0.497  1.00  0.00     0.024 A 
ATOM     15  N   UNL     1      -6.435  -1.483  -0.428  1.00  0.00    -0.314 N 
ATOM     16  C   UNL     1      -5.170  -0.836   1.258  1.00  0.00     0.033 A 
ATOM     17  C   UNL     1      -5.683  -2.081   0.756  1.00  0.00     0.053 A 
BRANCH  15  18
ATOM     18  C   UNL     1      -7.105  -2.029  -1.556  1.00  0.00     0.046 A 
ATOM     19  C   UNL     1      -8.502  -1.841  -1.713  1.00  0.00     0.029 A 
ATOM     20  C   UNL     1      -6.339  -2.513  -2.609  1.00  0.00     0.029 A 
ATOM     21  C   UNL     1      -9.159  -2.407  -2.794  1.00  0.00     0.041 A 
ATOM     22  C   UNL     1      -7.001  -3.018  -3.725  1.00  0.00     0.041 A 
ATOM     23  C   UNL     1      -8.397  -3.009  -3.782  1.00  0.00     0.123 A 
ATOM     24  F   UNL     1      -9.012  -3.585  -4.819  1.00  0.00    -0.207 F 
ENDBRANCH  15  18
BRANCH  17  25
ATOM     25  C   UNL     1      -5.863  -3.573   1.736  1.00  0.00    -0.001 A 
ATOM     26  C   UNL     1      -4.976  -4.644   1.912  1.00  0.00     0.011 A 
ATOM     27  C   UNL     1      -6.983  -3.877   2.643  1.00  0.00     0.011 A 
ATOM     28  C   UNL     1      -5.267  -5.799   2.842  1.00  0.00     0.021 A 
ATOM     29  C   UNL     1      -7.188  -4.780   3.665  1.00  0.00     0.021 A 
ATOM     30  C   UNL     1      -6.372  -5.829   3.720  1.00  0.00     0.067 A 
BRANCH  30  31
ATOM     31  S   UNL     1      -7.069  -7.063   4.810  1.00  0.00     0.175 S 
ATOM     32  C   UNL     1      -8.685  -7.335   4.002  1.00  0.00     0.163 C 
ATOM     33  O   UNL     1      -6.166  -8.169   4.835  1.00  0.00    -0.224 OA
ATOM     34  O   UNL     1      -7.374  -6.343   6.060  1.00  0.00    -0.224 OA
ENDBRANCH  30  31
ENDBRANCH  17  25
ENDBRANCH  11  12
ENDBRANCH   8  11
ENDBRANCH   6   7
BRANCH   6  35
ATOM     35  C   UNL     1      -2.404   0.468   1.776  1.00  0.00     0.193 C 
BRANCH  35  36
ATOM     36  O   UNL     1      -1.113   0.452   1.140  1.00  0.00    -0.394 OA
ATOM     37  H   UNL     1      -1.139   1.004   0.343  1.00  0.00     0.210 HD
ENDBRANCH  35  36
ENDBRANCH   6  35
ENDBRANCH   4   6
ENDBRANCH   3   4
ENDBRANCH   2   3
ENDBRANCH   1   2
BRANCH   1  38
ATOM     38  O   UNL     1      -6.250   0.156   5.484  1.00  0.00    -0.374 OA
BRANCH  38  39
ATOM     39  C   UNL     1      -5.783  -0.789   4.540  1.00  0.00     0.202 C 
BRANCH  39  40
ATOM     40  C   UNL     1      -6.851  -1.611   3.702  1.00  0.00     0.261 C 
BRANCH  40  41
ATOM     41  O   UNL     1      -7.668  -1.516   2.171  1.00  0.00    -0.460 OA
BRANCH  41  42
ATOM     42  C   UNL     1      -8.453  -2.565   1.153  1.00  0.00     0.338 C 
ATOM     43  O   UNL     1      -9.658  -2.258   1.108  1.00  0.00    -0.246 OA
BRANCH  42  44
ATOM     44  C   UNL     1      -8.062  -4.070   0.119  1.00  0.00     0.060 A 
ATOM     45  C   UNL     1      -9.111  -4.875  -0.288  1.00  0.00     0.016 A 
ATOM     46  C   UNL     1      -6.933  -4.644  -0.664  1.00  0.00     0.016 A 
ATOM     47  C   UNL     1      -9.037  -5.946  -1.415  1.00  0.00     0.010 A 
ATOM     48  C   UNL     1      -6.888  -5.724  -1.872  1.00  0.00     0.010 A 
ATOM     49  C   UNL     1      -7.998  -6.397  -2.375  1.00  0.00    -0.014 A 
BRANCH  49  50
ATOM     50  C   UNL     1      -8.374  -7.351  -3.869  1.00  0.00     0.031 A 
ATOM     51  C   UNL     1      -9.826  -7.234  -3.852  1.00  0.00     0.074 A 
ATOM     52  C   UNL     1      -8.165  -8.370  -4.926  1.00  0.00     0.049 A 
ATOM     53  N   UNL     1     -10.309  -8.034  -2.974  1.00  0.00    -0.248 NA
ATOM     54  C   UNL     1     -10.707  -6.159  -4.262  1.00  0.00     0.031 C 
ATOM     55  C   UNL     1      -7.080  -9.378  -5.131  1.00  0.00     0.029 A 
ATOM     56  N   UNL     1      -9.045  -8.882  -6.070  1.00  0.00    -0.354 N 
ATOM     57  C   UNL     1     -11.517  -7.559  -2.584  1.00  0.00     0.074 A 
ATOM     58  C   UNL     1     -11.759  -6.414  -3.461  1.00  0.00     0.031 C 
ATOM     59  C   UNL     1      -7.230 -10.167  -6.260  1.00  0.00     0.029 A 
ATOM     60  C   UNL     1      -8.466  -9.894  -7.027  1.00  0.00     0.049 A 
ATOM     61  H   UNL     1      -9.969  -8.559  -6.178  1.00  0.00     0.167 HD
ATOM     62  C   UNL     1     -12.248  -8.520  -1.971  1.00  0.00     0.031 A 
ATOM     63  C   UNL     1      -8.990 -10.569  -8.200  1.00  0.00     0.031 A 
ATOM     64  C   UNL     1     -12.881  -9.254  -3.045  1.00  0.00     0.049 A 
ATOM     65  C   UNL     1     -10.298 -11.048  -7.725  1.00  0.00     0.074 A 
ATOM     66  C   UNL     1     -13.460  -8.787  -4.215  1.00  0.00     0.029 A 
ATOM     67  N   UNL     1     -12.447 -10.538  -3.293  1.00  0.00    -0.354 N 
ATOM     68  N   UNL     1     -10.389 -12.082  -6.946  1.00  0.00    -0.248 NA
ATOM     69  C   UNL     1     -11.556 -10.576  -8.287  1.00  0.00     0.031 C 
ATOM     70  C   UNL     1     -12.948  -9.616  -5.227  1.00  0.00     0.029 A 
ATOM     71  C   UNL     1     -12.461 -10.781  -4.651  1.00  0.00     0.049 A 
ATOM     72  H   UNL     1     -12.168 -11.185  -2.605  1.00  0.00     0.167 HD
ATOM     73  C   UNL     1     -11.679 -12.037  -6.510  1.00  0.00     0.074 A 
ATOM     74  C   UNL     1     -12.396 -11.284  -7.529  1.00  0.00     0.031 C 
ATOM     75  C   UNL     1     -11.809 -11.964  -5.162  1.00  0.00     0.031 A 
BRANCH  62  76
ATOM     76  C   UNL     1     -11.400  -9.180  -0.838  1.00  0.00    -0.014 A 
ATOM     77  C   UNL     1     -11.704  -8.917   0.507  1.00  0.00     0.010 A 
ATOM     78  C   UNL     1     -10.195  -9.902  -1.085  1.00  0.00     0.010 A 
ATOM     79  C   UNL     1     -10.870  -9.391   1.546  1.00  0.00     0.020 A 
ATOM     80  C   UNL     1      -9.332 -10.319  -0.067  1.00  0.00     0.020 A 
ATOM     81  C   UNL     1      -9.691 -10.093   1.250  1.00  0.00     0.054 A 
BRANCH  81  82
ATOM     82  S   UNL     1      -8.682 -10.825   2.576  1.00  0.00     0.124 S 
ATOM     83  O   UNL     1      -7.958  -9.667   3.077  1.00  0.00    -0.237 OA
ATOM     84  O   UNL     1      -9.698 -11.359   3.479  1.00  0.00    -0.237 OA
ATOM     85  O   UNL     1      -7.844 -11.800   1.894  1.00  0.00    -0.744 OA
ENDBRANCH  81  82
ENDBRANCH  62  76
BRANCH  63  86
ATOM     86  C   UNL     1      -8.819 -11.479  -9.629  1.00  0.00    -0.014 A 
ATOM     87  C   UNL     1      -9.755 -12.549  -9.986  1.00  0.00     0.010 A 
ATOM     88  C   UNL     1      -8.152 -11.006 -10.782  1.00  0.00     0.010 A 
ATOM     89  C   UNL     1     -10.106 -12.966 -11.322  1.00  0.00     0.020 A 
ATOM     90  C   UNL     1      -8.471 -11.449 -12.139  1.00  0.00     0.020 A 
ATOM     91  C   UNL     1      -9.485 -12.377 -12.408  1.00  0.00     0.054 A 
BRANCH  91  92
ATOM     92  S   UNL     1     -10.110 -12.707 -14.125  1.00  0.00     0.124 S 
ATOM     93  O   UNL     1      -9.816 -14.122 -14.333  1.00  0.00    -0.237 OA
ATOM     94  O   UNL     1     -11.532 -12.379 -14.025  1.00  0.00    -0.237 OA
ATOM     95  O   UNL     1      -9.335 -11.789 -14.958  1.00  0.00    -0.744 OA
ENDBRANCH  91  92
ENDBRANCH  63  86
BRANCH  75  96
ATOM     96  C   UNL     1     -11.088 -13.009  -4.327  1.00  0.00    -0.014 A 
ATOM     97  C   UNL     1      -9.803 -13.539  -4.597  1.00  0.00     0.010 A 
ATOM     98  C   UNL     1     -11.791 -13.564  -3.245  1.00  0.00     0.010 A 
ATOM     99  C   UNL     1      -9.290 -14.629  -3.882  1.00  0.00     0.020 A 
ATOM    100  C   UNL     1     -11.266 -14.619  -2.493  1.00  0.00     0.020 A 
ATOM    101  C   UNL     1     -10.040 -15.178  -2.846  1.00  0.00     0.054 A 
BRANCH 101 102
ATOM    102  S   UNL     1      -9.442 -16.676  -2.022  1.00  0.00     0.124 S 
ATOM    103  O   UNL     1      -9.563 -17.675  -3.083  1.00  0.00    -0.237 OA
ATOM    104  O   UNL     1      -8.075 -16.326  -1.653  1.00  0.00    -0.237 OA
ATOM    105  O   UNL     1     -10.373 -16.854  -0.910  1.00  0.00    -0.744 OA
ENDBRANCH 101 102
ENDBRANCH  75  96
ENDBRANCH  49  50
ENDBRANCH  42  44
ENDBRANCH  41  42
ENDBRANCH  40  41
ENDBRANCH  39  40
ENDBRANCH  38  39
ENDBRANCH   1  38
TORSDOF 25
