REMARK SMILES O=C(C[C@H]1C(=O)NCC[N@@H+]1Cc1ccc(Cl)c(F)c1)OCCOCCOC(=O)c1ccc(-c2c3nc(c(-c4ccc(S(=O)(=O)[O-])cc4)c4ccc([nH]4)c(-c4ccc(S(=O)(=O)[O-])cc4)c4nc(c(-c5ccc(S(=O)(=O)[O-])cc5)c5ccc2[nH]5)C=C4)C=C3)cc1
REMARK SMILES IDX 23 1 22 2 21 3 20 4 2 5 1 6 3 7 4 8 5 9 10 10 6 11 7 12 9 13
REMARK SMILES IDX 8 15 11 17 12 18 13 19 19 20 14 21 17 22 15 23 18 24 16 25
REMARK SMILES IDX 24 26 25 27 26 28 27 29 28 30 29 31 30 32 88 33 31 34 87 35
REMARK SMILES IDX 32 36 33 37 34 38 81 39 35 40 86 41 80 42 82 43 36 44 85 45
REMARK SMILES IDX 79 46 78 47 37 49 67 50 48 51 66 52 49 53 52 54 65 55 83 56
REMARK SMILES IDX 50 57 51 58 64 60 84 61 53 62 38 63 39 64 47 65 40 66 46 67
REMARK SMILES IDX 41 68 42 69 43 70 44 71 45 72 68 73 69 74 77 75 70 76 76 77
REMARK SMILES IDX 71 78 72 79 73 80 74 81 75 82 54 83 55 84 63 85 56 86 62 87
REMARK SMILES IDX 57 88 58 89 59 90 60 91 61 92
REMARK H PARENT 10 14 7 16 82 48 52 59
REMARK Flexibility Score: inf
ROOT
ATOM      1  O   UNL     1       1.623  -0.376  -2.064  1.00  0.00    -0.374 OA
ENDROOT
BRANCH   1   2
ATOM      2  C   UNL     1       1.836   0.587  -1.041  1.00  0.00     0.202 C 
BRANCH   2   3
ATOM      3  C   UNL     1       3.235   0.770  -0.457  1.00  0.00     0.261 C 
BRANCH   3   4
ATOM      4  O   UNL     1       4.304   0.785  -1.409  1.00  0.00    -0.463 OA
BRANCH   4   5
ATOM      5  C   UNL     1       4.910  -0.300  -1.934  1.00  0.00     0.312 C 
ATOM      6  O   UNL     1       5.856  -0.147  -2.708  1.00  0.00    -0.252 OA
BRANCH   5   7
ATOM      7  C   UNL     1       4.367  -1.682  -1.681  1.00  0.00     0.198 C 
BRANCH   7   8
ATOM      8  C   UNL     1       4.493  -2.188  -0.256  1.00  0.00     0.285 C 
ATOM      9  C   UNL     1       4.115  -3.670  -0.273  1.00  0.00     0.279 C 
ATOM     10  N   UNL     1       5.842  -1.919   0.267  1.00  0.00    -0.319 N 
ATOM     11  O   UNL     1       2.954  -4.055  -0.140  1.00  0.00    -0.268 OA
ATOM     12  N   UNL     1       5.100  -4.566  -0.560  1.00  0.00    -0.345 N 
ATOM     13  C   UNL     1       6.866  -2.758  -0.357  1.00  0.00     0.284 C 
ATOM     14  H   UNL     1       6.082  -0.981  -0.053  1.00  0.00     0.349 HD
ATOM     15  C   UNL     1       6.508  -4.244  -0.576  1.00  0.00     0.177 C 
ATOM     16  H   UNL     1       4.835  -5.491  -0.770  1.00  0.00     0.163 HD
BRANCH  10  17
ATOM     17  C   UNL     1       5.936  -1.686   1.708  1.00  0.00     0.299 C 
BRANCH  17  18
ATOM     18  C   UNL     1       5.480  -2.849   2.549  1.00  0.00     0.009 A 
ATOM     19  C   UNL     1       4.162  -2.912   3.030  1.00  0.00     0.011 A 
ATOM     20  C   UNL     1       6.323  -3.951   2.721  1.00  0.00     0.050 A 
ATOM     21  C   UNL     1       3.664  -4.102   3.563  1.00  0.00     0.024 A 
ATOM     22  C   UNL     1       5.813  -5.141   3.221  1.00  0.00     0.142 A 
ATOM     23  C   UNL     1       4.483  -5.229   3.622  1.00  0.00     0.076 A 
ATOM     24  F   UNL     1       6.615  -6.215   3.246  1.00  0.00    -0.205 F 
ATOM     25  Cl  UNL     1       3.828  -6.729   4.152  1.00  0.00    -0.081 Cl
ENDBRANCH  17  18
ENDBRANCH  10  17
ENDBRANCH   7   8
ENDBRANCH   5   7
ENDBRANCH   4   5
ENDBRANCH   3   4
ENDBRANCH   2   3
ENDBRANCH   1   2
BRANCH   1  26
ATOM     26  C   UNL     1       2.034  -0.034  -3.394  1.00  0.00     0.202 C 
BRANCH  26  27
ATOM     27  C   UNL     1       1.083   0.830  -4.221  1.00  0.00     0.261 C 
BRANCH  27  28
ATOM     28  O   UNL     1       1.038   2.170  -3.720  1.00  0.00    -0.460 OA
BRANCH  28  29
ATOM     29  C   UNL     1      -0.013   2.443  -2.912  1.00  0.00     0.338 C 
ATOM     30  O   UNL     1      -0.960   1.716  -2.655  1.00  0.00    -0.246 OA
BRANCH  29  31
ATOM     31  C   UNL     1       0.298   3.677  -2.168  1.00  0.00     0.060 A 
ATOM     32  C   UNL     1       0.045   3.700  -0.786  1.00  0.00     0.016 A 
ATOM     33  C   UNL     1       0.851   4.781  -2.816  1.00  0.00     0.016 A 
ATOM     34  C   UNL     1       0.277   4.860  -0.057  1.00  0.00     0.010 A 
ATOM     35  C   UNL     1       1.069   5.946  -2.091  1.00  0.00     0.010 A 
ATOM     36  C   UNL     1       0.729   6.000  -0.727  1.00  0.00    -0.014 A 
BRANCH  36  37
ATOM     37  C   UNL     1       0.604   7.329  -0.103  1.00  0.00     0.031 A 
ATOM     38  C   UNL     1      -0.581   8.162  -0.497  1.00  0.00     0.074 A 
ATOM     39  C   UNL     1       1.551   7.798   0.722  1.00  0.00     0.049 A 
ATOM     40  N   UNL     1      -0.822   9.422  -0.266  1.00  0.00    -0.248 NA
ATOM     41  C   UNL     1      -1.622   7.480  -1.288  1.00  0.00     0.031 C 
ATOM     42  C   UNL     1       2.711   7.046   1.195  1.00  0.00     0.029 A 
ATOM     43  N   UNL     1       1.698   9.042   1.274  1.00  0.00    -0.354 N 
ATOM     44  C   UNL     1      -2.021   9.695  -0.915  1.00  0.00     0.074 A 
ATOM     45  C   UNL     1      -2.444   8.477  -1.567  1.00  0.00     0.031 C 
ATOM     46  C   UNL     1       3.475   7.859   1.944  1.00  0.00     0.029 A 
ATOM     47  C   UNL     1       2.881   9.195   1.955  1.00  0.00     0.049 A 
ATOM     48  H   UNL     1       1.024   9.755   1.192  1.00  0.00     0.167 HD
ATOM     49  C   UNL     1      -2.699  10.864  -0.967  1.00  0.00     0.031 A 
ATOM     50  C   UNL     1       3.436  10.302   2.483  1.00  0.00     0.031 A 
ATOM     51  C   UNL     1      -2.239  12.067  -0.330  1.00  0.00     0.049 A 
ATOM     52  C   UNL     1       2.697  11.609   2.371  1.00  0.00     0.074 A 
ATOM     53  C   UNL     1      -2.848  13.307  -0.287  1.00  0.00     0.029 A 
ATOM     54  N   UNL     1      -1.043  12.180   0.368  1.00  0.00    -0.354 N 
ATOM     55  N   UNL     1       1.553  11.860   1.777  1.00  0.00    -0.248 NA
ATOM     56  C   UNL     1       3.315  12.779   3.007  1.00  0.00     0.031 C 
ATOM     57  C   UNL     1      -1.988  14.186   0.378  1.00  0.00     0.029 A 
ATOM     58  C   UNL     1      -0.882  13.476   0.823  1.00  0.00     0.049 A 
ATOM     59  H   UNL     1      -0.404  11.446   0.516  1.00  0.00     0.167 HD
ATOM     60  C   UNL     1       1.295  13.208   2.000  1.00  0.00     0.074 A 
ATOM     61  C   UNL     1       2.405  13.718   2.781  1.00  0.00     0.031 C 
ATOM     62  C   UNL     1       0.232  13.954   1.606  1.00  0.00     0.031 A 
BRANCH  49  63
ATOM     63  C   UNL     1      -3.962  10.897  -1.788  1.00  0.00    -0.014 A 
ATOM     64  C   UNL     1      -5.101  10.157  -1.420  1.00  0.00     0.010 A 
ATOM     65  C   UNL     1      -4.003  11.672  -2.961  1.00  0.00     0.010 A 
ATOM     66  C   UNL     1      -6.233  10.143  -2.240  1.00  0.00     0.020 A 
ATOM     67  C   UNL     1      -5.146  11.691  -3.765  1.00  0.00     0.020 A 
ATOM     68  C   UNL     1      -6.245  10.906  -3.412  1.00  0.00     0.054 A 
BRANCH  68  69
ATOM     69  S   UNL     1      -7.721  10.862  -4.463  1.00  0.00     0.124 S 
ATOM     70  O   UNL     1      -7.643   9.521  -5.036  1.00  0.00    -0.237 OA
ATOM     71  O   UNL     1      -8.803  11.072  -3.504  1.00  0.00    -0.237 OA
ATOM     72  O   UNL     1      -7.508  11.956  -5.408  1.00  0.00    -0.744 OA
ENDBRANCH  68  69
ENDBRANCH  49  63
BRANCH  50  73
ATOM     73  C   UNL     1       4.761  10.204   3.151  1.00  0.00    -0.014 A 
ATOM     74  C   UNL     1       4.863  10.298   4.549  1.00  0.00     0.010 A 
ATOM     75  C   UNL     1       5.919   9.939   2.396  1.00  0.00     0.010 A 
ATOM     76  C   UNL     1       6.097  10.122   5.181  1.00  0.00     0.020 A 
ATOM     77  C   UNL     1       7.150   9.736   3.026  1.00  0.00     0.020 A 
ATOM     78  C   UNL     1       7.230   9.829   4.417  1.00  0.00     0.054 A 
BRANCH  78  79
ATOM     79  S   UNL     1       8.797   9.505   5.272  1.00  0.00     0.124 S 
ATOM     80  O   UNL     1       9.149  10.829   5.775  1.00  0.00    -0.237 OA
ATOM     81  O   UNL     1       8.404   8.527   6.283  1.00  0.00    -0.237 OA
ATOM     82  O   UNL     1       9.663   8.984   4.217  1.00  0.00    -0.744 OA
ENDBRANCH  78  79
ENDBRANCH  50  73
BRANCH  62  83
ATOM     83  C   UNL     1       0.175  15.388   2.061  1.00  0.00    -0.014 A 
ATOM     84  C   UNL     1       1.014  16.372   1.510  1.00  0.00     0.010 A 
ATOM     85  C   UNL     1      -0.813  15.768   2.990  1.00  0.00     0.010 A 
ATOM     86  C   UNL     1       0.874  17.709   1.893  1.00  0.00     0.020 A 
ATOM     87  C   UNL     1      -0.976  17.106   3.350  1.00  0.00     0.020 A 
ATOM     88  C   UNL     1      -0.126  18.068   2.804  1.00  0.00     0.054 A 
BRANCH  88  89
ATOM     89  S   UNL     1      -0.336  19.820   3.224  1.00  0.00     0.124 S 
ATOM     90  O   UNL     1       0.848  20.081   4.038  1.00  0.00    -0.237 OA
ATOM     91  O   UNL     1      -0.352  20.462   1.912  1.00  0.00    -0.237 OA
ATOM     92  O   UNL     1      -1.607  19.854   3.944  1.00  0.00    -0.744 OA
ENDBRANCH  88  89
ENDBRANCH  62  83
ENDBRANCH  36  37
ENDBRANCH  29  31
ENDBRANCH  28  29
ENDBRANCH  27  28
ENDBRANCH  26  27
ENDBRANCH   1  26
TORSDOF 20
