REMARK SMILES CS(=O)(=O)c1ccc(N2N=C(C(=O)OCCOCCOC(=O)c3ccc(-c4c5nc(c(-c6ccc(S(=O)(=O)[O-])cc6)c6ccc([nH]6)c(-c6ccc(S(=O)(=O)[O-])cc6)c6nc(c(-c7ccc(S(=O)(=O)[O-])cc7)c7ccc4[nH]7)C=C6)C=C5)cc3)C[C@H]2c2cccs2)cc1
REMARK SMILES IDX 18 1 17 2 16 3 15 4 14 5 12 6 13 7 11 8 9 9 10 10 84 11
REMARK SMILES IDX 83 12 8 13 5 14 6 15 91 16 7 17 90 18 2 19 1 20 3 21 4 22
REMARK SMILES IDX 85 23 86 24 89 25 87 26 88 27 19 28 20 29 21 30 22 31 23 32
REMARK SMILES IDX 24 33 82 34 25 35 81 36 26 37 27 38 28 39 75 40 29 41 80 42
REMARK SMILES IDX 74 43 76 44 30 45 79 46 73 47 72 48 31 50 61 51 42 52 60 53
REMARK SMILES IDX 43 54 46 55 59 56 77 57 44 58 45 59 58 61 78 62 47 63 32 64
REMARK SMILES IDX 33 65 41 66 34 67 40 68 35 69 36 70 37 71 38 72 39 73 62 74
REMARK SMILES IDX 63 75 71 76 64 77 70 78 65 79 66 80 67 81 68 82 69 83 48 84
REMARK SMILES IDX 49 85 57 86 50 87 56 88 51 89 52 90 53 91 54 92 55 93
REMARK H PARENT 76 49 46 60
REMARK Flexibility Score: inf
ROOT
ATOM      1  C   UNL     1       3.989   4.081   8.384  1.00  0.00     0.202 C 
ENDROOT
BRANCH   1   2
ATOM      2  O   UNL     1       5.165   4.673   8.940  1.00  0.00    -0.374 OA
BRANCH   2   3
ATOM      3  C   UNL     1       5.024   5.984   9.497  1.00  0.00     0.202 C 
BRANCH   3   4
ATOM      4  C   UNL     1       5.068   7.109   8.461  1.00  0.00     0.261 C 
BRANCH   4   5
ATOM      5  O   UNL     1       3.890   7.034   7.642  1.00  0.00    -0.459 OA
BRANCH   5   6
ATOM      6  C   UNL     1       4.113   7.012   6.316  1.00  0.00     0.354 C 
ATOM      7  O   UNL     1       5.136   7.287   5.719  1.00  0.00    -0.245 OA
BRANCH   6   8
ATOM      8  C   UNL     1       2.893   6.457   5.628  1.00  0.00     0.148 C 
ATOM      9  N   UNL     1       1.677   5.440   4.235  1.00  0.00    -0.256 N 
ATOM     10  N   UNL     1       2.962   5.586   4.664  1.00  0.00    -0.169 NA
ATOM     11  C   UNL     1       0.772   6.462   4.782  1.00  0.00     0.154 C 
ATOM     12  C   UNL     1       1.511   6.819   6.080  1.00  0.00     0.099 C 
BRANCH   9  13
ATOM     13  C   UNL     1       1.394   4.580   3.190  1.00  0.00     0.060 A 
ATOM     14  C   UNL     1       0.768   2.789   1.111  1.00  0.00     0.067 A 
ATOM     15  C   UNL     1       1.008   2.300   2.395  1.00  0.00     0.022 A 
ATOM     16  C   UNL     1       0.869   4.157   0.849  1.00  0.00     0.022 A 
ATOM     17  C   UNL     1       1.330   3.198   3.420  1.00  0.00     0.029 A 
ATOM     18  C   UNL     1       1.180   5.040   1.887  1.00  0.00     0.029 A 
BRANCH  14  19
ATOM     19  S   UNL     1       0.342   1.705  -0.229  1.00  0.00     0.175 S 
ATOM     20  C   UNL     1       1.142   0.159   0.090  1.00  0.00     0.163 C 
ATOM     21  O   UNL     1       0.951   2.250  -1.430  1.00  0.00    -0.224 OA
ATOM     22  O   UNL     1      -1.091   1.493  -0.151  1.00  0.00    -0.224 OA
ENDBRANCH  14  19
ENDBRANCH   9  13
BRANCH  11  23
ATOM     23  C   UNL     1       0.491   7.668   3.898  1.00  0.00     0.030 A 
ATOM     24  C   UNL     1      -0.566   7.829   3.018  1.00  0.00     0.017 A 
ATOM     25  S   UNL     1       1.527   9.042   3.855  1.00  0.00    -0.147 S 
ATOM     26  C   UNL     1      -0.530   9.079   2.334  1.00  0.00     0.012 A 
ATOM     27  C   UNL     1       0.540   9.849   2.724  1.00  0.00     0.065 A 
ENDBRANCH  11  23
ENDBRANCH   6   8
ENDBRANCH   5   6
ENDBRANCH   4   5
ENDBRANCH   3   4
ENDBRANCH   2   3
ENDBRANCH   1   2
BRANCH   1  28
ATOM     28  C   UNL     1       3.080   3.368   9.390  1.00  0.00     0.261 C 
BRANCH  28  29
ATOM     29  O   UNL     1       2.527   4.289  10.347  1.00  0.00    -0.460 OA
BRANCH  29  30
ATOM     30  C   UNL     1       3.039   4.168  11.597  1.00  0.00     0.338 C 
ATOM     31  O   UNL     1       3.812   3.309  11.990  1.00  0.00    -0.246 OA
BRANCH  30  32
ATOM     32  C   UNL     1       2.662   5.330  12.429  1.00  0.00     0.060 A 
ATOM     33  C   UNL     1       3.667   5.886  13.229  1.00  0.00     0.016 A 
ATOM     34  C   UNL     1       1.357   5.827  12.489  1.00  0.00     0.016 A 
ATOM     35  C   UNL     1       3.358   6.892  14.140  1.00  0.00     0.010 A 
ATOM     36  C   UNL     1       1.047   6.840  13.407  1.00  0.00     0.010 A 
ATOM     37  C   UNL     1       2.038   7.346  14.266  1.00  0.00    -0.014 A 
BRANCH  37  38
ATOM     38  C   UNL     1       1.706   8.246  15.397  1.00  0.00     0.031 A 
ATOM     39  C   UNL     1       1.141   7.662  16.663  1.00  0.00     0.074 A 
ATOM     40  C   UNL     1       1.976   9.562  15.328  1.00  0.00     0.049 A 
ATOM     41  N   UNL     1       0.925   8.243  17.816  1.00  0.00    -0.248 NA
ATOM     42  C   UNL     1       0.770   6.239  16.623  1.00  0.00     0.031 C 
ATOM     43  C   UNL     1       2.517  10.254  14.160  1.00  0.00     0.029 A 
ATOM     44  N   UNL     1       1.837  10.547  16.273  1.00  0.00    -0.354 N 
ATOM     45  C   UNL     1       0.400   7.256  18.642  1.00  0.00     0.074 A 
ATOM     46  C   UNL     1       0.294   6.052  17.846  1.00  0.00     0.031 C 
ATOM     47  C   UNL     1       2.665  11.556  14.457  1.00  0.00     0.029 A 
ATOM     48  C   UNL     1       2.230  11.787  15.834  1.00  0.00     0.049 A 
ATOM     49  H   UNL     1       1.488  10.381  17.178  1.00  0.00     0.167 HD
ATOM     50  C   UNL     1       0.047   7.339  19.948  1.00  0.00     0.031 A 
ATOM     51  C   UNL     1       2.248  12.975  16.471  1.00  0.00     0.031 A 
ATOM     52  C   UNL     1       0.131   8.537  20.737  1.00  0.00     0.049 A 
ATOM     53  C   UNL     1       1.853  13.050  17.919  1.00  0.00     0.074 A 
ATOM     54  C   UNL     1      -0.169   8.711  22.078  1.00  0.00     0.029 A 
ATOM     55  N   UNL     1       0.532   9.774  20.255  1.00  0.00    -0.354 N 
ATOM     56  N   UNL     1       1.433  12.089  18.709  1.00  0.00    -0.248 NA
ATOM     57  C   UNL     1       1.961  14.363  18.570  1.00  0.00     0.031 C 
ATOM     58  C   UNL     1       0.010  10.063  22.394  1.00  0.00     0.029 A 
ATOM     59  C   UNL     1       0.465  10.722  21.263  1.00  0.00     0.049 A 
ATOM     60  H   UNL     1       0.823   9.952  19.331  1.00  0.00     0.167 HD
ATOM     61  C   UNL     1       1.245  12.678  19.954  1.00  0.00     0.074 A 
ATOM     62  C   UNL     1       1.609  14.074  19.816  1.00  0.00     0.031 C 
ATOM     63  C   UNL     1       0.814  12.111  21.110  1.00  0.00     0.031 A 
BRANCH  50  64
ATOM     64  C   UNL     1      -0.496   6.088  20.585  1.00  0.00    -0.014 A 
ATOM     65  C   UNL     1       0.346   5.002  20.887  1.00  0.00     0.010 A 
ATOM     66  C   UNL     1      -1.869   5.993  20.872  1.00  0.00     0.010 A 
ATOM     67  C   UNL     1      -0.186   3.820  21.410  1.00  0.00     0.020 A 
ATOM     68  C   UNL     1      -2.401   4.821  21.416  1.00  0.00     0.020 A 
ATOM     69  C   UNL     1      -1.559   3.733  21.657  1.00  0.00     0.054 A 
BRANCH  69  70
ATOM     70  S   UNL     1      -2.235   2.181  22.310  1.00  0.00     0.124 S 
ATOM     71  O   UNL     1      -2.281   1.347  21.111  1.00  0.00    -0.237 OA
ATOM     72  O   UNL     1      -1.244   1.790  23.309  1.00  0.00    -0.237 OA
ATOM     73  O   UNL     1      -3.536   2.571  22.848  1.00  0.00    -0.744 OA
ENDBRANCH  69  70
ENDBRANCH  50  64
BRANCH  51  74
ATOM     74  C   UNL     1       2.679  14.187  15.727  1.00  0.00    -0.014 A 
ATOM     75  C   UNL     1       3.951  14.746  15.932  1.00  0.00     0.010 A 
ATOM     76  C   UNL     1       1.827  14.752  14.760  1.00  0.00     0.010 A 
ATOM     77  C   UNL     1       4.368  15.846  15.178  1.00  0.00     0.020 A 
ATOM     78  C   UNL     1       2.248  15.840  13.991  1.00  0.00     0.020 A 
ATOM     79  C   UNL     1       3.517  16.381  14.206  1.00  0.00     0.054 A 
BRANCH  79  80
ATOM     80  S   UNL     1       4.114  17.741  13.163  1.00  0.00     0.124 S 
ATOM     81  O   UNL     1       3.971  18.890  14.050  1.00  0.00    -0.237 OA
ATOM     82  O   UNL     1       5.486  17.335  12.867  1.00  0.00    -0.237 OA
ATOM     83  O   UNL     1       3.206  17.713  12.018  1.00  0.00    -0.744 OA
ENDBRANCH  79  80
ENDBRANCH  51  74
BRANCH  63  84
ATOM     84  C   UNL     1       0.726  12.999  22.322  1.00  0.00    -0.014 A 
ATOM     85  C   UNL     1      -0.298  13.954  22.451  1.00  0.00     0.010 A 
ATOM     86  C   UNL     1       1.662  12.853  23.361  1.00  0.00     0.010 A 
ATOM     87  C   UNL     1      -0.362  14.774  23.581  1.00  0.00     0.020 A 
ATOM     88  C   UNL     1       1.589  13.656  24.503  1.00  0.00     0.020 A 
ATOM     89  C   UNL     1       0.588  14.625  24.597  1.00  0.00     0.054 A 
BRANCH  89  90
ATOM     90  S   UNL     1       0.477  15.684  26.066  1.00  0.00     0.124 S 
ATOM     91  O   UNL     1       1.058  16.934  25.582  1.00  0.00    -0.237 OA
ATOM     92  O   UNL     1      -0.958  15.721  26.333  1.00  0.00    -0.237 OA
ATOM     93  O   UNL     1       1.272  14.972  27.064  1.00  0.00    -0.744 OA
ENDBRANCH  89  90
ENDBRANCH  63  84
ENDBRANCH  37  38
ENDBRANCH  30  32
ENDBRANCH  29  30
ENDBRANCH  28  29
ENDBRANCH   1  28
TORSDOF 20
