REMARK SMILES CC[C@@](C)(NC(=O)Nc1ccccc1C#N)C(=O)OCCOCCOC(=O)c1ccc(-c2c3nc(c(-c4ccc(S(=O)(=O)[O-])cc4)c4ccc([nH]4)c(-c4ccc(S(=O)(=O)[O-])cc4)c4nc(c(-c5ccc(S(=O)(=O)[O-])cc5)c5ccc2[nH]5)C=C4)C=C3)cc1
REMARK SMILES IDX 22 1 21 2 20 3 19 4 17 5 18 6 3 7 4 8 2 9 1 10 5 11 6 12
REMARK SMILES IDX 7 14 8 15 9 17 10 18 14 19 11 20 13 21 12 22 15 23 16 24
REMARK SMILES IDX 23 25 24 26 25 27 26 28 27 29 28 30 29 31 87 32 30 33 86 34
REMARK SMILES IDX 31 35 32 36 33 37 80 38 34 39 85 40 79 41 81 42 35 43 84 44
REMARK SMILES IDX 78 45 77 46 36 48 66 49 47 50 65 51 48 52 51 53 64 54 82 55
REMARK SMILES IDX 49 56 50 57 63 59 83 60 52 61 37 62 38 63 46 64 39 65 45 66
REMARK SMILES IDX 40 67 41 68 42 69 43 70 44 71 67 72 68 73 76 74 69 75 75 76
REMARK SMILES IDX 70 77 71 78 72 79 73 80 74 81 53 82 54 83 62 84 55 85 61 86
REMARK SMILES IDX 56 87 57 88 58 89 59 90 60 91
REMARK H PARENT 5 13 8 16 81 47 51 58
REMARK Flexibility Score: inf
ROOT
ATOM      1  O   UNL     1       4.398   3.099   1.930  1.00  0.00    -0.374 OA
ENDROOT
BRANCH   1   2
ATOM      2  C   UNL     1       4.602   4.093   0.912  1.00  0.00     0.202 C 
BRANCH   2   3
ATOM      3  C   UNL     1       3.322   4.847   0.188  1.00  0.00     0.261 C 
BRANCH   3   4
ATOM      4  O   UNL     1       2.257   4.180  -0.841  1.00  0.00    -0.462 OA
BRANCH   4   5
ATOM      5  C   UNL     1       1.224   3.309  -1.218  1.00  0.00     0.331 C 
ATOM      6  O   UNL     1       1.100   2.992  -2.408  1.00  0.00    -0.249 OA
BRANCH   5   7
ATOM      7  C   UNL     1       0.171   2.733  -0.225  1.00  0.00     0.136 C 
ATOM      8  C   UNL     1      -1.193   3.131  -0.813  1.00  0.00     0.047 C 
BRANCH   7   9
ATOM      9  C   UNL     1      -0.045   1.272   0.349  1.00  0.00     0.037 C 
ATOM     10  C   UNL     1       0.405   0.037  -0.390  1.00  0.00     0.007 C 
ENDBRANCH   7   9
BRANCH   7  11
ATOM     11  N   UNL     1       0.597   3.472   0.886  1.00  0.00    -0.322 N 
ATOM     12  C   UNL     1       1.722   3.058   1.484  1.00  0.00     0.320 C 
ATOM     13  H   UNL     1       0.095   4.255   1.211  1.00  0.00     0.166 HD
ATOM     14  O   UNL     1       1.845   3.460   2.640  1.00  0.00    -0.248 OA
ATOM     15  N   UNL     1       2.611   2.150   0.937  1.00  0.00    -0.307 N 
ATOM     16  H   UNL     1       2.886   1.609   1.713  1.00  0.00     0.171 HD
BRANCH  15  17
ATOM     17  C   UNL     1       3.384   1.543  -0.194  1.00  0.00     0.060 A 
ATOM     18  C   UNL     1       4.090   0.428   0.332  1.00  0.00     0.027 A 
ATOM     19  C   UNL     1       3.760   1.841  -1.561  1.00  0.00     0.076 A 
ATOM     20  C   UNL     1       4.982  -0.370  -0.396  1.00  0.00     0.002 A 
ATOM     21  C   UNL     1       4.541   0.924  -2.322  1.00  0.00     0.021 A 
ATOM     22  C   UNL     1       5.168  -0.156  -1.742  1.00  0.00     0.002 A 
BRANCH  19  23
ATOM     23  C   UNL     1       3.790   3.072  -2.330  1.00  0.00     0.101 C 
ATOM     24  N   UNL     1       3.963   3.996  -3.026  1.00  0.00    -0.192 NA
ENDBRANCH  19  23
ENDBRANCH  15  17
ENDBRANCH   7  11
ENDBRANCH   5   7
ENDBRANCH   4   5
ENDBRANCH   3   4
ENDBRANCH   2   3
ENDBRANCH   1   2
BRANCH   1  25
ATOM     25  C   UNL     1       4.734   3.114   3.313  1.00  0.00     0.202 C 
BRANCH  25  26
ATOM     26  C   UNL     1       4.093   4.154   4.241  1.00  0.00     0.261 C 
BRANCH  26  27
ATOM     27  O   UNL     1       4.215   5.465   3.714  1.00  0.00    -0.460 OA
BRANCH  27  28
ATOM     28  C   UNL     1       5.498   5.878   3.649  1.00  0.00     0.338 C 
ATOM     29  O   UNL     1       6.468   5.346   4.158  1.00  0.00    -0.246 OA
BRANCH  28  30
ATOM     30  C   UNL     1       5.564   6.924   2.619  1.00  0.00     0.060 A 
ATOM     31  C   UNL     1       6.689   6.922   1.784  1.00  0.00     0.016 A 
ATOM     32  C   UNL     1       4.516   7.828   2.425  1.00  0.00     0.016 A 
ATOM     33  C   UNL     1       6.816   7.892   0.804  1.00  0.00     0.010 A 
ATOM     34  C   UNL     1       4.652   8.815   1.459  1.00  0.00     0.010 A 
ATOM     35  C   UNL     1       5.836   8.884   0.704  1.00  0.00    -0.014 A 
BRANCH  35  36
ATOM     36  C   UNL     1       6.209  10.174   0.097  1.00  0.00     0.031 A 
ATOM     37  C   UNL     1       6.736  11.230   1.028  1.00  0.00     0.074 A 
ATOM     38  C   UNL     1       6.107  10.391  -1.221  1.00  0.00     0.049 A 
ATOM     39  N   UNL     1       7.058  12.469   0.778  1.00  0.00    -0.248 NA
ATOM     40  C   UNL     1       6.918  10.831   2.437  1.00  0.00     0.031 C 
ATOM     41  C   UNL     1       5.681   9.410  -2.216  1.00  0.00     0.029 A 
ATOM     42  N   UNL     1       6.353  11.530  -1.941  1.00  0.00    -0.354 N 
ATOM     43  C   UNL     1       7.458  13.001   1.998  1.00  0.00     0.074 A 
ATOM     44  C   UNL     1       7.313  11.963   2.991  1.00  0.00     0.031 C 
ATOM     45  C   UNL     1       5.678  10.000  -3.425  1.00  0.00     0.029 A 
ATOM     46  C   UNL     1       6.056  11.405  -3.275  1.00  0.00     0.049 A 
ATOM     47  H   UNL     1       6.707  12.357  -1.541  1.00  0.00     0.167 HD
ATOM     48  C   UNL     1       7.905  14.248   2.267  1.00  0.00     0.031 A 
ATOM     49  C   UNL     1       6.057  12.336  -4.249  1.00  0.00     0.031 A 
ATOM     50  C   UNL     1       8.013  15.278   1.274  1.00  0.00     0.049 A 
ATOM     51  C   UNL     1       6.465  13.748  -3.912  1.00  0.00     0.074 A 
ATOM     52  C   UNL     1       8.450  16.579   1.431  1.00  0.00     0.029 A 
ATOM     53  N   UNL     1       7.664  15.126  -0.061  1.00  0.00    -0.354 N 
ATOM     54  N   UNL     1       6.846  14.247  -2.759  1.00  0.00    -0.248 NA
ATOM     55  C   UNL     1       6.448  14.724  -5.011  1.00  0.00     0.031 C 
ATOM     56  C   UNL     1       8.295  17.237   0.208  1.00  0.00     0.029 A 
ATOM     57  C   UNL     1       7.847  16.321  -0.733  1.00  0.00     0.049 A 
ATOM     58  H   UNL     1       7.336  14.293  -0.468  1.00  0.00     0.167 HD
ATOM     59  C   UNL     1       7.154  15.582  -3.002  1.00  0.00     0.074 A 
ATOM     60  C   UNL     1       6.913  15.813  -4.412  1.00  0.00     0.031 C 
ATOM     61  C   UNL     1       7.608  16.528  -2.141  1.00  0.00     0.031 A 
BRANCH  48  62
ATOM     62  C   UNL     1       8.232  14.568   3.700  1.00  0.00    -0.014 A 
ATOM     63  C   UNL     1       9.318  13.966   4.364  1.00  0.00     0.010 A 
ATOM     64  C   UNL     1       7.426  15.484   4.400  1.00  0.00     0.010 A 
ATOM     65  C   UNL     1       9.557  14.234   5.714  1.00  0.00     0.020 A 
ATOM     66  C   UNL     1       7.685  15.783   5.739  1.00  0.00     0.020 A 
ATOM     67  C   UNL     1       8.736  15.139   6.394  1.00  0.00     0.054 A 
BRANCH  67  68
ATOM     68  S   UNL     1       9.069  15.470   8.145  1.00  0.00     0.124 S 
ATOM     69  O   UNL     1       8.669  14.212   8.771  1.00  0.00    -0.237 OA
ATOM     70  O   UNL     1      10.504  15.744   8.149  1.00  0.00    -0.237 OA
ATOM     71  O   UNL     1       8.216  16.616   8.451  1.00  0.00    -0.744 OA
ENDBRANCH  67  68
ENDBRANCH  48  62
BRANCH  49  72
ATOM     72  C   UNL     1       5.636  11.958  -5.625  1.00  0.00    -0.014 A 
ATOM     73  C   UNL     1       6.566  11.927  -6.678  1.00  0.00     0.010 A 
ATOM     74  C   UNL     1       4.300  11.596  -5.881  1.00  0.00     0.010 A 
ATOM     75  C   UNL     1       6.167  11.544  -7.963  1.00  0.00     0.020 A 
ATOM     76  C   UNL     1       3.904  11.184  -7.156  1.00  0.00     0.020 A 
ATOM     77  C   UNL     1       4.840  11.166  -8.191  1.00  0.00     0.054 A 
BRANCH  77  78
ATOM     78  S   UNL     1       4.367  10.604  -9.850  1.00  0.00     0.124 S 
ATOM     79  O   UNL     1       4.458  11.837 -10.627  1.00  0.00    -0.237 OA
ATOM     80  O   UNL     1       5.385   9.597 -10.141  1.00  0.00    -0.237 OA
ATOM     81  O   UNL     1       3.016  10.081  -9.665  1.00  0.00    -0.744 OA
ENDBRANCH  77  78
ENDBRANCH  49  72
BRANCH  61  82
ATOM     82  C   UNL     1       7.943  17.889  -2.696  1.00  0.00    -0.014 A 
ATOM     83  C   UNL     1       6.945  18.787  -3.111  1.00  0.00     0.010 A 
ATOM     84  C   UNL     1       9.287  18.310  -2.702  1.00  0.00     0.010 A 
ATOM     85  C   UNL     1       7.288  20.074  -3.539  1.00  0.00     0.020 A 
ATOM     86  C   UNL     1       9.631  19.604  -3.096  1.00  0.00     0.020 A 
ATOM     87  C   UNL     1       8.628  20.476  -3.522  1.00  0.00     0.054 A 
BRANCH  87  88
ATOM     88  S   UNL     1       9.038  22.173  -4.013  1.00  0.00     0.124 S 
ATOM     89  O   UNL     1       8.786  22.143  -5.451  1.00  0.00    -0.237 OA
ATOM     90  O   UNL     1       8.099  22.968  -3.226  1.00  0.00    -0.237 OA
ATOM     91  O   UNL     1      10.441  22.317  -3.631  1.00  0.00    -0.744 OA
ENDBRANCH  87  88
ENDBRANCH  61  82
ENDBRANCH  35  36
ENDBRANCH  28  30
ENDBRANCH  27  28
ENDBRANCH  26  27
ENDBRANCH  25  26
ENDBRANCH   1  25
TORSDOF 21
