REMARK SMILES CC1(C)CCC[C@@]1(NC(=O)OCc1ccccc1)C(=O)OCCOCCOC(=O)c1ccc(-c2c3nc(c(-c4ccc(S(=O)(=O)[O-])cc4)c4ccc([nH]4)c(-c4ccc(S(=O)(=O)[O-])cc4)c4nc(c(-c5ccc(S(=O)(=O)[O-])cc5)c5ccc2[nH]5)C=C4)C=C3)cc1
REMARK SMILES IDX 23 1 22 2 21 3 19 4 20 5 7 6 1 7 2 8 3 9 4 10 5 11 6 12 8 13
REMARK SMILES IDX 9 14 10 16 11 17 12 18 13 19 14 20 18 21 15 22 17 23 16 24
REMARK SMILES IDX 24 25 25 26 26 27 27 28 28 29 29 30 30 31 31 32 89 33 32 34
REMARK SMILES IDX 88 35 33 36 34 37 35 38 82 39 36 40 87 41 81 42 83 43 37 44
REMARK SMILES IDX 86 45 80 46 79 47 38 49 68 50 49 51 67 52 50 53 53 54 66 55
REMARK SMILES IDX 84 56 51 57 52 58 65 60 85 61 54 62 39 63 40 64 48 65 41 66
REMARK SMILES IDX 47 67 42 68 43 69 44 70 45 71 46 72 69 73 70 74 78 75 71 76
REMARK SMILES IDX 77 77 72 78 73 79 74 80 75 81 76 82 55 83 56 84 64 85 57 86
REMARK SMILES IDX 63 87 58 88 59 89 60 90 61 91 62 92
REMARK H PARENT 8 15 83 48 53 59
REMARK Flexibility Score: inf
ROOT
ATOM      1  C   UNL     1      -0.418   2.034   4.791  1.00  0.00     0.202 C 
ENDROOT
BRANCH   1   2
ATOM      2  C   UNL     1      -0.386   2.742   3.439  1.00  0.00     0.261 C 
BRANCH   2   3
ATOM      3  O   UNL     1      -0.601   1.848   2.326  1.00  0.00    -0.461 OA
BRANCH   3   4
ATOM      4  C   UNL     1       0.338   1.930   1.342  1.00  0.00     0.332 C 
ATOM      5  O   UNL     1       1.452   2.425   1.503  1.00  0.00    -0.249 OA
BRANCH   4   6
ATOM      6  C   UNL     1      -0.166   1.436  -0.049  1.00  0.00     0.146 C 
ATOM      7  C   UNL     1       2.044  -0.017   0.117  1.00  0.00     0.014 C 
ATOM      8  C   UNL     1       0.654   0.164  -0.528  1.00  0.00    -0.001 C 
ATOM      9  C   UNL     1       0.872   0.113  -2.056  1.00  0.00     0.014 C 
ATOM     10  C   UNL     1      -0.232  -1.027  -0.116  1.00  0.00     0.009 C 
ATOM     11  C   UNL     1      -1.669  -0.542  -0.127  1.00  0.00     0.004 C 
ATOM     12  C   UNL     1      -1.639   0.981  -0.119  1.00  0.00     0.041 C 
BRANCH   6  13
ATOM     13  N   UNL     1       0.007   2.597  -0.959  1.00  0.00    -0.305 N 
ATOM     14  C   UNL     1      -0.483   3.863  -0.787  1.00  0.00     0.408 C 
ATOM     15  H   UNL     1       0.532   2.439  -1.776  1.00  0.00     0.168 HD
ATOM     16  O   UNL     1      -0.442   4.678  -1.697  1.00  0.00    -0.225 OA
BRANCH  14  17
ATOM     17  O   UNL     1      -0.906   4.106   0.473  1.00  0.00    -0.445 OA
BRANCH  17  18
ATOM     18  C   UNL     1      -1.144   5.481   0.814  1.00  0.00     0.270 C 
BRANCH  18  19
ATOM     19  C   UNL     1       0.091   6.203   1.324  1.00  0.00    -0.011 A 
ATOM     20  C   UNL     1      -0.068   7.383   2.068  1.00  0.00     0.007 A 
ATOM     21  C   UNL     1       1.397   5.784   1.026  1.00  0.00     0.007 A 
ATOM     22  C   UNL     1       1.043   8.121   2.490  1.00  0.00     0.000 A 
ATOM     23  C   UNL     1       2.506   6.522   1.445  1.00  0.00     0.000 A 
ATOM     24  C   UNL     1       2.329   7.693   2.172  1.00  0.00     0.000 A 
ENDBRANCH  18  19
ENDBRANCH  17  18
ENDBRANCH  14  17
ENDBRANCH   6  13
ENDBRANCH   4   6
ENDBRANCH   3   4
ENDBRANCH   2   3
ENDBRANCH   1   2
BRANCH   1  25
ATOM     25  O   UNL     1       0.660   1.168   5.135  1.00  0.00    -0.374 OA
BRANCH  25  26
ATOM     26  C   UNL     1       1.032   0.154   4.214  1.00  0.00     0.202 C 
BRANCH  26  27
ATOM     27  C   UNL     1       0.079  -1.031   3.994  1.00  0.00     0.261 C 
BRANCH  27  28
ATOM     28  O   UNL     1      -1.309  -0.744   4.176  1.00  0.00    -0.460 OA
BRANCH  28  29
ATOM     29  C   UNL     1      -1.749  -1.006   5.433  1.00  0.00     0.338 C 
ATOM     30  O   UNL     1      -1.116  -1.500   6.350  1.00  0.00    -0.246 OA
BRANCH  29  31
ATOM     31  C   UNL     1      -3.109  -0.469   5.598  1.00  0.00     0.060 A 
ATOM     32  C   UNL     1      -3.306   0.506   6.582  1.00  0.00     0.016 A 
ATOM     33  C   UNL     1      -4.181  -0.961   4.851  1.00  0.00     0.016 A 
ATOM     34  C   UNL     1      -4.590   0.967   6.853  1.00  0.00     0.010 A 
ATOM     35  C   UNL     1      -5.473  -0.508   5.135  1.00  0.00     0.010 A 
ATOM     36  C   UNL     1      -5.685   0.432   6.160  1.00  0.00    -0.014 A 
BRANCH  36  37
ATOM     37  C   UNL     1      -7.055   0.737   6.633  1.00  0.00     0.031 A 
ATOM     38  C   UNL     1      -7.746  -0.258   7.527  1.00  0.00     0.074 A 
ATOM     39  C   UNL     1      -7.644   1.906   6.323  1.00  0.00     0.049 A 
ATOM     40  N   UNL     1      -8.936  -0.199   8.063  1.00  0.00    -0.248 NA
ATOM     41  C   UNL     1      -6.993  -1.478   7.864  1.00  0.00     0.031 C 
ATOM     42  C   UNL     1      -7.048   2.965   5.509  1.00  0.00     0.029 A 
ATOM     43  N   UNL     1      -8.878   2.400   6.666  1.00  0.00    -0.354 N 
ATOM     44  C   UNL     1      -9.073  -1.367   8.805  1.00  0.00     0.074 A 
ATOM     45  C   UNL     1      -7.862  -2.134   8.621  1.00  0.00     0.031 C 
ATOM     46  C   UNL     1      -7.920   3.985   5.414  1.00  0.00     0.029 A 
ATOM     47  C   UNL     1      -9.144   3.639   6.133  1.00  0.00     0.049 A 
ATOM     48  H   UNL     1      -9.512   1.913   7.239  1.00  0.00     0.167 HD
ATOM     49  C   UNL     1     -10.110  -1.758   9.582  1.00  0.00     0.031 A 
ATOM     50  C   UNL     1     -10.256   4.396   6.205  1.00  0.00     0.031 A 
ATOM     51  C   UNL     1     -11.318  -0.996   9.752  1.00  0.00     0.049 A 
ATOM     52  C   UNL     1     -11.432   3.894   7.006  1.00  0.00     0.074 A 
ATOM     53  C   UNL     1     -12.434  -1.311  10.507  1.00  0.00     0.029 A 
ATOM     54  N   UNL     1     -11.568   0.232   9.159  1.00  0.00    -0.354 N 
ATOM     55  N   UNL     1     -11.541   2.791   7.709  1.00  0.00    -0.248 NA
ATOM     56  C   UNL     1     -12.631   4.744   7.030  1.00  0.00     0.031 C 
ATOM     57  C   UNL     1     -13.379  -0.295  10.331  1.00  0.00     0.029 A 
ATOM     58  C   UNL     1     -12.827   0.681   9.517  1.00  0.00     0.049 A 
ATOM     59  H   UNL     1     -10.941   0.713   8.572  1.00  0.00     0.167 HD
ATOM     60  C   UNL     1     -12.806   2.834   8.286  1.00  0.00     0.074 A 
ATOM     61  C   UNL     1     -13.418   4.076   7.862  1.00  0.00     0.031 C 
ATOM     62  C   UNL     1     -13.410   1.928   9.094  1.00  0.00     0.031 A 
BRANCH  49  63
ATOM     63  C   UNL     1      -9.992  -3.077  10.298  1.00  0.00    -0.014 A 
ATOM     64  C   UNL     1      -9.137  -3.225  11.404  1.00  0.00     0.010 A 
ATOM     65  C   UNL     1     -10.796  -4.161   9.903  1.00  0.00     0.010 A 
ATOM     66  C   UNL     1      -9.074  -4.440  12.092  1.00  0.00     0.020 A 
ATOM     67  C   UNL     1     -10.755  -5.370  10.603  1.00  0.00     0.020 A 
ATOM     68  C   UNL     1      -9.887  -5.504  11.689  1.00  0.00     0.054 A 
BRANCH  68  69
ATOM     69  S   UNL     1      -9.825  -7.051  12.635  1.00  0.00     0.124 S 
ATOM     70  O   UNL     1      -8.514  -7.578  12.267  1.00  0.00    -0.237 OA
ATOM     71  O   UNL     1      -9.951  -6.587  14.014  1.00  0.00    -0.237 OA
ATOM     72  O   UNL     1     -10.966  -7.812  12.131  1.00  0.00    -0.744 OA
ENDBRANCH  68  69
ENDBRANCH  49  63
BRANCH  50  73
ATOM     73  C   UNL     1     -10.335   5.695   5.479  1.00  0.00    -0.014 A 
ATOM     74  C   UNL     1     -10.439   6.911   6.179  1.00  0.00     0.010 A 
ATOM     75  C   UNL     1     -10.356   5.716   4.072  1.00  0.00     0.010 A 
ATOM     76  C   UNL     1     -10.604   8.115   5.488  1.00  0.00     0.020 A 
ATOM     77  C   UNL     1     -10.488   6.921   3.377  1.00  0.00     0.020 A 
ATOM     78  C   UNL     1     -10.633   8.111   4.091  1.00  0.00     0.054 A 
BRANCH  78  79
ATOM     79  S   UNL     1     -10.843   9.684   3.212  1.00  0.00     0.124 S 
ATOM     80  O   UNL     1     -12.257   9.968   3.432  1.00  0.00    -0.237 OA
ATOM     81  O   UNL     1      -9.904  10.562   3.906  1.00  0.00    -0.237 OA
ATOM     82  O   UNL     1     -10.476   9.357   1.835  1.00  0.00    -0.744 OA
ENDBRANCH  78  79
ENDBRANCH  50  73
BRANCH  62  83
ATOM     83  C   UNL     1     -14.782   2.267   9.616  1.00  0.00    -0.014 A 
ATOM     84  C   UNL     1     -15.909   2.248   8.777  1.00  0.00     0.010 A 
ATOM     85  C   UNL     1     -14.949   2.553  10.984  1.00  0.00     0.010 A 
ATOM     86  C   UNL     1     -17.175   2.544   9.290  1.00  0.00     0.020 A 
ATOM     87  C   UNL     1     -16.216   2.818  11.506  1.00  0.00     0.020 A 
ATOM     88  C   UNL     1     -17.320   2.827  10.652  1.00  0.00     0.054 A 
BRANCH  88  89
ATOM     89  S   UNL     1     -18.980   3.165  11.300  1.00  0.00     0.124 S 
ATOM     90  O   UNL     1     -19.241   4.505  10.784  1.00  0.00    -0.237 OA
ATOM     91  O   UNL     1     -19.779   2.096  10.707  1.00  0.00    -0.237 OA
ATOM     92  O   UNL     1     -18.810   3.078  12.749  1.00  0.00    -0.744 OA
ENDBRANCH  88  89
ENDBRANCH  62  83
ENDBRANCH  36  37
ENDBRANCH  29  31
ENDBRANCH  28  29
ENDBRANCH  27  28
ENDBRANCH  26  27
ENDBRANCH  25  26
ENDBRANCH   1  25
TORSDOF 21
