REMARK SMILES Cc1cc(NC(=O)c2ccc3ncsc3c2)sc1C(=O)OCCOCCOC(=O)c1ccc(-c2c3nc(c(-c4ccc(S(=O)(=O)[O-])cc4)c4ccc([nH]4)c(-c4ccc(S(=O)(=O)[O-])cc4)c4nc(c(-c5ccc(S(=O)(=O)[O-])cc5)c5ccc2[nH]5)C=C4)C=C3)cc1
REMARK SMILES IDX 25 1 24 2 23 3 22 4 21 5 19 6 20 7 18 8 1 9 2 10 3 11 4 12
REMARK SMILES IDX 17 13 5 14 6 15 7 17 8 18 9 19 16 20 10 21 15 22 11 23 14 24
REMARK SMILES IDX 12 25 13 26 26 27 27 28 28 29 29 30 30 31 31 32 89 33 32 34
REMARK SMILES IDX 88 35 33 36 34 37 35 38 82 39 36 40 87 41 81 42 83 43 37 44
REMARK SMILES IDX 86 45 80 46 79 47 38 49 68 50 49 51 67 52 50 53 53 54 66 55
REMARK SMILES IDX 84 56 51 57 52 58 65 60 85 61 54 62 39 63 40 64 48 65 41 66
REMARK SMILES IDX 47 67 42 68 43 69 44 70 45 71 46 72 69 73 70 74 78 75 71 76
REMARK SMILES IDX 77 77 72 78 73 79 74 80 75 81 76 82 55 83 56 84 64 85 57 86
REMARK SMILES IDX 63 87 58 88 59 89 60 90 61 91 62 92
REMARK H PARENT 5 16 83 48 53 59
REMARK Flexibility Score: inf
ROOT
ATOM      1  C   UNL     1      -0.129  -3.529   1.825  1.00  0.00     0.202 C 
ENDROOT
BRANCH   1   2
ATOM      2  O   UNL     1       0.026  -4.785   1.163  1.00  0.00    -0.374 OA
BRANCH   2   3
ATOM      3  C   UNL     1       1.251  -4.985   0.450  1.00  0.00     0.202 C 
BRANCH   3   4
ATOM      4  C   UNL     1       1.251  -4.418  -0.973  1.00  0.00     0.261 C 
BRANCH   4   5
ATOM      5  O   UNL     1       1.346  -2.986  -0.905  1.00  0.00    -0.459 OA
BRANCH   5   6
ATOM      6  C   UNL     1       0.291  -2.280  -1.391  1.00  0.00     0.348 C 
ATOM      7  O   UNL     1      -0.573  -2.749  -2.124  1.00  0.00    -0.245 OA
BRANCH   6   8
ATOM      8  C   UNL     1       0.282  -0.946  -0.806  1.00  0.00     0.117 A 
ATOM      9  C   UNL     1       2.678  -0.622   0.145  1.00  0.00     0.046 C 
ATOM     10  C   UNL     1       1.254  -0.228  -0.109  1.00  0.00    -0.023 A 
ATOM     11  C   UNL     1       0.731   1.031   0.342  1.00  0.00     0.042 A 
ATOM     12  C   UNL     1      -0.523   1.284  -0.148  1.00  0.00     0.096 A 
ATOM     13  S   UNL     1      -1.204  -0.071  -0.888  1.00  0.00    -0.111 S 
BRANCH  12  14
ATOM     14  N   UNL     1      -1.320   2.402  -0.171  1.00  0.00    -0.314 N 
ATOM     15  C   UNL     1      -0.913   3.713  -0.034  1.00  0.00     0.256 C 
ATOM     16  H   UNL     1      -2.284   2.253  -0.299  1.00  0.00     0.171 HD
ATOM     17  O   UNL     1      -1.728   4.615   0.141  1.00  0.00    -0.269 OA
BRANCH  15  18
ATOM     18  C   UNL     1       0.522   4.062  -0.166  1.00  0.00     0.041 A 
ATOM     19  C   UNL     1       1.262   3.613  -1.266  1.00  0.00     0.016 A 
ATOM     20  C   UNL     1       1.122   4.798   0.862  1.00  0.00     0.035 A 
ATOM     21  C   UNL     1       2.647   3.789  -1.299  1.00  0.00     0.030 A 
ATOM     22  C   UNL     1       2.516   4.965   0.811  1.00  0.00     0.055 A 
ATOM     23  C   UNL     1       3.290   4.457  -0.237  1.00  0.00     0.081 A 
ATOM     24  S   UNL     1       3.556   5.744   1.944  1.00  0.00    -0.122 S 
ATOM     25  N   UNL     1       4.653   4.654  -0.119  1.00  0.00    -0.245 NA
ATOM     26  C   UNL     1       4.909   5.304   0.992  1.00  0.00     0.176 A 
ENDBRANCH  15  18
ENDBRANCH  12  14
ENDBRANCH   6   8
ENDBRANCH   5   6
ENDBRANCH   4   5
ENDBRANCH   3   4
ENDBRANCH   2   3
ENDBRANCH   1   2
BRANCH   1  27
ATOM     27  C   UNL     1       0.481  -3.441   3.228  1.00  0.00     0.261 C 
BRANCH  27  28
ATOM     28  O   UNL     1       1.918  -3.473   3.182  1.00  0.00    -0.460 OA
BRANCH  28  29
ATOM     29  C   UNL     1       2.469  -4.650   3.567  1.00  0.00     0.338 C 
ATOM     30  O   UNL     1       1.885  -5.626   4.005  1.00  0.00    -0.246 OA
BRANCH  29  31
ATOM     31  C   UNL     1       3.904  -4.669   3.220  1.00  0.00     0.060 A 
ATOM     32  C   UNL     1       4.392  -5.807   2.567  1.00  0.00     0.016 A 
ATOM     33  C   UNL     1       4.769  -3.630   3.575  1.00  0.00     0.016 A 
ATOM     34  C   UNL     1       5.755  -5.934   2.309  1.00  0.00     0.010 A 
ATOM     35  C   UNL     1       6.138  -3.762   3.319  1.00  0.00     0.010 A 
ATOM     36  C   UNL     1       6.642  -4.929   2.716  1.00  0.00    -0.014 A 
BRANCH  36  37
ATOM     37  C   UNL     1       8.104  -5.161   2.625  1.00  0.00     0.031 A 
ATOM     38  C   UNL     1       8.860  -5.571   3.860  1.00  0.00     0.074 A 
ATOM     39  C   UNL     1       8.747  -5.037   1.450  1.00  0.00     0.049 A 
ATOM     40  N   UNL     1      10.138  -5.809   4.006  1.00  0.00    -0.248 NA
ATOM     41  C   UNL     1       8.071  -5.734   5.092  1.00  0.00     0.031 C 
ATOM     42  C   UNL     1       8.121  -4.684   0.176  1.00  0.00     0.029 A 
ATOM     43  N   UNL     1      10.075  -5.193   1.141  1.00  0.00    -0.354 N 
ATOM     44  C   UNL     1      10.309  -6.144   5.344  1.00  0.00     0.074 A 
ATOM     45  C   UNL     1       9.009  -6.050   5.973  1.00  0.00     0.031 C 
ATOM     46  C   UNL     1       9.067  -4.645  -0.778  1.00  0.00     0.029 A 
ATOM     47  C   UNL     1      10.367  -4.939  -0.178  1.00  0.00     0.049 A 
ATOM     48  H   UNL     1      10.754  -5.462   1.801  1.00  0.00     0.167 HD
ATOM     49  C   UNL     1      11.444  -6.505   5.990  1.00  0.00     0.031 A 
ATOM     50  C   UNL     1      11.550  -4.927  -0.824  1.00  0.00     0.031 A 
ATOM     51  C   UNL     1      12.738  -6.586   5.367  1.00  0.00     0.049 A 
ATOM     52  C   UNL     1      12.809  -5.263  -0.070  1.00  0.00     0.074 A 
ATOM     53  C   UNL     1      13.945  -6.954   5.936  1.00  0.00     0.029 A 
ATOM     54  N   UNL     1      12.998  -6.287   4.039  1.00  0.00    -0.354 N 
ATOM     55  N   UNL     1      12.950  -5.600   1.190  1.00  0.00    -0.248 NA
ATOM     56  C   UNL     1      14.068  -5.225  -0.828  1.00  0.00     0.031 C 
ATOM     57  C   UNL     1      14.943  -6.826   4.964  1.00  0.00     0.029 A 
ATOM     58  C   UNL     1      14.349  -6.436   3.775  1.00  0.00     0.049 A 
ATOM     59  H   UNL     1      12.321  -6.009   3.380  1.00  0.00     0.167 HD
ATOM     60  C   UNL     1      14.309  -5.840   1.369  1.00  0.00     0.074 A 
ATOM     61  C   UNL     1      14.944  -5.621   0.086  1.00  0.00     0.031 C 
ATOM     62  C   UNL     1      14.969  -6.212   2.493  1.00  0.00     0.031 A 
BRANCH  49  63
ATOM     63  C   UNL     1      11.338  -6.808   7.461  1.00  0.00    -0.014 A 
ATOM     64  C   UNL     1      10.712  -7.981   7.920  1.00  0.00     0.010 A 
ATOM     65  C   UNL     1      11.901  -5.921   8.397  1.00  0.00     0.010 A 
ATOM     66  C   UNL     1      10.616  -8.241   9.290  1.00  0.00     0.020 A 
ATOM     67  C   UNL     1      11.830  -6.191   9.767  1.00  0.00     0.020 A 
ATOM     68  C   UNL     1      11.172  -7.341  10.205  1.00  0.00     0.054 A 
BRANCH  68  69
ATOM     69  S   UNL     1      11.046  -7.710  11.977  1.00  0.00     0.124 S 
ATOM     70  O   UNL     1       9.636  -7.434  12.241  1.00  0.00    -0.237 OA
ATOM     71  O   UNL     1      11.432  -9.117  12.040  1.00  0.00    -0.237 OA
ATOM     72  O   UNL     1      11.988  -6.780  12.593  1.00  0.00    -0.744 OA
ENDBRANCH  68  69
ENDBRANCH  49  63
BRANCH  50  73
ATOM     73  C   UNL     1      11.601  -4.564  -2.267  1.00  0.00    -0.014 A 
ATOM     74  C   UNL     1      11.898  -5.532  -3.241  1.00  0.00     0.010 A 
ATOM     75  C   UNL     1      11.345  -3.241  -2.672  1.00  0.00     0.010 A 
ATOM     76  C   UNL     1      11.950  -5.182  -4.594  1.00  0.00     0.020 A 
ATOM     77  C   UNL     1      11.370  -2.893  -4.025  1.00  0.00     0.020 A 
ATOM     78  C   UNL     1      11.683  -3.864  -4.977  1.00  0.00     0.054 A 
BRANCH  78  79
ATOM     79  S   UNL     1      11.698  -3.444  -6.742  1.00  0.00     0.124 S 
ATOM     80  O   UNL     1      13.126  -3.429  -7.038  1.00  0.00    -0.237 OA
ATOM     81  O   UNL     1      10.938  -4.542  -7.334  1.00  0.00    -0.237 OA
ATOM     82  O   UNL     1      11.034  -2.143  -6.788  1.00  0.00    -0.744 OA
ENDBRANCH  78  79
ENDBRANCH  50  73
BRANCH  62  83
ATOM     83  C   UNL     1      16.454  -6.440   2.385  1.00  0.00    -0.014 A 
ATOM     84  C   UNL     1      17.350  -5.365   2.250  1.00  0.00     0.010 A 
ATOM     85  C   UNL     1      16.963  -7.749   2.478  1.00  0.00     0.010 A 
ATOM     86  C   UNL     1      18.727  -5.598   2.180  1.00  0.00     0.020 A 
ATOM     87  C   UNL     1      18.340  -7.983   2.434  1.00  0.00     0.020 A 
ATOM     88  C   UNL     1      19.213  -6.906   2.272  1.00  0.00     0.054 A 
BRANCH  88  89
ATOM     89  S   UNL     1      21.006  -7.179   2.222  1.00  0.00     0.124 S 
ATOM     90  O   UNL     1      21.305  -6.974   0.808  1.00  0.00    -0.237 OA
ATOM     91  O   UNL     1      21.512  -6.151   3.127  1.00  0.00    -0.237 OA
ATOM     92  O   UNL     1      21.161  -8.551   2.699  1.00  0.00    -0.744 OA
ENDBRANCH  88  89
ENDBRANCH  62  83
ENDBRANCH  36  37
ENDBRANCH  29  31
ENDBRANCH  28  29
ENDBRANCH  27  28
ENDBRANCH   1  27
TORSDOF 19
