REMARK SMILES C[C@@](NC(=O)CCOC1CC[NH2+]CC1)(C(=O)OCCOCCOC(=O)c1ccc(-c2c3nc(c(-c4ccc(S(=O)(=O)[O-])cc4)c4ccc([nH]4)c(-c4ccc(S(=O)(=O)[O-])cc4)c4nc(c(-c5ccc(S(=O)(=O)[O-])cc5)c5ccc2[nH]5)C=C4)C=C3)cc1)C(F)(F)F
REMARK SMILES IDX 19 1 18 2 17 3 15 4 16 5 2 6 1 7 3 8 4 9 5 11 6 12 7 13 8 14
REMARK SMILES IDX 9 15 10 16 14 17 11 18 13 19 12 20 86 23 87 24 88 25 89 26
REMARK SMILES IDX 20 27 21 28 22 29 23 30 24 31 25 32 26 33 27 34 85 35 28 36
REMARK SMILES IDX 84 37 29 38 30 39 31 40 78 41 32 42 83 43 77 44 79 45 33 46
REMARK SMILES IDX 82 47 76 48 75 49 34 51 64 52 45 53 63 54 46 55 49 56 62 57
REMARK SMILES IDX 80 58 47 59 48 60 61 62 81 63 50 64 35 65 36 66 44 67 37 68
REMARK SMILES IDX 43 69 38 70 39 71 40 72 41 73 42 74 65 75 66 76 74 77 67 78
REMARK SMILES IDX 73 79 68 80 69 81 70 82 71 83 72 84 51 85 52 86 60 87 53 88
REMARK SMILES IDX 59 89 54 90 55 91 56 92 57 93 58 94
REMARK H PARENT 3 10 12 21 12 22 79 50 49 61
REMARK Flexibility Score: inf
ROOT
ATOM      1  C   UNL     1      -4.286   0.207  -0.989  1.00  0.00     0.202 C 
ENDROOT
BRANCH   1   2
ATOM      2  C   UNL     1      -3.232  -0.845  -0.626  1.00  0.00     0.261 C 
BRANCH   2   3
ATOM      3  O   UNL     1      -1.881  -0.476  -0.240  1.00  0.00    -0.461 OA
BRANCH   3   4
ATOM      4  C   UNL     1      -0.785  -0.485  -1.163  1.00  0.00     0.341 C 
ATOM      5  O   UNL     1      -1.338   0.048  -2.156  1.00  0.00    -0.249 OA
BRANCH   4   6
ATOM      6  C   UNL     1       1.187  -1.228  -0.808  1.00  0.00     0.231 C 
ATOM      7  C   UNL     1       2.307  -0.591   0.340  1.00  0.00     0.058 C 
BRANCH   6   8
ATOM      8  N   UNL     1       1.604  -2.957  -0.365  1.00  0.00    -0.333 N 
ATOM      9  C   UNL     1       1.187  -4.173   0.121  1.00  0.00     0.223 C 
ATOM     10  H   UNL     1       2.562  -3.062  -0.568  1.00  0.00     0.164 HD
ATOM     11  O   UNL     1       2.100  -4.978   0.347  1.00  0.00    -0.275 OA
BRANCH   9  12
ATOM     12  C   UNL     1      -0.275  -4.654   0.304  1.00  0.00     0.128 C 
BRANCH  12  13
ATOM     13  C   UNL     1      -1.127  -3.942   1.353  1.00  0.00     0.170 C 
BRANCH  13  14
ATOM     14  O   UNL     1      -1.547  -2.625   0.968  1.00  0.00    -0.377 OA
BRANCH  14  15
ATOM     15  C   UNL     1      -0.460  -1.951   0.346  1.00  0.00     0.129 C 
ATOM     16  C   UNL     1      -0.070  -0.113   0.843  1.00  0.00     0.093 C 
ATOM     17  C   UNL     1      -0.445  -2.429  -1.597  1.00  0.00     0.093 C 
ATOM     18  C   UNL     1       0.468   1.062  -0.565  1.00  0.00     0.263 C 
ATOM     19  C   UNL     1       0.222  -1.148  -2.881  1.00  0.00     0.263 C 
ATOM     20  N   UNL     1       0.875   0.451  -2.220  1.00  0.00    -0.346 N 
ATOM     21  H   UNL     1       1.892   0.375  -2.251  1.00  0.00     0.346 HD
ATOM     22  H   UNL     1       0.402   1.130  -2.815  1.00  0.00     0.346 HD
ENDBRANCH  14  15
ENDBRANCH  13  14
ENDBRANCH  12  13
ENDBRANCH   9  12
ENDBRANCH   6   8
BRANCH   6  23
ATOM     23  C   UNL     1       2.539  -1.381  -2.013  1.00  0.00     0.422 C 
ATOM     24  F   UNL     1       3.039  -0.296  -2.625  1.00  0.00    -0.168 F 
ATOM     25  F   UNL     1       3.638  -1.924  -1.357  1.00  0.00    -0.168 F 
ATOM     26  F   UNL     1       2.340  -2.376  -2.926  1.00  0.00    -0.168 F 
ENDBRANCH   6  23
ENDBRANCH   4   6
ENDBRANCH   3   4
ENDBRANCH   2   3
ENDBRANCH   1   2
BRANCH   1  27
ATOM     27  O   UNL     1      -4.096   1.067  -2.095  1.00  0.00    -0.374 OA
BRANCH  27  28
ATOM     28  C   UNL     1      -3.198   2.163  -1.997  1.00  0.00     0.202 C 
BRANCH  28  29
ATOM     29  C   UNL     1      -3.092   3.019  -0.729  1.00  0.00     0.261 C 
BRANCH  29  30
ATOM     30  O   UNL     1      -2.981   2.291   0.506  1.00  0.00    -0.460 OA
BRANCH  30  31
ATOM     31  C   UNL     1      -3.981   2.569   1.381  1.00  0.00     0.338 C 
ATOM     32  O   UNL     1      -4.873   3.390   1.231  1.00  0.00    -0.246 OA
BRANCH  31  33
ATOM     33  C   UNL     1      -4.008   1.644   2.526  1.00  0.00     0.060 A 
ATOM     34  C   UNL     1      -5.145   0.837   2.660  1.00  0.00     0.016 A 
ATOM     35  C   UNL     1      -3.102   1.776   3.579  1.00  0.00     0.016 A 
ATOM     36  C   UNL     1      -5.440   0.247   3.884  1.00  0.00     0.010 A 
ATOM     37  C   UNL     1      -3.401   1.178   4.812  1.00  0.00     0.010 A 
ATOM     38  C   UNL     1      -4.608   0.475   4.988  1.00  0.00    -0.014 A 
BRANCH  38  39
ATOM     39  C   UNL     1      -5.134   0.165   6.344  1.00  0.00     0.031 A 
ATOM     40  C   UNL     1      -5.672   1.290   7.197  1.00  0.00     0.074 A 
ATOM     41  C   UNL     1      -5.235  -1.106   6.773  1.00  0.00     0.049 A 
ATOM     42  N   UNL     1      -6.213   1.242   8.387  1.00  0.00    -0.248 NA
ATOM     43  C   UNL     1      -5.597   2.647   6.628  1.00  0.00     0.031 C 
ATOM     44  C   UNL     1      -4.824  -2.288   6.016  1.00  0.00     0.029 A 
ATOM     45  N   UNL     1      -5.735  -1.613   7.946  1.00  0.00    -0.354 N 
ATOM     46  C   UNL     1      -6.531   2.557   8.715  1.00  0.00     0.074 A 
ATOM     47  C   UNL     1      -6.094   3.383   7.611  1.00  0.00     0.031 C 
ATOM     48  C   UNL     1      -5.094  -3.385   6.744  1.00  0.00     0.029 A 
ATOM     49  C   UNL     1      -5.662  -2.982   8.030  1.00  0.00     0.049 A 
ATOM     50  H   UNL     1      -6.109  -1.048   8.661  1.00  0.00     0.167 HD
ATOM     51  C   UNL     1      -7.139   3.035   9.828  1.00  0.00     0.031 A 
ATOM     52  C   UNL     1      -5.998  -3.817   9.034  1.00  0.00     0.031 A 
ATOM     53  C   UNL     1      -7.574   2.214  10.928  1.00  0.00     0.049 A 
ATOM     54  C   UNL     1      -6.595  -3.254  10.297  1.00  0.00     0.074 A 
ATOM     55  C   UNL     1      -8.206   2.606  12.095  1.00  0.00     0.029 A 
ATOM     56  N   UNL     1      -7.419   0.838  11.000  1.00  0.00    -0.354 N 
ATOM     57  N   UNL     1      -6.892  -2.010  10.588  1.00  0.00    -0.248 NA
ATOM     58  C   UNL     1      -6.910  -4.213  11.366  1.00  0.00     0.031 C 
ATOM     59  C   UNL     1      -8.375   1.475  12.902  1.00  0.00     0.029 A 
ATOM     60  C   UNL     1      -7.914   0.369  12.206  1.00  0.00     0.049 A 
ATOM     61  H   UNL     1      -7.016   0.277  10.299  1.00  0.00     0.167 HD
ATOM     62  C   UNL     1      -7.456  -2.041  11.860  1.00  0.00     0.074 A 
ATOM     63  C   UNL     1      -7.472  -3.428  12.275  1.00  0.00     0.031 C 
ATOM     64  C   UNL     1      -7.923  -1.014  12.613  1.00  0.00     0.031 A 
BRANCH  51  65
ATOM     65  C   UNL     1      -7.332   4.527   9.933  1.00  0.00    -0.014 A 
ATOM     66  C   UNL     1      -8.264   5.208   9.129  1.00  0.00     0.010 A 
ATOM     67  C   UNL     1      -6.595   5.254  10.887  1.00  0.00     0.010 A 
ATOM     68  C   UNL     1      -8.424   6.592   9.248  1.00  0.00     0.020 A 
ATOM     69  C   UNL     1      -6.774   6.633  11.031  1.00  0.00     0.020 A 
ATOM     70  C   UNL     1      -7.676   7.296  10.197  1.00  0.00     0.054 A 
BRANCH  70  71
ATOM     71  S   UNL     1      -7.917   9.088  10.344  1.00  0.00     0.124 S 
ATOM     72  O   UNL     1      -7.291   9.578   9.118  1.00  0.00    -0.237 OA
ATOM     73  O   UNL     1      -9.371   9.212  10.399  1.00  0.00    -0.237 OA
ATOM     74  O   UNL     1      -7.218   9.434  11.579  1.00  0.00    -0.744 OA
ENDBRANCH  70  71
ENDBRANCH  51  65
BRANCH  52  75
ATOM     75  C   UNL     1      -5.755  -5.279   8.893  1.00  0.00    -0.014 A 
ATOM     76  C   UNL     1      -6.826  -6.186   8.809  1.00  0.00     0.010 A 
ATOM     77  C   UNL     1      -4.437  -5.772   8.845  1.00  0.00     0.010 A 
ATOM     78  C   UNL     1      -6.583  -7.559   8.695  1.00  0.00     0.020 A 
ATOM     79  C   UNL     1      -4.191  -7.139   8.700  1.00  0.00     0.020 A 
ATOM     80  C   UNL     1      -5.266  -8.025   8.637  1.00  0.00     0.054 A 
BRANCH  80  81
ATOM     81  S   UNL     1      -4.975  -9.805   8.434  1.00  0.00     0.124 S 
ATOM     82  O   UNL     1      -5.342 -10.324   9.748  1.00  0.00    -0.237 OA
ATOM     83  O   UNL     1      -5.880 -10.148   7.340  1.00  0.00    -0.237 OA
ATOM     84  O   UNL     1      -3.554  -9.882   8.104  1.00  0.00    -0.744 OA
ENDBRANCH  80  81
ENDBRANCH  52  75
BRANCH  64  85
ATOM     85  C   UNL     1      -8.528  -1.350  13.953  1.00  0.00    -0.014 A 
ATOM     86  C   UNL     1      -7.736  -1.790  15.028  1.00  0.00     0.010 A 
ATOM     87  C   UNL     1      -9.911  -1.178  14.150  1.00  0.00     0.010 A 
ATOM     88  C   UNL     1      -8.321  -2.089  16.262  1.00  0.00     0.020 A 
ATOM     89  C   UNL     1     -10.495  -1.445  15.391  1.00  0.00     0.020 A 
ATOM     90  C   UNL     1      -9.697  -1.916  16.435  1.00  0.00     0.054 A 
BRANCH  90  91
ATOM     91  S   UNL     1     -10.427  -2.281  18.056  1.00  0.00     0.124 S 
ATOM     92  O   UNL     1     -10.380  -3.740  18.089  1.00  0.00    -0.237 OA
ATOM     93  O   UNL     1      -9.518  -1.602  18.976  1.00  0.00    -0.237 OA
ATOM     94  O   UNL     1     -11.766  -1.703  17.972  1.00  0.00    -0.744 OA
ENDBRANCH  90  91
ENDBRANCH  64  85
ENDBRANCH  38  39
ENDBRANCH  31  33
ENDBRANCH  30  31
ENDBRANCH  29  30
ENDBRANCH  28  29
ENDBRANCH  27  28
ENDBRANCH   1  27
TORSDOF 23
