REMARK SMILES Cc1noc(C)c1[C@H](C)NC(=O)N1CC[C@H](C(=O)OCCOCCOC(=O)c2ccc(-c3c4nc(c(-c5ccc(S(=O)(=O)[O-])cc5)c5ccc([nH]5)c(-c5ccc(S(=O)(=O)[O-])cc5)c5nc(c(-c6ccc(S(=O)(=O)[O-])cc6)c6ccc3[nH]6)C=C5)C=C4)cc2)[C@@H]1C
REMARK SMILES IDX 22 1 21 2 20 3 19 4 17 5 18 6 16 7 13 8 14 9 88 10 15 11
REMARK SMILES IDX 89 12 11 13 10 14 12 16 8 17 9 18 7 19 1 20 2 21 3 22 4 23
REMARK SMILES IDX 5 24 6 25 23 26 24 27 25 28 26 29 27 30 28 31 29 32 87 33
REMARK SMILES IDX 30 34 86 35 31 36 32 37 33 38 80 39 34 40 85 41 79 42 81 43
REMARK SMILES IDX 35 44 84 45 78 46 77 47 36 49 66 50 47 51 65 52 48 53 51 54
REMARK SMILES IDX 64 55 82 56 49 57 50 58 63 60 83 61 52 62 37 63 38 64 46 65
REMARK SMILES IDX 39 66 45 67 40 68 41 69 42 70 43 71 44 72 67 73 68 74 76 75
REMARK SMILES IDX 69 76 75 77 70 78 71 79 72 80 73 81 74 82 53 83 54 84 62 85
REMARK SMILES IDX 55 86 61 87 56 88 57 89 58 90 59 91 60 92
REMARK H PARENT 10 15 81 48 51 59
REMARK Flexibility Score: inf
ROOT
ATOM      1  O   UNL     1       6.888   7.046  -0.463  1.00  0.00    -0.374 OA
ENDROOT
BRANCH   1   2
ATOM      2  C   UNL     1       6.856   7.659   0.824  1.00  0.00     0.202 C 
BRANCH   2   3
ATOM      3  C   UNL     1       5.492   8.025   1.413  1.00  0.00     0.261 C 
BRANCH   3   4
ATOM      4  O   UNL     1       4.734   6.851   1.751  1.00  0.00    -0.463 OA
BRANCH   4   5
ATOM      5  C   UNL     1       3.628   6.632   0.999  1.00  0.00     0.311 C 
ATOM      6  O   UNL     1       3.237   7.370   0.101  1.00  0.00    -0.252 OA
BRANCH   5   7
ATOM      7  C   UNL     1       3.038   5.261   1.235  1.00  0.00     0.123 C 
ATOM      8  N   UNL     1       1.103   4.188   2.012  1.00  0.00    -0.321 N 
ATOM      9  C   UNL     1       1.980   4.213   3.162  1.00  0.00     0.122 C 
ATOM     10  C   UNL     1       1.513   5.232   1.080  1.00  0.00     0.098 C 
ATOM     11  C   UNL     1       3.339   4.551   2.568  1.00  0.00     0.039 C 
ATOM     12  C   UNL     1       0.778   6.540   1.403  1.00  0.00     0.032 C 
BRANCH   8  13
ATOM     13  C   UNL     1      -0.133   3.612   2.066  1.00  0.00     0.318 C 
ATOM     14  N   UNL     1      -0.765   3.334   0.891  1.00  0.00    -0.331 N 
ATOM     15  H   UNL     1      -1.709   3.600   0.805  1.00  0.00     0.165 HD
ATOM     16  O   UNL     1      -0.689   3.318   3.121  1.00  0.00    -0.249 OA
BRANCH  14  17
ATOM     17  C   UNL     1      -0.139   2.671  -0.246  1.00  0.00     0.116 C 
ATOM     18  C   UNL     1       0.079   1.194   0.099  1.00  0.00     0.036 C 
BRANCH  17  19
ATOM     19  C   UNL     1      -0.969   2.931  -1.474  1.00  0.00     0.040 A 
ATOM     20  C   UNL     1      -0.784   5.556  -1.691  1.00  0.00     0.071 C 
ATOM     21  C   UNL     1      -1.223   4.200  -2.095  1.00  0.00     0.086 A 
ATOM     22  N   UNL     1      -1.967   4.073  -3.198  1.00  0.00    -0.085 NA
ATOM     23  O   UNL     1      -2.224   2.733  -3.326  1.00  0.00    -0.361 OA
ATOM     24  C   UNL     1      -1.636   2.050  -2.311  1.00  0.00     0.139 A 
ATOM     25  C   UNL     1      -1.841   0.589  -2.363  1.00  0.00     0.091 C 
ENDBRANCH  17  19
ENDBRANCH  14  17
ENDBRANCH   8  13
ENDBRANCH   5   7
ENDBRANCH   4   5
ENDBRANCH   3   4
ENDBRANCH   2   3
ENDBRANCH   1   2
BRANCH   1  26
ATOM     26  C   UNL     1       6.375   5.727  -0.615  1.00  0.00     0.202 C 
BRANCH  26  27
ATOM     27  C   UNL     1       7.137   4.560   0.028  1.00  0.00     0.261 C 
BRANCH  27  28
ATOM     28  O   UNL     1       7.289   4.683   1.451  1.00  0.00    -0.460 OA
BRANCH  28  29
ATOM     29  C   UNL     1       8.565   4.900   1.855  1.00  0.00     0.338 C 
ATOM     30  O   UNL     1       9.565   4.951   1.147  1.00  0.00    -0.246 OA
BRANCH  29  31
ATOM     31  C   UNL     1       8.599   5.262   3.280  1.00  0.00     0.060 A 
ATOM     32  C   UNL     1       9.123   6.517   3.615  1.00  0.00     0.016 A 
ATOM     33  C   UNL     1       8.228   4.355   4.274  1.00  0.00     0.016 A 
ATOM     34  C   UNL     1       9.315   6.859   4.950  1.00  0.00     0.010 A 
ATOM     35  C   UNL     1       8.438   4.694   5.615  1.00  0.00     0.010 A 
ATOM     36  C   UNL     1       9.015   5.931   5.955  1.00  0.00    -0.014 A 
BRANCH  36  37
ATOM     37  C   UNL     1       9.465   6.205   7.340  1.00  0.00     0.031 A 
ATOM     38  C   UNL     1      10.757   5.596   7.815  1.00  0.00     0.074 A 
ATOM     39  C   UNL     1       8.765   7.027   8.140  1.00  0.00     0.049 A 
ATOM     40  N   UNL     1      11.343   5.705   8.979  1.00  0.00    -0.248 NA
ATOM     41  C   UNL     1      11.486   4.758   6.849  1.00  0.00     0.031 C 
ATOM     42  C   UNL     1       7.530   7.718   7.770  1.00  0.00     0.029 A 
ATOM     43  N   UNL     1       8.999   7.424   9.432  1.00  0.00    -0.354 N 
ATOM     44  C   UNL     1      12.505   4.947   8.888  1.00  0.00     0.074 A 
ATOM     45  C   UNL     1      12.528   4.362   7.565  1.00  0.00     0.031 C 
ATOM     46  C   UNL     1       7.111   8.452   8.816  1.00  0.00     0.029 A 
ATOM     47  C   UNL     1       8.030   8.258   9.936  1.00  0.00     0.049 A 
ATOM     48  H   UNL     1       9.786   7.138   9.949  1.00  0.00     0.167 HD
ATOM     49  C   UNL     1      13.469   4.761   9.820  1.00  0.00     0.031 A 
ATOM     50  C   UNL     1       7.892   8.788  11.168  1.00  0.00     0.031 A 
ATOM     51  C   UNL     1      13.436   5.335  11.139  1.00  0.00     0.049 A 
ATOM     52  C   UNL     1       8.937   8.500  12.214  1.00  0.00     0.074 A 
ATOM     53  C   UNL     1      14.368   5.212  12.155  1.00  0.00     0.029 A 
ATOM     54  N   UNL     1      12.413   6.132  11.628  1.00  0.00    -0.354 N 
ATOM     55  N   UNL     1      10.039   7.797  12.106  1.00  0.00    -0.248 NA
ATOM     56  C   UNL     1       8.721   9.083  13.546  1.00  0.00     0.031 C 
ATOM     57  C   UNL     1      13.881   5.890  13.277  1.00  0.00     0.029 A 
ATOM     58  C   UNL     1      12.675   6.486  12.941  1.00  0.00     0.049 A 
ATOM     59  H   UNL     1      11.617   6.407  11.118  1.00  0.00     0.167 HD
ATOM     60  C   UNL     1      10.661   7.874  13.349  1.00  0.00     0.074 A 
ATOM     61  C   UNL     1       9.819   8.704  14.186  1.00  0.00     0.031 C 
ATOM     62  C   UNL     1      11.824   7.311  13.760  1.00  0.00     0.031 A 
BRANCH  49  63
ATOM     63  C   UNL     1      14.626   3.870   9.456  1.00  0.00    -0.014 A 
ATOM     64  C   UNL     1      15.610   4.287   8.541  1.00  0.00     0.010 A 
ATOM     65  C   UNL     1      14.750   2.608  10.066  1.00  0.00     0.010 A 
ATOM     66  C   UNL     1      16.678   3.445   8.218  1.00  0.00     0.020 A 
ATOM     67  C   UNL     1      15.830   1.774   9.764  1.00  0.00     0.020 A 
ATOM     68  C   UNL     1      16.779   2.192   8.830  1.00  0.00     0.054 A 
BRANCH  68  69
ATOM     69  S   UNL     1      18.187   1.129   8.409  1.00  0.00     0.124 S 
ATOM     70  O   UNL     1      17.841   0.692   7.059  1.00  0.00    -0.237 OA
ATOM     71  O   UNL     1      19.320   2.046   8.501  1.00  0.00    -0.237 OA
ATOM     72  O   UNL     1      18.151   0.084   9.430  1.00  0.00    -0.744 OA
ENDBRANCH  68  69
ENDBRANCH  49  63
BRANCH  50  73
ATOM     73  C   UNL     1       6.704   9.626  11.487  1.00  0.00    -0.014 A 
ATOM     74  C   UNL     1       6.838  11.005  11.726  1.00  0.00     0.010 A 
ATOM     75  C   UNL     1       5.426   9.041  11.560  1.00  0.00     0.010 A 
ATOM     76  C   UNL     1       5.719  11.779  12.047  1.00  0.00     0.020 A 
ATOM     77  C   UNL     1       4.302   9.816  11.854  1.00  0.00     0.020 A 
ATOM     78  C   UNL     1       4.457  11.180  12.108  1.00  0.00     0.054 A 
BRANCH  78  79
ATOM     79  S   UNL     1       3.012  12.212  12.480  1.00  0.00     0.124 S 
ATOM     80  O   UNL     1       3.175  12.458  13.909  1.00  0.00    -0.237 OA
ATOM     81  O   UNL     1       3.218  13.367  11.610  1.00  0.00    -0.237 OA
ATOM     82  O   UNL     1       1.882  11.361  12.115  1.00  0.00    -0.744 OA
ENDBRANCH  78  79
ENDBRANCH  50  73
BRANCH  62  83
ATOM     83  C   UNL     1      12.273   7.594  15.169  1.00  0.00    -0.014 A 
ATOM     84  C   UNL     1      11.625   7.010  16.272  1.00  0.00     0.010 A 
ATOM     85  C   UNL     1      13.396   8.413  15.388  1.00  0.00     0.010 A 
ATOM     86  C   UNL     1      12.074   7.265  17.571  1.00  0.00     0.020 A 
ATOM     87  C   UNL     1      13.865   8.648  16.683  1.00  0.00     0.020 A 
ATOM     88  C   UNL     1      13.192   8.083  17.768  1.00  0.00     0.054 A 
BRANCH  88  89
ATOM     89  S   UNL     1      13.781   8.364  19.460  1.00  0.00     0.124 S 
ATOM     90  O   UNL     1      12.777   9.286  19.983  1.00  0.00    -0.237 OA
ATOM     91  O   UNL     1      13.762   7.021  20.034  1.00  0.00    -0.237 OA
ATOM     92  O   UNL     1      15.114   8.935  19.273  1.00  0.00    -0.744 OA
ENDBRANCH  88  89
ENDBRANCH  62  83
ENDBRANCH  36  37
ENDBRANCH  29  31
ENDBRANCH  28  29
ENDBRANCH  27  28
ENDBRANCH  26  27
ENDBRANCH   1  26
TORSDOF 20
