REMARK SMILES C[C@@H]1[C@@H](C(=O)OCCOCCOC(=O)c2ccc(-c3c4nc(c(-c5ccc(S(=O)(=O)[O-])cc5)c5ccc([nH]5)c(-c5ccc(S(=O)(=O)[O-])cc5)c5nc(c(-c6ccc(S(=O)(=O)[O-])cc6)c6ccc3[nH]6)C=C5)C=C4)cc2)CCN1c1ccc(C(F)(F)F)cc1C#N
REMARK SMILES IDX 10 1 9 2 8 3 7 4 6 5 4 6 5 7 3 8 1 9 2 10 77 11 75 12 76 13
REMARK SMILES IDX 78 14 79 15 87 16 80 17 86 18 81 19 88 20 89 21 82 22 83 23
REMARK SMILES IDX 84 24 85 25 11 26 12 27 13 28 14 29 15 30 16 31 74 32 17 33
REMARK SMILES IDX 73 34 18 35 19 36 20 37 67 38 21 39 72 40 66 41 68 42 22 43
REMARK SMILES IDX 71 44 65 45 64 46 23 48 53 49 34 50 52 51 35 52 38 53 51 54
REMARK SMILES IDX 69 55 36 56 37 57 50 59 70 60 39 61 24 62 25 63 33 64 26 65
REMARK SMILES IDX 32 66 27 67 28 68 29 69 30 70 31 71 54 72 55 73 63 74 56 75
REMARK SMILES IDX 62 76 57 77 58 78 59 79 60 80 61 81 40 82 41 83 49 84 42 85
REMARK SMILES IDX 48 86 43 87 44 88 45 89 46 90 47 91
REMARK H PARENT 68 47 38 58
REMARK Flexibility Score: inf
ROOT
ATOM      1  C   UNL     1       0.651   2.816  -3.429  1.00  0.00     0.202 C 
ENDROOT
BRANCH   1   2
ATOM      2  O   UNL     1      -0.098   2.350  -4.548  1.00  0.00    -0.374 OA
BRANCH   2   3
ATOM      3  C   UNL     1      -1.520   2.395  -4.511  1.00  0.00     0.202 C 
BRANCH   3   4
ATOM      4  C   UNL     1      -2.286   1.406  -3.627  1.00  0.00     0.261 C 
BRANCH   4   5
ATOM      5  O   UNL     1      -1.868   1.466  -2.259  1.00  0.00    -0.463 OA
BRANCH   5   6
ATOM      6  C   UNL     1      -1.022   0.460  -1.901  1.00  0.00     0.311 C 
ATOM      7  O   UNL     1      -0.717  -0.475  -2.628  1.00  0.00    -0.252 OA
BRANCH   6   8
ATOM      8  C   UNL     1      -0.417   0.741  -0.539  1.00  0.00     0.123 C 
ATOM      9  C   UNL     1       1.768   0.282   0.644  1.00  0.00     0.032 C 
ATOM     10  C   UNL     1       0.682  -0.298  -0.262  1.00  0.00     0.093 C 
ATOM     11  N   UNL     1      -0.047  -1.389   0.422  1.00  0.00    -0.367 N 
ATOM     12  C   UNL     1      -1.408   0.534   0.594  1.00  0.00     0.039 C 
ATOM     13  C   UNL     1      -1.428  -0.982   0.736  1.00  0.00     0.118 C 
BRANCH  11  14
ATOM     14  C   UNL     1       0.182  -2.696  -0.001  1.00  0.00     0.055 A 
ATOM     15  C   UNL     1      -0.616  -3.288  -0.999  1.00  0.00     0.028 A 
ATOM     16  C   UNL     1       1.210  -3.482   0.549  1.00  0.00     0.076 A 
ATOM     17  C   UNL     1      -0.448  -4.620  -1.390  1.00  0.00     0.015 A 
ATOM     18  C   UNL     1       1.384  -4.820   0.151  1.00  0.00     0.034 A 
ATOM     19  C   UNL     1       0.543  -5.409  -0.803  1.00  0.00     0.057 A 
BRANCH  16  20
ATOM     20  C   UNL     1       2.093  -2.969   1.563  1.00  0.00     0.101 C 
ATOM     21  N   UNL     1       2.846  -2.614   2.367  1.00  0.00    -0.192 NA
ENDBRANCH  16  20
BRANCH  19  22
ATOM     22  C   UNL     1       0.673  -6.864  -1.173  1.00  0.00     0.416 C 
ATOM     23  F   UNL     1      -0.430  -7.586  -0.830  1.00  0.00    -0.166 F 
ATOM     24  F   UNL     1       0.849  -7.058  -2.508  1.00  0.00    -0.166 F 
ATOM     25  F   UNL     1       1.723  -7.484  -0.565  1.00  0.00    -0.166 F 
ENDBRANCH  19  22
ENDBRANCH  11  14
ENDBRANCH   6   8
ENDBRANCH   5   6
ENDBRANCH   4   5
ENDBRANCH   3   4
ENDBRANCH   2   3
ENDBRANCH   1   2
BRANCH   1  26
ATOM     26  C   UNL     1       0.593   4.293  -3.008  1.00  0.00     0.261 C 
BRANCH  26  27
ATOM     27  O   UNL     1      -0.727   4.776  -2.721  1.00  0.00    -0.460 OA
BRANCH  27  28
ATOM     28  C   UNL     1      -1.233   5.596  -3.679  1.00  0.00     0.338 C 
ATOM     29  O   UNL     1      -0.684   5.948  -4.709  1.00  0.00    -0.246 OA
BRANCH  28  30
ATOM     30  C   UNL     1      -2.658   5.858  -3.414  1.00  0.00     0.060 A 
ATOM     31  C   UNL     1      -3.587   5.460  -4.385  1.00  0.00     0.016 A 
ATOM     32  C   UNL     1      -3.065   6.568  -2.285  1.00  0.00     0.016 A 
ATOM     33  C   UNL     1      -4.927   5.806  -4.250  1.00  0.00     0.010 A 
ATOM     34  C   UNL     1      -4.410   6.925  -2.158  1.00  0.00     0.010 A 
ATOM     35  C   UNL     1      -5.339   6.578  -3.156  1.00  0.00    -0.014 A 
BRANCH  35  36
ATOM     36  C   UNL     1      -6.710   7.138  -3.133  1.00  0.00     0.031 A 
ATOM     37  C   UNL     1      -6.910   8.595  -3.455  1.00  0.00     0.074 A 
ATOM     38  C   UNL     1      -7.766   6.351  -2.857  1.00  0.00     0.049 A 
ATOM     39  N   UNL     1      -8.012   9.298  -3.451  1.00  0.00    -0.248 NA
ATOM     40  C   UNL     1      -5.708   9.360  -3.826  1.00  0.00     0.031 C 
ATOM     41  C   UNL     1      -7.700   4.916  -2.580  1.00  0.00     0.029 A 
ATOM     42  N   UNL     1      -9.100   6.653  -2.760  1.00  0.00    -0.354 N 
ATOM     43  C   UNL     1      -7.637  10.590  -3.802  1.00  0.00     0.074 A 
ATOM     44  C   UNL     1      -6.201  10.580  -3.980  1.00  0.00     0.031 C 
ATOM     45  C   UNL     1      -8.942   4.463  -2.341  1.00  0.00     0.029 A 
ATOM     46  C   UNL     1      -9.881   5.580  -2.403  1.00  0.00     0.049 A 
ATOM     47  H   UNL     1      -9.463   7.552  -2.930  1.00  0.00     0.167 HD
ATOM     48  C   UNL     1      -8.419  11.684  -3.965  1.00  0.00     0.031 A 
ATOM     49  C   UNL     1     -11.200   5.513  -2.131  1.00  0.00     0.031 A 
ATOM     50  C   UNL     1      -9.846  11.687  -3.773  1.00  0.00     0.049 A 
ATOM     51  C   UNL     1     -12.036   6.762  -2.239  1.00  0.00     0.074 A 
ATOM     52  C   UNL     1     -10.732  12.738  -3.931  1.00  0.00     0.029 A 
ATOM     53  N   UNL     1     -10.595  10.590  -3.373  1.00  0.00    -0.354 N 
ATOM     54  N   UNL     1     -11.671   7.971  -2.596  1.00  0.00    -0.248 NA
ATOM     55  C   UNL     1     -13.464   6.633  -1.918  1.00  0.00     0.031 C 
ATOM     56  C   UNL     1     -12.004  12.296  -3.555  1.00  0.00     0.029 A 
ATOM     57  C   UNL     1     -11.927  10.948  -3.245  1.00  0.00     0.049 A 
ATOM     58  H   UNL     1     -10.233   9.690  -3.205  1.00  0.00     0.167 HD
ATOM     59  C   UNL     1     -12.832   8.738  -2.575  1.00  0.00     0.074 A 
ATOM     60  C   UNL     1     -13.910   7.853  -2.187  1.00  0.00     0.031 C 
ATOM     61  C   UNL     1     -12.992  10.056  -2.856  1.00  0.00     0.031 A 
BRANCH  48  62
ATOM     62  C   UNL     1      -7.744  12.981  -4.332  1.00  0.00    -0.014 A 
ATOM     63  C   UNL     1      -7.153  13.172  -5.594  1.00  0.00     0.010 A 
ATOM     64  C   UNL     1      -7.743  14.046  -3.411  1.00  0.00     0.010 A 
ATOM     65  C   UNL     1      -6.543  14.388  -5.915  1.00  0.00     0.020 A 
ATOM     66  C   UNL     1      -7.164  15.275  -3.740  1.00  0.00     0.020 A 
ATOM     67  C   UNL     1      -6.554  15.433  -4.985  1.00  0.00     0.054 A 
BRANCH  67  68
ATOM     68  S   UNL     1      -5.782  17.009  -5.441  1.00  0.00     0.124 S 
ATOM     69  O   UNL     1      -4.365  16.654  -5.467  1.00  0.00    -0.237 OA
ATOM     70  O   UNL     1      -6.381  17.293  -6.743  1.00  0.00    -0.237 OA
ATOM     71  O   UNL     1      -6.176  17.915  -4.365  1.00  0.00    -0.744 OA
ENDBRANCH  67  68
ENDBRANCH  48  62
BRANCH  49  72
ATOM     72  C   UNL     1     -11.807   4.221  -1.708  1.00  0.00    -0.014 A 
ATOM     73  C   UNL     1     -12.739   3.561  -2.527  1.00  0.00     0.010 A 
ATOM     74  C   UNL     1     -11.454   3.643  -0.473  1.00  0.00     0.010 A 
ATOM     75  C   UNL     1     -13.320   2.359  -2.112  1.00  0.00     0.020 A 
ATOM     76  C   UNL     1     -12.006   2.425  -0.071  1.00  0.00     0.020 A 
ATOM     77  C   UNL     1     -12.945   1.796  -0.889  1.00  0.00     0.054 A 
BRANCH  77  78
ATOM     78  S   UNL     1     -13.675   0.209  -0.398  1.00  0.00     0.124 S 
ATOM     79  O   UNL     1     -15.056   0.585  -0.113  1.00  0.00    -0.237 OA
ATOM     80  O   UNL     1     -13.472  -0.610  -1.590  1.00  0.00    -0.237 OA
ATOM     81  O   UNL     1     -12.881  -0.187   0.763  1.00  0.00    -0.744 OA
ENDBRANCH  77  78
ENDBRANCH  49  72
BRANCH  61  82
ATOM     82  C   UNL     1     -14.390  10.617  -2.801  1.00  0.00    -0.014 A 
ATOM     83  C   UNL     1     -15.077  10.768  -1.583  1.00  0.00     0.010 A 
ATOM     84  C   UNL     1     -15.007  11.052  -3.990  1.00  0.00     0.010 A 
ATOM     85  C   UNL     1     -16.366  11.309  -1.560  1.00  0.00     0.020 A 
ATOM     86  C   UNL     1     -16.280  11.626  -3.967  1.00  0.00     0.020 A 
ATOM     87  C   UNL     1     -16.958  11.736  -2.752  1.00  0.00     0.054 A 
BRANCH  87  88
ATOM     88  S   UNL     1     -18.614  12.473  -2.688  1.00  0.00     0.124 S 
ATOM     89  O   UNL     1     -19.449  11.317  -2.372  1.00  0.00    -0.237 OA
ATOM     90  O   UNL     1     -18.481  13.463  -1.623  1.00  0.00    -0.237 OA
ATOM     91  O   UNL     1     -18.801  13.027  -4.027  1.00  0.00    -0.744 OA
ENDBRANCH  87  88
ENDBRANCH  61  82
ENDBRANCH  35  36
ENDBRANCH  28  30
ENDBRANCH  27  28
ENDBRANCH  26  27
ENDBRANCH   1  26
TORSDOF 20
