REMARK SMILES CC(C)(C)OC(=O)N1CCC[C@H](C(=O)N[C@H](C(=O)OCCOCCOC(=O)c2ccc(-c3c4nc(c(-c5ccc(S(=O)(=O)[O-])cc5)c5ccc([nH]5)c(-c5ccc(S(=O)(=O)[O-])cc5)c5nc(c(-c6ccc(S(=O)(=O)[O-])cc6)c6ccc3[nH]6)C=C5)C=C4)cc2)c2ccccc2)C1
REMARK SMILES IDX 21 1 20 2 19 3 17 4 18 5 16 6 15 7 13 8 14 9 12 11 8 12 9 13
REMARK SMILES IDX 94 14 10 15 11 16 6 17 7 18 5 19 2 20 1 21 3 22 4 23 88 24
REMARK SMILES IDX 89 25 93 26 90 27 92 28 91 29 22 30 23 31 24 32 25 33 26 34
REMARK SMILES IDX 27 35 28 36 29 37 87 38 30 39 86 40 31 41 32 42 33 43 80 44
REMARK SMILES IDX 34 45 85 46 79 47 81 48 35 49 84 50 78 51 77 52 36 54 66 55
REMARK SMILES IDX 47 56 65 57 48 58 51 59 64 60 82 61 49 62 50 63 63 65 83 66
REMARK SMILES IDX 52 67 37 68 38 69 46 70 39 71 45 72 40 73 41 74 42 75 43 76
REMARK SMILES IDX 44 77 67 78 68 79 76 80 69 81 75 82 70 83 71 84 72 85 73 86
REMARK SMILES IDX 74 87 53 88 54 89 62 90 55 91 61 92 56 93 57 94 58 95 59 96
REMARK SMILES IDX 60 97
REMARK H PARENT 15 10 81 53 51 64
REMARK Flexibility Score: inf
ROOT
ATOM      1  C   UNL     1       5.372  -0.921  -5.812  1.00  0.00     0.202 C 
ENDROOT
BRANCH   1   2
ATOM      2  C   UNL     1       4.221  -1.256  -6.782  1.00  0.00     0.261 C 
BRANCH   2   3
ATOM      3  O   UNL     1       2.917  -0.771  -6.516  1.00  0.00    -0.461 OA
BRANCH   3   4
ATOM      4  C   UNL     1       2.310  -1.337  -5.439  1.00  0.00     0.333 C 
ATOM      5  O   UNL     1       2.881  -2.027  -4.602  1.00  0.00    -0.249 OA
BRANCH   4   6
ATOM      6  C   UNL     1       0.856  -0.868  -5.363  1.00  0.00     0.223 C 
BRANCH   6   7
ATOM      7  N   UNL     1      -0.062  -1.101  -6.527  1.00  0.00    -0.339 N 
ATOM      8  C   UNL     1      -0.384  -1.970  -7.520  1.00  0.00     0.225 C 
ATOM      9  O   UNL     1      -0.956  -1.385  -8.462  1.00  0.00    -0.275 OA
ATOM     10  H   UNL     1      -0.663  -0.324  -6.599  1.00  0.00     0.164 HD
BRANCH   8  11
ATOM     11  C   UNL     1      -0.256  -3.509  -7.692  1.00  0.00     0.098 C 
ATOM     12  N   UNL     1      -1.188  -3.935  -5.545  1.00  0.00    -0.307 N 
ATOM     13  C   UNL     1       0.059  -4.515  -4.994  1.00  0.00     0.123 C 
ATOM     14  C   UNL     1      -1.327  -4.276  -6.940  1.00  0.00     0.136 C 
ATOM     15  C   UNL     1       1.298  -4.411  -5.942  1.00  0.00     0.023 C 
ATOM     16  C   UNL     1       1.044  -4.237  -7.433  1.00  0.00     0.017 C 
BRANCH  12  17
ATOM     17  C   UNL     1      -2.244  -3.115  -5.098  1.00  0.00     0.410 C 
ATOM     18  O   UNL     1      -3.197  -2.923  -5.850  1.00  0.00    -0.224 OA
BRANCH  17  19
ATOM     19  O   UNL     1      -2.204  -2.511  -3.871  1.00  0.00    -0.444 OA
BRANCH  19  20
ATOM     20  C   UNL     1      -3.384  -1.694  -3.458  1.00  0.00     0.106 C 
ATOM     21  C   UNL     1      -4.357  -2.626  -2.733  1.00  0.00     0.056 C 
ATOM     22  C   UNL     1      -4.125  -0.902  -4.566  1.00  0.00     0.056 C 
ATOM     23  C   UNL     1      -2.954  -0.610  -2.455  1.00  0.00     0.056 C 
ENDBRANCH  19  20
ENDBRANCH  17  19
ENDBRANCH  12  17
ENDBRANCH   8  11
ENDBRANCH   6   7
BRANCH   6  24
ATOM     24  C   UNL     1       0.408  -0.584  -3.905  1.00  0.00    -0.014 A 
ATOM     25  C   UNL     1       0.373   0.733  -3.399  1.00  0.00     0.006 A 
ATOM     26  C   UNL     1       0.314  -1.590  -2.938  1.00  0.00     0.006 A 
ATOM     27  C   UNL     1       0.266   0.997  -2.018  1.00  0.00     0.000 A 
ATOM     28  C   UNL     1       0.192  -1.345  -1.564  1.00  0.00     0.000 A 
ATOM     29  C   UNL     1       0.179  -0.044  -1.098  1.00  0.00     0.000 A 
ENDBRANCH   6  24
ENDBRANCH   4   6
ENDBRANCH   3   4
ENDBRANCH   2   3
ENDBRANCH   1   2
BRANCH   1  30
ATOM     30  O   UNL     1       5.235  -0.294  -4.549  1.00  0.00    -0.374 OA
BRANCH  30  31
ATOM     31  C   UNL     1       4.347   0.772  -4.280  1.00  0.00     0.202 C 
BRANCH  31  32
ATOM     32  C   UNL     1       4.445   2.096  -5.033  1.00  0.00     0.261 C 
BRANCH  32  33
ATOM     33  O   UNL     1       4.559   1.954  -6.446  1.00  0.00    -0.460 OA
BRANCH  33  34
ATOM     34  C   UNL     1       5.840   2.065  -6.883  1.00  0.00     0.338 C 
ATOM     35  O   UNL     1       6.838   2.218  -6.216  1.00  0.00    -0.246 OA
BRANCH  34  36
ATOM     36  C   UNL     1       5.874   1.831  -8.334  1.00  0.00     0.060 A 
ATOM     37  C   UNL     1       6.806   0.905  -8.816  1.00  0.00     0.016 A 
ATOM     38  C   UNL     1       5.084   2.588  -9.201  1.00  0.00     0.016 A 
ATOM     39  C   UNL     1       6.996   0.772 -10.183  1.00  0.00     0.010 A 
ATOM     40  C   UNL     1       5.292   2.471 -10.572  1.00  0.00     0.010 A 
ATOM     41  C   UNL     1       6.283   1.599 -11.057  1.00  0.00    -0.014 A 
BRANCH  41  42
ATOM     42  C   UNL     1       6.747   1.725 -12.451  1.00  0.00     0.031 A 
ATOM     43  C   UNL     1       7.683   2.854 -12.780  1.00  0.00     0.074 A 
ATOM     44  C   UNL     1       6.370   0.832 -13.380  1.00  0.00     0.049 A 
ATOM     45  N   UNL     1       8.172   3.211 -13.936  1.00  0.00    -0.248 NA
ATOM     46  C   UNL     1       8.129   3.691 -11.651  1.00  0.00     0.031 C 
ATOM     47  C   UNL     1       5.527  -0.338 -13.136  1.00  0.00     0.029 A 
ATOM     48  N   UNL     1       6.650   0.778 -14.719  1.00  0.00    -0.354 N 
ATOM     49  C   UNL     1       8.975   4.316 -13.677  1.00  0.00     0.074 A 
ATOM     50  C   UNL     1       8.888   4.588 -12.260  1.00  0.00     0.031 C 
ATOM     51  C   UNL     1       5.345  -0.990 -14.298  1.00  0.00     0.029 A 
ATOM     52  C   UNL     1       6.021  -0.257 -15.366  1.00  0.00     0.049 A 
ATOM     53  H   UNL     1       7.243   1.418 -15.173  1.00  0.00     0.167 HD
ATOM     54  C   UNL     1       9.720   5.036 -14.546  1.00  0.00     0.031 A 
ATOM     55  C   UNL     1       5.975  -0.552 -16.680  1.00  0.00     0.031 A 
ATOM     56  C   UNL     1       9.772   4.764 -15.957  1.00  0.00     0.049 A 
ATOM     57  C   UNL     1       6.726   0.329 -17.644  1.00  0.00     0.074 A 
ATOM     58  C   UNL     1      10.476   5.436 -16.939  1.00  0.00     0.029 A 
ATOM     59  N   UNL     1       9.085   3.735 -16.585  1.00  0.00    -0.354 N 
ATOM     60  N   UNL     1       7.480   1.375 -17.391  1.00  0.00    -0.248 NA
ATOM     61  C   UNL     1       6.625  -0.010 -19.069  1.00  0.00     0.031 C 
ATOM     62  C   UNL     1      10.170   4.846 -18.169  1.00  0.00     0.029 A 
ATOM     63  C   UNL     1       9.330   3.765 -17.945  1.00  0.00     0.049 A 
ATOM     64  H   UNL     1       8.509   3.079 -16.129  1.00  0.00     0.167 HD
ATOM     65  C   UNL     1       7.969   1.797 -18.622  1.00  0.00     0.074 A 
ATOM     66  C   UNL     1       7.434   0.888 -19.616  1.00  0.00     0.031 C 
ATOM     67  C   UNL     1       8.790   2.838 -18.908  1.00  0.00     0.031 A 
BRANCH  54  68
ATOM     68  C   UNL     1      10.496   6.204 -14.000  1.00  0.00    -0.014 A 
ATOM     69  C   UNL     1      11.620   6.013 -13.175  1.00  0.00     0.010 A 
ATOM     70  C   UNL     1      10.110   7.515 -14.335  1.00  0.00     0.010 A 
ATOM     71  C   UNL     1      12.321   7.111 -12.669  1.00  0.00     0.020 A 
ATOM     72  C   UNL     1      10.825   8.615 -13.854  1.00  0.00     0.020 A 
ATOM     73  C   UNL     1      11.918   8.405 -13.011  1.00  0.00     0.054 A 
BRANCH  73  74
ATOM     74  S   UNL     1      12.863   9.811 -12.360  1.00  0.00     0.124 S 
ATOM     75  O   UNL     1      12.491   9.796 -10.948  1.00  0.00    -0.237 OA
ATOM     76  O   UNL     1      14.243   9.430 -12.649  1.00  0.00    -0.237 OA
ATOM     77  O   UNL     1      12.361  10.951 -13.124  1.00  0.00    -0.744 OA
ENDBRANCH  73  74
ENDBRANCH  54  68
BRANCH  55  78
ATOM     78  C   UNL     1       5.167  -1.706 -17.158  1.00  0.00    -0.014 A 
ATOM     79  C   UNL     1       5.788  -2.835 -17.721  1.00  0.00     0.010 A 
ATOM     80  C   UNL     1       3.763  -1.680 -17.056  1.00  0.00     0.010 A 
ATOM     81  C   UNL     1       5.021  -3.903 -18.194  1.00  0.00     0.020 A 
ATOM     82  C   UNL     1       2.994  -2.759 -17.500  1.00  0.00     0.020 A 
ATOM     83  C   UNL     1       3.628  -3.858 -18.080  1.00  0.00     0.054 A 
BRANCH  83  84
ATOM     84  S   UNL     1       2.656  -5.272 -18.671  1.00  0.00     0.124 S 
ATOM     85  O   UNL     1       2.776  -5.138 -20.119  1.00  0.00    -0.237 OA
ATOM     86  O   UNL     1       3.360  -6.407 -18.078  1.00  0.00    -0.237 OA
ATOM     87  O   UNL     1       1.323  -5.022 -18.126  1.00  0.00    -0.744 OA
ENDBRANCH  83  84
ENDBRANCH  55  78
BRANCH  67  88
ATOM     88  C   UNL     1       9.203   3.023 -20.343  1.00  0.00    -0.014 A 
ATOM     89  C   UNL     1       8.304   3.513 -21.306  1.00  0.00     0.010 A 
ATOM     90  C   UNL     1      10.539   2.777 -20.711  1.00  0.00     0.010 A 
ATOM     91  C   UNL     1       8.730   3.734 -22.618  1.00  0.00     0.020 A 
ATOM     92  C   UNL     1      10.975   3.025 -22.014  1.00  0.00     0.020 A 
ATOM     93  C   UNL     1      10.064   3.493 -22.962  1.00  0.00     0.054 A 
BRANCH  93  94
ATOM     94  S   UNL     1      10.606   3.850 -24.655  1.00  0.00     0.124 S 
ATOM     95  O   UNL     1       9.982   2.767 -25.409  1.00  0.00    -0.237 OA
ATOM     96  O   UNL     1      10.054   5.182 -24.893  1.00  0.00    -0.237 OA
ATOM     97  O   UNL     1      12.064   3.793 -24.572  1.00  0.00    -0.744 OA
ENDBRANCH  93  94
ENDBRANCH  67  88
ENDBRANCH  41  42
ENDBRANCH  34  36
ENDBRANCH  33  34
ENDBRANCH  32  33
ENDBRANCH  31  32
ENDBRANCH  30  31
ENDBRANCH   1  30
TORSDOF 23
