REMARK SMILES Cc1cc(Cl)c(C)c2c1O[C@H](C(F)(F)F)C(C(=O)OCCOCCOC(=O)c1ccc(-c3c4nc(c(-c5ccc(S(=O)(=O)[O-])cc5)c5ccc([nH]5)c(-c5ccc(S(=O)(=O)[O-])cc5)c5nc(c(-c6ccc(S(=O)(=O)[O-])cc6)c6ccc3[nH]6)C=C5)C=C4)cc1)=C2
REMARK SMILES IDX 23 1 22 2 21 3 20 4 19 5 17 6 18 7 16 8 1 9 2 10 3 11 9 12
REMARK SMILES IDX 4 13 8 14 10 15 5 16 6 17 88 18 11 19 7 20 12 21 13 22 14 23
REMARK SMILES IDX 15 24 24 25 25 26 26 27 27 28 28 29 29 30 87 31 30 32 86 33
REMARK SMILES IDX 31 34 32 35 33 36 80 37 34 38 85 39 79 40 81 41 35 42 84 43
REMARK SMILES IDX 78 44 77 45 36 47 66 48 47 49 65 50 48 51 51 52 64 53 82 54
REMARK SMILES IDX 49 55 50 56 63 58 83 59 52 60 37 61 38 62 46 63 39 64 45 65
REMARK SMILES IDX 40 66 41 67 42 68 43 69 44 70 67 71 68 72 76 73 69 74 75 75
REMARK SMILES IDX 70 76 71 77 72 78 73 79 74 80 53 81 54 82 62 83 55 84 61 85
REMARK SMILES IDX 56 86 57 87 58 88 59 89 60 90
REMARK H PARENT 81 46 51 57
REMARK Flexibility Score: inf
ROOT
ATOM      1  C   UNL     1      -4.063  -0.255  -6.249  1.00  0.00     0.202 C 
ENDROOT
BRANCH   1   2
ATOM      2  O   UNL     1      -3.886  -0.706  -7.593  1.00  0.00    -0.374 OA
BRANCH   2   3
ATOM      3  C   UNL     1      -3.536  -2.074  -7.795  1.00  0.00     0.202 C 
BRANCH   3   4
ATOM      4  C   UNL     1      -2.071  -2.455  -7.562  1.00  0.00     0.261 C 
BRANCH   4   5
ATOM      5  O   UNL     1      -1.626  -2.090  -6.246  1.00  0.00    -0.460 OA
BRANCH   5   6
ATOM      6  C   UNL     1      -0.715  -1.090  -6.219  1.00  0.00     0.338 C 
ATOM      7  O   UNL     1      -0.175  -0.562  -7.179  1.00  0.00    -0.246 OA
BRANCH   6   8
ATOM      8  C   UNL     1      -0.547  -0.601  -4.838  1.00  0.00     0.087 C 
ATOM      9  C   UNL     1       0.758  -0.002   0.073  1.00  0.00     0.048 C 
ATOM     10  C   UNL     1       0.426   0.910  -1.075  1.00  0.00    -0.007 A 
ATOM     11  C   UNL     1       0.633   2.286  -0.921  1.00  0.00     0.028 A 
ATOM     12  C   UNL     1       0.008   0.424  -2.322  1.00  0.00     0.131 A 
ATOM     13  C   UNL     1       0.384   3.174  -1.972  1.00  0.00     0.045 A 
ATOM     14  C   UNL     1      -0.201   1.305  -3.398  1.00  0.00     0.022 A 
ATOM     15  O   UNL     1      -0.189  -0.928  -2.407  1.00  0.00    -0.475 OA
ATOM     16  Cl  UNL     1       0.667   4.851  -1.651  1.00  0.00    -0.084 Cl
ATOM     17  C   UNL     1      -0.050   2.705  -3.223  1.00  0.00    -0.021 A 
ATOM     18  C   UNL     1      -0.498   0.730  -4.706  1.00  0.00     0.027 C 
ATOM     19  C   UNL     1      -0.416  -1.558  -3.695  1.00  0.00     0.316 C 
ATOM     20  C   UNL     1      -0.345   3.648  -4.364  1.00  0.00     0.047 C 
BRANCH  19  21
ATOM     21  C   UNL     1       0.686  -2.606  -3.910  1.00  0.00     0.430 C 
ATOM     22  F   UNL     1       0.798  -3.421  -2.834  1.00  0.00    -0.167 F 
ATOM     23  F   UNL     1       0.429  -3.396  -4.976  1.00  0.00    -0.167 F 
ATOM     24  F   UNL     1       1.893  -2.029  -4.110  1.00  0.00    -0.167 F 
ENDBRANCH  19  21
ENDBRANCH   6   8
ENDBRANCH   5   6
ENDBRANCH   4   5
ENDBRANCH   3   4
ENDBRANCH   2   3
ENDBRANCH   1   2
BRANCH   1  25
ATOM     25  C   UNL     1      -5.308  -0.740  -5.495  1.00  0.00     0.261 C 
BRANCH  25  26
ATOM     26  O   UNL     1      -5.257  -2.149  -5.206  1.00  0.00    -0.460 OA
BRANCH  26  27
ATOM     27  C   UNL     1      -6.216  -2.887  -5.815  1.00  0.00     0.338 C 
ATOM     28  O   UNL     1      -7.132  -2.475  -6.515  1.00  0.00    -0.246 OA
BRANCH  27  29
ATOM     29  C   UNL     1      -5.906  -4.321  -5.686  1.00  0.00     0.060 A 
ATOM     30  C   UNL     1      -5.735  -5.058  -6.865  1.00  0.00     0.016 A 
ATOM     31  C   UNL     1      -5.873  -4.950  -4.440  1.00  0.00     0.016 A 
ATOM     32  C   UNL     1      -5.572  -6.440  -6.804  1.00  0.00     0.010 A 
ATOM     33  C   UNL     1      -5.723  -6.340  -4.383  1.00  0.00     0.010 A 
ATOM     34  C   UNL     1      -5.607  -7.093  -5.566  1.00  0.00    -0.014 A 
BRANCH  34  35
ATOM     35  C   UNL     1      -5.679  -8.573  -5.529  1.00  0.00     0.031 A 
ATOM     36  C   UNL     1      -7.024  -9.232  -5.387  1.00  0.00     0.074 A 
ATOM     37  C   UNL     1      -4.570  -9.320  -5.678  1.00  0.00     0.049 A 
ATOM     38  N   UNL     1      -7.320 -10.505  -5.343  1.00  0.00    -0.248 NA
ATOM     39  C   UNL     1      -8.190  -8.338  -5.290  1.00  0.00     0.031 C 
ATOM     40  C   UNL     1      -3.220  -8.797  -5.885  1.00  0.00     0.029 A 
ATOM     41  N   UNL     1      -4.409 -10.683  -5.688  1.00  0.00    -0.354 N 
ATOM     42  C   UNL     1      -8.703 -10.567  -5.218  1.00  0.00     0.074 A 
ATOM     43  C   UNL     1      -9.185  -9.204  -5.159  1.00  0.00     0.031 C 
ATOM     44  C   UNL     1      -2.368  -9.830  -6.008  1.00  0.00     0.029 A 
ATOM     45  C   UNL     1      -3.106 -11.083  -5.857  1.00  0.00     0.049 A 
ATOM     46  H   UNL     1      -5.157 -11.314  -5.583  1.00  0.00     0.167 HD
ATOM     47  C   UNL     1      -9.501 -11.659  -5.169  1.00  0.00     0.031 A 
ATOM     48  C   UNL     1      -2.567 -12.319  -5.877  1.00  0.00     0.031 A 
ATOM     49  C   UNL     1      -9.019 -13.013  -5.208  1.00  0.00     0.049 A 
ATOM     50  C   UNL     1      -3.465 -13.517  -5.715  1.00  0.00     0.074 A 
ATOM     51  C   UNL     1      -9.749 -14.188  -5.157  1.00  0.00     0.029 A 
ATOM     52  N   UNL     1      -7.684 -13.375  -5.303  1.00  0.00    -0.354 N 
ATOM     53  N   UNL     1      -4.771 -13.559  -5.599  1.00  0.00    -0.248 NA
ATOM     54  C   UNL     1      -2.816 -14.836  -5.687  1.00  0.00     0.031 C 
ATOM     55  C   UNL     1      -8.851 -15.260  -5.166  1.00  0.00     0.029 A 
ATOM     56  C   UNL     1      -7.566 -14.754  -5.283  1.00  0.00     0.049 A 
ATOM     57  H   UNL     1      -6.931 -12.745  -5.375  1.00  0.00     0.167 HD
ATOM     58  C   UNL     1      -5.101 -14.907  -5.505  1.00  0.00     0.074 A 
ATOM     59  C   UNL     1      -3.860 -15.649  -5.591  1.00  0.00     0.031 C 
ATOM     60  C   UNL     1      -6.322 -15.478  -5.361  1.00  0.00     0.031 A 
BRANCH  47  61
ATOM     61  C   UNL     1     -10.983 -11.432  -5.042  1.00  0.00    -0.014 A 
ATOM     62  C   UNL     1     -11.738 -10.955  -6.129  1.00  0.00     0.010 A 
ATOM     63  C   UNL     1     -11.638 -11.742  -3.836  1.00  0.00     0.010 A 
ATOM     64  C   UNL     1     -13.117 -10.765  -6.003  1.00  0.00     0.020 A 
ATOM     65  C   UNL     1     -13.021 -11.576  -3.714  1.00  0.00     0.020 A 
ATOM     66  C   UNL     1     -13.749 -11.076  -4.795  1.00  0.00     0.054 A 
BRANCH  66  67
ATOM     67  S   UNL     1     -15.544 -10.844  -4.671  1.00  0.00     0.124 S 
ATOM     68  O   UNL     1     -15.660  -9.388  -4.672  1.00  0.00    -0.237 OA
ATOM     69  O   UNL     1     -16.036 -11.514  -5.871  1.00  0.00    -0.237 OA
ATOM     70  O   UNL     1     -15.892 -11.495  -3.410  1.00  0.00    -0.744 OA
ENDBRANCH  66  67
ENDBRANCH  47  61
BRANCH  48  71
ATOM     71  C   UNL     1      -1.099 -12.484  -6.049  1.00  0.00    -0.014 A 
ATOM     72  C   UNL     1      -0.574 -13.018  -7.239  1.00  0.00     0.010 A 
ATOM     73  C   UNL     1      -0.214 -12.094  -5.027  1.00  0.00     0.010 A 
ATOM     74  C   UNL     1       0.807 -13.163  -7.402  1.00  0.00     0.020 A 
ATOM     75  C   UNL     1       1.168 -12.213  -5.195  1.00  0.00     0.020 A 
ATOM     76  C   UNL     1       1.670 -12.754  -6.380  1.00  0.00     0.054 A 
BRANCH  76  77
ATOM     77  S   UNL     1       3.460 -12.894  -6.642  1.00  0.00     0.124 S 
ATOM     78  O   UNL     1       3.663 -14.338  -6.585  1.00  0.00    -0.237 OA
ATOM     79  O   UNL     1       3.633 -12.281  -7.956  1.00  0.00    -0.237 OA
ATOM     80  O   UNL     1       4.029 -12.137  -5.529  1.00  0.00    -0.744 OA
ENDBRANCH  76  77
ENDBRANCH  48  71
BRANCH  60  81
ATOM     81  C   UNL     1      -6.389 -16.981  -5.299  1.00  0.00    -0.014 A 
ATOM     82  C   UNL     1      -5.975 -17.678  -4.151  1.00  0.00     0.010 A 
ATOM     83  C   UNL     1      -6.950 -17.699  -6.372  1.00  0.00     0.010 A 
ATOM     84  C   UNL     1      -6.104 -19.067  -4.083  1.00  0.00     0.020 A 
ATOM     85  C   UNL     1      -7.105 -19.086  -6.297  1.00  0.00     0.020 A 
ATOM     86  C   UNL     1      -6.672 -19.763  -5.155  1.00  0.00     0.054 A 
BRANCH  86  87
ATOM     87  S   UNL     1      -6.883 -21.559  -5.014  1.00  0.00     0.124 S 
ATOM     88  O   UNL     1      -5.507 -22.036  -5.115  1.00  0.00    -0.237 OA
ATOM     89  O   UNL     1      -7.504 -21.705  -3.700  1.00  0.00    -0.237 OA
ATOM     90  O   UNL     1      -7.745 -21.898  -6.145  1.00  0.00    -0.744 OA
ENDBRANCH  86  87
ENDBRANCH  60  81
ENDBRANCH  34  35
ENDBRANCH  27  29
ENDBRANCH  26  27
ENDBRANCH  25  26
ENDBRANCH   1  25
TORSDOF 18
