REMARK SMILES O=C(CCC(=O)N1CCc2sccc2C1)NC1(C(=O)OCCOCCOC(=O)c2ccc(-c3c4nc(c(-c5ccc(S(=O)(=O)[O-])cc5)c5ccc([nH]5)c(-c5ccc(S(=O)(=O)[O-])cc5)c5nc(c(-c6ccc(S(=O)(=O)[O-])cc6)c6ccc3[nH]6)C=C5)C=C4)cc2)CCCCC1
REMARK SMILES IDX 22 1 21 2 20 3 18 4 19 5 17 6 89 7 93 8 90 9 92 10 91 11
REMARK SMILES IDX 16 12 1 13 2 14 3 16 4 17 5 18 6 19 7 20 8 21 15 22 9 23
REMARK SMILES IDX 14 24 10 25 13 26 11 27 12 28 23 29 24 30 25 31 26 32 27 33
REMARK SMILES IDX 28 34 29 35 30 36 88 37 31 38 87 39 32 40 33 41 34 42 81 43
REMARK SMILES IDX 35 44 86 45 80 46 82 47 36 48 85 49 79 50 78 51 37 53 67 54
REMARK SMILES IDX 48 55 66 56 49 57 52 58 65 59 83 60 50 61 51 62 64 64 84 65
REMARK SMILES IDX 53 66 38 67 39 68 47 69 40 70 46 71 41 72 42 73 43 74 44 75
REMARK SMILES IDX 45 76 68 77 69 78 77 79 70 80 76 81 71 82 72 83 73 84 74 85
REMARK SMILES IDX 75 86 54 87 55 88 63 89 56 90 62 91 57 92 58 93 59 94 60 95
REMARK SMILES IDX 61 96
REMARK H PARENT 16 15 82 52 52 63
REMARK Flexibility Score: inf
ROOT
ATOM      1  C   UNL     1       4.339   1.298  -6.229  1.00  0.00     0.202 C 
ENDROOT
BRANCH   1   2
ATOM      2  C   UNL     1       3.566   0.150  -5.593  1.00  0.00     0.261 C 
BRANCH   2   3
ATOM      3  O   UNL     1       2.640   0.668  -4.620  1.00  0.00    -0.461 OA
BRANCH   3   4
ATOM      4  C   UNL     1       2.163  -0.257  -3.751  1.00  0.00     0.331 C 
ATOM      5  O   UNL     1       2.469  -1.442  -3.811  1.00  0.00    -0.249 OA
BRANCH   4   6
ATOM      6  C   UNL     1       1.278   0.354  -2.616  1.00  0.00     0.138 C 
ATOM      7  C   UNL     1       0.113  -0.654  -2.483  1.00  0.00     0.040 C 
ATOM      8  C   UNL     1       0.700   1.737  -2.975  1.00  0.00     0.040 C 
ATOM      9  C   UNL     1      -0.698  -0.738  -3.783  1.00  0.00     0.003 C 
ATOM     10  C   UNL     1      -0.213   1.726  -4.203  1.00  0.00     0.003 C 
ATOM     11  C   UNL     1      -1.268   0.624  -4.159  1.00  0.00     0.000 C 
BRANCH   6  12
ATOM     12  N   UNL     1       2.136   0.512  -1.387  1.00  0.00    -0.340 N 
ATOM     13  O   UNL     1       1.015  -0.747   0.189  1.00  0.00    -0.275 OA
ATOM     14  C   UNL     1       2.012  -0.130  -0.166  1.00  0.00     0.221 C 
ATOM     15  H   UNL     1       2.879   1.154  -1.461  1.00  0.00     0.164 HD
BRANCH  14  16
ATOM     16  C   UNL     1       3.272  -0.082   0.724  1.00  0.00     0.110 C 
BRANCH  16  17
ATOM     17  C   UNL     1       3.794  -1.490   1.092  1.00  0.00     0.110 C 
BRANCH  17  18
ATOM     18  C   UNL     1       5.136  -2.015   0.514  1.00  0.00     0.223 C 
ATOM     19  O   UNL     1       6.091  -2.208   1.270  1.00  0.00    -0.275 OA
BRANCH  18  20
ATOM     20  N   UNL     1       5.200  -2.352  -0.828  1.00  0.00    -0.338 N 
ATOM     21  C   UNL     1       4.401  -1.652  -1.797  1.00  0.00     0.125 C 
ATOM     22  C   UNL     1       6.337  -3.075  -1.446  1.00  0.00     0.156 C 
ATOM     23  C   UNL     1       5.227  -0.418  -2.224  1.00  0.00     0.068 C 
ATOM     24  C   UNL     1       6.851  -2.285  -2.650  1.00  0.00    -0.015 A 
ATOM     25  C   UNL     1       6.409  -1.000  -2.922  1.00  0.00     0.011 A 
ATOM     26  C   UNL     1       7.582  -2.768  -3.783  1.00  0.00     0.017 A 
ATOM     27  S   UNL     1       7.190  -0.269  -4.227  1.00  0.00    -0.149 S 
ATOM     28  C   UNL     1       7.809  -1.782  -4.725  1.00  0.00     0.065 A 
ENDBRANCH  18  20
ENDBRANCH  17  18
ENDBRANCH  16  17
ENDBRANCH  14  16
ENDBRANCH   6  12
ENDBRANCH   4   6
ENDBRANCH   3   4
ENDBRANCH   2   3
ENDBRANCH   1   2
BRANCH   1  29
ATOM     29  O   UNL     1       5.238   2.031  -5.394  1.00  0.00    -0.374 OA
BRANCH  29  30
ATOM     30  C   UNL     1       4.718   2.737  -4.274  1.00  0.00     0.202 C 
BRANCH  30  31
ATOM     31  C   UNL     1       4.087   4.109  -4.534  1.00  0.00     0.261 C 
BRANCH  31  32
ATOM     32  O   UNL     1       3.192   4.105  -5.645  1.00  0.00    -0.460 OA
BRANCH  32  33
ATOM     33  C   UNL     1       3.777   4.485  -6.810  1.00  0.00     0.338 C 
ATOM     34  O   UNL     1       4.899   4.941  -6.962  1.00  0.00    -0.246 OA
BRANCH  33  35
ATOM     35  C   UNL     1       2.918   4.055  -7.925  1.00  0.00     0.060 A 
ATOM     36  C   UNL     1       3.525   3.338  -8.967  1.00  0.00     0.016 A 
ATOM     37  C   UNL     1       1.547   4.319  -7.933  1.00  0.00     0.016 A 
ATOM     38  C   UNL     1       2.768   2.928 -10.056  1.00  0.00     0.010 A 
ATOM     39  C   UNL     1       0.792   3.930  -9.037  1.00  0.00     0.010 A 
ATOM     40  C   UNL     1       1.415   3.279 -10.117  1.00  0.00    -0.014 A 
BRANCH  40  41
ATOM     41  C   UNL     1       0.724   3.222 -11.420  1.00  0.00     0.031 A 
ATOM     42  C   UNL     1       0.721   4.476 -12.249  1.00  0.00     0.074 A 
ATOM     43  C   UNL     1       0.143   2.091 -11.851  1.00  0.00     0.049 A 
ATOM     44  N   UNL     1       0.135   4.713 -13.390  1.00  0.00    -0.248 NA
ATOM     45  C   UNL     1       1.480   5.620 -11.711  1.00  0.00     0.031 C 
ATOM     46  C   UNL     1       0.150   0.811 -11.144  1.00  0.00     0.029 A 
ATOM     47  N   UNL     1      -0.574   1.845 -12.992  1.00  0.00    -0.354 N 
ATOM     48  C   UNL     1       0.442   6.034 -13.698  1.00  0.00     0.074 A 
ATOM     49  C   UNL     1       1.242   6.556 -12.616  1.00  0.00     0.031 C 
ATOM     50  C   UNL     1      -0.547  -0.086 -11.864  1.00  0.00     0.029 A 
ATOM     51  C   UNL     1      -1.078   0.570 -13.058  1.00  0.00     0.049 A 
ATOM     52  H   UNL     1      -0.714   2.519 -13.696  1.00  0.00     0.167 HD
ATOM     53  C   UNL     1       0.085   6.745 -14.791  1.00  0.00     0.031 A 
ATOM     54  C   UNL     1      -1.898   0.013 -13.970  1.00  0.00     0.031 A 
ATOM     55  C   UNL     1      -0.731   6.212 -15.846  1.00  0.00     0.049 A 
ATOM     56  C   UNL     1      -2.349   0.850 -15.140  1.00  0.00     0.074 A 
ATOM     57  C   UNL     1      -1.158   6.835 -17.004  1.00  0.00     0.029 A 
ATOM     58  N   UNL     1      -1.251   4.925 -15.864  1.00  0.00    -0.354 N 
ATOM     59  N   UNL     1      -2.045   2.094 -15.430  1.00  0.00    -0.248 NA
ATOM     60  C   UNL     1      -3.248   0.208 -16.108  1.00  0.00     0.031 C 
ATOM     61  C   UNL     1      -1.989   5.944 -17.691  1.00  0.00     0.029 A 
ATOM     62  C   UNL     1      -2.019   4.742 -16.998  1.00  0.00     0.049 A 
ATOM     63  H   UNL     1      -1.095   4.244 -15.171  1.00  0.00     0.167 HD
ATOM     64  C   UNL     1      -2.690   2.374 -16.630  1.00  0.00     0.074 A 
ATOM     65  C   UNL     1      -3.389   1.164 -17.016  1.00  0.00     0.031 C 
ATOM     66  C   UNL     1      -2.703   3.523 -17.352  1.00  0.00     0.031 A 
BRANCH  53  67
ATOM     67  C   UNL     1       0.532   8.181 -14.864  1.00  0.00    -0.014 A 
ATOM     68  C   UNL     1       1.885   8.521 -15.048  1.00  0.00     0.010 A 
ATOM     69  C   UNL     1      -0.422   9.209 -14.762  1.00  0.00     0.010 A 
ATOM     70  C   UNL     1       2.279   9.862 -15.093  1.00  0.00     0.020 A 
ATOM     71  C   UNL     1      -0.037  10.550 -14.837  1.00  0.00     0.020 A 
ATOM     72  C   UNL     1       1.314  10.868 -14.988  1.00  0.00     0.054 A 
BRANCH  72  73
ATOM     73  S   UNL     1       1.848  12.599 -15.081  1.00  0.00     0.124 S 
ATOM     74  O   UNL     1       2.544  12.768 -13.807  1.00  0.00    -0.237 OA
ATOM     75  O   UNL     1       2.700  12.606 -16.267  1.00  0.00    -0.237 OA
ATOM     76  O   UNL     1       0.598  13.343 -15.209  1.00  0.00    -0.744 OA
ENDBRANCH  72  73
ENDBRANCH  53  67
BRANCH  54  77
ATOM     77  C   UNL     1      -2.360  -1.392 -13.799  1.00  0.00    -0.014 A 
ATOM     78  C   UNL     1      -1.945  -2.401 -14.686  1.00  0.00     0.010 A 
ATOM     79  C   UNL     1      -3.218  -1.731 -12.736  1.00  0.00     0.010 A 
ATOM     80  C   UNL     1      -2.390  -3.717 -14.522  1.00  0.00     0.020 A 
ATOM     81  C   UNL     1      -3.641  -3.051 -12.550  1.00  0.00     0.020 A 
ATOM     82  C   UNL     1      -3.231  -4.034 -13.452  1.00  0.00     0.054 A 
BRANCH  82  83
ATOM     83  S   UNL     1      -3.752  -5.758 -13.229  1.00  0.00     0.124 S 
ATOM     84  O   UNL     1      -4.681  -5.941 -14.340  1.00  0.00    -0.237 OA
ATOM     85  O   UNL     1      -2.488  -6.483 -13.333  1.00  0.00    -0.237 OA
ATOM     86  O   UNL     1      -4.357  -5.763 -11.899  1.00  0.00    -0.744 OA
ENDBRANCH  82  83
ENDBRANCH  54  77
BRANCH  66  87
ATOM     87  C   UNL     1      -3.463   3.514 -18.651  1.00  0.00    -0.014 A 
ATOM     88  C   UNL     1      -4.868   3.488 -18.678  1.00  0.00     0.010 A 
ATOM     89  C   UNL     1      -2.753   3.602 -19.864  1.00  0.00     0.010 A 
ATOM     90  C   UNL     1      -5.549   3.516 -19.897  1.00  0.00     0.020 A 
ATOM     91  C   UNL     1      -3.431   3.664 -21.082  1.00  0.00     0.020 A 
ATOM     92  C   UNL     1      -4.825   3.606 -21.091  1.00  0.00     0.054 A 
BRANCH  92  93
ATOM     93  S   UNL     1      -5.736   3.687 -22.657  1.00  0.00     0.124 S 
ATOM     94  O   UNL     1      -6.236   2.321 -22.788  1.00  0.00    -0.237 OA
ATOM     95  O   UNL     1      -6.748   4.705 -22.385  1.00  0.00    -0.237 OA
ATOM     96  O   UNL     1      -4.718   4.073 -23.631  1.00  0.00    -0.744 OA
ENDBRANCH  92  93
ENDBRANCH  66  87
ENDBRANCH  40  41
ENDBRANCH  33  35
ENDBRANCH  32  33
ENDBRANCH  31  32
ENDBRANCH  30  31
ENDBRANCH  29  30
ENDBRANCH   1  29
TORSDOF 22
