REMARK SMILES Cc1cc(C(=O)N[C@H]2C=C[C@H](C(=O)OCCOCCOC(=O)c3ccc(-c4c5nc(c(-c6ccc(S(=O)(=O)[O-])cc6)c6ccc([nH]6)c(-c6ccc(S(=O)(=O)[O-])cc6)c6nc(c(-c7ccc(S(=O)(=O)[O-])cc7)c7ccc4[nH]7)C=C6)C=C5)cc3)C2)ccc1F
REMARK SMILES IDX 18 1 17 2 16 3 15 4 14 5 12 6 13 7 11 8 8 9 9 10 83 11 10 12
REMARK SMILES IDX 7 13 5 14 6 15 4 17 1 18 2 19 3 20 86 21 85 22 87 23 84 24
REMARK SMILES IDX 19 25 20 26 21 27 22 28 23 29 24 30 82 31 25 32 81 33 26 34
REMARK SMILES IDX 27 35 28 36 75 37 29 38 80 39 74 40 76 41 30 42 79 43 73 44
REMARK SMILES IDX 72 45 31 47 61 48 42 49 60 50 43 51 46 52 59 53 77 54 44 55
REMARK SMILES IDX 45 56 58 58 78 59 47 60 32 61 33 62 41 63 34 64 40 65 35 66
REMARK SMILES IDX 36 67 37 68 38 69 39 70 62 71 63 72 71 73 64 74 70 75 65 76
REMARK SMILES IDX 66 77 67 78 68 79 69 80 48 81 49 82 57 83 50 84 56 85 51 86
REMARK SMILES IDX 52 87 53 88 54 89 55 90
REMARK H PARENT 7 16 76 46 46 57
REMARK Flexibility Score: inf
ROOT
ATOM      1  C   UNL     1       1.710   4.157   3.421  1.00  0.00     0.202 C 
ENDROOT
BRANCH   1   2
ATOM      2  O   UNL     1       2.756   3.951   2.474  1.00  0.00    -0.374 OA
BRANCH   2   3
ATOM      3  C   UNL     1       3.158   5.028   1.635  1.00  0.00     0.202 C 
BRANCH   3   4
ATOM      4  C   UNL     1       2.183   5.529   0.563  1.00  0.00     0.261 C 
BRANCH   4   5
ATOM      5  O   UNL     1       0.854   5.746   1.064  1.00  0.00    -0.463 OA
BRANCH   5   6
ATOM      6  C   UNL     1      -0.041   4.821   0.629  1.00  0.00     0.312 C 
ATOM      7  O   UNL     1       0.219   3.959  -0.204  1.00  0.00    -0.252 OA
BRANCH   6   8
ATOM      8  C   UNL     1      -1.382   4.903   1.364  1.00  0.00     0.124 C 
ATOM      9  C   UNL     1      -2.644   3.414  -0.017  1.00  0.00     0.106 C 
ATOM     10  C   UNL     1      -3.209   4.797  -0.117  1.00  0.00    -0.006 C 
ATOM     11  C   UNL     1      -1.994   3.490   1.368  1.00  0.00     0.048 C 
ATOM     12  C   UNL     1      -2.447   5.642   0.600  1.00  0.00    -0.014 C 
BRANCH   9  13
ATOM     13  N   UNL     1      -3.595   2.359  -0.178  1.00  0.00    -0.346 N 
ATOM     14  C   UNL     1      -3.373   1.010  -0.367  1.00  0.00     0.251 C 
ATOM     15  O   UNL     1      -4.363   0.292  -0.522  1.00  0.00    -0.269 OA
ATOM     16  H   UNL     1      -4.540   2.633  -0.150  1.00  0.00     0.164 HD
BRANCH  14  17
ATOM     17  C   UNL     1      -2.017   0.355  -0.319  1.00  0.00     0.040 A 
ATOM     18  C   UNL     1       1.732   1.022  -0.678  1.00  0.00     0.047 C 
ATOM     19  C   UNL     1       0.434   0.292  -0.483  1.00  0.00    -0.015 A 
ATOM     20  C   UNL     1      -0.797   0.952  -0.665  1.00  0.00     0.020 A 
ATOM     21  C   UNL     1       0.425  -1.025  -0.037  1.00  0.00     0.126 A 
ATOM     22  C   UNL     1      -0.773  -1.678   0.224  1.00  0.00     0.040 A 
ATOM     23  F   UNL     1       1.579  -1.684   0.140  1.00  0.00    -0.207 F 
ATOM     24  C   UNL     1      -1.984  -0.988   0.096  1.00  0.00     0.017 A 
ENDBRANCH  14  17
ENDBRANCH   9  13
ENDBRANCH   6   8
ENDBRANCH   5   6
ENDBRANCH   4   5
ENDBRANCH   3   4
ENDBRANCH   2   3
ENDBRANCH   1   2
BRANCH   1  25
ATOM     25  C   UNL     1       1.837   5.269   4.474  1.00  0.00     0.261 C 
BRANCH  25  26
ATOM     26  O   UNL     1       1.952   6.588   3.914  1.00  0.00    -0.460 OA
BRANCH  26  27
ATOM     27  C   UNL     1       3.126   7.212   4.177  1.00  0.00     0.338 C 
ATOM     28  O   UNL     1       4.055   6.780   4.853  1.00  0.00    -0.246 OA
BRANCH  27  29
ATOM     29  C   UNL     1       3.250   8.430   3.363  1.00  0.00     0.060 A 
ATOM     30  C   UNL     1       4.329   8.517   2.472  1.00  0.00     0.016 A 
ATOM     31  C   UNL     1       2.384   9.508   3.539  1.00  0.00     0.016 A 
ATOM     32  C   UNL     1       4.567   9.700   1.778  1.00  0.00     0.010 A 
ATOM     33  C   UNL     1       2.633  10.700   2.852  1.00  0.00     0.010 A 
ATOM     34  C   UNL     1       3.744  10.811   1.995  1.00  0.00    -0.014 A 
BRANCH  34  35
ATOM     35  C   UNL     1       4.136  12.129   1.443  1.00  0.00     0.031 A 
ATOM     36  C   UNL     1       4.812  13.125   2.345  1.00  0.00     0.074 A 
ATOM     37  C   UNL     1       3.915  12.424   0.149  1.00  0.00     0.049 A 
ATOM     38  N   UNL     1       5.219  14.339   2.080  1.00  0.00    -0.248 NA
ATOM     39  C   UNL     1       5.062  12.694   3.731  1.00  0.00     0.031 C 
ATOM     40  C   UNL     1       3.318  11.520  -0.834  1.00  0.00     0.029 A 
ATOM     41  N   UNL     1       4.171  13.570  -0.558  1.00  0.00    -0.354 N 
ATOM     42  C   UNL     1       5.755  14.825   3.268  1.00  0.00     0.074 A 
ATOM     43  C   UNL     1       5.601  13.782   4.259  1.00  0.00     0.031 C 
ATOM     44  C   UNL     1       3.257  12.149  -2.021  1.00  0.00     0.029 A 
ATOM     45  C   UNL     1       3.773  13.508  -1.871  1.00  0.00     0.049 A 
ATOM     46  H   UNL     1       4.600  14.363  -0.162  1.00  0.00     0.167 HD
ATOM     47  C   UNL     1       6.324  16.030   3.510  1.00  0.00     0.031 A 
ATOM     48  C   UNL     1       3.805  14.447  -2.837  1.00  0.00     0.031 A 
ATOM     49  C   UNL     1       6.465  17.066   2.521  1.00  0.00     0.049 A 
ATOM     50  C   UNL     1       4.370  15.807  -2.522  1.00  0.00     0.074 A 
ATOM     51  C   UNL     1       7.053  18.311   2.657  1.00  0.00     0.029 A 
ATOM     52  N   UNL     1       6.001  16.983   1.216  1.00  0.00    -0.354 N 
ATOM     53  N   UNL     1       4.901  16.242  -1.404  1.00  0.00    -0.248 NA
ATOM     54  C   UNL     1       4.344  16.802  -3.604  1.00  0.00     0.031 C 
ATOM     55  C   UNL     1       6.885  19.006   1.455  1.00  0.00     0.029 A 
ATOM     56  C   UNL     1       6.255  18.169   0.547  1.00  0.00     0.049 A 
ATOM     57  H   UNL     1       5.556  16.197   0.824  1.00  0.00     0.167 HD
ATOM     58  C   UNL     1       5.302  17.550  -1.658  1.00  0.00     0.074 A 
ATOM     59  C   UNL     1       4.961  17.830  -3.037  1.00  0.00     0.031 C 
ATOM     60  C   UNL     1       5.906  18.435  -0.826  1.00  0.00     0.031 A 
BRANCH  47  61
ATOM     61  C   UNL     1       6.788  16.310   4.916  1.00  0.00    -0.014 A 
ATOM     62  C   UNL     1       7.903  15.654   5.469  1.00  0.00     0.010 A 
ATOM     63  C   UNL     1       6.105  17.266   5.690  1.00  0.00     0.010 A 
ATOM     64  C   UNL     1       8.295  15.913   6.785  1.00  0.00     0.020 A 
ATOM     65  C   UNL     1       6.512  17.550   6.996  1.00  0.00     0.020 A 
ATOM     66  C   UNL     1       7.592  16.856   7.543  1.00  0.00     0.054 A 
BRANCH  66  67
ATOM     67  S   UNL     1       8.124  17.176   9.247  1.00  0.00     0.124 S 
ATOM     68  O   UNL     1       7.692  15.959   9.930  1.00  0.00    -0.237 OA
ATOM     69  O   UNL     1       9.569  17.338   9.107  1.00  0.00    -0.237 OA
ATOM     70  O   UNL     1       7.397  18.388   9.616  1.00  0.00    -0.744 OA
ENDBRANCH  66  67
ENDBRANCH  47  61
BRANCH  48  71
ATOM     71  C   UNL     1       3.284  14.134  -4.196  1.00  0.00    -0.014 A 
ATOM     72  C   UNL     1       4.160  14.031  -5.290  1.00  0.00     0.010 A 
ATOM     73  C   UNL     1       1.907  13.931  -4.402  1.00  0.00     0.010 A 
ATOM     74  C   UNL     1       3.669  13.742  -6.566  1.00  0.00     0.020 A 
ATOM     75  C   UNL     1       1.415  13.614  -5.671  1.00  0.00     0.020 A 
ATOM     76  C   UNL     1       2.299  13.530  -6.747  1.00  0.00     0.054 A 
BRANCH  76  77
ATOM     77  S   UNL     1       1.692  13.098  -8.402  1.00  0.00     0.124 S 
ATOM     78  O   UNL     1       1.825  14.365  -9.114  1.00  0.00    -0.237 OA
ATOM     79  O   UNL     1       2.616  12.042  -8.809  1.00  0.00    -0.237 OA
ATOM     80  O   UNL     1       0.321  12.656  -8.158  1.00  0.00    -0.744 OA
ENDBRANCH  76  77
ENDBRANCH  48  71
BRANCH  60  81
ATOM     81  C   UNL     1       6.273  19.782  -1.392  1.00  0.00    -0.014 A 
ATOM     82  C   UNL     1       5.293  20.745  -1.692  1.00  0.00     0.010 A 
ATOM     83  C   UNL     1       7.630  20.108  -1.575  1.00  0.00     0.010 A 
ATOM     84  C   UNL     1       5.661  21.996  -2.193  1.00  0.00     0.020 A 
ATOM     85  C   UNL     1       8.004  21.369  -2.047  1.00  0.00     0.020 A 
ATOM     86  C   UNL     1       7.015  22.301  -2.367  1.00  0.00     0.054 A 
BRANCH  86  87
ATOM     87  S   UNL     1       7.469  23.947  -2.977  1.00  0.00     0.124 S 
ATOM     88  O   UNL     1       7.087  23.866  -4.384  1.00  0.00    -0.237 OA
ATOM     89  O   UNL     1       6.649  24.832  -2.153  1.00  0.00    -0.237 OA
ATOM     90  O   UNL     1       8.906  24.027  -2.726  1.00  0.00    -0.744 OA
ENDBRANCH  86  87
ENDBRANCH  60  81
ENDBRANCH  34  35
ENDBRANCH  27  29
ENDBRANCH  26  27
ENDBRANCH  25  26
ENDBRANCH   1  25
TORSDOF 19
