REMARK SMILES CC[C@@H](C)S(=O)(=O)c1cc(C(=O)OCCOCCOC(=O)c2ccc(-c3c4nc(c(-c5ccc(S(=O)(=O)[O-])cc5)c5ccc([nH]5)c(-c5ccc(S(=O)(=O)[O-])cc5)c5nc(c(-c6ccc(S(=O)(=O)[O-])cc6)c6ccc3[nH]6)C=C5)C=C4)cc2)c(C)cc1C
REMARK SMILES IDX 16 1 15 2 14 3 13 4 11 5 12 6 10 7 8 8 9 9 85 10 84 11 86 12
REMARK SMILES IDX 82 13 83 14 5 15 6 16 7 17 3 18 4 19 2 20 1 21 17 22 18 23
REMARK SMILES IDX 19 24 20 25 21 26 22 27 23 28 81 29 24 30 80 31 25 32 26 33
REMARK SMILES IDX 27 34 74 35 28 36 79 37 73 38 75 39 29 40 78 41 72 42 71 43
REMARK SMILES IDX 30 45 60 46 41 47 59 48 42 49 45 50 58 51 76 52 43 53 44 54
REMARK SMILES IDX 57 56 77 57 46 58 31 59 32 60 40 61 33 62 39 63 34 64 35 65
REMARK SMILES IDX 36 66 37 67 38 68 61 69 62 70 70 71 63 72 69 73 64 74 65 75
REMARK SMILES IDX 66 76 67 77 68 78 47 79 48 80 56 81 49 82 55 83 50 84 51 85
REMARK SMILES IDX 52 86 53 87 54 88
REMARK H PARENT 75 44 45 55
REMARK Flexibility Score: inf
ROOT
ATOM      1  O   UNL     1      -4.284   2.150   4.183  1.00  0.00    -0.374 OA
ENDROOT
BRANCH   1   2
ATOM      2  C   UNL     1      -5.544   2.016   3.519  1.00  0.00     0.202 C 
BRANCH   2   3
ATOM      3  C   UNL     1      -5.500   1.313   2.162  1.00  0.00     0.261 C 
BRANCH   3   4
ATOM      4  O   UNL     1      -5.149  -0.070   2.342  1.00  0.00    -0.460 OA
BRANCH   4   5
ATOM      5  C   UNL     1      -4.106  -0.499   1.603  1.00  0.00     0.338 C 
ATOM      6  O   UNL     1      -3.549   0.108   0.700  1.00  0.00    -0.246 OA
BRANCH   5   7
ATOM      7  C   UNL     1      -3.514  -1.732   2.183  1.00  0.00     0.064 A 
ATOM      8  C   UNL     1      -1.372  -2.805   2.676  1.00  0.00     0.071 A 
ATOM      9  C   UNL     1      -2.112  -1.690   2.292  1.00  0.00     0.036 A 
ATOM     10  C   UNL     1      -2.049  -3.999   2.987  1.00  0.00    -0.032 A 
ATOM     11  C   UNL     1      -3.459  -4.012   2.936  1.00  0.00     0.009 A 
ATOM     12  C   UNL     1      -1.348  -5.297   3.292  1.00  0.00     0.046 C 
ATOM     13  C   UNL     1      -4.213  -2.881   2.567  1.00  0.00    -0.036 A 
ATOM     14  C   UNL     1      -5.710  -3.002   2.528  1.00  0.00     0.045 C 
BRANCH   8  15
ATOM     15  S   UNL     1       0.413  -2.728   2.762  1.00  0.00     0.181 S 
ATOM     16  O   UNL     1       0.904  -3.835   1.959  1.00  0.00    -0.223 OA
ATOM     17  O   UNL     1       0.726  -2.670   4.180  1.00  0.00    -0.223 OA
BRANCH  15  18
ATOM     18  C   UNL     1       1.064  -1.236   2.002  1.00  0.00     0.110 C 
ATOM     19  C   UNL     1       0.869   0.020   2.854  1.00  0.00     0.025 C 
BRANCH  18  20
ATOM     20  C   UNL     1       0.673  -1.105   0.520  1.00  0.00     0.016 C 
ATOM     21  C   UNL     1       1.248   0.124  -0.167  1.00  0.00     0.005 C 
ENDBRANCH  18  20
ENDBRANCH  15  18
ENDBRANCH   8  15
ENDBRANCH   5   7
ENDBRANCH   4   5
ENDBRANCH   3   4
ENDBRANCH   2   3
ENDBRANCH   1   2
BRANCH   1  22
ATOM     22  C   UNL     1      -3.764   0.995   4.842  1.00  0.00     0.202 C 
BRANCH  22  23
ATOM     23  C   UNL     1      -4.370   0.651   6.208  1.00  0.00     0.261 C 
BRANCH  23  24
ATOM     24  O   UNL     1      -5.745   0.240   6.111  1.00  0.00    -0.460 OA
BRANCH  24  25
ATOM     25  C   UNL     1      -6.639   1.139   6.588  1.00  0.00     0.338 C 
ATOM     26  O   UNL     1      -6.392   2.209   7.128  1.00  0.00    -0.246 OA
BRANCH  25  27
ATOM     27  C   UNL     1      -8.007   0.744   6.205  1.00  0.00     0.060 A 
ATOM     28  C   UNL     1      -8.806   1.707   5.574  1.00  0.00     0.016 A 
ATOM     29  C   UNL     1      -8.525  -0.516   6.512  1.00  0.00     0.016 A 
ATOM     30  C   UNL     1     -10.142   1.431   5.292  1.00  0.00     0.010 A 
ATOM     31  C   UNL     1      -9.870  -0.789   6.235  1.00  0.00     0.010 A 
ATOM     32  C   UNL     1     -10.692   0.195   5.655  1.00  0.00    -0.014 A 
BRANCH  32  33
ATOM     33  C   UNL     1     -12.157  -0.013   5.553  1.00  0.00     0.031 A 
ATOM     34  C   UNL     1     -13.005   0.132   6.787  1.00  0.00     0.074 A 
ATOM     35  C   UNL     1     -12.729  -0.299   4.370  1.00  0.00     0.049 A 
ATOM     36  N   UNL     1     -14.297  -0.016   6.925  1.00  0.00    -0.248 NA
ATOM     37  C   UNL     1     -12.302   0.489   8.030  1.00  0.00     0.031 C 
ATOM     38  C   UNL     1     -12.022  -0.421   3.095  1.00  0.00     0.029 A 
ATOM     39  N   UNL     1     -14.042  -0.538   4.051  1.00  0.00    -0.354 N 
ATOM     40  C   UNL     1     -14.562   0.220   8.270  1.00  0.00     0.074 A 
ATOM     41  C   UNL     1     -13.293   0.494   8.909  1.00  0.00     0.031 C 
ATOM     42  C   UNL     1     -12.911  -0.716   2.131  1.00  0.00     0.029 A 
ATOM     43  C   UNL     1     -14.242  -0.834   2.724  1.00  0.00     0.049 A 
ATOM     44  H   UNL     1     -14.772  -0.502   4.711  1.00  0.00     0.167 HD
ATOM     45  C   UNL     1     -15.754   0.213   8.913  1.00  0.00     0.031 A 
ATOM     46  C   UNL     1     -15.367  -1.177   2.066  1.00  0.00     0.031 A 
ATOM     47  C   UNL     1     -17.013  -0.073   8.278  1.00  0.00     0.049 A 
ATOM     48  C   UNL     1     -16.670  -1.249   2.816  1.00  0.00     0.074 A 
ATOM     49  C   UNL     1     -18.278  -0.083   8.841  1.00  0.00     0.029 A 
ATOM     50  N   UNL     1     -17.167  -0.410   6.942  1.00  0.00    -0.354 N 
ATOM     51  N   UNL     1     -16.908  -0.996   4.081  1.00  0.00    -0.248 NA
ATOM     52  C   UNL     1     -17.858  -1.646   2.046  1.00  0.00     0.031 C 
ATOM     53  C   UNL     1     -19.189  -0.482   7.857  1.00  0.00     0.029 A 
ATOM     54  C   UNL     1     -18.501  -0.662   6.668  1.00  0.00     0.049 A 
ATOM     55  H   UNL     1     -16.436  -0.463   6.285  1.00  0.00     0.167 HD
ATOM     56  C   UNL     1     -18.277  -1.177   4.253  1.00  0.00     0.074 A 
ATOM     57  C   UNL     1     -18.814  -1.551   2.960  1.00  0.00     0.031 C 
ATOM     58  C   UNL     1     -19.022  -1.040   5.378  1.00  0.00     0.031 A 
BRANCH  45  59
ATOM     59  C   UNL     1     -15.741   0.484  10.395  1.00  0.00    -0.014 A 
ATOM     60  C   UNL     1     -15.473   1.768  10.902  1.00  0.00     0.010 A 
ATOM     61  C   UNL     1     -16.020  -0.562  11.293  1.00  0.00     0.010 A 
ATOM     62  C   UNL     1     -15.438   1.990  12.281  1.00  0.00     0.020 A 
ATOM     63  C   UNL     1     -16.013  -0.338  12.672  1.00  0.00     0.020 A 
ATOM     64  C   UNL     1     -15.701   0.933  13.158  1.00  0.00     0.054 A 
BRANCH  64  65
ATOM     65  S   UNL     1     -15.651   1.248  14.944  1.00  0.00     0.124 S 
ATOM     66  O   UNL     1     -14.215   1.361  15.188  1.00  0.00    -0.237 OA
ATOM     67  O   UNL     1     -16.409   2.490  15.073  1.00  0.00    -0.237 OA
ATOM     68  O   UNL     1     -16.290   0.069  15.522  1.00  0.00    -0.744 OA
ENDBRANCH  64  65
ENDBRANCH  45  59
BRANCH  46  69
ATOM     69  C   UNL     1     -15.305  -1.488   0.612  1.00  0.00    -0.014 A 
ATOM     70  C   UNL     1     -15.861  -0.608  -0.333  1.00  0.00     0.010 A 
ATOM     71  C   UNL     1     -14.670  -2.661   0.165  1.00  0.00     0.010 A 
ATOM     72  C   UNL     1     -15.788  -0.899  -1.698  1.00  0.00     0.020 A 
ATOM     73  C   UNL     1     -14.573  -2.943  -1.200  1.00  0.00     0.020 A 
ATOM     74  C   UNL     1     -15.140  -2.062  -2.124  1.00  0.00     0.054 A 
BRANCH  74  75
ATOM     75  S   UNL     1     -14.995  -2.384  -3.904  1.00  0.00     0.124 S 
ATOM     76  O   UNL     1     -16.354  -2.787  -4.251  1.00  0.00    -0.237 OA
ATOM     77  O   UNL     1     -14.566  -1.088  -4.423  1.00  0.00    -0.237 OA
ATOM     78  O   UNL     1     -13.988  -3.440  -3.978  1.00  0.00    -0.744 OA
ENDBRANCH  74  75
ENDBRANCH  46  69
BRANCH  58  79
ATOM     79  C   UNL     1     -20.506  -1.266   5.261  1.00  0.00    -0.014 A 
ATOM     80  C   UNL     1     -21.038  -2.558   5.102  1.00  0.00     0.010 A 
ATOM     81  C   UNL     1     -21.385  -0.172   5.370  1.00  0.00     0.010 A 
ATOM     82  C   UNL     1     -22.421  -2.748   5.024  1.00  0.00     0.020 A 
ATOM     83  C   UNL     1     -22.768  -0.361   5.319  1.00  0.00     0.020 A 
ATOM     84  C   UNL     1     -23.277  -1.647   5.132  1.00  0.00     0.054 A 
BRANCH  84  85
ATOM     85  S   UNL     1     -25.070  -1.924   5.071  1.00  0.00     0.124 S 
ATOM     86  O   UNL     1     -25.289  -2.184   3.651  1.00  0.00    -0.237 OA
ATOM     87  O   UNL     1     -25.247  -3.073   5.956  1.00  0.00    -0.237 OA
ATOM     88  O   UNL     1     -25.631  -0.670   5.569  1.00  0.00    -0.744 OA
ENDBRANCH  84  85
ENDBRANCH  58  79
ENDBRANCH  32  33
ENDBRANCH  25  27
ENDBRANCH  24  25
ENDBRANCH  23  24
ENDBRANCH  22  23
ENDBRANCH   1  22
TORSDOF 20
