REMARK SMILES O=C(Nc1ccccc1C(=O)OCCOCCOC(=O)c1ccc(-c2c3nc(c(-c4ccc(S(=O)(=O)[O-])cc4)c4ccc([nH]4)c(-c4ccc(S(=O)(=O)[O-])cc4)c4nc(c(-c5ccc(S(=O)(=O)[O-])cc5)c5ccc2[nH]5)C=C4)C=C3)cc1)c1ccc(N2C(=O)[C@H]3CC=CC[C@H]3C2=O)cc1
REMARK SMILES IDX 15 1 14 2 13 3 12 4 10 5 11 6 9 7 4 8 5 9 6 10 8 11 7 12
REMARK SMILES IDX 3 13 1 14 2 15 81 17 82 18 97 19 83 20 96 21 84 22 85 23
REMARK SMILES IDX 86 24 94 25 87 26 88 27 93 28 95 29 89 30 92 31 90 32 91 33
REMARK SMILES IDX 16 34 17 35 18 36 19 37 20 38 21 39 22 40 80 41 23 42 79 43
REMARK SMILES IDX 24 44 25 45 26 46 73 47 27 48 78 49 72 50 74 51 28 52 77 53
REMARK SMILES IDX 71 54 70 55 29 57 59 58 40 59 58 60 41 61 44 62 57 63 75 64
REMARK SMILES IDX 42 65 43 66 56 68 76 69 45 70 30 71 31 72 39 73 32 74 38 75
REMARK SMILES IDX 33 76 34 77 35 78 36 79 37 80 60 81 61 82 69 83 62 84 68 85
REMARK SMILES IDX 63 86 64 87 65 88 66 89 67 90 46 91 47 92 55 93 48 94 54 95
REMARK SMILES IDX 49 96 50 97 51 98 52 99 53 100
REMARK H PARENT 3 16 74 56 44 67
REMARK Flexibility Score: inf
ROOT
ATOM      1  O   UNL     1       4.460   2.654   4.279  1.00  0.00    -0.374 OA
ENDROOT
BRANCH   1   2
ATOM      2  C   UNL     1       3.292   3.032   3.562  1.00  0.00     0.202 C 
BRANCH   2   3
ATOM      3  C   UNL     1       3.283   2.829   2.044  1.00  0.00     0.261 C 
BRANCH   3   4
ATOM      4  O   UNL     1       3.666   1.514   1.601  1.00  0.00    -0.460 OA
BRANCH   4   5
ATOM      5  C   UNL     1       4.845   1.466   0.929  1.00  0.00     0.340 C 
ATOM      6  O   UNL     1       5.616   2.401   0.749  1.00  0.00    -0.246 OA
BRANCH   5   7
ATOM      7  C   UNL     1       5.234   0.079   0.572  1.00  0.00     0.083 A 
ATOM      8  C   UNL     1       4.407  -0.949   0.082  1.00  0.00     0.056 A 
ATOM      9  C   UNL     1       4.963  -2.240  -0.039  1.00  0.00     0.027 A 
ATOM     10  C   UNL     1       6.312  -2.492   0.224  1.00  0.00     0.002 A 
ATOM     11  C   UNL     1       6.598  -0.192   0.831  1.00  0.00     0.018 A 
ATOM     12  C   UNL     1       7.137  -1.462   0.647  1.00  0.00     0.001 A 
BRANCH   8  13
ATOM     13  N   UNL     1       3.063  -0.875  -0.347  1.00  0.00    -0.321 N 
ATOM     14  O   UNL     1       1.090  -0.024  -1.016  1.00  0.00    -0.269 OA
ATOM     15  C   UNL     1       2.307   0.119  -0.921  1.00  0.00     0.255 C 
ATOM     16  H   UNL     1       2.563  -1.711  -0.204  1.00  0.00     0.170 HD
BRANCH  15  17
ATOM     17  C   UNL     1       2.932   1.331  -1.480  1.00  0.00     0.040 A 
ATOM     18  C   UNL     1       4.112   1.286  -2.224  1.00  0.00     0.016 A 
ATOM     19  C   UNL     1       2.352   2.555  -1.162  1.00  0.00     0.016 A 
ATOM     20  C   UNL     1       4.819   2.468  -2.468  1.00  0.00     0.027 A 
ATOM     21  C   UNL     1       3.074   3.726  -1.382  1.00  0.00     0.027 A 
ATOM     22  C   UNL     1       4.354   3.689  -1.957  1.00  0.00     0.052 A 
BRANCH  22  23
ATOM     23  N   UNL     1       5.177   4.845  -1.929  1.00  0.00    -0.250 N 
ATOM     24  C   UNL     1       6.200   5.113  -2.804  1.00  0.00     0.238 C 
ATOM     25  C   UNL     1       5.117   5.777  -0.914  1.00  0.00     0.238 C 
ATOM     26  O   UNL     1       6.630   4.427  -3.723  1.00  0.00    -0.274 OA
ATOM     27  C   UNL     1       6.734   6.496  -2.522  1.00  0.00     0.096 C 
ATOM     28  C   UNL     1       6.185   6.819  -1.136  1.00  0.00     0.096 C 
ATOM     29  O   UNL     1       4.407   5.781   0.085  1.00  0.00    -0.274 OA
ATOM     30  C   UNL     1       6.304   7.446  -3.650  1.00  0.00     0.041 C 
ATOM     31  C   UNL     1       5.574   8.209  -0.969  1.00  0.00     0.041 C 
ATOM     32  C   UNL     1       5.026   8.182  -3.374  1.00  0.00    -0.030 C 
ATOM     33  C   UNL     1       4.694   8.555  -2.131  1.00  0.00    -0.030 C 
ENDBRANCH  22  23
ENDBRANCH  15  17
ENDBRANCH   8  13
ENDBRANCH   5   7
ENDBRANCH   4   5
ENDBRANCH   3   4
ENDBRANCH   2   3
ENDBRANCH   1   2
BRANCH   1  34
ATOM     34  C   UNL     1       4.779   1.267   4.348  1.00  0.00     0.202 C 
BRANCH  34  35
ATOM     35  C   UNL     1       3.766   0.322   5.010  1.00  0.00     0.261 C 
BRANCH  35  36
ATOM     36  O   UNL     1       2.519   0.206   4.303  1.00  0.00    -0.460 OA
BRANCH  36  37
ATOM     37  C   UNL     1       1.427   0.588   5.013  1.00  0.00     0.338 C 
ATOM     38  O   UNL     1       1.416   1.038   6.157  1.00  0.00    -0.246 OA
BRANCH  37  39
ATOM     39  C   UNL     1       0.201   0.503   4.210  1.00  0.00     0.060 A 
ATOM     40  C   UNL     1      -0.493   1.684   3.925  1.00  0.00     0.016 A 
ATOM     41  C   UNL     1      -0.364  -0.739   3.925  1.00  0.00     0.016 A 
ATOM     42  C   UNL     1      -1.788   1.625   3.402  1.00  0.00     0.010 A 
ATOM     43  C   UNL     1      -1.662  -0.799   3.405  1.00  0.00     0.010 A 
ATOM     44  C   UNL     1      -2.396   0.381   3.183  1.00  0.00    -0.014 A 
BRANCH  44  45
ATOM     45  C   UNL     1      -3.843   0.305   2.860  1.00  0.00     0.031 A 
ATOM     46  C   UNL     1      -4.828  -0.021   3.952  1.00  0.00     0.074 A 
ATOM     47  C   UNL     1      -4.279   0.525   1.607  1.00  0.00     0.049 A 
ATOM     48  N   UNL     1      -6.123  -0.192   3.877  1.00  0.00    -0.248 NA
ATOM     49  C   UNL     1      -4.277  -0.180   5.308  1.00  0.00     0.031 C 
ATOM     50  C   UNL     1      -3.434   0.882   0.469  1.00  0.00     0.029 A 
ATOM     51  N   UNL     1      -5.547   0.469   1.084  1.00  0.00    -0.354 N 
ATOM     52  C   UNL     1      -6.542  -0.491   5.168  1.00  0.00     0.074 A 
ATOM     53  C   UNL     1      -5.359  -0.500   6.003  1.00  0.00     0.031 C 
ATOM     54  C   UNL     1      -4.207   1.004  -0.624  1.00  0.00     0.029 A 
ATOM     55  C   UNL     1      -5.593   0.699  -0.269  1.00  0.00     0.049 A 
ATOM     56  H   UNL     1      -6.347   0.282   1.627  1.00  0.00     0.167 HD
ATOM     57  C   UNL     1      -7.796  -0.737   5.620  1.00  0.00     0.031 A 
ATOM     58  C   UNL     1      -6.628   0.645  -1.131  1.00  0.00     0.031 A 
ATOM     59  C   UNL     1      -8.970  -0.744   4.788  1.00  0.00     0.049 A 
ATOM     60  C   UNL     1      -8.004   0.309  -0.620  1.00  0.00     0.074 A 
ATOM     61  C   UNL     1     -10.287  -0.964   5.157  1.00  0.00     0.029 A 
ATOM     62  N   UNL     1      -8.970  -0.531   3.418  1.00  0.00    -0.354 N 
ATOM     63  N   UNL     1      -8.387   0.049   0.608  1.00  0.00    -0.248 NA
ATOM     64  C   UNL     1      -9.087   0.263  -1.612  1.00  0.00     0.031 C 
ATOM     65  C   UNL     1     -11.076  -0.933   4.001  1.00  0.00     0.029 A 
ATOM     66  C   UNL     1     -10.259  -0.640   2.921  1.00  0.00     0.049 A 
ATOM     67  H   UNL     1      -8.172  -0.331   2.878  1.00  0.00     0.167 HD
ATOM     68  C   UNL     1      -9.759  -0.170   0.538  1.00  0.00     0.074 A 
ATOM     69  C   UNL     1     -10.140  -0.001  -0.849  1.00  0.00     0.031 C 
ATOM     70  C   UNL     1     -10.625  -0.478   1.536  1.00  0.00     0.031 A 
BRANCH  57  71
ATOM     71  C   UNL     1      -7.951  -1.061   7.083  1.00  0.00    -0.014 A 
ATOM     72  C   UNL     1      -7.798  -0.071   8.071  1.00  0.00     0.010 A 
ATOM     73  C   UNL     1      -8.271  -2.373   7.475  1.00  0.00     0.010 A 
ATOM     74  C   UNL     1      -7.910  -0.399   9.425  1.00  0.00     0.020 A 
ATOM     75  C   UNL     1      -8.409  -2.700   8.827  1.00  0.00     0.020 A 
ATOM     76  C   UNL     1      -8.206  -1.715   9.795  1.00  0.00     0.054 A 
BRANCH  76  77
ATOM     77  S   UNL     1      -8.342  -2.118  11.559  1.00  0.00     0.124 S 
ATOM     78  O   UNL     1      -6.941  -2.132  11.972  1.00  0.00    -0.237 OA
ATOM     79  O   UNL     1      -9.140  -1.012  12.082  1.00  0.00    -0.237 OA
ATOM     80  O   UNL     1      -9.007  -3.419  11.567  1.00  0.00    -0.744 OA
ENDBRANCH  76  77
ENDBRANCH  57  71
BRANCH  58  81
ATOM     81  C   UNL     1      -6.391   0.904  -2.577  1.00  0.00    -0.014 A 
ATOM     82  C   UNL     1      -6.838   2.095  -3.173  1.00  0.00     0.010 A 
ATOM     83  C   UNL     1      -5.687  -0.032  -3.357  1.00  0.00     0.010 A 
ATOM     84  C   UNL     1      -6.586   2.345  -4.526  1.00  0.00     0.020 A 
ATOM     85  C   UNL     1      -5.413   0.226  -4.703  1.00  0.00     0.020 A 
ATOM     86  C   UNL     1      -5.870   1.411  -5.280  1.00  0.00     0.054 A 
BRANCH  86  87
ATOM     87  S   UNL     1      -5.490   1.792  -7.014  1.00  0.00     0.124 S 
ATOM     88  O   UNL     1      -6.782   1.586  -7.660  1.00  0.00    -0.237 OA
ATOM     89  O   UNL     1      -5.033   3.178  -6.940  1.00  0.00    -0.237 OA
ATOM     90  O   UNL     1      -4.455   0.821  -7.359  1.00  0.00    -0.744 OA
ENDBRANCH  86  87
ENDBRANCH  58  81
BRANCH  70  91
ATOM     91  C   UNL     1     -12.079  -0.628   1.173  1.00  0.00    -0.014 A 
ATOM     92  C   UNL     1     -12.545  -1.760   0.481  1.00  0.00     0.010 A 
ATOM     93  C   UNL     1     -13.002   0.353   1.581  1.00  0.00     0.010 A 
ATOM     94  C   UNL     1     -13.904  -1.895   0.180  1.00  0.00     0.020 A 
ATOM     95  C   UNL     1     -14.364   0.210   1.303  1.00  0.00     0.020 A 
ATOM     96  C   UNL     1     -14.805  -0.907   0.591  1.00  0.00     0.054 A 
BRANCH  96  97
ATOM     97  S   UNL     1     -16.570  -1.125   0.229  1.00  0.00     0.124 S 
ATOM     98  O   UNL     1     -16.628  -0.807  -1.196  1.00  0.00    -0.237 OA
ATOM     99  O   UNL     1     -16.799  -2.526   0.570  1.00  0.00    -0.237 OA
ATOM    100  O   UNL     1     -17.225  -0.161   1.109  1.00  0.00    -0.744 OA
ENDBRANCH  96  97
ENDBRANCH  70  91
ENDBRANCH  44  45
ENDBRANCH  37  39
ENDBRANCH  36  37
ENDBRANCH  35  36
ENDBRANCH  34  35
ENDBRANCH   1  34
TORSDOF 20
