REMARK SMILES Cc1cc(NC(=O)c2ccc(Br)cc2N)ccc1C(=O)OCCOCCOC(=O)c1ccc(-c2c3nc(c(-c4ccc(S(=O)(=O)[O-])cc4)c4ccc([nH]4)c(-c4ccc(S(=O)(=O)[O-])cc4)c4nc(c(-c5ccc(S(=O)(=O)[O-])cc5)c5ccc2[nH]5)C=C4)C=C3)cc1
REMARK SMILES IDX 24 1 23 2 22 3 21 4 19 5 20 6 18 7 1 8 2 9 3 10 4 11 17 12
REMARK SMILES IDX 16 13 5 14 6 15 7 17 8 18 9 19 14 20 10 21 13 22 11 23 12 24
REMARK SMILES IDX 15 25 25 28 26 29 27 30 28 31 29 32 30 33 31 34 89 35 32 36
REMARK SMILES IDX 88 37 33 38 34 39 35 40 82 41 36 42 87 43 81 44 83 45 37 46
REMARK SMILES IDX 86 47 80 48 79 49 38 51 68 52 49 53 67 54 50 55 53 56 66 57
REMARK SMILES IDX 84 58 51 59 52 60 65 62 85 63 54 64 39 65 40 66 48 67 41 68
REMARK SMILES IDX 47 69 42 70 43 71 44 72 45 73 46 74 69 75 70 76 78 77 71 78
REMARK SMILES IDX 77 79 72 80 73 81 74 82 75 83 76 84 55 85 56 86 64 87 57 88
REMARK SMILES IDX 63 89 58 90 59 91 60 92 61 93 62 94
REMARK H PARENT 5 16 15 26 15 27 83 50 53 61
REMARK Flexibility Score: inf
ROOT
ATOM      1  O   UNL     1       0.927   3.171  -2.225  1.00  0.00    -0.374 OA
ENDROOT
BRANCH   1   2
ATOM      2  C   UNL     1       2.126   2.422  -2.383  1.00  0.00     0.202 C 
BRANCH   2   3
ATOM      3  C   UNL     1       2.750   2.366  -1.026  1.00  0.00     0.261 C 
BRANCH   3   4
ATOM      4  O   UNL     1       2.027   1.566  -0.071  1.00  0.00    -0.460 OA
BRANCH   4   5
ATOM      5  C   UNL     1       0.708   1.764   0.103  1.00  0.00     0.338 C 
ATOM      6  O   UNL     1       0.155   2.784   0.455  1.00  0.00    -0.246 OA
BRANCH   5   7
ATOM      7  C   UNL     1       0.015   0.481  -0.180  1.00  0.00     0.063 A 
ATOM      8  C   UNL     1       2.151  -0.982  -0.580  1.00  0.00     0.045 C 
ATOM      9  C   UNL     1       0.664  -0.726  -0.527  1.00  0.00    -0.035 A 
ATOM     10  C   UNL     1      -0.125  -1.862  -0.681  1.00  0.00     0.030 A 
ATOM     11  C   UNL     1      -1.484  -1.842  -0.387  1.00  0.00     0.041 A 
ATOM     12  C   UNL     1      -1.391   0.526  -0.079  1.00  0.00     0.018 A 
ATOM     13  C   UNL     1      -2.150  -0.636  -0.199  1.00  0.00     0.027 A 
BRANCH  11  14
ATOM     14  N   UNL     1      -2.149  -3.039  -0.111  1.00  0.00    -0.322 N 
ATOM     15  C   UNL     1      -1.608  -4.185   0.455  1.00  0.00     0.257 C 
ATOM     16  H   UNL     1      -3.106  -3.073  -0.342  1.00  0.00     0.170 HD
ATOM     17  O   UNL     1      -2.216  -5.251   0.344  1.00  0.00    -0.269 OA
BRANCH  15  18
ATOM     18  C   UNL     1      -0.319  -4.166   1.234  1.00  0.00     0.063 A 
ATOM     19  C   UNL     1       0.554  -5.242   0.982  1.00  0.00     0.017 A 
ATOM     20  C   UNL     1       0.047  -3.185   2.189  1.00  0.00     0.045 A 
ATOM     21  C   UNL     1       1.764  -5.365   1.670  1.00  0.00     0.016 A 
ATOM     22  C   UNL     1       1.266  -3.335   2.876  1.00  0.00     0.042 A 
ATOM     23  C   UNL     1       2.111  -4.412   2.619  1.00  0.00     0.020 A 
ATOM     24  Br  UNL     1       3.717  -4.601   3.600  1.00  0.00    -0.051 Br
BRANCH  20  25
ATOM     25  N   UNL     1      -0.792  -2.158   2.624  1.00  0.00    -0.398 N 
ATOM     26  H   UNL     1      -1.658  -2.008   2.179  1.00  0.00     0.156 HD
ATOM     27  H   UNL     1      -0.519  -1.583   3.375  1.00  0.00     0.156 HD
ENDBRANCH  20  25
ENDBRANCH  15  18
ENDBRANCH  11  14
ENDBRANCH   5   7
ENDBRANCH   4   5
ENDBRANCH   3   4
ENDBRANCH   2   3
ENDBRANCH   1   2
BRANCH   1  28
ATOM     28  C   UNL     1       0.186   3.385  -3.404  1.00  0.00     0.202 C 
BRANCH  28  29
ATOM     29  C   UNL     1       0.985   4.117  -4.487  1.00  0.00     0.261 C 
BRANCH  29  30
ATOM     30  O   UNL     1       1.231   5.489  -4.103  1.00  0.00    -0.460 OA
BRANCH  30  31
ATOM     31  C   UNL     1       2.505   5.796  -3.708  1.00  0.00     0.338 C 
ATOM     32  O   UNL     1       3.422   5.997  -4.482  1.00  0.00    -0.246 OA
BRANCH  31  33
ATOM     33  C   UNL     1       2.577   5.933  -2.222  1.00  0.00     0.060 A 
ATOM     34  C   UNL     1       3.798   5.864  -1.523  1.00  0.00     0.016 A 
ATOM     35  C   UNL     1       1.382   5.960  -1.510  1.00  0.00     0.016 A 
ATOM     36  C   UNL     1       3.812   5.691  -0.123  1.00  0.00     0.010 A 
ATOM     37  C   UNL     1       1.397   5.691  -0.160  1.00  0.00     0.010 A 
ATOM     38  C   UNL     1       2.601   5.537   0.550  1.00  0.00    -0.014 A 
BRANCH  38  39
ATOM     39  C   UNL     1       2.392   5.123   1.945  1.00  0.00     0.031 A 
ATOM     40  C   UNL     1       1.611   6.032   2.813  1.00  0.00     0.074 A 
ATOM     41  C   UNL     1       2.544   3.824   2.308  1.00  0.00     0.049 A 
ATOM     42  N   UNL     1       1.346   5.787   4.045  1.00  0.00    -0.248 NA
ATOM     43  C   UNL     1       1.075   7.325   2.379  1.00  0.00     0.031 C 
ATOM     44  C   UNL     1       1.810   3.058   3.319  1.00  0.00     0.029 A 
ATOM     45  N   UNL     1       3.426   2.878   1.797  1.00  0.00    -0.354 N 
ATOM     46  C   UNL     1       0.356   6.649   4.443  1.00  0.00     0.074 A 
ATOM     47  C   UNL     1       0.310   7.663   3.422  1.00  0.00     0.031 C 
ATOM     48  C   UNL     1       2.409   1.869   3.520  1.00  0.00     0.029 A 
ATOM     49  C   UNL     1       3.630   1.855   2.729  1.00  0.00     0.049 A 
ATOM     50  H   UNL     1       3.846   2.922   0.908  1.00  0.00     0.167 HD
ATOM     51  C   UNL     1      -0.383   6.308   5.533  1.00  0.00     0.031 A 
ATOM     52  C   UNL     1       4.895   1.567   3.138  1.00  0.00     0.031 A 
ATOM     53  C   UNL     1       0.185   5.121   6.191  1.00  0.00     0.049 A 
ATOM     54  C   UNL     1       4.989   2.045   4.559  1.00  0.00     0.074 A 
ATOM     55  C   UNL     1      -0.212   3.799   6.287  1.00  0.00     0.029 A 
ATOM     56  N   UNL     1       1.526   5.153   6.581  1.00  0.00    -0.354 N 
ATOM     57  N   UNL     1       4.189   2.966   5.033  1.00  0.00    -0.248 NA
ATOM     58  C   UNL     1       5.822   1.439   5.591  1.00  0.00     0.031 C 
ATOM     59  C   UNL     1       0.945   3.024   6.615  1.00  0.00     0.029 A 
ATOM     60  C   UNL     1       2.031   3.878   6.760  1.00  0.00     0.049 A 
ATOM     61  H   UNL     1       2.046   5.979   6.712  1.00  0.00     0.167 HD
ATOM     62  C   UNL     1       4.265   2.972   6.386  1.00  0.00     0.074 A 
ATOM     63  C   UNL     1       5.354   2.056   6.692  1.00  0.00     0.031 C 
ATOM     64  C   UNL     1       3.419   3.685   7.178  1.00  0.00     0.031 A 
BRANCH  51  65
ATOM     65  C   UNL     1      -1.709   6.933   5.913  1.00  0.00    -0.014 A 
ATOM     66  C   UNL     1      -2.384   6.471   7.060  1.00  0.00     0.010 A 
ATOM     67  C   UNL     1      -2.379   7.923   5.162  1.00  0.00     0.010 A 
ATOM     68  C   UNL     1      -3.641   6.972   7.441  1.00  0.00     0.020 A 
ATOM     69  C   UNL     1      -3.623   8.452   5.543  1.00  0.00     0.020 A 
ATOM     70  C   UNL     1      -4.250   7.969   6.682  1.00  0.00     0.054 A 
BRANCH  70  71
ATOM     71  S   UNL     1      -5.863   8.617   7.194  1.00  0.00     0.124 S 
ATOM     72  O   UNL     1      -6.723   7.442   7.082  1.00  0.00    -0.237 OA
ATOM     73  O   UNL     1      -5.601   9.081   8.553  1.00  0.00    -0.237 OA
ATOM     74  O   UNL     1      -6.138   9.676   6.223  1.00  0.00    -0.744 OA
ENDBRANCH  70  71
ENDBRANCH  51  65
BRANCH  52  75
ATOM     75  C   UNL     1       5.882   1.632   2.003  1.00  0.00    -0.014 A 
ATOM     76  C   UNL     1       5.868   0.534   1.105  1.00  0.00     0.010 A 
ATOM     77  C   UNL     1       6.354   2.867   1.514  1.00  0.00     0.010 A 
ATOM     78  C   UNL     1       6.142   0.702  -0.264  1.00  0.00     0.020 A 
ATOM     79  C   UNL     1       6.611   3.042   0.136  1.00  0.00     0.020 A 
ATOM     80  C   UNL     1       6.453   1.971  -0.751  1.00  0.00     0.054 A 
BRANCH  80  81
ATOM     81  S   UNL     1       6.316   2.269  -2.556  1.00  0.00     0.124 S 
ATOM     82  O   UNL     1       7.606   1.807  -3.052  1.00  0.00    -0.237 OA
ATOM     83  O   UNL     1       5.167   1.445  -2.938  1.00  0.00    -0.237 OA
ATOM     84  O   UNL     1       6.075   3.706  -2.638  1.00  0.00    -0.744 OA
ENDBRANCH  80  81
ENDBRANCH  52  75
BRANCH  64  85
ATOM     85  C   UNL     1       3.887   4.242   8.485  1.00  0.00    -0.014 A 
ATOM     86  C   UNL     1       5.253   4.389   8.782  1.00  0.00     0.010 A 
ATOM     87  C   UNL     1       2.955   4.813   9.375  1.00  0.00     0.010 A 
ATOM     88  C   UNL     1       5.671   4.974   9.972  1.00  0.00     0.020 A 
ATOM     89  C   UNL     1       3.366   5.463  10.535  1.00  0.00     0.020 A 
ATOM     90  C   UNL     1       4.721   5.496  10.846  1.00  0.00     0.054 A 
BRANCH  90  91
ATOM     91  S   UNL     1       5.285   6.233  12.390  1.00  0.00     0.124 S 
ATOM     92  O   UNL     1       5.495   5.048  13.219  1.00  0.00    -0.237 OA
ATOM     93  O   UNL     1       6.499   6.940  11.989  1.00  0.00    -0.237 OA
ATOM     94  O   UNL     1       4.173   7.091  12.789  1.00  0.00    -0.744 OA
ENDBRANCH  90  91
ENDBRANCH  64  85
ENDBRANCH  38  39
ENDBRANCH  31  33
ENDBRANCH  30  31
ENDBRANCH  29  30
ENDBRANCH  28  29
ENDBRANCH   1  28
TORSDOF 20
