REMARK SMILES Cc1c(NC(=O)c2ccc(-c3cccc(Cl)c3)o2)cccc1C(=O)OCCOCCOC(=O)c1ccc(-c2c3nc(c(-c4ccc(S(=O)(=O)[O-])cc4)c4ccc([nH]4)c(-c4ccc(S(=O)(=O)[O-])cc4)c4nc(c(-c5ccc(S(=O)(=O)[O-])cc5)c5ccc2[nH]5)C=C4)C=C3)cc1
REMARK SMILES IDX 28 1 27 2 26 3 25 4 23 5 24 6 22 7 1 8 2 9 3 10 19 11 21 12
REMARK SMILES IDX 20 13 4 14 5 15 6 17 7 18 8 19 18 20 9 21 10 22 11 23 12 24
REMARK SMILES IDX 17 25 13 26 15 27 14 28 16 29 29 30 30 31 31 32 32 33 33 34
REMARK SMILES IDX 34 35 35 36 93 37 36 38 92 39 37 40 38 41 39 42 86 43 40 44
REMARK SMILES IDX 91 45 85 46 87 47 41 48 90 49 84 50 83 51 42 53 72 54 53 55
REMARK SMILES IDX 71 56 54 57 57 58 70 59 88 60 55 61 56 62 69 64 89 65 58 66
REMARK SMILES IDX 43 67 44 68 52 69 45 70 51 71 46 72 47 73 48 74 49 75 50 76
REMARK SMILES IDX 73 77 74 78 82 79 75 80 81 81 76 82 77 83 78 84 79 85 80 86
REMARK SMILES IDX 59 87 60 88 68 89 61 90 67 91 62 92 63 93 64 94 65 95 66 96
REMARK H PARENT 4 16 87 52 57 63
REMARK Flexibility Score: inf
ROOT
ATOM      1  O   UNL     1       1.059   3.246  -2.254  1.00  0.00    -0.374 OA
ENDROOT
BRANCH   1   2
ATOM      2  C   UNL     1       2.252   2.501  -2.438  1.00  0.00     0.202 C 
BRANCH   2   3
ATOM      3  C   UNL     1       2.854   2.406  -1.077  1.00  0.00     0.261 C 
BRANCH   3   4
ATOM      4  O   UNL     1       2.055   1.609  -0.181  1.00  0.00    -0.460 OA
BRANCH   4   5
ATOM      5  C   UNL     1       0.779   1.903   0.116  1.00  0.00     0.338 C 
ATOM      6  O   UNL     1       0.268   2.991   0.260  1.00  0.00    -0.246 OA
BRANCH   5   7
ATOM      7  C   UNL     1       0.041   0.620   0.241  1.00  0.00     0.065 A 
ATOM      8  C   UNL     1       2.034  -0.973  -0.302  1.00  0.00     0.047 C 
ATOM      9  C   UNL     1       0.603  -0.680   0.110  1.00  0.00    -0.013 A 
ATOM     10  C   UNL     1      -0.229  -1.782   0.389  1.00  0.00     0.045 A 
ATOM     11  C   UNL     1      -1.570  -1.571   0.743  1.00  0.00     0.026 A 
ATOM     12  C   UNL     1      -1.333   0.788   0.495  1.00  0.00     0.016 A 
ATOM     13  C   UNL     1      -2.141  -0.306   0.735  1.00  0.00     0.003 A 
BRANCH  10  14
ATOM     14  N   UNL     1       0.347  -3.072   0.322  1.00  0.00    -0.319 N 
ATOM     15  C   UNL     1      -0.207  -4.303   0.058  1.00  0.00     0.291 C 
ATOM     16  H   UNL     1       1.316  -3.093   0.495  1.00  0.00     0.170 HD
ATOM     17  O   UNL     1       0.509  -5.301   0.135  1.00  0.00    -0.265 OA
BRANCH  15  18
ATOM     18  C   UNL     1      -1.582  -4.344  -0.350  1.00  0.00     0.192 A 
ATOM     19  C   UNL     1      -2.250  -3.775  -1.419  1.00  0.00     0.057 A 
ATOM     20  O   UNL     1      -2.475  -4.888   0.524  1.00  0.00    -0.451 OA
ATOM     21  C   UNL     1      -3.631  -3.917  -1.141  1.00  0.00     0.052 A 
ATOM     22  C   UNL     1      -3.715  -4.592   0.059  1.00  0.00     0.135 A 
BRANCH  22  23
ATOM     23  C   UNL     1      -4.809  -5.026   0.898  1.00  0.00     0.019 A 
ATOM     24  C   UNL     1      -5.895  -5.683   0.312  1.00  0.00     0.012 A 
ATOM     25  C   UNL     1      -4.797  -4.801   2.282  1.00  0.00     0.032 A 
ATOM     26  C   UNL     1      -6.960  -6.120   1.095  1.00  0.00     0.002 A 
ATOM     27  C   UNL     1      -5.872  -5.230   3.059  1.00  0.00     0.041 A 
ATOM     28  C   UNL     1      -6.950  -5.890   2.470  1.00  0.00     0.020 A 
ATOM     29  Cl  UNL     1      -5.876  -4.946   4.756  1.00  0.00    -0.084 Cl
ENDBRANCH  22  23
ENDBRANCH  15  18
ENDBRANCH  10  14
ENDBRANCH   5   7
ENDBRANCH   4   5
ENDBRANCH   3   4
ENDBRANCH   2   3
ENDBRANCH   1   2
BRANCH   1  30
ATOM     30  C   UNL     1       0.252   3.421  -3.389  1.00  0.00     0.202 C 
BRANCH  30  31
ATOM     31  C   UNL     1       0.996   4.156  -4.502  1.00  0.00     0.261 C 
BRANCH  31  32
ATOM     32  O   UNL     1       1.255   5.529  -4.123  1.00  0.00    -0.460 OA
BRANCH  32  33
ATOM     33  C   UNL     1       2.528   5.831  -3.722  1.00  0.00     0.338 C 
ATOM     34  O   UNL     1       3.451   6.021  -4.495  1.00  0.00    -0.246 OA
BRANCH  33  35
ATOM     35  C   UNL     1       2.601   5.982  -2.236  1.00  0.00     0.060 A 
ATOM     36  C   UNL     1       3.819   5.898  -1.531  1.00  0.00     0.016 A 
ATOM     37  C   UNL     1       1.406   6.028  -1.527  1.00  0.00     0.016 A 
ATOM     38  C   UNL     1       3.826   5.713  -0.130  1.00  0.00     0.010 A 
ATOM     39  C   UNL     1       1.416   5.748  -0.178  1.00  0.00     0.010 A 
ATOM     40  C   UNL     1       2.612   5.559   0.536  1.00  0.00    -0.014 A 
BRANCH  40  41
ATOM     41  C   UNL     1       2.389   5.121   1.924  1.00  0.00     0.031 A 
ATOM     42  C   UNL     1       1.603   6.025   2.796  1.00  0.00     0.074 A 
ATOM     43  C   UNL     1       2.542   3.819   2.283  1.00  0.00     0.049 A 
ATOM     44  N   UNL     1       1.328   5.770   4.023  1.00  0.00    -0.248 NA
ATOM     45  C   UNL     1       1.076   7.324   2.370  1.00  0.00     0.031 C 
ATOM     46  C   UNL     1       1.800   3.045   3.284  1.00  0.00     0.029 A 
ATOM     47  N   UNL     1       3.425   2.874   1.772  1.00  0.00    -0.354 N 
ATOM     48  C   UNL     1       0.345   6.639   4.425  1.00  0.00     0.074 A 
ATOM     49  C   UNL     1       0.306   7.659   3.410  1.00  0.00     0.031 C 
ATOM     50  C   UNL     1       2.395   1.852   3.478  1.00  0.00     0.029 A 
ATOM     51  C   UNL     1       3.620   1.840   2.694  1.00  0.00     0.049 A 
ATOM     52  H   UNL     1       3.852   2.925   0.887  1.00  0.00     0.167 HD
ATOM     53  C   UNL     1      -0.395   6.302   5.516  1.00  0.00     0.031 A 
ATOM     54  C   UNL     1       4.883   1.550   3.109  1.00  0.00     0.031 A 
ATOM     55  C   UNL     1       0.170   5.113   6.171  1.00  0.00     0.049 A 
ATOM     56  C   UNL     1       4.972   2.029   4.532  1.00  0.00     0.074 A 
ATOM     57  C   UNL     1      -0.225   3.789   6.252  1.00  0.00     0.029 A 
ATOM     58  N   UNL     1       1.510   5.144   6.565  1.00  0.00    -0.354 N 
ATOM     59  N   UNL     1       4.168   2.945   5.006  1.00  0.00    -0.248 NA
ATOM     60  C   UNL     1       5.811   1.430   5.564  1.00  0.00     0.031 C 
ATOM     61  C   UNL     1       0.934   3.014   6.576  1.00  0.00     0.029 A 
ATOM     62  C   UNL     1       2.018   3.869   6.732  1.00  0.00     0.049 A 
ATOM     63  H   UNL     1       2.027   5.970   6.705  1.00  0.00     0.167 HD
ATOM     64  C   UNL     1       4.248   2.958   6.358  1.00  0.00     0.074 A 
ATOM     65  C   UNL     1       5.343   2.048   6.664  1.00  0.00     0.031 C 
ATOM     66  C   UNL     1       3.405   3.677   7.150  1.00  0.00     0.031 A 
BRANCH  53  67
ATOM     67  C   UNL     1      -1.715   6.934   5.901  1.00  0.00    -0.014 A 
ATOM     68  C   UNL     1      -2.389   6.469   7.048  1.00  0.00     0.010 A 
ATOM     69  C   UNL     1      -2.382   7.929   5.155  1.00  0.00     0.010 A 
ATOM     70  C   UNL     1      -3.644   6.973   7.432  1.00  0.00     0.020 A 
ATOM     71  C   UNL     1      -3.624   8.460   5.540  1.00  0.00     0.020 A 
ATOM     72  C   UNL     1      -4.252   7.974   6.678  1.00  0.00     0.054 A 
BRANCH  72  73
ATOM     73  S   UNL     1      -5.863   8.623   7.195  1.00  0.00     0.124 S 
ATOM     74  O   UNL     1      -6.723   7.448   7.085  1.00  0.00    -0.237 OA
ATOM     75  O   UNL     1      -5.596   9.085   8.554  1.00  0.00    -0.237 OA
ATOM     76  O   UNL     1      -6.140   9.682   6.226  1.00  0.00    -0.744 OA
ENDBRANCH  72  73
ENDBRANCH  53  67
BRANCH  54  77
ATOM     77  C   UNL     1       5.878   1.621   1.981  1.00  0.00    -0.014 A 
ATOM     78  C   UNL     1       5.880   0.525   1.079  1.00  0.00     0.010 A 
ATOM     79  C   UNL     1       6.349   2.859   1.498  1.00  0.00     0.010 A 
ATOM     80  C   UNL     1       6.171   0.696  -0.285  1.00  0.00     0.020 A 
ATOM     81  C   UNL     1       6.620   3.039   0.124  1.00  0.00     0.020 A 
ATOM     82  C   UNL     1       6.482   1.968  -0.767  1.00  0.00     0.054 A 
BRANCH  82  83
ATOM     83  S   UNL     1       6.356   2.274  -2.573  1.00  0.00     0.124 S 
ATOM     84  O   UNL     1       7.663   1.853  -3.059  1.00  0.00    -0.237 OA
ATOM     85  O   UNL     1       5.235   1.420  -2.973  1.00  0.00    -0.237 OA
ATOM     86  O   UNL     1       6.073   3.703  -2.647  1.00  0.00    -0.744 OA
ENDBRANCH  82  83
ENDBRANCH  54  77
BRANCH  66  87
ATOM     87  C   UNL     1       3.877   4.239   8.454  1.00  0.00    -0.014 A 
ATOM     88  C   UNL     1       5.242   4.378   8.754  1.00  0.00     0.010 A 
ATOM     89  C   UNL     1       2.947   4.819   9.341  1.00  0.00     0.010 A 
ATOM     90  C   UNL     1       5.661   4.962   9.944  1.00  0.00     0.020 A 
ATOM     91  C   UNL     1       3.360   5.471  10.500  1.00  0.00     0.020 A 
ATOM     92  C   UNL     1       4.714   5.492  10.815  1.00  0.00     0.054 A 
BRANCH  92  93
ATOM     93  S   UNL     1       5.279   6.222  12.362  1.00  0.00     0.124 S 
ATOM     94  O   UNL     1       5.487   5.033  13.185  1.00  0.00    -0.237 OA
ATOM     95  O   UNL     1       6.494   6.928  11.963  1.00  0.00    -0.237 OA
ATOM     96  O   UNL     1       4.169   7.080  12.765  1.00  0.00    -0.744 OA
ENDBRANCH  92  93
ENDBRANCH  66  87
ENDBRANCH  40  41
ENDBRANCH  33  35
ENDBRANCH  32  33
ENDBRANCH  31  32
ENDBRANCH  30  31
ENDBRANCH   1  30
TORSDOF 20
