REMARK SMILES COc1ccc(-n2c(=S)[nH]cc(CC(=O)OCCOCCOC(=O)c3ccc(-c4c5nc(c(-c6ccc(S(=O)(=O)[O-])cc6)c6ccc([nH]6)c(-c6ccc(S(=O)(=O)[O-])cc6)c6nc(c(-c7ccc(S(=O)(=O)[O-])cc7)c7ccc4[nH]7)C=C6)C=C5)cc3)c2=O)cc1Cl
REMARK SMILES IDX 19 1 18 2 17 3 16 4 14 5 15 6 13 7 12 8 7 9 8 10 85 11 9 12
REMARK SMILES IDX 10 13 86 14 11 15 6 17 3 18 4 19 88 20 5 21 87 22 89 23 2 24
REMARK SMILES IDX 1 25 20 26 21 27 22 28 23 29 24 30 25 31 26 32 84 33 27 34
REMARK SMILES IDX 83 35 28 36 29 37 30 38 77 39 31 40 82 41 76 42 78 43 32 44
REMARK SMILES IDX 81 45 75 46 74 47 33 49 63 50 44 51 62 52 45 53 48 54 61 55
REMARK SMILES IDX 79 56 46 57 47 58 60 60 80 61 49 62 34 63 35 64 43 65 36 66
REMARK SMILES IDX 42 67 37 68 38 69 39 70 40 71 41 72 64 73 65 74 73 75 66 76
REMARK SMILES IDX 72 77 67 78 68 79 69 80 70 81 71 82 50 83 51 84 59 85 52 86
REMARK SMILES IDX 58 87 53 88 54 89 55 90 56 91 57 92
REMARK H PARENT 10 16 78 48 48 59
REMARK Flexibility Score: inf
ROOT
ATOM      1  O   UNL     1       3.441   5.969  11.226  1.00  0.00    -0.374 OA
ENDROOT
BRANCH   1   2
ATOM      2  C   UNL     1       3.739   4.575  11.235  1.00  0.00     0.202 C 
BRANCH   2   3
ATOM      3  C   UNL     1       2.608   3.600  10.878  1.00  0.00     0.261 C 
BRANCH   3   4
ATOM      4  O   UNL     1       2.053   3.825   9.566  1.00  0.00    -0.463 OA
BRANCH   4   5
ATOM      5  C   UNL     1       0.745   4.195   9.542  1.00  0.00     0.310 C 
ATOM      6  O   UNL     1       0.038   4.321  10.538  1.00  0.00    -0.252 OA
BRANCH   5   7
ATOM      7  C   UNL     1       0.200   4.511   8.157  1.00  0.00     0.165 C 
BRANCH   7   8
ATOM      8  C   UNL     1       1.172   4.658   7.020  1.00  0.00     0.045 A 
ATOM      9  N   UNL     1       1.964   3.845   4.831  1.00  0.00    -0.253 N 
ATOM     10  C   UNL     1       2.822   4.951   4.718  1.00  0.00     0.184 A 
ATOM     11  C   UNL     1       1.209   3.586   5.987  1.00  0.00     0.262 A 
ATOM     12  S   UNL     1       3.857   5.379   3.466  1.00  0.00    -0.040 S 
ATOM     13  N   UNL     1       2.733   5.868   5.736  1.00  0.00    -0.338 N 
ATOM     14  O   UNL     1       0.549   2.565   6.177  1.00  0.00    -0.269 OA
ATOM     15  C   UNL     1       1.894   5.760   6.798  1.00  0.00     0.095 A 
ATOM     16  H   UNL     1       3.318   6.659   5.693  1.00  0.00     0.168 HD
BRANCH   9  17
ATOM     17  C   UNL     1       1.675   3.030   3.688  1.00  0.00     0.053 A 
ATOM     18  C   UNL     1       1.062   1.737   1.271  1.00  0.00     0.137 A 
ATOM     19  C   UNL     1       0.065   2.414   1.974  1.00  0.00     0.050 A 
ATOM     20  C   UNL     1       2.366   1.692   1.784  1.00  0.00     0.085 A 
ATOM     21  C   UNL     1       0.364   3.041   3.183  1.00  0.00     0.031 A 
ATOM     22  C   UNL     1       2.666   2.326   2.997  1.00  0.00     0.051 A 
ATOM     23  Cl  UNL     1       3.672   0.955   0.931  1.00  0.00    -0.080 Cl
BRANCH  18  24
ATOM     24  O   UNL     1       0.692   1.262   0.040  1.00  0.00    -0.495 OA
ATOM     25  C   UNL     1       0.761  -0.159  -0.051  1.00  0.00     0.278 C 
ENDBRANCH  18  24
ENDBRANCH   9  17
ENDBRANCH   7   8
ENDBRANCH   5   7
ENDBRANCH   4   5
ENDBRANCH   3   4
ENDBRANCH   2   3
ENDBRANCH   1   2
BRANCH   1  26
ATOM     26  C   UNL     1       3.276   6.593   9.957  1.00  0.00     0.202 C 
BRANCH  26  27
ATOM     27  C   UNL     1       4.530   6.787   9.090  1.00  0.00     0.261 C 
BRANCH  27  28
ATOM     28  O   UNL     1       5.087   5.540   8.636  1.00  0.00    -0.460 OA
BRANCH  28  29
ATOM     29  C   UNL     1       6.334   5.276   9.103  1.00  0.00     0.338 C 
ATOM     30  O   UNL     1       7.037   6.022   9.771  1.00  0.00    -0.246 OA
BRANCH  29  31
ATOM     31  C   UNL     1       6.670   3.855   8.887  1.00  0.00     0.060 A 
ATOM     32  C   UNL     1       6.658   3.273   7.619  1.00  0.00     0.016 A 
ATOM     33  C   UNL     1       7.068   3.111  10.007  1.00  0.00     0.016 A 
ATOM     34  C   UNL     1       7.090   1.949   7.472  1.00  0.00     0.010 A 
ATOM     35  C   UNL     1       7.496   1.793   9.857  1.00  0.00     0.010 A 
ATOM     36  C   UNL     1       7.537   1.208   8.585  1.00  0.00    -0.014 A 
BRANCH  36  37
ATOM     37  C   UNL     1       8.193  -0.114   8.409  1.00  0.00     0.031 A 
ATOM     38  C   UNL     1       7.532  -1.388   8.847  1.00  0.00     0.074 A 
ATOM     39  C   UNL     1       9.440  -0.145   7.898  1.00  0.00     0.049 A 
ATOM     40  N   UNL     1       7.967  -2.616   8.730  1.00  0.00    -0.248 NA
ATOM     41  C   UNL     1       6.223  -1.274   9.508  1.00  0.00     0.031 C 
ATOM     42  C   UNL     1      10.200   1.035   7.483  1.00  0.00     0.029 A 
ATOM     43  N   UNL     1      10.286  -1.195   7.637  1.00  0.00    -0.354 N 
ATOM     44  C   UNL     1       6.984  -3.425   9.285  1.00  0.00     0.074 A 
ATOM     45  C   UNL     1       5.950  -2.543   9.786  1.00  0.00     0.031 C 
ATOM     46  C   UNL     1      11.382   0.642   6.986  1.00  0.00     0.029 A 
ATOM     47  C   UNL     1      11.486  -0.812   7.084  1.00  0.00     0.049 A 
ATOM     48  H   UNL     1      10.056  -2.133   7.828  1.00  0.00     0.167 HD
ATOM     49  C   UNL     1       6.943  -4.777   9.348  1.00  0.00     0.031 A 
ATOM     50  C   UNL     1      12.553  -1.539   6.694  1.00  0.00     0.031 A 
ATOM     51  C   UNL     1       7.990  -5.641   8.857  1.00  0.00     0.049 A 
ATOM     52  C   UNL     1      12.498  -3.037   6.803  1.00  0.00     0.074 A 
ATOM     53  C   UNL     1       8.010  -7.025   8.827  1.00  0.00     0.029 A 
ATOM     54  N   UNL     1       9.199  -5.215   8.324  1.00  0.00    -0.354 N 
ATOM     55  N   UNL     1      11.517  -3.791   7.240  1.00  0.00    -0.248 NA
ATOM     56  C   UNL     1      13.680  -3.787   6.355  1.00  0.00     0.031 C 
ATOM     57  C   UNL     1       9.260  -7.435   8.362  1.00  0.00     0.029 A 
ATOM     58  C   UNL     1       9.988  -6.310   8.008  1.00  0.00     0.049 A 
ATOM     59  H   UNL     1       9.458  -4.275   8.191  1.00  0.00     0.167 HD
ATOM     60  C   UNL     1      11.955  -5.103   7.103  1.00  0.00     0.074 A 
ATOM     61  C   UNL     1      13.281  -5.042   6.522  1.00  0.00     0.031 C 
ATOM     62  C   UNL     1      11.313  -6.250   7.434  1.00  0.00     0.031 A 
BRANCH  49  63
ATOM     63  C   UNL     1       5.724  -5.437   9.949  1.00  0.00    -0.014 A 
ATOM     64  C   UNL     1       5.851  -6.228  11.107  1.00  0.00     0.010 A 
ATOM     65  C   UNL     1       4.485  -5.399   9.285  1.00  0.00     0.010 A 
ATOM     66  C   UNL     1       4.779  -7.000  11.565  1.00  0.00     0.020 A 
ATOM     67  C   UNL     1       3.399  -6.143   9.758  1.00  0.00     0.020 A 
ATOM     68  C   UNL     1       3.562  -6.960  10.880  1.00  0.00     0.054 A 
BRANCH  68  69
ATOM     69  S   UNL     1       2.196  -8.004  11.461  1.00  0.00     0.124 S 
ATOM     70  O   UNL     1       2.643  -9.339  11.079  1.00  0.00    -0.237 OA
ATOM     71  O   UNL     1       2.176  -7.729  12.896  1.00  0.00    -0.237 OA
ATOM     72  O   UNL     1       1.040  -7.497  10.724  1.00  0.00    -0.744 OA
ENDBRANCH  68  69
ENDBRANCH  49  63
BRANCH  50  73
ATOM     73  C   UNL     1      13.729  -0.834   6.109  1.00  0.00    -0.014 A 
ATOM     74  C   UNL     1      14.500   0.043   6.897  1.00  0.00     0.010 A 
ATOM     75  C   UNL     1      14.013  -0.942   4.736  1.00  0.00     0.010 A 
ATOM     76  C   UNL     1      15.477   0.852   6.312  1.00  0.00     0.020 A 
ATOM     77  C   UNL     1      15.015  -0.160   4.153  1.00  0.00     0.020 A 
ATOM     78  C   UNL     1      15.715   0.758   4.939  1.00  0.00     0.054 A 
BRANCH  78  79
ATOM     79  S   UNL     1      16.922   1.886   4.189  1.00  0.00     0.124 S 
ATOM     80  O   UNL     1      16.209   3.160   4.234  1.00  0.00    -0.237 OA
ATOM     81  O   UNL     1      18.066   1.772   5.090  1.00  0.00    -0.237 OA
ATOM     82  O   UNL     1      17.126   1.332   2.853  1.00  0.00    -0.744 OA
ENDBRANCH  78  79
ENDBRANCH  50  73
BRANCH  62  83
ATOM     83  C   UNL     1      12.018  -7.564   7.197  1.00  0.00    -0.014 A 
ATOM     84  C   UNL     1      11.480  -8.493   6.284  1.00  0.00     0.010 A 
ATOM     85  C   UNL     1      13.117  -7.946   7.987  1.00  0.00     0.010 A 
ATOM     86  C   UNL     1      11.990  -9.791   6.205  1.00  0.00     0.020 A 
ATOM     87  C   UNL     1      13.655  -9.233   7.884  1.00  0.00     0.020 A 
ATOM     88  C   UNL     1      13.066 -10.157   7.017  1.00  0.00     0.054 A 
BRANCH  88  89
ATOM     89  S   UNL     1      13.671 -11.866   6.947  1.00  0.00     0.124 S 
ATOM     90  O   UNL     1      12.604 -12.598   7.624  1.00  0.00    -0.237 OA
ATOM     91  O   UNL     1      13.785 -12.106   5.510  1.00  0.00    -0.237 OA
ATOM     92  O   UNL     1      14.942 -11.812   7.665  1.00  0.00    -0.744 OA
ENDBRANCH  88  89
ENDBRANCH  62  83
ENDBRANCH  36  37
ENDBRANCH  29  31
ENDBRANCH  28  29
ENDBRANCH  27  28
ENDBRANCH  26  27
ENDBRANCH   1  26
TORSDOF 20
