REMARK SMILES C[C@H](C(=O)OCCOCCOC(=O)c1ccc(-c2c3nc(c(-c4ccc(S(=O)(=O)[O-])cc4)c4ccc([nH]4)c(-c4ccc(S(=O)(=O)[O-])cc4)c4nc(c(-c5ccc(S(=O)(=O)[O-])cc5)c5ccc2[nH]5)C=C4)C=C3)cc1)c1ccc2c(c1)OCCO2
REMARK SMILES IDX 9 1 8 2 7 3 6 4 5 5 3 6 4 7 2 8 1 9 74 10 75 11 79 12 76 13
REMARK SMILES IDX 78 14 77 15 80 16 83 17 81 18 82 19 10 20 11 21 12 22 13 23
REMARK SMILES IDX 14 24 15 25 73 26 16 27 72 28 17 29 18 30 19 31 66 32 20 33
REMARK SMILES IDX 71 34 65 35 67 36 21 37 70 38 64 39 63 40 22 42 52 43 33 44
REMARK SMILES IDX 51 45 34 46 37 47 50 48 68 49 35 50 36 51 49 53 69 54 38 55
REMARK SMILES IDX 23 56 24 57 32 58 25 59 31 60 26 61 27 62 28 63 29 64 30 65
REMARK SMILES IDX 53 66 54 67 62 68 55 69 61 70 56 71 57 72 58 73 59 74 60 75
REMARK SMILES IDX 39 76 40 77 48 78 41 79 47 80 42 81 43 82 44 83 45 84 46 85
REMARK H PARENT 67 41 37 52
REMARK Flexibility Score: inf
ROOT
ATOM      1  C   UNL     1       1.259  -0.213   2.497  1.00  0.00     0.202 C 
ENDROOT
BRANCH   1   2
ATOM      2  O   UNL     1       1.882   1.067   2.607  1.00  0.00    -0.374 OA
BRANCH   2   3
ATOM      3  C   UNL     1       1.267   2.155   1.909  1.00  0.00     0.202 C 
BRANCH   3   4
ATOM      4  C   UNL     1       1.486   2.162   0.396  1.00  0.00     0.261 C 
BRANCH   4   5
ATOM      5  O   UNL     1       0.721   1.098  -0.197  1.00  0.00    -0.463 OA
BRANCH   5   6
ATOM      6  C   UNL     1       1.409   0.267  -1.014  1.00  0.00     0.313 C 
ATOM      7  O   UNL     1       2.543   0.489  -1.431  1.00  0.00    -0.252 OA
BRANCH   6   8
ATOM      8  C   UNL     1       0.684  -1.028  -1.323  1.00  0.00     0.126 C 
ATOM      9  C   UNL     1       1.606  -2.197  -0.928  1.00  0.00     0.025 C 
BRANCH   8  10
ATOM     10  C   UNL     1      -0.767  -1.207  -0.858  1.00  0.00    -0.030 A 
ATOM     11  C   UNL     1      -1.772  -0.385  -1.405  1.00  0.00     0.009 A 
ATOM     12  C   UNL     1      -1.160  -2.357  -0.151  1.00  0.00     0.055 A 
ATOM     13  C   UNL     1      -3.104  -0.809  -1.429  1.00  0.00     0.051 A 
ATOM     14  C   UNL     1      -2.457  -2.833  -0.277  1.00  0.00     0.161 A 
ATOM     15  C   UNL     1      -3.408  -2.082  -0.966  1.00  0.00     0.161 A 
ATOM     16  O   UNL     1      -2.669  -4.121   0.141  1.00  0.00    -0.486 OA
ATOM     17  O   UNL     1      -4.599  -2.645  -1.357  1.00  0.00    -0.486 OA
ATOM     18  C   UNL     1      -3.781  -4.755  -0.509  1.00  0.00     0.271 C 
ATOM     19  C   UNL     1      -4.295  -3.998  -1.729  1.00  0.00     0.271 C 
ENDBRANCH   8  10
ENDBRANCH   6   8
ENDBRANCH   5   6
ENDBRANCH   4   5
ENDBRANCH   3   4
ENDBRANCH   2   3
ENDBRANCH   1   2
BRANCH   1  20
ATOM     20  C   UNL     1       0.064  -0.474   3.419  1.00  0.00     0.261 C 
BRANCH  20  21
ATOM     21  O   UNL     1      -1.037   0.407   3.150  1.00  0.00    -0.460 OA
BRANCH  21  22
ATOM     22  C   UNL     1      -1.204   1.391   4.063  1.00  0.00     0.338 C 
ATOM     23  O   UNL     1      -0.571   1.548   5.102  1.00  0.00    -0.246 OA
BRANCH  22  24
ATOM     24  C   UNL     1      -2.158   2.395   3.563  1.00  0.00     0.060 A 
ATOM     25  C   UNL     1      -1.761   3.738   3.615  1.00  0.00     0.016 A 
ATOM     26  C   UNL     1      -3.436   2.049   3.117  1.00  0.00     0.016 A 
ATOM     27  C   UNL     1      -2.660   4.744   3.276  1.00  0.00     0.010 A 
ATOM     28  C   UNL     1      -4.342   3.063   2.788  1.00  0.00     0.010 A 
ATOM     29  C   UNL     1      -3.969   4.414   2.903  1.00  0.00    -0.014 A 
BRANCH  29  30
ATOM     30  C   UNL     1      -4.979   5.492   2.783  1.00  0.00     0.031 A 
ATOM     31  C   UNL     1      -5.898   5.761   3.943  1.00  0.00     0.074 A 
ATOM     32  C   UNL     1      -5.043   6.253   1.676  1.00  0.00     0.049 A 
ATOM     33  N   UNL     1      -6.845   6.656   4.059  1.00  0.00    -0.248 NA
ATOM     34  C   UNL     1      -5.725   4.909   5.132  1.00  0.00     0.031 C 
ATOM     35  C   UNL     1      -4.177   6.118   0.506  1.00  0.00     0.029 A 
ATOM     36  N   UNL     1      -5.879   7.295   1.360  1.00  0.00    -0.354 N 
ATOM     37  C   UNL     1      -7.382   6.476   5.328  1.00  0.00     0.074 A 
ATOM     38  C   UNL     1      -6.676   5.367   5.933  1.00  0.00     0.031 C 
ATOM     39  C   UNL     1      -4.531   7.040  -0.406  1.00  0.00     0.029 A 
ATOM     40  C   UNL     1      -5.665   7.808   0.104  1.00  0.00     0.049 A 
ATOM     41  H   UNL     1      -6.566   7.641   1.974  1.00  0.00     0.167 HD
ATOM     42  C   UNL     1      -8.369   7.174   5.939  1.00  0.00     0.031 A 
ATOM     43  C   UNL     1      -6.322   8.776  -0.566  1.00  0.00     0.031 A 
ATOM     44  C   UNL     1      -9.082   8.263   5.327  1.00  0.00     0.049 A 
ATOM     45  C   UNL     1      -7.465   9.492   0.104  1.00  0.00     0.074 A 
ATOM     46  C   UNL     1     -10.096   9.037   5.864  1.00  0.00     0.029 A 
ATOM     47  N   UNL     1      -8.864   8.727   4.039  1.00  0.00    -0.354 N 
ATOM     48  N   UNL     1      -7.947   9.323   1.313  1.00  0.00    -0.248 NA
ATOM     49  C   UNL     1      -8.146  10.534  -0.676  1.00  0.00     0.031 C 
ATOM     50  C   UNL     1     -10.526   9.936   4.880  1.00  0.00     0.029 A 
ATOM     51  C   UNL     1      -9.740   9.760   3.752  1.00  0.00     0.049 A 
ATOM     52  H   UNL     1      -8.185   8.374   3.419  1.00  0.00     0.167 HD
ATOM     53  C   UNL     1      -8.973  10.254   1.445  1.00  0.00     0.074 A 
ATOM     54  C   UNL     1      -9.032  10.990   0.199  1.00  0.00     0.031 C 
ATOM     55  C   UNL     1      -9.790  10.480   2.504  1.00  0.00     0.031 A 
BRANCH  42  56
ATOM     56  C   UNL     1      -8.756   6.751   7.330  1.00  0.00    -0.014 A 
ATOM     57  C   UNL     1      -7.912   6.997   8.428  1.00  0.00     0.010 A 
ATOM     58  C   UNL     1      -9.994   6.119   7.547  1.00  0.00     0.010 A 
ATOM     59  C   UNL     1      -8.279   6.580   9.711  1.00  0.00     0.020 A 
ATOM     60  C   UNL     1     -10.376   5.723   8.832  1.00  0.00     0.020 A 
ATOM     61  C   UNL     1      -9.508   5.941   9.903  1.00  0.00     0.054 A 
BRANCH  61  62
ATOM     62  S   UNL     1      -9.966   5.419  11.579  1.00  0.00     0.124 S 
ATOM     63  O   UNL     1      -9.101   4.260  11.781  1.00  0.00    -0.237 OA
ATOM     64  O   UNL     1      -9.638   6.594  12.383  1.00  0.00    -0.237 OA
ATOM     65  O   UNL     1     -11.392   5.120  11.472  1.00  0.00    -0.744 OA
ENDBRANCH  61  62
ENDBRANCH  42  56
BRANCH  43  66
ATOM     66  C   UNL     1      -5.923   9.110  -1.960  1.00  0.00    -0.014 A 
ATOM     67  C   UNL     1      -5.287  10.328  -2.256  1.00  0.00     0.010 A 
ATOM     68  C   UNL     1      -6.168   8.194  -3.000  1.00  0.00     0.010 A 
ATOM     69  C   UNL     1      -4.911  10.628  -3.570  1.00  0.00     0.020 A 
ATOM     70  C   UNL     1      -5.771   8.479  -4.309  1.00  0.00     0.020 A 
ATOM     71  C   UNL     1      -5.152   9.700  -4.587  1.00  0.00     0.054 A 
BRANCH  71  72
ATOM     72  S   UNL     1      -4.598  10.081  -6.272  1.00  0.00     0.124 S 
ATOM     73  O   UNL     1      -5.584  11.067  -6.701  1.00  0.00    -0.237 OA
ATOM     74  O   UNL     1      -3.246  10.589  -6.053  1.00  0.00    -0.237 OA
ATOM     75  O   UNL     1      -4.665   8.789  -6.953  1.00  0.00    -0.744 OA
ENDBRANCH  71  72
ENDBRANCH  43  66
BRANCH  55  76
ATOM     76  C   UNL     1     -10.801  11.588   2.377  1.00  0.00    -0.014 A 
ATOM     77  C   UNL     1     -11.943  11.444   1.569  1.00  0.00     0.010 A 
ATOM     78  C   UNL     1     -10.633  12.770   3.122  1.00  0.00     0.010 A 
ATOM     79  C   UNL     1     -12.884  12.474   1.486  1.00  0.00     0.020 A 
ATOM     80  C   UNL     1     -11.585  13.791   3.063  1.00  0.00     0.020 A 
ATOM     81  C   UNL     1     -12.698  13.642   2.233  1.00  0.00     0.054 A 
BRANCH  81  82
ATOM     82  S   UNL     1     -13.955  14.947   2.143  1.00  0.00     0.124 S 
ATOM     83  O   UNL     1     -13.690  15.534   0.833  1.00  0.00    -0.237 OA
ATOM     84  O   UNL     1     -15.205  14.199   2.256  1.00  0.00    -0.237 OA
ATOM     85  O   UNL     1     -13.646  15.806   3.285  1.00  0.00    -0.744 OA
ENDBRANCH  81  82
ENDBRANCH  55  76
ENDBRANCH  29  30
ENDBRANCH  22  24
ENDBRANCH  21  22
ENDBRANCH  20  21
ENDBRANCH   1  20
TORSDOF 18
