REMARK SMILES C[C@@](CC(=O)Nc1ccc(NC(=O)c2ccco2)cc1)(C(=O)OCCOCCOC(=O)c1ccc(-c2c3nc(c(-c4ccc(S(=O)(=O)[O-])cc4)c4ccc([nH]4)c(-c4ccc(S(=O)(=O)[O-])cc4)c4nc(c(-c5ccc(S(=O)(=O)[O-])cc5)c5ccc2[nH]5)C=C4)C=C3)cc1)c1ccccc1
REMARK SMILES IDX 25 1 24 2 23 3 21 4 22 5 2 6 1 7 3 8 4 9 5 10 6 11 7 13 8 14
REMARK SMILES IDX 20 15 9 16 19 17 10 18 11 19 12 20 13 22 14 23 15 24 18 25
REMARK SMILES IDX 16 26 17 27 92 28 93 29 97 30 94 31 96 32 95 33 26 34 27 35
REMARK SMILES IDX 28 36 29 37 30 38 31 39 32 40 33 41 91 42 34 43 90 44 35 45
REMARK SMILES IDX 36 46 37 47 84 48 38 49 89 50 83 51 85 52 39 53 88 54 82 55
REMARK SMILES IDX 81 56 40 58 70 59 51 60 69 61 52 62 55 63 68 64 86 65 53 66
REMARK SMILES IDX 54 67 67 69 87 70 56 71 41 72 42 73 50 74 43 75 49 76 44 77
REMARK SMILES IDX 45 78 46 79 47 80 48 81 71 82 72 83 80 84 73 85 79 86 74 87
REMARK SMILES IDX 75 88 76 89 77 90 78 91 57 92 58 93 66 94 59 95 65 96 60 97
REMARK SMILES IDX 61 98 62 99 63 100 64 101
REMARK H PARENT 6 12 11 21 85 57 55 68
REMARK Flexibility Score: inf
ROOT
ATOM      1  C   UNL     1      -3.838  -0.258  -0.720  1.00  0.00     0.202 C 
ENDROOT
BRANCH   1   2
ATOM      2  C   UNL     1      -2.991  -1.068  -1.704  1.00  0.00     0.261 C 
BRANCH   2   3
ATOM      3  O   UNL     1      -1.598  -0.838  -1.434  1.00  0.00    -0.463 OA
BRANCH   3   4
ATOM      4  C   UNL     1      -0.804  -0.632  -2.520  1.00  0.00     0.316 C 
ATOM      5  O   UNL     1      -1.173  -0.764  -3.681  1.00  0.00    -0.251 OA
BRANCH   4   6
ATOM      6  C   UNL     1       0.620  -0.200  -2.105  1.00  0.00     0.099 C 
ATOM      7  C   UNL     1       0.676   0.702  -0.850  1.00  0.00     0.029 C 
BRANCH   6   8
ATOM      8  C   UNL     1       1.422  -1.498  -1.783  1.00  0.00     0.123 C 
BRANCH   8   9
ATOM      9  C   UNL     1       0.728  -2.635  -0.998  1.00  0.00     0.225 C 
ATOM     10  O   UNL     1      -0.050  -3.395  -1.581  1.00  0.00    -0.275 OA
ATOM     11  N   UNL     1       1.119  -2.962   0.281  1.00  0.00    -0.326 N 
ATOM     12  H   UNL     1       1.017  -3.911   0.524  1.00  0.00     0.169 HD
BRANCH  11  13
ATOM     13  C   UNL     1       1.638  -2.139   1.284  1.00  0.00     0.041 A 
ATOM     14  C   UNL     1       2.734  -2.534   2.031  1.00  0.00     0.028 A 
ATOM     15  C   UNL     1       1.010  -0.958   1.634  1.00  0.00     0.028 A 
ATOM     16  C   UNL     1       3.361  -1.607   2.880  1.00  0.00     0.028 A 
ATOM     17  C   UNL     1       1.666  -0.004   2.416  1.00  0.00     0.028 A 
ATOM     18  C   UNL     1       2.915  -0.288   2.962  1.00  0.00     0.041 A 
BRANCH  18  19
ATOM     19  N   UNL     1       3.638   0.810   3.469  1.00  0.00    -0.319 N 
ATOM     20  C   UNL     1       4.913   0.959   3.976  1.00  0.00     0.291 C 
ATOM     21  H   UNL     1       3.123   1.649   3.461  1.00  0.00     0.170 HD
ATOM     22  O   UNL     1       5.340   2.109   4.104  1.00  0.00    -0.265 OA
BRANCH  20  23
ATOM     23  C   UNL     1       5.680  -0.195   4.352  1.00  0.00     0.191 A 
ATOM     24  C   UNL     1       6.530  -1.028   3.647  1.00  0.00     0.056 A 
ATOM     25  O   UNL     1       5.583  -0.625   5.646  1.00  0.00    -0.459 OA
ATOM     26  C   UNL     1       6.904  -2.063   4.541  1.00  0.00     0.043 A 
ATOM     27  C   UNL     1       6.325  -1.755   5.750  1.00  0.00     0.196 A 
ENDBRANCH  20  23
ENDBRANCH  18  19
ENDBRANCH  11  13
ENDBRANCH   8   9
ENDBRANCH   6   8
BRANCH   6  28
ATOM     28  C   UNL     1       1.205   0.746  -3.193  1.00  0.00    -0.030 A 
ATOM     29  C   UNL     1       2.414   0.525  -3.857  1.00  0.00     0.005 A 
ATOM     30  C   UNL     1       0.531   1.970  -3.450  1.00  0.00     0.005 A 
ATOM     31  C   UNL     1       2.966   1.527  -4.669  1.00  0.00     0.000 A 
ATOM     32  C   UNL     1       1.103   2.981  -4.217  1.00  0.00     0.000 A 
ATOM     33  C   UNL     1       2.332   2.761  -4.819  1.00  0.00     0.000 A 
ENDBRANCH   6  28
ENDBRANCH   4   6
ENDBRANCH   3   4
ENDBRANCH   2   3
ENDBRANCH   1   2
BRANCH   1  34
ATOM     34  O   UNL     1      -3.845   1.164  -0.897  1.00  0.00    -0.374 OA
BRANCH  34  35
ATOM     35  C   UNL     1      -2.638   1.870  -0.633  1.00  0.00     0.202 C 
BRANCH  35  36
ATOM     36  C   UNL     1      -2.277   2.145   0.837  1.00  0.00     0.261 C 
BRANCH  36  37
ATOM     37  O   UNL     1      -2.402   0.998   1.686  1.00  0.00    -0.460 OA
BRANCH  37  38
ATOM     38  C   UNL     1      -3.559   0.984   2.390  1.00  0.00     0.338 C 
ATOM     39  O   UNL     1      -4.395   1.888   2.443  1.00  0.00    -0.246 OA
BRANCH  38  40
ATOM     40  C   UNL     1      -3.814  -0.334   2.987  1.00  0.00     0.060 A 
ATOM     41  C   UNL     1      -5.070  -0.898   2.740  1.00  0.00     0.016 A 
ATOM     42  C   UNL     1      -2.917  -0.949   3.863  1.00  0.00     0.016 A 
ATOM     43  C   UNL     1      -5.479  -2.022   3.446  1.00  0.00     0.010 A 
ATOM     44  C   UNL     1      -3.330  -2.082   4.576  1.00  0.00     0.010 A 
ATOM     45  C   UNL     1      -4.637  -2.579   4.417  1.00  0.00    -0.014 A 
BRANCH  45  46
ATOM     46  C   UNL     1      -5.239  -3.515   5.400  1.00  0.00     0.031 A 
ATOM     47  C   UNL     1      -5.664  -2.974   6.742  1.00  0.00     0.074 A 
ATOM     48  C   UNL     1      -5.517  -4.787   5.063  1.00  0.00     0.049 A 
ATOM     49  N   UNL     1      -6.312  -3.571   7.709  1.00  0.00    -0.248 NA
ATOM     50  C   UNL     1      -5.319  -1.571   7.029  1.00  0.00     0.031 C 
ATOM     51  C   UNL     1      -5.205  -5.409   3.776  1.00  0.00     0.029 A 
ATOM     52  N   UNL     1      -6.151  -5.777   5.771  1.00  0.00    -0.354 N 
ATOM     53  C   UNL     1      -6.446  -2.621   8.717  1.00  0.00     0.074 A 
ATOM     54  C   UNL     1      -5.783  -1.421   8.260  1.00  0.00     0.031 C 
ATOM     55  C   UNL     1      -5.666  -6.672   3.781  1.00  0.00     0.029 A 
ATOM     56  C   UNL     1      -6.285  -6.954   5.075  1.00  0.00     0.049 A 
ATOM     57  H   UNL     1      -6.479  -5.655   6.691  1.00  0.00     0.167 HD
ATOM     58  C   UNL     1      -7.074  -2.731   9.912  1.00  0.00     0.031 A 
ATOM     59  C   UNL     1      -6.847  -8.123   5.439  1.00  0.00     0.031 A 
ATOM     60  C   UNL     1      -7.734  -3.926  10.366  1.00  0.00     0.049 A 
ATOM     61  C   UNL     1      -7.497  -8.238   6.793  1.00  0.00     0.074 A 
ATOM     62  C   UNL     1      -8.410  -4.137  11.555  1.00  0.00     0.029 A 
ATOM     63  N   UNL     1      -7.800  -5.112   9.651  1.00  0.00    -0.354 N 
ATOM     64  N   UNL     1      -7.630  -7.324   7.726  1.00  0.00    -0.248 NA
ATOM     65  C   UNL     1      -8.090  -9.538   7.135  1.00  0.00     0.031 C 
ATOM     66  C   UNL     1      -8.838  -5.469  11.582  1.00  0.00     0.029 A 
ATOM     67  C   UNL     1      -8.485  -6.067  10.382  1.00  0.00     0.049 A 
ATOM     68  H   UNL     1      -7.416  -5.254   8.755  1.00  0.00     0.167 HD
ATOM     69  C   UNL     1      -8.355  -7.929   8.748  1.00  0.00     0.074 A 
ATOM     70  C   UNL     1      -8.638  -9.282   8.315  1.00  0.00     0.031 C 
ATOM     71  C   UNL     1      -8.758  -7.409   9.935  1.00  0.00     0.031 A 
BRANCH  58  72
ATOM     72  C   UNL     1      -7.039  -1.536  10.828  1.00  0.00    -0.014 A 
ATOM     73  C   UNL     1      -7.779  -0.372  10.548  1.00  0.00     0.010 A 
ATOM     74  C   UNL     1      -6.269  -1.589  12.004  1.00  0.00     0.010 A 
ATOM     75  C   UNL     1      -7.715   0.731  11.404  1.00  0.00     0.020 A 
ATOM     76  C   UNL     1      -6.223  -0.498  12.877  1.00  0.00     0.020 A 
ATOM     77  C   UNL     1      -6.933   0.662  12.562  1.00  0.00     0.054 A 
BRANCH  77  78
ATOM     78  S   UNL     1      -6.877   2.101  13.665  1.00  0.00     0.124 S 
ATOM     79  O   UNL     1      -6.046   3.031  12.903  1.00  0.00    -0.237 OA
ATOM     80  O   UNL     1      -8.285   2.470  13.784  1.00  0.00    -0.237 OA
ATOM     81  O   UNL     1      -6.268   1.579  14.886  1.00  0.00    -0.744 OA
ENDBRANCH  77  78
ENDBRANCH  58  72
BRANCH  59  82
ATOM     82  C   UNL     1      -6.827  -9.281   4.503  1.00  0.00    -0.014 A 
ATOM     83  C   UNL     1      -8.011  -9.749   3.907  1.00  0.00     0.010 A 
ATOM     84  C   UNL     1      -5.612  -9.926   4.206  1.00  0.00     0.010 A 
ATOM     85  C   UNL     1      -7.984 -10.853   3.048  1.00  0.00     0.020 A 
ATOM     86  C   UNL     1      -5.576 -11.011   3.327  1.00  0.00     0.020 A 
ATOM     87  C   UNL     1      -6.765 -11.476   2.762  1.00  0.00     0.054 A 
BRANCH  87  88
ATOM     88  S   UNL     1      -6.744 -12.877   1.610  1.00  0.00     0.124 S 
ATOM     89  O   UNL     1      -7.325 -13.944   2.418  1.00  0.00    -0.237 OA
ATOM     90  O   UNL     1      -7.574 -12.392   0.509  1.00  0.00    -0.237 OA
ATOM     91  O   UNL     1      -5.327 -13.034   1.289  1.00  0.00    -0.744 OA
ENDBRANCH  87  88
ENDBRANCH  59  82
BRANCH  71  92
ATOM     92  C   UNL     1      -9.593  -8.290  10.829  1.00  0.00    -0.014 A 
ATOM     93  C   UNL     1      -9.039  -9.394  11.500  1.00  0.00     0.010 A 
ATOM     94  C   UNL     1     -10.952  -7.981  11.024  1.00  0.00     0.010 A 
ATOM     95  C   UNL     1      -9.841 -10.202  12.311  1.00  0.00     0.020 A 
ATOM     96  C   UNL     1     -11.750  -8.768  11.857  1.00  0.00     0.020 A 
ATOM     97  C   UNL     1     -11.194  -9.887  12.479  1.00  0.00     0.054 A 
BRANCH  97  98
ATOM     98  S   UNL     1     -12.212 -10.941  13.547  1.00  0.00     0.124 S 
ATOM     99  O   UNL     1     -12.415 -12.118  12.707  1.00  0.00    -0.237 OA
ATOM    100  O   UNL     1     -11.355 -11.142  14.713  1.00  0.00    -0.237 OA
ATOM    101  O   UNL     1     -13.406 -10.135  13.791  1.00  0.00    -0.744 OA
ENDBRANCH  97  98
ENDBRANCH  71  92
ENDBRANCH  45  46
ENDBRANCH  38  40
ENDBRANCH  37  38
ENDBRANCH  36  37
ENDBRANCH  35  36
ENDBRANCH  34  35
ENDBRANCH   1  34
TORSDOF 23
