REMARK SMILES Nc1c(N2CCCC2)ncnc1N1CCC(C(=O)OCCOCCOC(=O)c2ccc(-c3c4nc(c(-c5ccc(S(=O)(=O)[O-])cc5)c5ccc([nH]5)c(-c5ccc(S(=O)(=O)[O-])cc5)c5nc(c(-c6ccc(S(=O)(=O)[O-])cc6)c6ccc3[nH]6)C=C5)C=C4)cc2)CC1
REMARK SMILES IDX 23 1 22 2 21 3 20 4 19 5 17 6 18 7 16 8 13 9 14 10 89 11
REMARK SMILES IDX 15 12 88 13 12 14 2 15 3 16 9 17 11 18 10 19 1 20 4 23 5 24
REMARK SMILES IDX 8 25 6 26 7 27 24 28 25 29 26 30 27 31 28 32 29 33 87 34
REMARK SMILES IDX 30 35 86 36 31 37 32 38 33 39 80 40 34 41 85 42 79 43 81 44
REMARK SMILES IDX 35 45 84 46 78 47 77 48 36 50 66 51 47 52 65 53 48 54 51 55
REMARK SMILES IDX 64 56 82 57 49 58 50 59 63 61 83 62 52 63 37 64 38 65 46 66
REMARK SMILES IDX 39 67 45 68 40 69 41 70 42 71 43 72 44 73 67 74 68 75 76 76
REMARK SMILES IDX 69 77 75 78 70 79 71 80 72 81 73 82 74 83 53 84 54 85 62 86
REMARK SMILES IDX 55 87 61 88 56 89 57 90 58 91 59 92 60 93
REMARK H PARENT 1 21 1 22 81 49 51 60
REMARK Flexibility Score: inf
ROOT
ATOM      1  C   UNL     1       4.864  -7.989   1.028  1.00  0.00     0.202 C 
ENDROOT
BRANCH   1   2
ATOM      2  O   UNL     1       4.587  -8.824   2.151  1.00  0.00    -0.374 OA
BRANCH   2   3
ATOM      3  C   UNL     1       3.220  -9.106   2.446  1.00  0.00     0.202 C 
BRANCH   3   4
ATOM      4  C   UNL     1       2.412  -7.993   3.116  1.00  0.00     0.261 C 
BRANCH   4   5
ATOM      5  O   UNL     1       2.283  -6.844   2.263  1.00  0.00    -0.463 OA
BRANCH   5   6
ATOM      6  C   UNL     1       2.914  -5.726   2.696  1.00  0.00     0.309 C 
ATOM      7  O   UNL     1       3.509  -5.615   3.763  1.00  0.00    -0.252 OA
BRANCH   6   8
ATOM      8  C   UNL     1       2.817  -4.577   1.724  1.00  0.00     0.103 C 
ATOM      9  N   UNL     1       1.815  -2.582  -0.030  1.00  0.00    -0.355 N 
ATOM     10  C   UNL     1       2.642  -3.642  -0.590  1.00  0.00     0.119 C 
ATOM     11  C   UNL     1       1.823  -2.328   1.410  1.00  0.00     0.119 C 
ATOM     12  C   UNL     1       2.576  -4.917   0.251  1.00  0.00     0.037 C 
ATOM     13  C   UNL     1       1.730  -3.623   2.199  1.00  0.00     0.037 C 
BRANCH   9  14
ATOM     14  C   UNL     1       0.698  -2.155  -0.750  1.00  0.00     0.157 A 
ATOM     15  C   UNL     1       0.338  -0.796  -0.733  1.00  0.00     0.118 A 
ATOM     16  C   UNL     1      -0.868  -0.452  -1.363  1.00  0.00     0.157 A 
ATOM     17  N   UNL     1      -1.651  -1.379  -1.937  1.00  0.00    -0.217 NA
ATOM     18  N   UNL     1      -0.040  -3.076  -1.392  1.00  0.00    -0.217 NA
ATOM     19  C   UNL     1      -1.183  -2.637  -1.939  1.00  0.00     0.226 A 
BRANCH  15  20
ATOM     20  N   UNL     1       1.173   0.181  -0.155  1.00  0.00    -0.393 N 
ATOM     21  H   UNL     1       0.898   1.126  -0.155  1.00  0.00     0.156 HD
ATOM     22  H   UNL     1       2.032  -0.082   0.249  1.00  0.00     0.156 HD
ENDBRANCH  15  20
BRANCH  16  23
ATOM     23  N   UNL     1      -1.302   0.856  -1.336  1.00  0.00    -0.355 N 
ATOM     24  C   UNL     1      -0.580   1.933  -1.980  1.00  0.00     0.118 C 
ATOM     25  C   UNL     1      -2.707   1.181  -1.173  1.00  0.00     0.118 C 
ATOM     26  C   UNL     1      -1.276   3.143  -1.372  1.00  0.00     0.023 C 
ATOM     27  C   UNL     1      -2.742   2.710  -1.326  1.00  0.00     0.023 C 
ENDBRANCH  16  23
ENDBRANCH   9  14
ENDBRANCH   6   8
ENDBRANCH   5   6
ENDBRANCH   4   5
ENDBRANCH   3   4
ENDBRANCH   2   3
ENDBRANCH   1   2
BRANCH   1  28
ATOM     28  C   UNL     1       4.650  -8.596  -0.365  1.00  0.00     0.261 C 
BRANCH  28  29
ATOM     29  O   UNL     1       3.264  -8.868  -0.643  1.00  0.00    -0.460 OA
BRANCH  29  30
ATOM     30  C   UNL     1       2.970 -10.179  -0.812  1.00  0.00     0.338 C 
ATOM     31  O   UNL     1       3.761 -11.116  -0.830  1.00  0.00    -0.246 OA
BRANCH  30  32
ATOM     32  C   UNL     1       1.512 -10.388  -0.783  1.00  0.00     0.060 A 
ATOM     33  C   UNL     1       1.007 -11.264   0.187  1.00  0.00     0.016 A 
ATOM     34  C   UNL     1       0.668  -9.824  -1.741  1.00  0.00     0.016 A 
ATOM     35  C   UNL     1      -0.339 -11.620   0.172  1.00  0.00     0.010 A 
ATOM     36  C   UNL     1      -0.682 -10.194  -1.762  1.00  0.00     0.010 A 
ATOM     37  C   UNL     1      -1.180 -11.123  -0.831  1.00  0.00    -0.014 A 
BRANCH  37  38
ATOM     38  C   UNL     1      -2.531 -11.712  -0.991  1.00  0.00     0.031 A 
ATOM     39  C   UNL     1      -2.732 -12.812  -1.998  1.00  0.00     0.074 A 
ATOM     40  C   UNL     1      -3.553 -11.316  -0.212  1.00  0.00     0.049 A 
ATOM     41  N   UNL     1      -3.813 -13.495  -2.272  1.00  0.00    -0.248 NA
ATOM     42  C   UNL     1      -1.557 -13.194  -2.797  1.00  0.00     0.031 C 
ATOM     43  C   UNL     1      -3.471 -10.296   0.830  1.00  0.00     0.029 A 
ATOM     44  N   UNL     1      -4.859 -11.736  -0.176  1.00  0.00    -0.354 N 
ATOM     45  C   UNL     1      -3.452 -14.385  -3.276  1.00  0.00     0.074 A 
ATOM     46  C   UNL     1      -2.060 -14.134  -3.583  1.00  0.00     0.031 C 
ATOM     47  C   UNL     1      -4.678 -10.169   1.408  1.00  0.00     0.029 A 
ATOM     48  C   UNL     1      -5.621 -11.079   0.757  1.00  0.00     0.049 A 
ATOM     49  H   UNL     1      -5.215 -12.442  -0.763  1.00  0.00     0.167 HD
ATOM     50  C   UNL     1      -4.208 -15.329  -3.886  1.00  0.00     0.031 A 
ATOM     51  C   UNL     1      -6.933 -11.187   1.049  1.00  0.00     0.031 A 
ATOM     52  C   UNL     1      -5.597 -15.562  -3.595  1.00  0.00     0.049 A 
ATOM     53  C   UNL     1      -7.777 -12.187   0.307  1.00  0.00     0.074 A 
ATOM     54  C   UNL     1      -6.443 -16.509  -4.144  1.00  0.00     0.029 A 
ATOM     55  N   UNL     1      -6.349 -14.829  -2.689  1.00  0.00    -0.354 N 
ATOM     56  N   UNL     1      -7.414 -13.043  -0.619  1.00  0.00    -0.248 NA
ATOM     57  C   UNL     1      -9.205 -12.240   0.651  1.00  0.00     0.031 C 
ATOM     58  C   UNL     1      -7.723 -16.309  -3.614  1.00  0.00     0.029 A 
ATOM     59  C   UNL     1      -7.660 -15.276  -2.691  1.00  0.00     0.049 A 
ATOM     60  H   UNL     1      -6.003 -14.099  -2.127  1.00  0.00     0.167 HD
ATOM     61  C   UNL     1      -8.566 -13.743  -0.962  1.00  0.00     0.074 A 
ATOM     62  C   UNL     1      -9.634 -13.221  -0.133  1.00  0.00     0.031 C 
ATOM     63  C   UNL     1      -8.721 -14.732  -1.879  1.00  0.00     0.031 A 
BRANCH  50  64
ATOM     64  C   UNL     1      -3.548 -16.146  -4.964  1.00  0.00    -0.014 A 
ATOM     65  C   UNL     1      -2.578 -17.117  -4.656  1.00  0.00     0.010 A 
ATOM     66  C   UNL     1      -3.908 -15.940  -6.308  1.00  0.00     0.010 A 
ATOM     67  C   UNL     1      -1.942 -17.830  -5.676  1.00  0.00     0.020 A 
ATOM     68  C   UNL     1      -3.293 -16.669  -7.330  1.00  0.00     0.020 A 
ATOM     69  C   UNL     1      -2.298 -17.595  -7.008  1.00  0.00     0.054 A 
BRANCH  69  70
ATOM     70  S   UNL     1      -1.449 -18.524  -8.314  1.00  0.00     0.124 S 
ATOM     71  O   UNL     1      -0.123 -17.909  -8.306  1.00  0.00    -0.237 OA
ATOM     72  O   UNL     1      -1.506 -19.897  -7.819  1.00  0.00    -0.237 OA
ATOM     73  O   UNL     1      -2.250 -18.260  -9.506  1.00  0.00    -0.744 OA
ENDBRANCH  69  70
ENDBRANCH  50  64
BRANCH  51  74
ATOM     74  C   UNL     1      -7.514 -10.309   2.099  1.00  0.00    -0.014 A 
ATOM     75  C   UNL     1      -7.837 -10.826   3.365  1.00  0.00     0.010 A 
ATOM     76  C   UNL     1      -7.668  -8.931   1.860  1.00  0.00     0.010 A 
ATOM     77  C   UNL     1      -8.282  -9.975   4.381  1.00  0.00     0.020 A 
ATOM     78  C   UNL     1      -8.092  -8.074   2.880  1.00  0.00     0.020 A 
ATOM     79  C   UNL     1      -8.392  -8.602   4.137  1.00  0.00     0.054 A 
BRANCH  79  80
ATOM     80  S   UNL     1      -8.852  -7.505   5.508  1.00  0.00     0.124 S 
ATOM     81  O   UNL     1     -10.261  -7.832   5.702  1.00  0.00    -0.237 OA
ATOM     82  O   UNL     1      -7.949  -7.939   6.571  1.00  0.00    -0.237 OA
ATOM     83  O   UNL     1      -8.584  -6.168   4.982  1.00  0.00    -0.744 OA
ENDBRANCH  79  80
ENDBRANCH  51  74
BRANCH  63  84
ATOM     84  C   UNL     1     -10.097 -15.319  -2.047  1.00  0.00    -0.014 A 
ATOM     85  C   UNL     1     -11.111 -14.607  -2.711  1.00  0.00     0.010 A 
ATOM     86  C   UNL     1     -10.355 -16.632  -1.611  1.00  0.00     0.010 A 
ATOM     87  C   UNL     1     -12.364 -15.190  -2.920  1.00  0.00     0.020 A 
ATOM     88  C   UNL     1     -11.599 -17.228  -1.840  1.00  0.00     0.020 A 
ATOM     89  C   UNL     1     -12.599 -16.499  -2.486  1.00  0.00     0.054 A 
BRANCH  89  90
ATOM     90  S   UNL     1     -14.215 -17.252  -2.822  1.00  0.00     0.124 S 
ATOM     91  O   UNL     1     -15.084 -16.538  -1.891  1.00  0.00    -0.237 OA
ATOM     92  O   UNL     1     -14.423 -16.946  -4.236  1.00  0.00    -0.237 OA
ATOM     93  O   UNL     1     -14.008 -18.667  -2.522  1.00  0.00    -0.744 OA
ENDBRANCH  89  90
ENDBRANCH  63  84
ENDBRANCH  37  38
ENDBRANCH  30  32
ENDBRANCH  29  30
ENDBRANCH  28  29
ENDBRANCH   1  28
TORSDOF 20
