REMARK SMILES [NH3+][C@H](CSCc1ccco1)C(=O)OCCOCCOC(=O)c1ccc(-c2c3nc(c(-c4ccc(S(=O)(=O)[O-])cc4)c4ccc([nH]4)c(-c4ccc(S(=O)(=O)[O-])cc4)c4nc(c(-c5ccc(S(=O)(=O)[O-])cc5)c5ccc2[nH]5)C=C4)C=C3)cc1
REMARK SMILES IDX 15 1 14 2 13 3 11 4 12 5 2 6 1 7 3 11 4 12 5 13 6 14 7 15
REMARK SMILES IDX 10 16 8 17 9 18 16 19 17 20 18 21 19 22 20 23 21 24 22 25
REMARK SMILES IDX 23 26 81 27 24 28 80 29 25 30 26 31 27 32 74 33 28 34 79 35
REMARK SMILES IDX 73 36 75 37 29 38 78 39 72 40 71 41 30 43 60 44 41 45 59 46
REMARK SMILES IDX 42 47 45 48 58 49 76 50 43 51 44 52 57 54 77 55 46 56 31 57
REMARK SMILES IDX 32 58 40 59 33 60 39 61 34 62 35 63 36 64 37 65 38 66 61 67
REMARK SMILES IDX 62 68 70 69 63 70 69 71 64 72 65 73 66 74 67 75 68 76 47 77
REMARK SMILES IDX 48 78 56 79 49 80 55 81 50 82 51 83 52 84 53 85 54 86
REMARK H PARENT 1 8 1 9 1 10 75 42 45 53
REMARK Flexibility Score: inf
ROOT
ATOM      1  C   UNL     1      -2.701  -0.843   2.321  1.00  0.00     0.202 C 
ENDROOT
BRANCH   1   2
ATOM      2  C   UNL     1      -2.974   0.714   2.363  1.00  0.00     0.261 C 
BRANCH   2   3
ATOM      3  O   UNL     1      -1.947   1.541   1.878  1.00  0.00    -0.459 OA
BRANCH   3   4
ATOM      4  C   UNL     1      -0.747   1.201   2.353  1.00  0.00     0.365 C 
ATOM      5  O   UNL     1      -0.544   0.754   3.488  1.00  0.00    -0.245 OA
BRANCH   4   6
ATOM      6  C   UNL     1       0.288   1.373   1.271  1.00  0.00     0.301 C 
BRANCH   6   7
ATOM      7  N   UNL     1       1.030   2.633   1.493  1.00  0.00    -0.345 N 
ATOM      8  H   UNL     1       1.303   2.698   2.473  1.00  0.00     0.345 HD
ATOM      9  H   UNL     1       0.433   3.425   1.253  1.00  0.00     0.345 HD
ATOM     10  H   UNL     1       1.863   2.645   0.906  1.00  0.00     0.345 HD
ENDBRANCH   6   7
BRANCH   6  11
ATOM     11  C   UNL     1      -0.208   1.123  -0.214  1.00  0.00     0.147 C 
BRANCH  11  12
ATOM     12  S   UNL     1      -1.977   1.338  -1.027  1.00  0.00    -0.147 SA
BRANCH  12  13
ATOM     13  C   UNL     1      -3.215  -0.094  -0.637  1.00  0.00     0.145 C 
BRANCH  13  14
ATOM     14  C   UNL     1      -3.461  -1.652  -0.887  1.00  0.00     0.113 A 
ATOM     15  C   UNL     1      -3.478  -2.668  -1.854  1.00  0.00     0.046 A 
ATOM     16  O   UNL     1      -3.885  -2.301   0.265  1.00  0.00    -0.468 OA
ATOM     17  C   UNL     1      -3.541  -3.938  -1.187  1.00  0.00     0.042 A 
ATOM     18  C   UNL     1      -3.811  -3.643   0.115  1.00  0.00     0.195 A 
ENDBRANCH  13  14
ENDBRANCH  12  13
ENDBRANCH  11  12
ENDBRANCH   6  11
ENDBRANCH   4   6
ENDBRANCH   3   4
ENDBRANCH   2   3
ENDBRANCH   1   2
BRANCH   1  19
ATOM     19  O   UNL     1      -1.784  -1.689   1.573  1.00  0.00    -0.374 OA
BRANCH  19  20
ATOM     20  C   UNL     1      -0.759  -1.771   0.558  1.00  0.00     0.202 C 
BRANCH  20  21
ATOM     21  C   UNL     1      -0.655  -1.952  -1.157  1.00  0.00     0.261 C 
BRANCH  21  22
ATOM     22  O   UNL     1      -1.225  -0.939  -2.108  1.00  0.00    -0.460 OA
BRANCH  22  23
ATOM     23  C   UNL     1      -1.571  -1.059  -3.441  1.00  0.00     0.338 C 
ATOM     24  O   UNL     1      -1.255  -2.007  -4.146  1.00  0.00    -0.246 OA
BRANCH  23  25
ATOM     25  C   UNL     1      -2.486   0.082  -3.982  1.00  0.00     0.060 A 
ATOM     26  C   UNL     1      -3.808   0.348  -3.542  1.00  0.00     0.016 A 
ATOM     27  C   UNL     1      -2.033   0.899  -5.018  1.00  0.00     0.016 A 
ATOM     28  C   UNL     1      -4.553   1.490  -3.944  1.00  0.00     0.010 A 
ATOM     29  C   UNL     1      -2.805   1.997  -5.484  1.00  0.00     0.010 A 
ATOM     30  C   UNL     1      -4.053   2.338  -4.927  1.00  0.00    -0.014 A 
BRANCH  30  31
ATOM     31  C   UNL     1      -4.813   3.500  -5.495  1.00  0.00     0.031 A 
ATOM     32  C   UNL     1      -5.585   3.299  -6.774  1.00  0.00     0.074 A 
ATOM     33  C   UNL     1      -4.684   4.747  -4.991  1.00  0.00     0.049 A 
ATOM     34  N   UNL     1      -5.953   4.173  -7.674  1.00  0.00    -0.248 NA
ATOM     35  C   UNL     1      -5.975   1.915  -7.085  1.00  0.00     0.031 C 
ATOM     36  C   UNL     1      -4.058   5.084  -3.713  1.00  0.00     0.029 A 
ATOM     37  N   UNL     1      -5.016   5.975  -5.530  1.00  0.00    -0.354 N 
ATOM     38  C   UNL     1      -6.552   3.438  -8.694  1.00  0.00     0.074 A 
ATOM     39  C   UNL     1      -6.531   2.051  -8.282  1.00  0.00     0.031 C 
ATOM     40  C   UNL     1      -3.974   6.423  -3.603  1.00  0.00     0.029 A 
ATOM     41  C   UNL     1      -4.480   7.039  -4.829  1.00  0.00     0.049 A 
ATOM     42  H   UNL     1      -5.576   6.082  -6.332  1.00  0.00     0.167 HD
ATOM     43  C   UNL     1      -7.037   3.880  -9.880  1.00  0.00     0.031 A 
ATOM     44  C   UNL     1      -4.336   8.340  -5.168  1.00  0.00     0.031 A 
ATOM     45  C   UNL     1      -7.047   5.266 -10.271  1.00  0.00     0.049 A 
ATOM     46  C   UNL     1      -4.813   8.802  -6.527  1.00  0.00     0.074 A 
ATOM     47  C   UNL     1      -7.550   5.829 -11.432  1.00  0.00     0.029 A 
ATOM     48  N   UNL     1      -6.520   6.304  -9.518  1.00  0.00    -0.354 N 
ATOM     49  N   UNL     1      -5.385   8.104  -7.480  1.00  0.00    -0.248 NA
ATOM     50  C   UNL     1      -4.614  10.222  -6.862  1.00  0.00     0.031 C 
ATOM     51  C   UNL     1      -7.263   7.197 -11.411  1.00  0.00     0.029 A 
ATOM     52  C   UNL     1      -6.645   7.497 -10.207  1.00  0.00     0.049 A 
ATOM     53  H   UNL     1      -6.116   6.206  -8.626  1.00  0.00     0.167 HD
ATOM     54  C   UNL     1      -5.632   9.002  -8.515  1.00  0.00     0.074 A 
ATOM     55  C   UNL     1      -5.169  10.298  -8.065  1.00  0.00     0.031 C 
ATOM     56  C   UNL     1      -6.185   8.778  -9.733  1.00  0.00     0.031 A 
BRANCH  43  57
ATOM     57  C   UNL     1      -7.543   2.867 -10.877  1.00  0.00    -0.014 A 
ATOM     58  C   UNL     1      -8.764   2.196 -10.695  1.00  0.00     0.010 A 
ATOM     59  C   UNL     1      -6.825   2.661 -12.072  1.00  0.00     0.010 A 
ATOM     60  C   UNL     1      -9.252   1.333 -11.683  1.00  0.00     0.020 A 
ATOM     61  C   UNL     1      -7.320   1.819 -13.072  1.00  0.00     0.020 A 
ATOM     62  C   UNL     1      -8.531   1.156 -12.869  1.00  0.00     0.054 A 
BRANCH  62  63
ATOM     63  S   UNL     1      -9.229   0.091 -14.163  1.00  0.00     0.124 S 
ATOM     64  O   UNL     1      -9.105  -1.236 -13.564  1.00  0.00    -0.237 OA
ATOM     65  O   UNL     1     -10.594   0.597 -14.288  1.00  0.00    -0.237 OA
ATOM     66  O   UNL     1      -8.369   0.335 -15.318  1.00  0.00    -0.744 OA
ENDBRANCH  62  63
ENDBRANCH  43  57
BRANCH  44  67
ATOM     67  C   UNL     1      -3.623   9.294  -4.261  1.00  0.00    -0.014 A 
ATOM     68  C   UNL     1      -4.299  10.382  -3.678  1.00  0.00     0.010 A 
ATOM     69  C   UNL     1      -2.246   9.145  -4.007  1.00  0.00     0.010 A 
ATOM     70  C   UNL     1      -3.612  11.308  -2.882  1.00  0.00     0.020 A 
ATOM     71  C   UNL     1      -1.562  10.048  -3.184  1.00  0.00     0.020 A 
ATOM     72  C   UNL     1      -2.247  11.134  -2.639  1.00  0.00     0.054 A 
BRANCH  72  73
ATOM     73  S   UNL     1      -1.385  12.329  -1.577  1.00  0.00     0.124 S 
ATOM     74  O   UNL     1      -1.311  13.504  -2.439  1.00  0.00    -0.237 OA
ATOM     75  O   UNL     1      -2.284  12.440  -0.432  1.00  0.00    -0.237 OA
ATOM     76  O   UNL     1      -0.107  11.677  -1.296  1.00  0.00    -0.744 OA
ENDBRANCH  72  73
ENDBRANCH  44  67
BRANCH  56  77
ATOM     77  C   UNL     1      -6.356   9.958 -10.652  1.00  0.00    -0.014 A 
ATOM     78  C   UNL     1      -5.253  10.543 -11.298  1.00  0.00     0.010 A 
ATOM     79  C   UNL     1      -7.649  10.438 -10.932  1.00  0.00     0.010 A 
ATOM     80  C   UNL     1      -5.438  11.600 -12.193  1.00  0.00     0.020 A 
ATOM     81  C   UNL     1      -7.841  11.473 -11.849  1.00  0.00     0.020 A 
ATOM     82  C   UNL     1      -6.732  12.055 -12.467  1.00  0.00     0.054 A 
BRANCH  82  83
ATOM     83  S   UNL     1      -6.949  13.384 -13.681  1.00  0.00     0.124 S 
ATOM     84  O   UNL     1      -6.433  14.544 -12.958  1.00  0.00    -0.237 OA
ATOM     85  O   UNL     1      -6.132  12.929 -14.803  1.00  0.00    -0.237 OA
ATOM     86  O   UNL     1      -8.389  13.397 -13.930  1.00  0.00    -0.744 OA
ENDBRANCH  82  83
ENDBRANCH  56  77
ENDBRANCH  30  31
ENDBRANCH  23  25
ENDBRANCH  22  23
ENDBRANCH  21  22
ENDBRANCH  20  21
ENDBRANCH  19  20
ENDBRANCH   1  19
TORSDOF 22
