REMARK SMILES C[C@@H](CCCO)Nc1ccc(Cl)cc1C(=O)OCCOCCOC(=O)c1ccc(-c2c3nc(c(-c4ccc(S(=O)(=O)[O-])cc4)c4ccc([nH]4)c(-c4ccc(S(=O)(=O)[O-])cc4)c4nc(c(-c5ccc(S(=O)(=O)[O-])cc5)c5ccc2[nH]5)C=C4)C=C3)cc1
REMARK SMILES IDX 18 1 17 2 15 3 16 4 14 5 8 6 9 7 10 8 13 9 11 10 12 11 7 12
REMARK SMILES IDX 2 14 1 15 3 16 4 17 5 18 6 19 19 21 20 22 21 23 22 24 23 25
REMARK SMILES IDX 24 26 25 27 26 28 27 29 85 30 28 31 84 32 29 33 30 34 31 35
REMARK SMILES IDX 78 36 32 37 83 38 77 39 79 40 33 41 82 42 76 43 75 44 34 46
REMARK SMILES IDX 64 47 45 48 63 49 46 50 49 51 62 52 80 53 47 54 48 55 61 57
REMARK SMILES IDX 81 58 50 59 35 60 36 61 44 62 37 63 43 64 38 65 39 66 40 67
REMARK SMILES IDX 41 68 42 69 65 70 66 71 74 72 67 73 73 74 68 75 69 76 70 77
REMARK SMILES IDX 71 78 72 79 51 80 52 81 60 82 53 83 59 84 54 85 55 86 56 87
REMARK SMILES IDX 57 88 58 89
REMARK H PARENT 7 13 6 20 79 45 49 56
REMARK Flexibility Score: inf
ROOT
ATOM      1  C   UNL     1      -3.618   0.330  -1.384  1.00  0.00     0.261 C 
ENDROOT
BRANCH   1   2
ATOM      2  O   UNL     1      -2.982  -0.041  -0.147  1.00  0.00    -0.460 OA
BRANCH   2   3
ATOM      3  C   UNL     1      -3.792  -0.647   0.758  1.00  0.00     0.340 C 
ATOM      4  O   UNL     1      -5.004  -0.770   0.657  1.00  0.00    -0.246 OA
BRANCH   3   5
ATOM      5  C   UNL     1      -3.017  -1.308   1.851  1.00  0.00     0.084 A 
ATOM      6  C   UNL     1      -1.710  -0.952   2.269  1.00  0.00     0.049 A 
ATOM      7  C   UNL     1      -1.200  -1.616   3.398  1.00  0.00     0.028 A 
ATOM      8  C   UNL     1      -1.883  -2.673   4.008  1.00  0.00     0.022 A 
ATOM      9  C   UNL     1      -3.689  -2.390   2.454  1.00  0.00     0.038 A 
ATOM     10  C   UNL     1      -3.112  -3.078   3.511  1.00  0.00     0.042 A 
ATOM     11  Cl  UNL     1      -3.923  -4.423   4.208  1.00  0.00    -0.084 Cl
BRANCH   6  12
ATOM     12  N   UNL     1      -0.973   0.044   1.634  1.00  0.00    -0.382 N 
ATOM     13  H   UNL     1      -1.472   0.735   1.140  1.00  0.00     0.160 HD
BRANCH  12  14
ATOM     14  C   UNL     1       0.491   0.142   1.649  1.00  0.00     0.076 C 
ATOM     15  C   UNL     1       1.028  -0.143   0.251  1.00  0.00     0.031 C 
BRANCH  14  16
ATOM     16  C   UNL     1       0.953   1.508   2.179  1.00  0.00     0.027 C 
BRANCH  16  17
ATOM     17  C   UNL     1       0.567   2.753   1.369  1.00  0.00     0.030 C 
BRANCH  17  18
ATOM     18  C   UNL     1      -0.925   3.054   1.252  1.00  0.00     0.156 C 
BRANCH  18  19
ATOM     19  O   UNL     1      -1.616   2.769   2.459  1.00  0.00    -0.396 OA
ATOM     20  H   UNL     1      -1.525   1.827   2.669  1.00  0.00     0.210 HD
ENDBRANCH  18  19
ENDBRANCH  17  18
ENDBRANCH  16  17
ENDBRANCH  14  16
ENDBRANCH  12  14
ENDBRANCH   6  12
ENDBRANCH   3   5
ENDBRANCH   2   3
ENDBRANCH   1   2
BRANCH   1  21
ATOM     21  C   UNL     1      -3.092  -0.521  -2.543  1.00  0.00     0.202 C 
BRANCH  21  22
ATOM     22  O   UNL     1      -3.375  -1.919  -2.486  1.00  0.00    -0.374 OA
BRANCH  22  23
ATOM     23  C   UNL     1      -2.554  -2.721  -1.638  1.00  0.00     0.202 C 
BRANCH  23  24
ATOM     24  C   UNL     1      -1.165  -3.103  -2.167  1.00  0.00     0.261 C 
BRANCH  24  25
ATOM     25  O   UNL     1      -0.305  -1.966  -2.345  1.00  0.00    -0.460 OA
BRANCH  25  26
ATOM     26  C   UNL     1      -0.122  -1.580  -3.631  1.00  0.00     0.338 C 
ATOM     27  O   UNL     1      -0.572  -2.115  -4.633  1.00  0.00    -0.246 OA
BRANCH  26  28
ATOM     28  C   UNL     1       0.570  -0.278  -3.656  1.00  0.00     0.060 A 
ATOM     29  C   UNL     1      -0.027   0.773  -4.363  1.00  0.00     0.016 A 
ATOM     30  C   UNL     1       1.806  -0.100  -3.033  1.00  0.00     0.016 A 
ATOM     31  C   UNL     1       0.632   1.997  -4.484  1.00  0.00     0.010 A 
ATOM     32  C   UNL     1       2.458   1.132  -3.142  1.00  0.00     0.010 A 
ATOM     33  C   UNL     1       1.895   2.174  -3.903  1.00  0.00    -0.014 A 
BRANCH  33  34
ATOM     34  C   UNL     1       2.710   3.372  -4.233  1.00  0.00     0.031 A 
ATOM     35  C   UNL     1       3.877   3.212  -5.174  1.00  0.00     0.074 A 
ATOM     36  C   UNL     1       2.412   4.585  -3.731  1.00  0.00     0.049 A 
ATOM     37  N   UNL     1       4.770   4.092  -5.546  1.00  0.00    -0.248 NA
ATOM     38  C   UNL     1       4.067   1.877  -5.769  1.00  0.00     0.031 C 
ATOM     39  C   UNL     1       1.280   4.888  -2.854  1.00  0.00     0.029 A 
ATOM     40  N   UNL     1       3.044   5.794  -3.889  1.00  0.00    -0.354 N 
ATOM     41  C   UNL     1       5.628   3.418  -6.409  1.00  0.00     0.074 A 
ATOM     42  C   UNL     1       5.178   2.046  -6.469  1.00  0.00     0.031 C 
ATOM     43  C   UNL     1       1.298   6.200  -2.555  1.00  0.00     0.029 A 
ATOM     44  C   UNL     1       2.463   6.821  -3.183  1.00  0.00     0.049 A 
ATOM     45  H   UNL     1       3.840   5.914  -4.456  1.00  0.00     0.167 HD
ATOM     46  C   UNL     1       6.686   3.900  -7.104  1.00  0.00     0.031 A 
ATOM     47  C   UNL     1       2.839   8.109  -3.043  1.00  0.00     0.031 A 
ATOM     48  C   UNL     1       7.134   5.265  -7.047  1.00  0.00     0.049 A 
ATOM     49  C   UNL     1       4.079   8.598  -3.755  1.00  0.00     0.074 A 
ATOM     50  C   UNL     1       8.199   5.848  -7.711  1.00  0.00     0.029 A 
ATOM     51  N   UNL     1       6.541   6.261  -6.289  1.00  0.00    -0.354 N 
ATOM     52  N   UNL     1       4.877   7.946  -4.567  1.00  0.00    -0.248 NA
ATOM     53  C   UNL     1       4.462  10.000  -3.534  1.00  0.00     0.031 C 
ATOM     54  C   UNL     1       8.282   7.185  -7.313  1.00  0.00     0.029 A 
ATOM     55  C   UNL     1       7.227   7.452  -6.455  1.00  0.00     0.049 A 
ATOM     56  H   UNL     1       5.749   6.141  -5.717  1.00  0.00     0.167 HD
ATOM     57  C   UNL     1       5.827   8.874  -4.988  1.00  0.00     0.074 A 
ATOM     58  C   UNL     1       5.499  10.130  -4.349  1.00  0.00     0.031 C 
ATOM     59  C   UNL     1       6.876   8.701  -5.831  1.00  0.00     0.031 A 
BRANCH  46  60
ATOM     60  C   UNL     1       7.441   2.938  -7.984  1.00  0.00    -0.014 A 
ATOM     61  C   UNL     1       6.871   2.439  -9.169  1.00  0.00     0.010 A 
ATOM     62  C   UNL     1       8.759   2.575  -7.653  1.00  0.00     0.010 A 
ATOM     63  C   UNL     1       7.594   1.574  -9.992  1.00  0.00     0.020 A 
ATOM     64  C   UNL     1       9.498   1.734  -8.490  1.00  0.00     0.020 A 
ATOM     65  C   UNL     1       8.905   1.229  -9.649  1.00  0.00     0.054 A 
BRANCH  65  66
ATOM     66  S   UNL     1       9.835   0.140 -10.762  1.00  0.00     0.124 S 
ATOM     67  O   UNL     1       9.155  -1.139 -10.569  1.00  0.00    -0.237 OA
ATOM     68  O   UNL     1       9.632   0.768 -12.065  1.00  0.00    -0.237 OA
ATOM     69  O   UNL     1      11.200   0.201 -10.249  1.00  0.00    -0.744 OA
ENDBRANCH  65  66
ENDBRANCH  46  60
BRANCH  47  70
ATOM     70  C   UNL     1       2.056   9.039  -2.181  1.00  0.00    -0.014 A 
ATOM     71  C   UNL     1       1.389  10.145  -2.740  1.00  0.00     0.010 A 
ATOM     72  C   UNL     1       2.016   8.855  -0.787  1.00  0.00     0.010 A 
ATOM     73  C   UNL     1       0.737  11.071  -1.920  1.00  0.00     0.020 A 
ATOM     74  C   UNL     1       1.335   9.759   0.034  1.00  0.00     0.020 A 
ATOM     75  C   UNL     1       0.718  10.873  -0.537  1.00  0.00     0.054 A 
BRANCH  75  76
ATOM     76  S   UNL     1      -0.136  12.086   0.508  1.00  0.00     0.124 S 
ATOM     77  O   UNL     1       0.766  13.232   0.441  1.00  0.00    -0.237 OA
ATOM     78  O   UNL     1      -1.416  12.246  -0.178  1.00  0.00    -0.237 OA
ATOM     79  O   UNL     1      -0.212  11.423   1.808  1.00  0.00    -0.744 OA
ENDBRANCH  75  76
ENDBRANCH  47  70
BRANCH  59  80
ATOM     80  C   UNL     1       7.711   9.909  -6.172  1.00  0.00    -0.014 A 
ATOM     81  C   UNL     1       8.576  10.497  -5.232  1.00  0.00     0.010 A 
ATOM     82  C   UNL     1       7.676  10.421  -7.483  1.00  0.00     0.010 A 
ATOM     83  C   UNL     1       9.367  11.593  -5.590  1.00  0.00     0.020 A 
ATOM     84  C   UNL     1       8.489  11.495  -7.853  1.00  0.00     0.020 A 
ATOM     85  C   UNL     1       9.321  12.083  -6.899  1.00  0.00     0.054 A 
BRANCH  85  86
ATOM     86  S   UNL     1      10.398  13.471  -7.349  1.00  0.00     0.124 S 
ATOM     87  O   UNL     1       9.764  14.587  -6.652  1.00  0.00    -0.237 OA
ATOM     88  O   UNL     1      11.694  13.055  -6.820  1.00  0.00    -0.237 OA
ATOM     89  O   UNL     1      10.313  13.519  -8.807  1.00  0.00    -0.744 OA
ENDBRANCH  85  86
ENDBRANCH  59  80
ENDBRANCH  33  34
ENDBRANCH  26  28
ENDBRANCH  25  26
ENDBRANCH  24  25
ENDBRANCH  23  24
ENDBRANCH  22  23
ENDBRANCH  21  22
ENDBRANCH   1  21
TORSDOF 23
