REMARK SMILES COc1ccc(S(=O)(=O)N2CCC[C@H](C(=O)N3CCC[C@H](C(=O)OCCOCCOC(=O)c4ccc(-c5c6nc(c(-c7ccc(S(=O)(=O)[O-])cc7)c7ccc([nH]7)c(-c7ccc(S(=O)(=O)[O-])cc7)c7nc(c(-c8ccc(S(=O)(=O)[O-])cc8)c8ccc5[nH]8)C=C7)C=C6)cc4)C3)C2)cc1
REMARK SMILES IDX 26 1 25 2 24 3 22 4 23 5 21 6 17 7 18 8 93 9 19 10 20 11
REMARK SMILES IDX 15 12 16 13 14 14 10 15 11 16 94 17 12 18 13 19 7 20 8 21
REMARK SMILES IDX 9 22 6 23 3 24 4 25 96 26 5 27 95 28 2 29 1 30 27 31 28 32
REMARK SMILES IDX 29 33 30 34 31 35 32 36 33 37 34 38 92 39 35 40 91 41 36 42
REMARK SMILES IDX 37 43 38 44 85 45 39 46 90 47 84 48 86 49 40 50 89 51 83 52
REMARK SMILES IDX 82 53 41 55 71 56 52 57 70 58 53 59 56 60 69 61 87 62 54 63
REMARK SMILES IDX 55 64 68 66 88 67 57 68 42 69 43 70 51 71 44 72 50 73 45 74
REMARK SMILES IDX 46 75 47 76 48 77 49 78 72 79 73 80 81 81 74 82 80 83 75 84
REMARK SMILES IDX 76 85 77 86 78 87 79 88 58 89 59 90 67 91 60 92 66 93 61 94
REMARK SMILES IDX 62 95 63 96 64 97 65 98
REMARK H PARENT 86 54 56 65
REMARK Flexibility Score: inf
ROOT
ATOM      1  C   UNL     1      10.486   0.225 -10.927  1.00  0.00     0.202 C 
ENDROOT
BRANCH   1   2
ATOM      2  C   UNL     1       9.616   0.210  -9.669  1.00  0.00     0.261 C 
BRANCH   2   3
ATOM      3  O   UNL     1       8.225   0.303 -10.017  1.00  0.00    -0.463 OA
BRANCH   3   4
ATOM      4  C   UNL     1       7.515   1.309  -9.457  1.00  0.00     0.310 C 
ATOM      5  O   UNL     1       7.955   2.121  -8.649  1.00  0.00    -0.252 OA
BRANCH   4   6
ATOM      6  C   UNL     1       6.061   1.324  -9.897  1.00  0.00     0.119 C 
ATOM      7  N   UNL     1       5.319  -0.729  -8.775  1.00  0.00    -0.342 N 
ATOM      8  C   UNL     1       4.875  -1.359 -10.013  1.00  0.00     0.119 C 
ATOM      9  C   UNL     1       5.226   0.722  -8.771  1.00  0.00     0.134 C 
ATOM     10  C   UNL     1       5.670  -0.853 -11.209  1.00  0.00     0.022 C 
ATOM     11  C   UNL     1       5.727   0.677 -11.248  1.00  0.00     0.019 C 
BRANCH   7  12
ATOM     12  C   UNL     1       6.102  -1.466  -7.906  1.00  0.00     0.227 C 
ATOM     13  O   UNL     1       6.830  -2.370  -8.328  1.00  0.00    -0.275 OA
BRANCH  12  14
ATOM     14  C   UNL     1       5.945  -1.286  -6.391  1.00  0.00     0.094 C 
ATOM     15  N   UNL     1       3.541  -0.712  -6.151  1.00  0.00    -0.197 NA
ATOM     16  C   UNL     1       3.829   0.682  -5.786  1.00  0.00     0.102 C 
ATOM     17  C   UNL     1       4.566  -1.752  -5.948  1.00  0.00     0.116 C 
ATOM     18  C   UNL     1       5.235   0.927  -5.253  1.00  0.00     0.018 C 
ATOM     19  C   UNL     1       6.367   0.031  -5.759  1.00  0.00     0.016 C 
BRANCH  15  20
ATOM     20  S   UNL     1       1.912  -1.187  -6.181  1.00  0.00     0.243 S 
ATOM     21  O   UNL     1       1.823  -2.523  -6.724  1.00  0.00    -0.207 OA
ATOM     22  O   UNL     1       1.167  -0.086  -6.759  1.00  0.00    -0.207 OA
BRANCH  20  23
ATOM     23  C   UNL     1       1.400  -1.283  -4.476  1.00  0.00     0.082 A 
ATOM     24  C   UNL     1       0.452  -1.184  -1.851  1.00  0.00     0.118 A 
ATOM     25  C   UNL     1      -0.431  -1.421  -2.906  1.00  0.00     0.048 A 
ATOM     26  C   UNL     1       1.817  -1.065  -2.104  1.00  0.00     0.048 A 
ATOM     27  C   UNL     1       0.037  -1.460  -4.222  1.00  0.00     0.025 A 
ATOM     28  C   UNL     1       2.291  -1.109  -3.416  1.00  0.00     0.025 A 
BRANCH  24  29
ATOM     29  O   UNL     1      -0.109  -1.101  -0.606  1.00  0.00    -0.497 OA
ATOM     30  C   UNL     1       0.564  -0.216   0.286  1.00  0.00     0.278 C 
ENDBRANCH  24  29
ENDBRANCH  20  23
ENDBRANCH  15  20
ENDBRANCH  12  14
ENDBRANCH   7  12
ENDBRANCH   4   6
ENDBRANCH   3   4
ENDBRANCH   2   3
ENDBRANCH   1   2
BRANCH   1  31
ATOM     31  O   UNL     1      10.519   1.459 -11.646  1.00  0.00    -0.374 OA
BRANCH  31  32
ATOM     32  C   UNL     1       9.353   1.832 -12.377  1.00  0.00     0.202 C 
BRANCH  32  33
ATOM     33  C   UNL     1       9.084   1.073 -13.683  1.00  0.00     0.261 C 
BRANCH  33  34
ATOM     34  O   UNL     1       8.778  -0.318 -13.474  1.00  0.00    -0.460 OA
BRANCH  34  35
ATOM     35  C   UNL     1       9.706  -1.175 -13.970  1.00  0.00     0.338 C 
ATOM     36  O   UNL     1      10.715  -0.882 -14.591  1.00  0.00    -0.246 OA
BRANCH  35  37
ATOM     37  C   UNL     1       9.436  -2.559 -13.534  1.00  0.00     0.060 A 
ATOM     38  C   UNL     1      10.494  -3.262 -12.943  1.00  0.00     0.016 A 
ATOM     39  C   UNL     1       8.226  -3.200 -13.807  1.00  0.00     0.016 A 
ATOM     40  C   UNL     1      10.369  -4.624 -12.679  1.00  0.00     0.010 A 
ATOM     41  C   UNL     1       8.105  -4.572 -13.549  1.00  0.00     0.010 A 
ATOM     42  C   UNL     1       9.190  -5.298 -13.024  1.00  0.00    -0.014 A 
BRANCH  42  43
ATOM     43  C   UNL     1       9.166  -6.781 -12.982  1.00  0.00     0.031 A 
ATOM     44  C   UNL     1       9.424  -7.552 -14.249  1.00  0.00     0.074 A 
ATOM     45  C   UNL     1       8.969  -7.436 -11.823  1.00  0.00     0.049 A 
ATOM     46  N   UNL     1       9.460  -8.846 -14.440  1.00  0.00    -0.248 NA
ATOM     47  C   UNL     1       9.681  -6.758 -15.463  1.00  0.00     0.031 C 
ATOM     48  C   UNL     1       8.754  -6.807 -10.521  1.00  0.00     0.029 A 
ATOM     49  N   UNL     1       8.922  -8.782 -11.560  1.00  0.00    -0.354 N 
ATOM     50  C   UNL     1       9.736  -9.023 -15.791  1.00  0.00     0.074 A 
ATOM     51  C   UNL     1       9.836  -7.704 -16.378  1.00  0.00     0.031 C 
ATOM     52  C   UNL     1       8.595  -7.768  -9.595  1.00  0.00     0.029 A 
ATOM     53  C   UNL     1       8.668  -9.077 -10.242  1.00  0.00     0.049 A 
ATOM     54  H   UNL     1       9.058  -9.472 -12.250  1.00  0.00     0.167 HD
ATOM     55  C   UNL     1       9.898 -10.177 -16.481  1.00  0.00     0.031 A 
ATOM     56  C   UNL     1       8.495 -10.266  -9.631  1.00  0.00     0.031 A 
ATOM     57  C   UNL     1       9.787 -11.489 -15.902  1.00  0.00     0.049 A 
ATOM     58  C   UNL     1       8.605 -11.535 -10.434  1.00  0.00     0.074 A 
ATOM     59  C   UNL     1       9.948 -12.718 -16.518  1.00  0.00     0.029 A 
ATOM     60  N   UNL     1       9.479 -11.744 -14.575  1.00  0.00    -0.354 N 
ATOM     61  N   UNL     1       8.888 -11.685 -11.707  1.00  0.00    -0.248 NA
ATOM     62  C   UNL     1       8.372 -12.797  -9.717  1.00  0.00     0.031 C 
ATOM     63  C   UNL     1       9.689 -13.717 -15.573  1.00  0.00     0.029 A 
ATOM     64  C   UNL     1       9.415 -13.110 -14.358  1.00  0.00     0.049 A 
ATOM     65  H   UNL     1       9.327 -11.055 -13.888  1.00  0.00     0.167 HD
ATOM     66  C   UNL     1       8.884 -13.057 -11.937  1.00  0.00     0.074 A 
ATOM     67  C   UNL     1       8.586 -13.694 -10.671  1.00  0.00     0.031 C 
ATOM     68  C   UNL     1       9.108 -13.729 -13.094  1.00  0.00     0.031 A 
BRANCH  55  69
ATOM     69  C   UNL     1      10.180 -10.066 -17.955  1.00  0.00    -0.014 A 
ATOM     70  C   UNL     1      11.439  -9.655 -18.426  1.00  0.00     0.010 A 
ATOM     71  C   UNL     1       9.177 -10.403 -18.882  1.00  0.00     0.010 A 
ATOM     72  C   UNL     1      11.678  -9.545 -19.799  1.00  0.00     0.020 A 
ATOM     73  C   UNL     1       9.419 -10.316 -20.256  1.00  0.00     0.020 A 
ATOM     74  C   UNL     1      10.664  -9.870 -20.705  1.00  0.00     0.054 A 
BRANCH  74  75
ATOM     75  S   UNL     1      11.002  -9.729 -22.482  1.00  0.00     0.124 S 
ATOM     76  O   UNL     1      10.952  -8.283 -22.684  1.00  0.00    -0.237 OA
ATOM     77  O   UNL     1      12.325 -10.335 -22.608  1.00  0.00    -0.237 OA
ATOM     78  O   UNL     1       9.914 -10.482 -23.102  1.00  0.00    -0.744 OA
ENDBRANCH  74  75
ENDBRANCH  55  69
BRANCH  56  79
ATOM     79  C   UNL     1       8.175 -10.312  -8.179  1.00  0.00    -0.014 A 
ATOM     80  C   UNL     1       9.123 -10.769  -7.248  1.00  0.00     0.010 A 
ATOM     81  C   UNL     1       6.912  -9.892  -7.721  1.00  0.00     0.010 A 
ATOM     82  C   UNL     1       8.811 -10.814  -5.885  1.00  0.00     0.020 A 
ATOM     83  C   UNL     1       6.606  -9.913  -6.357  1.00  0.00     0.020 A 
ATOM     84  C   UNL     1       7.554 -10.383  -5.448  1.00  0.00     0.054 A 
BRANCH  84  85
ATOM     85  S   UNL     1       7.192 -10.390  -3.670  1.00  0.00     0.124 S 
ATOM     86  O   UNL     1       6.937 -11.805  -3.417  1.00  0.00    -0.237 OA
ATOM     87  O   UNL     1       8.422  -9.856  -3.091  1.00  0.00    -0.237 OA
ATOM     88  O   UNL     1       6.029  -9.512  -3.555  1.00  0.00    -0.744 OA
ENDBRANCH  84  85
ENDBRANCH  56  79
BRANCH  68  89
ATOM     89  C   UNL     1       9.057 -15.232 -13.044  1.00  0.00    -0.014 A 
ATOM     90  C   UNL     1       7.830 -15.912 -12.951  1.00  0.00     0.010 A 
ATOM     91  C   UNL     1      10.247 -15.975 -13.148  1.00  0.00     0.010 A 
ATOM     92  C   UNL     1       7.796 -17.309 -12.936  1.00  0.00     0.020 A 
ATOM     93  C   UNL     1      10.215 -17.372 -13.157  1.00  0.00     0.020 A 
ATOM     94  C   UNL     1       8.990 -18.031 -13.037  1.00  0.00     0.054 A 
BRANCH  94  95
ATOM     95  S   UNL     1       8.919 -19.844 -13.061  1.00  0.00     0.124 S 
ATOM     96  O   UNL     1       8.691 -20.157 -11.653  1.00  0.00    -0.237 OA
ATOM     97  O   UNL     1       7.795 -20.112 -13.954  1.00  0.00    -0.237 OA
ATOM     98  O   UNL     1      10.227 -20.234 -13.582  1.00  0.00    -0.744 OA
ENDBRANCH  94  95
ENDBRANCH  68  89
ENDBRANCH  42  43
ENDBRANCH  35  37
ENDBRANCH  34  35
ENDBRANCH  33  34
ENDBRANCH  32  33
ENDBRANCH  31  32
ENDBRANCH   1  31
TORSDOF 22
