REMARK SMILES CCCCCCNC(=O)Oc1cccc(-c2ccc([C@@H](C)C(=O)OCCOCCOC(=O)c3ccc(-c4c5nc(c(-c6ccc(S(=O)(=O)[O-])cc6)c6ccc([nH]6)c(-c6ccc(S(=O)(=O)[O-])cc6)c6nc(c(-c7ccc(S(=O)(=O)[O-])cc7)c7ccc4[nH]7)C=C6)C=C5)cc3)cc2F)c1
REMARK SMILES IDX 24 1 22 2 23 3 20 4 21 5 19 6 16 7 17 8 94 9 18 10 93 11
REMARK SMILES IDX 95 12 15 13 11 14 12 15 96 16 13 17 14 18 10 19 8 20 7 21
REMARK SMILES IDX 9 23 6 24 5 25 4 26 3 27 2 28 1 29 25 30 26 31 27 32 28 33
REMARK SMILES IDX 29 34 30 35 31 36 32 37 33 38 34 39 92 40 35 41 91 42 36 43
REMARK SMILES IDX 37 44 38 45 85 46 39 47 90 48 84 49 86 50 40 51 89 52 83 53
REMARK SMILES IDX 82 54 41 56 71 57 52 58 70 59 53 60 56 61 69 62 87 63 54 64
REMARK SMILES IDX 55 65 68 67 88 68 57 69 42 70 43 71 51 72 44 73 50 74 45 75
REMARK SMILES IDX 46 76 47 77 48 78 49 79 72 80 73 81 81 82 74 83 80 84 75 85
REMARK SMILES IDX 76 86 77 87 78 88 79 89 58 90 59 91 67 92 60 93 66 94 61 95
REMARK SMILES IDX 62 96 63 97 64 98 65 99
REMARK H PARENT 7 22 86 55 56 66
REMARK Flexibility Score: inf
ROOT
ATOM      1  O   UNL     1      -3.041 -10.238 -10.915  1.00  0.00    -0.463 OA
ENDROOT
BRANCH   1   2
ATOM      2  C   UNL     1      -3.640 -11.128 -10.083  1.00  0.00     0.313 C 
ATOM      3  O   UNL     1      -3.295 -12.299  -9.949  1.00  0.00    -0.252 OA
BRANCH   2   4
ATOM      4  C   UNL     1      -4.828 -10.555  -9.324  1.00  0.00     0.126 C 
ATOM      5  C   UNL     1      -6.115 -10.916 -10.058  1.00  0.00     0.025 C 
BRANCH   4   6
ATOM      6  C   UNL     1      -4.785  -9.081  -8.936  1.00  0.00    -0.031 A 
ATOM      7  C   UNL     1      -4.914  -6.346  -8.116  1.00  0.00     0.018 A 
ATOM      8  C   UNL     1      -4.901  -6.702  -9.475  1.00  0.00     0.012 A 
ATOM      9  C   UNL     1      -4.821  -7.386  -7.184  1.00  0.00     0.131 A 
ATOM     10  C   UNL     1      -4.840  -8.046  -9.879  1.00  0.00     0.005 A 
ATOM     11  C   UNL     1      -4.758  -8.725  -7.577  1.00  0.00     0.044 A 
ATOM     12  F   UNL     1      -4.828  -7.119  -5.868  1.00  0.00    -0.206 F 
BRANCH   7  13
ATOM     13  C   UNL     1      -5.058  -4.940  -7.700  1.00  0.00    -0.012 A 
ATOM     14  C   UNL     1      -4.289  -2.994  -6.463  1.00  0.00     0.133 A 
ATOM     15  C   UNL     1      -5.377  -2.245  -6.903  1.00  0.00     0.047 A 
ATOM     16  C   UNL     1      -4.134  -4.333  -6.834  1.00  0.00     0.056 A 
ATOM     17  C   UNL     1      -6.306  -2.834  -7.755  1.00  0.00     0.004 A 
ATOM     18  C   UNL     1      -6.145  -4.166  -8.151  1.00  0.00     0.009 A 
BRANCH  14  19
ATOM     19  O   UNL     1      -3.412  -2.374  -5.558  1.00  0.00    -0.410 OA
BRANCH  19  20
ATOM     20  C   UNL     1      -2.070  -2.349  -5.899  1.00  0.00     0.412 C 
ATOM     21  N   UNL     1      -1.285  -1.706  -4.986  1.00  0.00    -0.321 N 
ATOM     22  H   UNL     1      -0.322  -1.668  -5.186  1.00  0.00     0.167 HD
ATOM     23  O   UNL     1      -1.572  -2.837  -6.915  1.00  0.00    -0.224 OA
BRANCH  21  24
ATOM     24  C   UNL     1      -1.713  -1.073  -3.754  1.00  0.00     0.119 C 
BRANCH  24  25
ATOM     25  C   UNL     1      -1.105  -1.747  -2.523  1.00  0.00     0.021 C 
BRANCH  25  26
ATOM     26  C   UNL     1       0.426  -1.671  -2.436  1.00  0.00     0.002 C 
BRANCH  26  27
ATOM     27  C   UNL     1       1.018  -0.258  -2.392  1.00  0.00    -0.000 C 
BRANCH  27  28
ATOM     28  C   UNL     1       0.552   0.615  -1.224  1.00  0.00    -0.003 C 
ATOM     29  C   UNL     1       0.946   0.063   0.137  1.00  0.00     0.004 C 
ENDBRANCH  27  28
ENDBRANCH  26  27
ENDBRANCH  25  26
ENDBRANCH  24  25
ENDBRANCH  21  24
ENDBRANCH  19  20
ENDBRANCH  14  19
ENDBRANCH   7  13
ENDBRANCH   4   6
ENDBRANCH   2   4
ENDBRANCH   1   2
BRANCH   1  30
ATOM     30  C   UNL     1      -1.845 -10.697 -11.570  1.00  0.00     0.261 C 
BRANCH  30  31
ATOM     31  C   UNL     1      -0.604  -9.960 -11.062  1.00  0.00     0.202 C 
BRANCH  31  32
ATOM     32  O   UNL     1      -0.259 -10.147  -9.690  1.00  0.00    -0.374 OA
BRANCH  32  33
ATOM     33  C   UNL     1      -1.026  -9.441  -8.714  1.00  0.00     0.202 C 
BRANCH  33  34
ATOM     34  C   UNL     1      -0.779  -7.933  -8.572  1.00  0.00     0.261 C 
BRANCH  34  35
ATOM     35  O   UNL     1      -1.161  -7.191  -9.742  1.00  0.00    -0.460 OA
BRANCH  35  36
ATOM     36  C   UNL     1      -0.126  -6.658 -10.438  1.00  0.00     0.338 C 
ATOM     37  O   UNL     1       1.059  -6.716 -10.156  1.00  0.00    -0.246 OA
BRANCH  36  38
ATOM     38  C   UNL     1      -0.605  -6.158 -11.741  1.00  0.00     0.060 A 
ATOM     39  C   UNL     1       0.015  -6.662 -12.893  1.00  0.00     0.016 A 
ATOM     40  C   UNL     1      -1.587  -5.171 -11.837  1.00  0.00     0.016 A 
ATOM     41  C   UNL     1      -0.317  -6.152 -14.146  1.00  0.00     0.010 A 
ATOM     42  C   UNL     1      -1.911  -4.654 -13.096  1.00  0.00     0.010 A 
ATOM     43  C   UNL     1      -1.257  -5.121 -14.253  1.00  0.00    -0.014 A 
BRANCH  43  44
ATOM     44  C   UNL     1      -1.466  -4.446 -15.558  1.00  0.00     0.031 A 
ATOM     45  C   UNL     1      -0.819  -3.111 -15.805  1.00  0.00     0.074 A 
ATOM     46  C   UNL     1      -2.215  -5.021 -16.516  1.00  0.00     0.049 A 
ATOM     47  N   UNL     1      -0.922  -2.322 -16.843  1.00  0.00    -0.248 NA
ATOM     48  C   UNL     1       0.059  -2.598 -14.741  1.00  0.00     0.031 C 
ATOM     49  C   UNL     1      -2.852  -6.334 -16.416  1.00  0.00     0.029 A 
ATOM     50  N   UNL     1      -2.576  -4.565 -17.759  1.00  0.00    -0.354 N 
ATOM     51  C   UNL     1      -0.140  -1.210 -16.551  1.00  0.00     0.074 A 
ATOM     52  C   UNL     1       0.417  -1.420 -15.232  1.00  0.00     0.031 C 
ATOM     53  C   UNL     1      -3.544  -6.569 -17.544  1.00  0.00     0.029 A 
ATOM     54  C   UNL     1      -3.433  -5.408 -18.427  1.00  0.00     0.049 A 
ATOM     55  H   UNL     1      -2.253  -3.715 -18.137  1.00  0.00     0.167 HD
ATOM     56  C   UNL     1       0.090  -0.114 -17.312  1.00  0.00     0.031 A 
ATOM     57  C   UNL     1      -4.084  -5.248 -19.597  1.00  0.00     0.031 A 
ATOM     58  C   UNL     1      -0.477   0.094 -18.618  1.00  0.00     0.049 A 
ATOM     59  C   UNL     1      -3.880  -3.984 -20.389  1.00  0.00     0.074 A 
ATOM     60  C   UNL     1      -0.275   1.156 -19.483  1.00  0.00     0.029 A 
ATOM     61  N   UNL     1      -1.369  -0.765 -19.241  1.00  0.00    -0.354 N 
ATOM     62  N   UNL     1      -3.105  -2.960 -20.120  1.00  0.00    -0.248 NA
ATOM     63  C   UNL     1      -4.639  -3.851 -21.641  1.00  0.00     0.031 C 
ATOM     64  C   UNL     1      -1.100   0.973 -20.597  1.00  0.00     0.029 A 
ATOM     65  C   UNL     1      -1.764  -0.236 -20.458  1.00  0.00     0.049 A 
ATOM     66  H   UNL     1      -1.676  -1.625 -18.873  1.00  0.00     0.167 HD
ATOM     67  C   UNL     1      -3.273  -2.069 -21.175  1.00  0.00     0.074 A 
ATOM     68  C   UNL     1      -4.207  -2.682 -22.096  1.00  0.00     0.031 C 
ATOM     69  C   UNL     1      -2.704  -0.852 -21.362  1.00  0.00     0.031 A 
BRANCH  56  70
ATOM     70  C   UNL     1       0.954   0.974 -16.727  1.00  0.00    -0.014 A 
ATOM     71  C   UNL     1       2.339   0.802 -16.558  1.00  0.00     0.010 A 
ATOM     72  C   UNL     1       0.370   2.205 -16.376  1.00  0.00     0.010 A 
ATOM     73  C   UNL     1       3.117   1.827 -16.011  1.00  0.00     0.020 A 
ATOM     74  C   UNL     1       1.148   3.241 -15.854  1.00  0.00     0.020 A 
ATOM     75  C   UNL     1       2.515   3.039 -15.658  1.00  0.00     0.054 A 
BRANCH  75  76
ATOM     76  S   UNL     1       3.551   4.357 -14.964  1.00  0.00     0.124 S 
ATOM     77  O   UNL     1       3.849   3.836 -13.632  1.00  0.00    -0.237 OA
ATOM     78  O   UNL     1       4.680   4.397 -15.890  1.00  0.00    -0.237 OA
ATOM     79  O   UNL     1       2.684   5.532 -14.992  1.00  0.00    -0.744 OA
ENDBRANCH  75  76
ENDBRANCH  56  70
BRANCH  57  80
ATOM     80  C   UNL     1      -5.029  -6.300 -20.062  1.00  0.00    -0.014 A 
ATOM     81  C   UNL     1      -4.734  -7.093 -21.184  1.00  0.00     0.010 A 
ATOM     82  C   UNL     1      -6.231  -6.525 -19.363  1.00  0.00     0.010 A 
ATOM     83  C   UNL     1      -5.624  -8.089 -21.599  1.00  0.00     0.020 A 
ATOM     84  C   UNL     1      -7.109  -7.537 -19.758  1.00  0.00     0.020 A 
ATOM     85  C   UNL     1      -6.802  -8.309 -20.880  1.00  0.00     0.054 A 
BRANCH  85  86
ATOM     86  S   UNL     1      -7.905  -9.655 -21.394  1.00  0.00     0.124 S 
ATOM     87  O   UNL     1      -8.493  -9.117 -22.616  1.00  0.00    -0.237 OA
ATOM     88  O   UNL     1      -6.977 -10.770 -21.574  1.00  0.00    -0.237 OA
ATOM     89  O   UNL     1      -8.822  -9.796 -20.265  1.00  0.00    -0.744 OA
ENDBRANCH  85  86
ENDBRANCH  57  80
BRANCH  69  90
ATOM     90  C   UNL     1      -3.064  -0.094 -22.614  1.00  0.00    -0.014 A 
ATOM     91  C   UNL     1      -4.325   0.511 -22.756  1.00  0.00     0.010 A 
ATOM     92  C   UNL     1      -2.099   0.088 -23.621  1.00  0.00     0.010 A 
ATOM     93  C   UNL     1      -4.618   1.275 -23.890  1.00  0.00     0.020 A 
ATOM     94  C   UNL     1      -2.378   0.874 -24.742  1.00  0.00     0.020 A 
ATOM     95  C   UNL     1      -3.640   1.458 -24.873  1.00  0.00     0.054 A 
BRANCH  95  96
ATOM     96  S   UNL     1      -4.023   2.515 -26.297  1.00  0.00     0.124 S 
ATOM     97  O   UNL     1      -4.962   1.686 -27.048  1.00  0.00    -0.237 OA
ATOM     98  O   UNL     1      -4.596   3.703 -25.668  1.00  0.00    -0.237 OA
ATOM     99  O   UNL     1      -2.725   2.720 -26.936  1.00  0.00    -0.744 OA
ENDBRANCH  95  96
ENDBRANCH  69  90
ENDBRANCH  43  44
ENDBRANCH  36  38
ENDBRANCH  35  36
ENDBRANCH  34  35
ENDBRANCH  33  34
ENDBRANCH  32  33
ENDBRANCH  31  32
ENDBRANCH  30  31
ENDBRANCH   1  30
TORSDOF 26
