REMARK SMILES C[C@H](Nc1ccc(F)cc1Br)[C@@H](C)C(=O)OCCOCCOC(=O)c1ccc(-c2c3nc(c(-c4ccc(S(=O)(=O)[O-])cc4)c4ccc([nH]4)c(-c4ccc(S(=O)(=O)[O-])cc4)c4nc(c(-c5ccc(S(=O)(=O)[O-])cc5)c5ccc2[nH]5)C=C4)C=C3)cc1
REMARK SMILES IDX 19 1 18 2 17 3 16 4 14 5 15 6 12 7 13 8 2 9 1 10 3 11 4 13
REMARK SMILES IDX 5 14 10 15 6 16 9 17 11 18 7 19 8 20 20 21 21 22 22 23 23 24
REMARK SMILES IDX 24 25 25 26 26 27 84 28 27 29 83 30 28 31 29 32 30 33 77 34
REMARK SMILES IDX 31 35 82 36 76 37 78 38 32 39 81 40 75 41 74 42 33 44 63 45
REMARK SMILES IDX 44 46 62 47 45 48 48 49 61 50 79 51 46 52 47 53 60 55 80 56
REMARK SMILES IDX 49 57 34 58 35 59 43 60 36 61 42 62 37 63 38 64 39 65 40 66
REMARK SMILES IDX 41 67 64 68 65 69 73 70 66 71 72 72 67 73 68 74 69 75 70 76
REMARK SMILES IDX 71 77 50 78 51 79 59 80 52 81 58 82 53 83 54 84 55 85 56 86
REMARK SMILES IDX 57 87
REMARK H PARENT 3 12 78 43 48 54
REMARK Flexibility Score: inf
ROOT
ATOM      1  O   UNL     1      -2.122   3.951  -3.891  1.00  0.00    -0.374 OA
ENDROOT
BRANCH   1   2
ATOM      2  C   UNL     1      -2.030   4.808  -2.755  1.00  0.00     0.202 C 
BRANCH   2   3
ATOM      3  C   UNL     1      -2.441   4.209  -1.406  1.00  0.00     0.261 C 
BRANCH   3   4
ATOM      4  O   UNL     1      -1.567   3.163  -0.932  1.00  0.00    -0.463 OA
BRANCH   4   5
ATOM      5  C   UNL     1      -2.086   1.907  -0.971  1.00  0.00     0.310 C 
ATOM      6  O   UNL     1      -3.161   1.612  -1.483  1.00  0.00    -0.252 OA
BRANCH   5   7
ATOM      7  C   UNL     1      -1.255   0.882  -0.221  1.00  0.00     0.118 C 
ATOM      8  C   UNL     1      -1.817   0.818   1.203  1.00  0.00     0.022 C 
BRANCH   7   9
ATOM      9  C   UNL     1       0.269   1.115  -0.233  1.00  0.00     0.090 C 
ATOM     10  C   UNL     1       0.864   1.135  -1.646  1.00  0.00     0.031 C 
BRANCH   9  11
ATOM     11  N   UNL     1       0.930   0.013   0.481  1.00  0.00    -0.381 N 
ATOM     12  H   UNL     1       0.649  -0.916   0.318  1.00  0.00     0.160 HD
BRANCH  11  13
ATOM     13  C   UNL     1       1.954   0.279   1.389  1.00  0.00     0.049 A 
ATOM     14  C   UNL     1       1.792   1.250   2.388  1.00  0.00     0.030 A 
ATOM     15  C   UNL     1       3.199  -0.379   1.305  1.00  0.00     0.044 A 
ATOM     16  C   UNL     1       2.828   1.554   3.274  1.00  0.00     0.041 A 
ATOM     17  C   UNL     1       4.242  -0.070   2.179  1.00  0.00     0.057 A 
ATOM     18  Br  UNL     1       3.520  -1.698  -0.029  1.00  0.00    -0.048 Br
ATOM     19  C   UNL     1       4.043   0.894   3.157  1.00  0.00     0.124 A 
ATOM     20  F   UNL     1       5.037   1.190   4.003  1.00  0.00    -0.207 F 
ENDBRANCH  11  13
ENDBRANCH   9  11
ENDBRANCH   7   9
ENDBRANCH   5   7
ENDBRANCH   4   5
ENDBRANCH   3   4
ENDBRANCH   2   3
ENDBRANCH   1   2
BRANCH   1  21
ATOM     21  C   UNL     1      -1.083   2.989  -4.065  1.00  0.00     0.202 C 
BRANCH  21  22
ATOM     22  C   UNL     1       0.271   3.543  -4.524  1.00  0.00     0.261 C 
BRANCH  22  23
ATOM     23  O   UNL     1       0.878   4.378  -3.518  1.00  0.00    -0.460 OA
BRANCH  23  24
ATOM     24  C   UNL     1       1.252   5.600  -3.965  1.00  0.00     0.338 C 
ATOM     25  O   UNL     1       1.260   5.982  -5.128  1.00  0.00    -0.246 OA
BRANCH  24  26
ATOM     26  C   UNL     1       1.501   6.526  -2.845  1.00  0.00     0.060 A 
ATOM     27  C   UNL     1       0.784   7.729  -2.853  1.00  0.00     0.016 A 
ATOM     28  C   UNL     1       2.512   6.310  -1.906  1.00  0.00     0.016 A 
ATOM     29  C   UNL     1       1.145   8.761  -1.992  1.00  0.00     0.010 A 
ATOM     30  C   UNL     1       2.874   7.353  -1.039  1.00  0.00     0.010 A 
ATOM     31  C   UNL     1       2.236   8.604  -1.127  1.00  0.00    -0.014 A 
BRANCH  31  32
ATOM     32  C   UNL     1       2.826   9.824  -0.515  1.00  0.00     0.031 A 
ATOM     33  C   UNL     1       4.021  10.461  -1.183  1.00  0.00     0.074 A 
ATOM     34  C   UNL     1       2.252  10.427   0.542  1.00  0.00     0.049 A 
ATOM     35  N   UNL     1       4.635  11.580  -0.892  1.00  0.00    -0.248 NA
ATOM     36  C   UNL     1       4.594   9.745  -2.335  1.00  0.00     0.031 C 
ATOM     37  C   UNL     1       1.067   9.946   1.251  1.00  0.00     0.029 A 
ATOM     38  N   UNL     1       2.582  11.593   1.188  1.00  0.00    -0.354 N 
ATOM     39  C   UNL     1       5.661  11.701  -1.824  1.00  0.00     0.074 A 
ATOM     40  C   UNL     1       5.611  10.526  -2.665  1.00  0.00     0.031 C 
ATOM     41  C   UNL     1       0.763  10.816   2.230  1.00  0.00     0.029 A 
ATOM     42  C   UNL     1       1.738  11.907   2.227  1.00  0.00     0.049 A 
ATOM     43  H   UNL     1       3.351  12.152   0.932  1.00  0.00     0.167 HD
ATOM     44  C   UNL     1       6.558  12.704  -1.980  1.00  0.00     0.031 A 
ATOM     45  C   UNL     1       1.747  12.953   3.076  1.00  0.00     0.031 A 
ATOM     46  C   UNL     1       6.619  13.874  -1.147  1.00  0.00     0.049 A 
ATOM     47  C   UNL     1       2.786  14.033   2.918  1.00  0.00     0.074 A 
ATOM     48  C   UNL     1       7.493  14.944  -1.228  1.00  0.00     0.029 A 
ATOM     49  N   UNL     1       5.773  14.128  -0.079  1.00  0.00    -0.354 N 
ATOM     50  N   UNL     1       3.736  14.138   2.019  1.00  0.00    -0.248 NA
ATOM     51  C   UNL     1       2.742  15.144   3.880  1.00  0.00     0.031 C 
ATOM     52  C   UNL     1       7.201  15.827  -0.182  1.00  0.00     0.029 A 
ATOM     53  C   UNL     1       6.113  15.329   0.518  1.00  0.00     0.049 A 
ATOM     54  H   UNL     1       5.038  13.540   0.211  1.00  0.00     0.167 HD
ATOM     55  C   UNL     1       4.382  15.340   2.290  1.00  0.00     0.074 A 
ATOM     56  C   UNL     1       3.710  15.930   3.429  1.00  0.00     0.031 C 
ATOM     57  C   UNL     1       5.434  15.907   1.649  1.00  0.00     0.031 A 
BRANCH  44  58
ATOM     58  C   UNL     1       7.570  12.558  -3.084  1.00  0.00    -0.014 A 
ATOM     59  C   UNL     1       7.203  12.718  -4.433  1.00  0.00     0.010 A 
ATOM     60  C   UNL     1       8.911  12.277  -2.767  1.00  0.00     0.010 A 
ATOM     61  C   UNL     1       8.151  12.558  -5.447  1.00  0.00     0.020 A 
ATOM     62  C   UNL     1       9.867  12.140  -3.777  1.00  0.00     0.020 A 
ATOM     63  C   UNL     1       9.476  12.263  -5.112  1.00  0.00     0.054 A 
BRANCH  63  64
ATOM     64  S   UNL     1      10.692  12.070  -6.445  1.00  0.00     0.124 S 
ATOM     65  O   UNL     1      10.356  10.748  -6.968  1.00  0.00    -0.237 OA
ATOM     66  O   UNL     1      10.384  13.191  -7.329  1.00  0.00    -0.237 OA
ATOM     67  O   UNL     1      11.977  12.159  -5.756  1.00  0.00    -0.744 OA
ENDBRANCH  63  64
ENDBRANCH  44  58
BRANCH  45  68
ATOM     68  C   UNL     1       0.732  13.034   4.162  1.00  0.00    -0.014 A 
ATOM     69  C   UNL     1      -0.298  13.989   4.117  1.00  0.00     0.010 A 
ATOM     70  C   UNL     1       0.799  12.150   5.254  1.00  0.00     0.010 A 
ATOM     71  C   UNL     1      -1.236  14.067   5.152  1.00  0.00     0.020 A 
ATOM     72  C   UNL     1      -0.149  12.209   6.278  1.00  0.00     0.020 A 
ATOM     73  C   UNL     1      -1.156  13.175   6.226  1.00  0.00     0.054 A 
BRANCH  73  74
ATOM     74  S   UNL     1      -2.414  13.254   7.531  1.00  0.00     0.124 S 
ATOM     75  O   UNL     1      -1.985  14.420   8.296  1.00  0.00    -0.237 OA
ATOM     76  O   UNL     1      -3.651  13.414   6.771  1.00  0.00    -0.237 OA
ATOM     77  O   UNL     1      -2.275  11.969   8.213  1.00  0.00    -0.744 OA
ENDBRANCH  73  74
ENDBRANCH  45  68
BRANCH  57  78
ATOM     78  C   UNL     1       5.903  17.253   2.134  1.00  0.00    -0.014 A 
ATOM     79  C   UNL     1       6.622  17.387   3.334  1.00  0.00     0.010 A 
ATOM     80  C   UNL     1       5.664  18.394   1.346  1.00  0.00     0.010 A 
ATOM     81  C   UNL     1       7.064  18.645   3.755  1.00  0.00     0.020 A 
ATOM     82  C   UNL     1       6.125  19.649   1.751  1.00  0.00     0.020 A 
ATOM     83  C   UNL     1       6.809  19.769   2.962  1.00  0.00     0.054 A 
BRANCH  83  84
ATOM     84  S   UNL     1       7.424  21.386   3.509  1.00  0.00     0.124 S 
ATOM     85  O   UNL     1       6.462  21.740   4.549  1.00  0.00    -0.237 OA
ATOM     86  O   UNL     1       8.772  21.078   3.979  1.00  0.00    -0.237 OA
ATOM     87  O   UNL     1       7.365  22.205   2.300  1.00  0.00    -0.744 OA
ENDBRANCH  83  84
ENDBRANCH  57  78
ENDBRANCH  31  32
ENDBRANCH  24  26
ENDBRANCH  23  24
ENDBRANCH  22  23
ENDBRANCH  21  22
ENDBRANCH   1  21
TORSDOF 20
