REMARK SMILES O=C(OCCOCCOC(=O)[C@]1(CCc2ccccc2)C[C@H]2CC[C@@H]1O2)c1ccc(-c2c3nc(c(-c4ccc(S(=O)(=O)[O-])cc4)c4ccc([nH]4)c(-c4ccc(S(=O)(=O)[O-])cc4)c4nc(c(-c5ccc(S(=O)(=O)[O-])cc5)c5ccc2[nH]5)C=C4)C=C3)cc1
REMARK SMILES IDX 6 1 5 2 4 3 3 4 2 5 1 6 27 7 28 8 86 9 29 10 85 11 30 12
REMARK SMILES IDX 31 13 32 14 79 15 33 16 84 17 78 18 80 19 34 20 83 21 77 22
REMARK SMILES IDX 76 23 35 25 65 26 46 27 64 28 47 29 50 30 63 31 81 32 48 33
REMARK SMILES IDX 49 34 62 36 82 37 51 38 36 39 37 40 45 41 38 42 44 43 39 44
REMARK SMILES IDX 40 45 41 46 42 47 43 48 66 49 67 50 75 51 68 52 74 53 69 54
REMARK SMILES IDX 70 55 71 56 72 57 73 58 52 59 53 60 61 61 54 62 60 63 55 64
REMARK SMILES IDX 56 65 57 66 58 67 59 68 7 69 8 70 9 71 10 72 11 73 12 74
REMARK SMILES IDX 21 75 25 76 22 77 24 78 26 79 23 80 13 81 14 82 15 83 16 84
REMARK SMILES IDX 20 85 17 86 19 87 18 88
REMARK H PARENT 80 24 50 35
REMARK Flexibility Score: inf
ROOT
ATOM      1  O   UNL     1       4.002   0.408  -1.534  1.00  0.00    -0.374 OA
ENDROOT
BRANCH   1   2
ATOM      2  C   UNL     1       4.441  -0.842  -0.997  1.00  0.00     0.202 C 
BRANCH   2   3
ATOM      3  C   UNL     1       3.897  -1.336   0.353  1.00  0.00     0.261 C 
BRANCH   3   4
ATOM      4  O   UNL     1       2.484  -1.127   0.502  1.00  0.00    -0.460 OA
BRANCH   4   5
ATOM      5  C   UNL     1       1.882  -0.192   1.282  1.00  0.00     0.338 C 
ATOM      6  O   UNL     1       0.669  -0.247   1.461  1.00  0.00    -0.246 OA
BRANCH   5   7
ATOM      7  C   UNL     1       2.654   0.913   1.921  1.00  0.00     0.060 A 
ATOM      8  C   UNL     1       3.834   1.435   1.394  1.00  0.00     0.016 A 
ATOM      9  C   UNL     1       2.138   1.494   3.087  1.00  0.00     0.016 A 
ATOM     10  C   UNL     1       4.577   2.377   2.069  1.00  0.00     0.010 A 
ATOM     11  C   UNL     1       2.845   2.507   3.744  1.00  0.00     0.010 A 
ATOM     12  C   UNL     1       4.094   2.911   3.255  1.00  0.00    -0.014 A 
BRANCH  12  13
ATOM     13  C   UNL     1       5.028   3.753   4.017  1.00  0.00     0.031 A 
ATOM     14  C   UNL     1       5.697   3.146   5.213  1.00  0.00     0.074 A 
ATOM     15  C   UNL     1       5.420   4.934   3.505  1.00  0.00     0.049 A 
ATOM     16  N   UNL     1       6.567   3.673   6.026  1.00  0.00    -0.248 NA
ATOM     17  C   UNL     1       5.357   1.743   5.519  1.00  0.00     0.031 C 
ATOM     18  C   UNL     1       4.946   5.507   2.239  1.00  0.00     0.029 A 
ATOM     19  N   UNL     1       6.348   5.834   3.948  1.00  0.00    -0.354 N 
ATOM     20  C   UNL     1       6.841   2.688   6.967  1.00  0.00     0.074 A 
ATOM     21  C   UNL     1       6.059   1.526   6.619  1.00  0.00     0.031 C 
ATOM     22  C   UNL     1       5.623   6.639   1.989  1.00  0.00     0.029 A 
ATOM     23  C   UNL     1       6.511   6.913   3.112  1.00  0.00     0.049 A 
ATOM     24  H   UNL     1       6.852   5.720   4.786  1.00  0.00     0.167 HD
ATOM     25  C   UNL     1       7.660   2.766   8.040  1.00  0.00     0.031 A 
ATOM     26  C   UNL     1       7.273   8.012   3.265  1.00  0.00     0.031 A 
ATOM     27  C   UNL     1       8.417   3.944   8.357  1.00  0.00     0.049 A 
ATOM     28  C   UNL     1       8.094   8.118   4.521  1.00  0.00     0.074 A 
ATOM     29  C   UNL     1       9.209   4.195   9.461  1.00  0.00     0.029 A 
ATOM     30  N   UNL     1       8.475   5.073   7.550  1.00  0.00    -0.354 N 
ATOM     31  N   UNL     1       8.257   7.229   5.475  1.00  0.00    -0.248 NA
ATOM     32  C   UNL     1       8.818   9.376   4.734  1.00  0.00     0.031 C 
ATOM     33  C   UNL     1       9.709   5.497   9.341  1.00  0.00     0.029 A 
ATOM     34  C   UNL     1       9.278   6.032   8.135  1.00  0.00     0.049 A 
ATOM     35  H   UNL     1       8.011   5.175   6.687  1.00  0.00     0.167 HD
ATOM     36  C   UNL     1       9.118   7.813   6.394  1.00  0.00     0.074 A 
ATOM     37  C   UNL     1       9.455   9.124   5.870  1.00  0.00     0.031 C 
ATOM     38  C   UNL     1       9.588   7.320   7.567  1.00  0.00     0.031 A 
BRANCH  25  39
ATOM     39  C   UNL     1       7.667   1.592   8.978  1.00  0.00    -0.014 A 
ATOM     40  C   UNL     1       8.286   0.374   8.643  1.00  0.00     0.010 A 
ATOM     41  C   UNL     1       6.984   1.699  10.204  1.00  0.00     0.010 A 
ATOM     42  C   UNL     1       8.179  -0.729   9.497  1.00  0.00     0.020 A 
ATOM     43  C   UNL     1       6.895   0.607  11.069  1.00  0.00     0.020 A 
ATOM     44  C   UNL     1       7.474  -0.608  10.700  1.00  0.00     0.054 A 
BRANCH  44  45
ATOM     45  S   UNL     1       7.329  -2.058  11.780  1.00  0.00     0.124 S 
ATOM     46  O   UNL     1       6.355  -2.873  11.057  1.00  0.00    -0.237 OA
ATOM     47  O   UNL     1       8.692  -2.581  11.801  1.00  0.00    -0.237 OA
ATOM     48  O   UNL     1       6.858  -1.501  13.046  1.00  0.00    -0.744 OA
ENDBRANCH  44  45
ENDBRANCH  25  39
BRANCH  26  49
ATOM     49  C   UNL     1       7.238   9.106   2.255  1.00  0.00    -0.014 A 
ATOM     50  C   UNL     1       8.381   9.447   1.511  1.00  0.00     0.010 A 
ATOM     51  C   UNL     1       6.047   9.825   2.035  1.00  0.00     0.010 A 
ATOM     52  C   UNL     1       8.339  10.498   0.587  1.00  0.00     0.020 A 
ATOM     53  C   UNL     1       5.992  10.854   1.091  1.00  0.00     0.020 A 
ATOM     54  C   UNL     1       7.145  11.196   0.385  1.00  0.00     0.054 A 
BRANCH  54  55
ATOM     55  S   UNL     1       7.104  12.539  -0.835  1.00  0.00     0.124 S 
ATOM     56  O   UNL     1       7.835  13.597  -0.145  1.00  0.00    -0.237 OA
ATOM     57  O   UNL     1       7.783  11.944  -1.984  1.00  0.00    -0.237 OA
ATOM     58  O   UNL     1       5.676  12.785  -1.024  1.00  0.00    -0.744 OA
ENDBRANCH  54  55
ENDBRANCH  26  49
BRANCH  38  59
ATOM     59  C   UNL     1      10.554   8.184   8.326  1.00  0.00    -0.014 A 
ATOM     60  C   UNL     1      10.120   9.324   9.023  1.00  0.00     0.010 A 
ATOM     61  C   UNL     1      11.908   7.809   8.381  1.00  0.00     0.010 A 
ATOM     62  C   UNL     1      11.036  10.098   9.738  1.00  0.00     0.020 A 
ATOM     63  C   UNL     1      12.820   8.564   9.117  1.00  0.00     0.020 A 
ATOM     64  C   UNL     1      12.381   9.713   9.778  1.00  0.00     0.054 A 
BRANCH  64  65
ATOM     65  S   UNL     1      13.546  10.707  10.746  1.00  0.00     0.124 S 
ATOM     66  O   UNL     1      13.751  11.862   9.877  1.00  0.00    -0.237 OA
ATOM     67  O   UNL     1      12.801  10.969  11.976  1.00  0.00    -0.237 OA
ATOM     68  O   UNL     1      14.703   9.829  10.902  1.00  0.00    -0.744 OA
ENDBRANCH  64  65
ENDBRANCH  38  59
ENDBRANCH  12  13
ENDBRANCH   5   7
ENDBRANCH   4   5
ENDBRANCH   3   4
ENDBRANCH   2   3
ENDBRANCH   1   2
BRANCH   1  69
ATOM     69  C   UNL     1       2.598   0.583  -1.765  1.00  0.00     0.202 C 
BRANCH  69  70
ATOM     70  C   UNL     1       2.373   1.298  -3.094  1.00  0.00     0.261 C 
BRANCH  70  71
ATOM     71  O   UNL     1       2.737   0.339  -4.088  1.00  0.00    -0.463 OA
BRANCH  71  72
ATOM     72  C   UNL     1       3.884   0.587  -4.760  1.00  0.00     0.314 C 
ATOM     73  O   UNL     1       4.197   1.692  -5.177  1.00  0.00    -0.252 OA
BRANCH  72  74
ATOM     74  C   UNL     1       4.691  -0.694  -5.001  1.00  0.00     0.097 C 
ATOM     75  C   UNL     1       4.644  -1.010  -6.514  1.00  0.00     0.053 C 
ATOM     76  C   UNL     1       3.930  -1.936  -4.449  1.00  0.00     0.136 C 
ATOM     77  C   UNL     1       3.834  -2.313  -6.571  1.00  0.00     0.120 C 
ATOM     78  C   UNL     1       4.707  -3.248  -4.567  1.00  0.00     0.036 C 
ATOM     79  O   UNL     1       2.923  -2.147  -5.474  1.00  0.00    -0.374 OA
ATOM     80  C   UNL     1       4.650  -3.504  -6.072  1.00  0.00     0.035 C 
BRANCH  74  81
ATOM     81  C   UNL     1       6.131  -0.586  -4.419  1.00  0.00     0.026 C 
BRANCH  81  82
ATOM     82  C   UNL     1       6.973   0.673  -4.722  1.00  0.00     0.037 C 
BRANCH  82  83
ATOM     83  C   UNL     1       6.887   1.812  -3.726  1.00  0.00    -0.048 A 
ATOM     84  C   UNL     1       6.685   3.123  -4.182  1.00  0.00     0.004 A 
ATOM     85  C   UNL     1       7.070   1.614  -2.350  1.00  0.00     0.004 A 
ATOM     86  C   UNL     1       6.597   4.193  -3.288  1.00  0.00     0.000 A 
ATOM     87  C   UNL     1       6.977   2.683  -1.453  1.00  0.00     0.000 A 
ATOM     88  C   UNL     1       6.729   3.971  -1.920  1.00  0.00     0.000 A 
ENDBRANCH  82  83
ENDBRANCH  81  82
ENDBRANCH  74  81
ENDBRANCH  72  74
ENDBRANCH  71  72
ENDBRANCH  70  71
ENDBRANCH  69  70
ENDBRANCH   1  69
TORSDOF 20
