REMARK SMILES O=C(OCCOCCOC(=O)c1ccc(-c2c3nc(c(-c4ccc(S(=O)(=O)[O-])cc4)c4ccc([nH]4)c(-c4ccc(S(=O)(=O)[O-])cc4)c4nc(c(-c5ccc(S(=O)(=O)[O-])cc5)c5ccc2[nH]5)C=C4)C=C3)cc1)C1=C[C@H]2C(=N1)C=CC(Cl)=C2Cl
REMARK SMILES IDX 7 1 6 2 5 3 4 4 3 5 2 6 1 7 72 8 73 9 76 10 74 11 75 12
REMARK SMILES IDX 81 13 77 14 79 15 82 16 78 17 80 18 8 19 9 20 10 21 11 22
REMARK SMILES IDX 12 23 13 24 71 25 14 26 70 27 15 28 16 29 17 30 64 31 18 32
REMARK SMILES IDX 69 33 63 34 65 35 19 36 68 37 62 38 61 39 20 41 50 42 31 43
REMARK SMILES IDX 49 44 32 45 35 46 48 47 66 48 33 49 34 50 47 52 67 53 36 54
REMARK SMILES IDX 21 55 22 56 30 57 23 58 29 59 24 60 25 61 26 62 27 63 28 64
REMARK SMILES IDX 51 65 52 66 60 67 53 68 59 69 54 70 55 71 56 72 57 73 58 74
REMARK SMILES IDX 37 75 38 76 46 77 39 78 45 79 40 80 41 81 42 82 43 83 44 84
REMARK H PARENT 65 40 35 51
REMARK Flexibility Score: inf
ROOT
ATOM      1  C   UNL     1       3.034   1.499   1.801  1.00  0.00     0.202 C 
ENDROOT
BRANCH   1   2
ATOM      2  O   UNL     1       4.358   0.981   1.632  1.00  0.00    -0.374 OA
BRANCH   2   3
ATOM      3  C   UNL     1       4.827   0.942   0.284  1.00  0.00     0.202 C 
BRANCH   3   4
ATOM      4  C   UNL     1       4.571  -0.393  -0.412  1.00  0.00     0.261 C 
BRANCH   4   5
ATOM      5  O   UNL     1       3.173  -0.512  -0.730  1.00  0.00    -0.459 OA
BRANCH   5   6
ATOM      6  C   UNL     1       2.271  -1.131   0.059  1.00  0.00     0.356 C 
ATOM      7  O   UNL     1       1.065  -0.962  -0.109  1.00  0.00    -0.244 OA
BRANCH   6   8
ATOM      8  C   UNL     1       2.744  -2.087   1.085  1.00  0.00     0.145 C 
ATOM      9  C   UNL     1       2.196  -3.308   1.090  1.00  0.00     0.024 C 
ATOM     10  N   UNL     1       3.412  -1.762   2.248  1.00  0.00    -0.245 NA
ATOM     11  C   UNL     1       2.484  -3.954   2.390  1.00  0.00     0.107 C 
ATOM     12  C   UNL     1       3.192  -2.772   3.030  1.00  0.00     0.054 C 
ATOM     13  C   UNL     1       1.352  -4.333   3.307  1.00  0.00     0.050 C 
ATOM     14  C   UNL     1       3.506  -2.844   4.474  1.00  0.00     0.026 C 
ATOM     15  C   UNL     1       1.681  -4.498   4.606  1.00  0.00     0.056 C 
ATOM     16  Cl  UNL     1      -0.151  -3.445   3.056  1.00  0.00    -0.086 Cl
ATOM     17  C   UNL     1       2.773  -3.718   5.186  1.00  0.00     0.023 C 
ATOM     18  Cl  UNL     1       1.600  -6.143   5.195  1.00  0.00    -0.083 Cl
ENDBRANCH   6   8
ENDBRANCH   5   6
ENDBRANCH   4   5
ENDBRANCH   3   4
ENDBRANCH   2   3
ENDBRANCH   1   2
BRANCH   1  19
ATOM     19  C   UNL     1       3.022   2.981   2.181  1.00  0.00     0.261 C 
BRANCH  19  20
ATOM     20  O   UNL     1       3.352   3.788   1.042  1.00  0.00    -0.460 OA
BRANCH  20  21
ATOM     21  C   UNL     1       4.668   4.078   0.900  1.00  0.00     0.338 C 
ATOM     22  O   UNL     1       5.569   3.854   1.682  1.00  0.00    -0.246 OA
BRANCH  21  23
ATOM     23  C   UNL     1       4.881   4.556  -0.481  1.00  0.00     0.060 A 
ATOM     24  C   UNL     1       5.990   4.067  -1.187  1.00  0.00     0.016 A 
ATOM     25  C   UNL     1       4.008   5.473  -1.067  1.00  0.00     0.016 A 
ATOM     26  C   UNL     1       6.256   4.533  -2.472  1.00  0.00     0.010 A 
ATOM     27  C   UNL     1       4.277   5.942  -2.349  1.00  0.00     0.010 A 
ATOM     28  C   UNL     1       5.422   5.503  -3.037  1.00  0.00    -0.014 A 
BRANCH  28  29
ATOM     29  C   UNL     1       5.817   6.220  -4.268  1.00  0.00     0.031 A 
ATOM     30  C   UNL     1       6.368   7.608  -4.126  1.00  0.00     0.074 A 
ATOM     31  C   UNL     1       5.610   5.676  -5.478  1.00  0.00     0.049 A 
ATOM     32  N   UNL     1       6.601   8.506  -5.044  1.00  0.00    -0.248 NA
ATOM     33  C   UNL     1       6.672   8.050  -2.754  1.00  0.00     0.031 C 
ATOM     34  C   UNL     1       5.108   4.326  -5.723  1.00  0.00     0.029 A 
ATOM     35  N   UNL     1       5.760   6.218  -6.728  1.00  0.00    -0.354 N 
ATOM     36  C   UNL     1       7.041   9.633  -4.360  1.00  0.00     0.074 A 
ATOM     37  C   UNL     1       7.024   9.310  -2.950  1.00  0.00     0.031 C 
ATOM     38  C   UNL     1       4.952   4.156  -7.046  1.00  0.00     0.029 A 
ATOM     39  C   UNL     1       5.297   5.402  -7.731  1.00  0.00     0.049 A 
ATOM     40  H   UNL     1       6.158   7.103  -6.891  1.00  0.00     0.167 HD
ATOM     41  C   UNL     1       7.415  10.832  -4.866  1.00  0.00     0.031 A 
ATOM     42  C   UNL     1       5.123   5.650  -9.044  1.00  0.00     0.031 A 
ATOM     43  C   UNL     1       7.400  11.137  -6.271  1.00  0.00     0.049 A 
ATOM     44  C   UNL     1       5.500   7.002  -9.588  1.00  0.00     0.074 A 
ATOM     45  C   UNL     1       7.793  12.302  -6.903  1.00  0.00     0.029 A 
ATOM     46  N   UNL     1       6.950  10.273  -7.261  1.00  0.00    -0.354 N 
ATOM     47  N   UNL     1       5.955   8.050  -8.942  1.00  0.00    -0.248 NA
ATOM     48  C   UNL     1       5.351   7.203 -11.035  1.00  0.00     0.031 C 
ATOM     49  C   UNL     1       7.515  12.168  -8.267  1.00  0.00     0.029 A 
ATOM     50  C   UNL     1       7.025  10.891  -8.497  1.00  0.00     0.049 A 
ATOM     51  H   UNL     1       6.625   9.357  -7.106  1.00  0.00     0.167 HD
ATOM     52  C   UNL     1       6.176   9.027  -9.908  1.00  0.00     0.074 A 
ATOM     53  C   UNL     1       5.806   8.442 -11.181  1.00  0.00     0.031 C 
ATOM     54  C   UNL     1       6.652  10.288  -9.755  1.00  0.00     0.031 A 
BRANCH  41  55
ATOM     55  C   UNL     1       7.802  11.907  -3.884  1.00  0.00    -0.014 A 
ATOM     56  C   UNL     1       8.955  11.799  -3.083  1.00  0.00     0.010 A 
ATOM     57  C   UNL     1       6.985  13.045  -3.749  1.00  0.00     0.010 A 
ATOM     58  C   UNL     1       9.244  12.772  -2.122  1.00  0.00     0.020 A 
ATOM     59  C   UNL     1       7.291  14.038  -2.815  1.00  0.00     0.020 A 
ATOM     60  C   UNL     1       8.404  13.882  -1.988  1.00  0.00     0.054 A 
BRANCH  60  61
ATOM     61  S   UNL     1       8.791  15.119  -0.720  1.00  0.00     0.124 S 
ATOM     62  O   UNL     1       8.451  14.406   0.509  1.00  0.00    -0.237 OA
ATOM     63  O   UNL     1      10.216  15.360  -0.932  1.00  0.00    -0.237 OA
ATOM     64  O   UNL     1       7.916  16.241  -1.050  1.00  0.00    -0.744 OA
ENDBRANCH  60  61
ENDBRANCH  41  55
BRANCH  42  65
ATOM     65  C   UNL     1       4.542   4.590  -9.911  1.00  0.00    -0.014 A 
ATOM     66  C   UNL     1       5.345   3.892 -10.828  1.00  0.00     0.010 A 
ATOM     67  C   UNL     1       3.192   4.218  -9.762  1.00  0.00     0.010 A 
ATOM     68  C   UNL     1       4.813   2.834 -11.571  1.00  0.00     0.020 A 
ATOM     69  C   UNL     1       2.664   3.144 -10.483  1.00  0.00     0.020 A 
ATOM     70  C   UNL     1       3.479   2.457 -11.384  1.00  0.00     0.054 A 
BRANCH  70  71
ATOM     71  S   UNL     1       2.847   1.012 -12.280  1.00  0.00     0.124 S 
ATOM     72  O   UNL     1       2.779   1.508 -13.651  1.00  0.00    -0.237 OA
ATOM     73  O   UNL     1       3.876   0.008 -12.020  1.00  0.00    -0.237 OA
ATOM     74  O   UNL     1       1.558   0.750 -11.644  1.00  0.00    -0.744 OA
ENDBRANCH  70  71
ENDBRANCH  42  65
BRANCH  54  75
ATOM     75  C   UNL     1       6.855  11.118 -10.995  1.00  0.00    -0.014 A 
ATOM     76  C   UNL     1       5.770  11.666 -11.700  1.00  0.00     0.010 A 
ATOM     77  C   UNL     1       8.166  11.438 -11.396  1.00  0.00     0.010 A 
ATOM     78  C   UNL     1       5.994  12.511 -12.792  1.00  0.00     0.020 A 
ATOM     79  C   UNL     1       8.393  12.305 -12.467  1.00  0.00     0.020 A 
ATOM     80  C   UNL     1       7.304  12.832 -13.163  1.00  0.00     0.054 A 
BRANCH  80  81
ATOM     81  S   UNL     1       7.566  13.994 -14.530  1.00  0.00     0.124 S 
ATOM     82  O   UNL     1       7.173  13.195 -15.688  1.00  0.00    -0.237 OA
ATOM     83  O   UNL     1       6.667  15.094 -14.191  1.00  0.00    -0.237 OA
ATOM     84  O   UNL     1       8.989  14.313 -14.448  1.00  0.00    -0.744 OA
ENDBRANCH  80  81
ENDBRANCH  54  75
ENDBRANCH  28  29
ENDBRANCH  21  23
ENDBRANCH  20  21
ENDBRANCH  19  20
ENDBRANCH   1  19
TORSDOF 17
