REMARK SMILES Cc1ccccc1/[NH+]=C1\S[C@@H](CC(=O)Nc2ccc(C(=O)OCCOCCOC(=O)c3ccc(-c4c5nc(c(-c6ccc(S(=O)(=O)[O-])cc6)c6ccc([nH]6)c(-c6ccc(S(=O)(=O)[O-])cc6)c6nc(c(-c7ccc(S(=O)(=O)[O-])cc7)c7ccc4[nH]7)C=C6)C=C5)cc3)cc2)C(=O)N1C
REMARK SMILES IDX 24 1 23 2 22 3 20 4 21 5 19 6 16 7 17 8 92 9 18 10 91 11
REMARK SMILES IDX 15 12 13 13 14 14 12 16 11 17 8 18 9 19 10 21 95 22 93 23
REMARK SMILES IDX 96 24 94 25 7 26 1 27 2 28 3 29 4 30 6 31 5 32 25 33 26 34
REMARK SMILES IDX 27 35 28 36 29 37 30 38 31 39 32 40 90 41 33 42 89 43 34 44
REMARK SMILES IDX 35 45 36 46 83 47 37 48 88 49 82 50 84 51 38 52 87 53 81 54
REMARK SMILES IDX 80 55 39 57 69 58 50 59 68 60 51 61 54 62 67 63 85 64 52 65
REMARK SMILES IDX 53 66 66 68 86 69 55 70 40 71 41 72 49 73 42 74 48 75 43 76
REMARK SMILES IDX 44 77 45 78 46 79 47 80 70 81 71 82 79 83 72 84 78 85 73 86
REMARK SMILES IDX 74 87 75 88 76 89 77 90 56 91 57 92 65 93 58 94 64 95 59 96
REMARK SMILES IDX 60 97 61 98 62 99 63 100
REMARK H PARENT 15 15 8 20 84 56 54 67
REMARK Flexibility Score: inf
ROOT
ATOM      1  C   UNL     1       4.116   8.156  -1.758  1.00  0.00     0.202 C 
ENDROOT
BRANCH   1   2
ATOM      2  C   UNL     1       3.713   6.843  -2.321  1.00  0.00     0.261 C 
BRANCH   2   3
ATOM      3  O   UNL     1       4.681   5.794  -2.029  1.00  0.00    -0.460 OA
BRANCH   3   4
ATOM      4  C   UNL     1       5.996   5.774  -2.374  1.00  0.00     0.338 C 
ATOM      5  O   UNL     1       6.556   6.173  -3.382  1.00  0.00    -0.246 OA
BRANCH   4   6
ATOM      6  C   UNL     1       6.699   5.129  -1.252  1.00  0.00     0.060 A 
ATOM      7  C   UNL     1       7.818   3.760   0.873  1.00  0.00     0.041 A 
ATOM      8  C   UNL     1       6.604   4.408   1.020  1.00  0.00     0.027 A 
ATOM      9  C   UNL     1       8.596   3.983  -0.258  1.00  0.00     0.027 A 
ATOM     10  C   UNL     1       6.013   5.030  -0.045  1.00  0.00     0.018 A 
ATOM     11  C   UNL     1       8.025   4.676  -1.340  1.00  0.00     0.018 A 
BRANCH   7  12
ATOM     12  N   UNL     1       8.135   2.799   1.837  1.00  0.00    -0.326 N 
ATOM     13  C   UNL     1       7.224   1.851   2.288  1.00  0.00     0.226 C 
ATOM     14  O   UNL     1       7.380   1.276   3.363  1.00  0.00    -0.275 OA
ATOM     15  H   UNL     1       9.044   2.794   2.215  1.00  0.00     0.169 HD
BRANCH  13  16
ATOM     16  C   UNL     1       6.170   1.384   1.279  1.00  0.00     0.128 C 
BRANCH  16  17
ATOM     17  C   UNL     1       4.699   1.570   1.595  1.00  0.00     0.183 C 
ATOM     18  N   UNL     1       1.184   2.011   0.856  1.00  0.00    -0.234 N 
ATOM     19  C   UNL     1       2.441   2.262   0.794  1.00  0.00     0.319 C 
ATOM     20  H   UNL     1       0.654   2.694   1.327  1.00  0.00     0.313 HD
ATOM     21  S   UNL     1       3.744   1.433   0.026  1.00  0.00    -0.022 SA
ATOM     22  N   UNL     1       3.003   3.266   1.525  1.00  0.00    -0.193 N 
ATOM     23  C   UNL     1       4.154   2.873   2.180  1.00  0.00     0.324 C 
ATOM     24  C   UNL     1       2.366   4.552   1.742  1.00  0.00     0.301 C 
ATOM     25  O   UNL     1       4.594   3.400   3.196  1.00  0.00    -0.245 OA
BRANCH  18  26
ATOM     26  C   UNL     1       0.434   0.925   0.365  1.00  0.00     0.128 A 
ATOM     27  C   UNL     1       2.103  -1.054   0.624  1.00  0.00     0.049 C 
ATOM     28  C   UNL     1       0.762  -0.451   0.326  1.00  0.00    -0.004 A 
ATOM     29  C   UNL     1      -0.232  -1.397  -0.017  1.00  0.00     0.008 A 
ATOM     30  C   UNL     1      -1.548  -1.023  -0.254  1.00  0.00     0.001 A 
ATOM     31  C   UNL     1      -0.908   1.268   0.099  1.00  0.00     0.052 A 
ATOM     32  C   UNL     1      -1.889   0.316  -0.194  1.00  0.00     0.004 A 
ENDBRANCH  18  26
ENDBRANCH  16  17
ENDBRANCH  13  16
ENDBRANCH   7  12
ENDBRANCH   4   6
ENDBRANCH   3   4
ENDBRANCH   2   3
ENDBRANCH   1   2
BRANCH   1  33
ATOM     33  O   UNL     1       5.410   8.398  -2.279  1.00  0.00    -0.374 OA
BRANCH  33  34
ATOM     34  C   UNL     1       6.098   9.459  -1.671  1.00  0.00     0.202 C 
BRANCH  34  35
ATOM     35  C   UNL     1       5.363  10.781  -1.885  1.00  0.00     0.261 C 
BRANCH  35  36
ATOM     36  O   UNL     1       5.356  11.116  -3.291  1.00  0.00    -0.460 OA
BRANCH  36  37
ATOM     37  C   UNL     1       4.169  10.924  -3.944  1.00  0.00     0.338 C 
ATOM     38  O   UNL     1       3.189  11.629  -3.791  1.00  0.00    -0.246 OA
BRANCH  37  39
ATOM     39  C   UNL     1       4.252   9.740  -4.850  1.00  0.00     0.060 A 
ATOM     40  C   UNL     1       3.094   9.061  -5.281  1.00  0.00     0.016 A 
ATOM     41  C   UNL     1       5.505   9.186  -5.092  1.00  0.00     0.016 A 
ATOM     42  C   UNL     1       3.190   7.766  -5.826  1.00  0.00     0.010 A 
ATOM     43  C   UNL     1       5.584   7.886  -5.539  1.00  0.00     0.010 A 
ATOM     44  C   UNL     1       4.436   7.149  -5.879  1.00  0.00    -0.014 A 
BRANCH  44  45
ATOM     45  C   UNL     1       4.708   5.739  -6.192  1.00  0.00     0.031 A 
ATOM     46  C   UNL     1       5.592   5.455  -7.338  1.00  0.00     0.074 A 
ATOM     47  C   UNL     1       4.483   4.779  -5.262  1.00  0.00     0.049 A 
ATOM     48  N   UNL     1       5.846   4.274  -7.775  1.00  0.00    -0.248 NA
ATOM     49  C   UNL     1       6.244   6.497  -8.137  1.00  0.00     0.031 C 
ATOM     50  C   UNL     1       5.198   3.529  -5.002  1.00  0.00     0.029 A 
ATOM     51  N   UNL     1       3.538   4.783  -4.245  1.00  0.00    -0.354 N 
ATOM     52  C   UNL     1       6.985   4.381  -8.534  1.00  0.00     0.074 A 
ATOM     53  C   UNL     1       7.051   5.768  -8.911  1.00  0.00     0.031 C 
ATOM     54  C   UNL     1       4.509   2.784  -4.112  1.00  0.00     0.029 A 
ATOM     55  C   UNL     1       3.259   3.482  -3.840  1.00  0.00     0.049 A 
ATOM     56  H   UNL     1       3.125   5.591  -3.865  1.00  0.00     0.167 HD
ATOM     57  C   UNL     1       7.848   3.325  -8.554  1.00  0.00     0.031 A 
ATOM     58  C   UNL     1       1.986   3.017  -3.908  1.00  0.00     0.031 A 
ATOM     59  C   UNL     1       7.274   2.161  -7.840  1.00  0.00     0.049 A 
ATOM     60  C   UNL     1       2.034   1.966  -4.973  1.00  0.00     0.074 A 
ATOM     61  C   UNL     1       7.641   1.458  -6.704  1.00  0.00     0.029 A 
ATOM     62  N   UNL     1       5.956   1.767  -8.116  1.00  0.00    -0.354 N 
ATOM     63  N   UNL     1       2.839   2.044  -6.007  1.00  0.00    -0.248 NA
ATOM     64  C   UNL     1       1.448   0.645  -4.784  1.00  0.00     0.031 C 
ATOM     65  C   UNL     1       6.500   0.716  -6.258  1.00  0.00     0.029 A 
ATOM     66  C   UNL     1       5.438   0.953  -7.123  1.00  0.00     0.049 A 
ATOM     67  H   UNL     1       5.458   2.037  -8.921  1.00  0.00     0.167 HD
ATOM     68  C   UNL     1       3.067   0.776  -6.454  1.00  0.00     0.074 A 
ATOM     69  C   UNL     1       2.124  -0.055  -5.709  1.00  0.00     0.031 C 
ATOM     70  C   UNL     1       4.099   0.374  -7.251  1.00  0.00     0.031 A 
BRANCH  57  71
ATOM     71  C   UNL     1       9.301   3.431  -9.005  1.00  0.00    -0.014 A 
ATOM     72  C   UNL     1      10.152   2.313  -8.896  1.00  0.00     0.010 A 
ATOM     73  C   UNL     1       9.914   4.603  -9.505  1.00  0.00     0.010 A 
ATOM     74  C   UNL     1      11.509   2.360  -9.276  1.00  0.00     0.020 A 
ATOM     75  C   UNL     1      11.258   4.663  -9.907  1.00  0.00     0.020 A 
ATOM     76  C   UNL     1      12.051   3.534  -9.794  1.00  0.00     0.054 A 
BRANCH  76  77
ATOM     77  S   UNL     1      13.778   3.566 -10.340  1.00  0.00     0.124 S 
ATOM     78  O   UNL     1      14.504   3.288  -9.103  1.00  0.00    -0.237 OA
ATOM     79  O   UNL     1      13.810   2.506 -11.343  1.00  0.00    -0.237 OA
ATOM     80  O   UNL     1      13.953   4.919 -10.867  1.00  0.00    -0.744 OA
ENDBRANCH  76  77
ENDBRANCH  57  71
BRANCH  58  81
ATOM     81  C   UNL     1       0.950   4.049  -3.561  1.00  0.00    -0.014 A 
ATOM     82  C   UNL     1       0.761   4.315  -2.181  1.00  0.00     0.010 A 
ATOM     83  C   UNL     1       0.549   5.048  -4.468  1.00  0.00     0.010 A 
ATOM     84  C   UNL     1       0.332   5.571  -1.719  1.00  0.00     0.020 A 
ATOM     85  C   UNL     1       0.138   6.321  -4.010  1.00  0.00     0.020 A 
ATOM     86  C   UNL     1       0.082   6.589  -2.638  1.00  0.00     0.054 A 
BRANCH  86  87
ATOM     87  S   UNL     1      -0.024   8.304  -2.013  1.00  0.00     0.124 S 
ATOM     88  O   UNL     1      -1.316   8.316  -1.337  1.00  0.00    -0.237 OA
ATOM     89  O   UNL     1       1.140   8.382  -1.128  1.00  0.00    -0.237 OA
ATOM     90  O   UNL     1       0.070   9.114  -3.224  1.00  0.00    -0.744 OA
ENDBRANCH  86  87
ENDBRANCH  58  81
BRANCH  70  91
ATOM     91  C   UNL     1       3.849  -0.671  -8.300  1.00  0.00    -0.014 A 
ATOM     92  C   UNL     1       2.571  -1.194  -8.561  1.00  0.00     0.010 A 
ATOM     93  C   UNL     1       4.886  -1.013  -9.193  1.00  0.00     0.010 A 
ATOM     94  C   UNL     1       2.351  -2.073  -9.614  1.00  0.00     0.020 A 
ATOM     95  C   UNL     1       4.662  -1.837 -10.292  1.00  0.00     0.020 A 
ATOM     96  C   UNL     1       3.398  -2.385 -10.475  1.00  0.00     0.054 A 
BRANCH  96  97
ATOM     97  S   UNL     1       3.062  -3.487 -11.857  1.00  0.00     0.124 S 
ATOM     98  O   UNL     1       2.977  -4.782 -11.186  1.00  0.00    -0.237 OA
ATOM     99  O   UNL     1       1.800  -2.967 -12.379  1.00  0.00    -0.237 OA
ATOM    100  O   UNL     1       4.215  -3.307 -12.733  1.00  0.00    -0.744 OA
ENDBRANCH  96  97
ENDBRANCH  70  91
ENDBRANCH  44  45
ENDBRANCH  37  39
ENDBRANCH  36  37
ENDBRANCH  35  36
ENDBRANCH  34  35
ENDBRANCH  33  34
ENDBRANCH   1  33
TORSDOF 21
