REMARK SMILES O=C(OCCOCCOC(=O)c1cnc2sc(N3CCCCCC3)nn2c1=O)c1ccc(-c2c3nc(c(-c4ccc(S(=O)(=O)[O-])cc4)c4ccc([nH]4)c(-c4ccc(S(=O)(=O)[O-])cc4)c4nc(c(-c5ccc(S(=O)(=O)[O-])cc5)c5ccc2[nH]5)C=C4)C=C3)cc1
REMARK SMILES IDX 7 1 6 2 5 3 4 4 3 5 2 6 1 7 29 8 30 9 88 10 31 11 87 12
REMARK SMILES IDX 32 13 33 14 34 15 81 16 35 17 86 18 80 19 82 20 36 21 85 22
REMARK SMILES IDX 79 23 78 24 37 26 67 27 48 28 66 29 49 30 52 31 65 32 83 33
REMARK SMILES IDX 50 34 51 35 64 37 84 38 53 39 38 40 39 41 47 42 40 43 46 44
REMARK SMILES IDX 41 45 42 46 43 47 44 48 45 49 68 50 69 51 77 52 70 53 76 54
REMARK SMILES IDX 71 55 72 56 73 57 74 58 75 59 54 60 55 61 63 62 56 63 62 64
REMARK SMILES IDX 57 65 58 66 59 67 60 68 61 69 8 70 9 71 10 72 11 73 12 74
REMARK SMILES IDX 13 75 27 76 14 77 26 78 28 79 15 80 25 81 16 82 17 83 18 84
REMARK SMILES IDX 19 85 20 86 21 87 24 89 23 90 22 91
REMARK H PARENT 82 25 52 36
REMARK Flexibility Score: 80.00
ROOT
ATOM      1  C   UNL     1       2.686   2.017   0.830  1.00  0.00     0.202 C 
ENDROOT
BRANCH   1   2
ATOM      2  O   UNL     1       3.996   1.706   0.336  1.00  0.00    -0.374 OA
BRANCH   2   3
ATOM      3  C   UNL     1       4.098   1.462  -1.066  1.00  0.00     0.202 C 
BRANCH   3   4
ATOM      4  C   UNL     1       3.744   0.040  -1.508  1.00  0.00     0.261 C 
BRANCH   4   5
ATOM      5  O   UNL     1       2.391  -0.277  -1.138  1.00  0.00    -0.460 OA
BRANCH   5   6
ATOM      6  C   UNL     1       1.960  -1.127  -0.175  1.00  0.00     0.338 C 
ATOM      7  O   UNL     1       0.758  -1.379  -0.114  1.00  0.00    -0.246 OA
BRANCH   6   8
ATOM      8  C   UNL     1       2.864  -1.761   0.835  1.00  0.00     0.060 A 
ATOM      9  C   UNL     1       4.097  -1.243   1.229  1.00  0.00     0.016 A 
ATOM     10  C   UNL     1       2.392  -2.906   1.500  1.00  0.00     0.016 A 
ATOM     11  C   UNL     1       4.876  -1.870   2.186  1.00  0.00     0.010 A 
ATOM     12  C   UNL     1       3.146  -3.516   2.510  1.00  0.00     0.010 A 
ATOM     13  C   UNL     1       4.402  -3.001   2.844  1.00  0.00    -0.014 A 
BRANCH  13  14
ATOM     14  C   UNL     1       5.308  -3.631   3.821  1.00  0.00     0.031 A 
ATOM     15  C   UNL     1       6.043  -4.873   3.422  1.00  0.00     0.074 A 
ATOM     16  C   UNL     1       5.600  -2.965   4.955  1.00  0.00     0.049 A 
ATOM     17  N   UNL     1       6.947  -5.540   4.084  1.00  0.00    -0.248 NA
ATOM     18  C   UNL     1       5.739  -5.423   2.089  1.00  0.00     0.031 C 
ATOM     19  C   UNL     1       5.010  -1.681   5.353  1.00  0.00     0.029 A 
ATOM     20  N   UNL     1       6.503  -3.235   5.947  1.00  0.00    -0.354 N 
ATOM     21  C   UNL     1       7.317  -6.591   3.255  1.00  0.00     0.074 A 
ATOM     22  C   UNL     1       6.529  -6.485   2.048  1.00  0.00     0.031 C 
ATOM     23  C   UNL     1       5.601  -1.256   6.481  1.00  0.00     0.029 A 
ATOM     24  C   UNL     1       6.559  -2.263   6.920  1.00  0.00     0.049 A 
ATOM     25  H   UNL     1       7.060  -4.046   5.963  1.00  0.00     0.167 HD
ATOM     26  C   UNL     1       8.235  -7.557   3.488  1.00  0.00     0.031 A 
ATOM     27  C   UNL     1       7.287  -2.211   8.050  1.00  0.00     0.031 A 
ATOM     28  C   UNL     1       8.983  -7.651   4.712  1.00  0.00     0.049 A 
ATOM     29  C   UNL     1       8.225  -3.354   8.331  1.00  0.00     0.074 A 
ATOM     30  C   UNL     1       9.858  -8.640   5.119  1.00  0.00     0.029 A 
ATOM     31  N   UNL     1       8.941  -6.705   5.728  1.00  0.00    -0.354 N 
ATOM     32  N   UNL     1       8.500  -4.395   7.576  1.00  0.00    -0.248 NA
ATOM     33  C   UNL     1       8.939  -3.328   9.611  1.00  0.00     0.031 C 
ATOM     34  C   UNL     1      10.316  -8.311   6.400  1.00  0.00     0.029 A 
ATOM     35  C   UNL     1       9.768  -7.090   6.767  1.00  0.00     0.049 A 
ATOM     36  H   UNL     1       8.402  -5.881   5.711  1.00  0.00     0.167 HD
ATOM     37  C   UNL     1       9.421  -5.148   8.292  1.00  0.00     0.074 A 
ATOM     38  C   UNL     1       9.683  -4.422   9.521  1.00  0.00     0.031 C 
ATOM     39  C   UNL     1       9.991  -6.338   7.976  1.00  0.00     0.031 A 
BRANCH  26  40
ATOM     40  C   UNL     1       8.409  -8.606   2.426  1.00  0.00    -0.014 A 
ATOM     41  C   UNL     1       9.077  -8.321   1.221  1.00  0.00     0.010 A 
ATOM     42  C   UNL     1       7.874  -9.891   2.625  1.00  0.00     0.010 A 
ATOM     43  C   UNL     1       9.172  -9.292   0.219  1.00  0.00     0.020 A 
ATOM     44  C   UNL     1       7.986 -10.871   1.635  1.00  0.00     0.020 A 
ATOM     45  C   UNL     1       8.620 -10.559   0.430  1.00  0.00     0.054 A 
BRANCH  45  46
ATOM     46  S   UNL     1       8.754 -11.800  -0.887  1.00  0.00     0.124 S 
ATOM     47  O   UNL     1       7.799 -11.299  -1.872  1.00  0.00    -0.237 OA
ATOM     48  O   UNL     1      10.160 -11.708  -1.272  1.00  0.00    -0.237 OA
ATOM     49  O   UNL     1       8.373 -13.048  -0.228  1.00  0.00    -0.744 OA
ENDBRANCH  45  46
ENDBRANCH  26  40
BRANCH  27  50
ATOM     50  C   UNL     1       7.098  -1.097   9.024  1.00  0.00    -0.014 A 
ATOM     51  C   UNL     1       8.137  -0.204   9.336  1.00  0.00     0.010 A 
ATOM     52  C   UNL     1       5.855  -0.941   9.668  1.00  0.00     0.010 A 
ATOM     53  C   UNL     1       7.946   0.801  10.293  1.00  0.00     0.020 A 
ATOM     54  C   UNL     1       5.649   0.080  10.599  1.00  0.00     0.020 A 
ATOM     55  C   UNL     1       6.704   0.933  10.922  1.00  0.00     0.054 A 
BRANCH  55  56
ATOM     56  S   UNL     1       6.467   2.246  12.153  1.00  0.00     0.124 S 
ATOM     57  O   UNL     1       7.174   1.706  13.310  1.00  0.00    -0.237 OA
ATOM     58  O   UNL     1       7.091   3.401  11.512  1.00  0.00    -0.237 OA
ATOM     59  O   UNL     1       5.014   2.328  12.289  1.00  0.00    -0.744 OA
ENDBRANCH  55  56
ENDBRANCH  27  50
BRANCH  39  60
ATOM     60  C   UNL     1      10.960  -6.905   8.974  1.00  0.00    -0.014 A 
ATOM     61  C   UNL     1      10.508  -7.457  10.186  1.00  0.00     0.010 A 
ATOM     62  C   UNL     1      12.334  -6.915   8.677  1.00  0.00     0.010 A 
ATOM     63  C   UNL     1      11.422  -7.976  11.104  1.00  0.00     0.020 A 
ATOM     64  C   UNL     1      13.247  -7.459   9.581  1.00  0.00     0.020 A 
ATOM     65  C   UNL     1      12.786  -7.970  10.796  1.00  0.00     0.054 A 
BRANCH  65  66
ATOM     66  S   UNL     1      13.953  -8.677  11.990  1.00  0.00     0.124 S 
ATOM     67  O   UNL     1      14.028  -7.624  12.999  1.00  0.00    -0.237 OA
ATOM     68  O   UNL     1      13.281  -9.904  12.410  1.00  0.00    -0.237 OA
ATOM     69  O   UNL     1      15.169  -8.877  11.206  1.00  0.00    -0.744 OA
ENDBRANCH  65  66
ENDBRANCH  39  60
ENDBRANCH  13  14
ENDBRANCH   6   8
ENDBRANCH   5   6
ENDBRANCH   4   5
ENDBRANCH   3   4
ENDBRANCH   2   3
ENDBRANCH   1   2
BRANCH   1  70
ATOM     70  C   UNL     1       2.788   3.178   1.824  1.00  0.00     0.261 C 
BRANCH  70  71
ATOM     71  O   UNL     1       3.283   4.317   1.107  1.00  0.00    -0.459 OA
BRANCH  71  72
ATOM     72  C   UNL     1       4.634   4.409   1.021  1.00  0.00     0.345 C 
ATOM     73  O   UNL     1       5.460   3.889   1.756  1.00  0.00    -0.246 OA
BRANCH  72  74
ATOM     74  C   UNL     1       4.950   5.028  -0.271  1.00  0.00     0.145 A 
ATOM     75  C   UNL     1       5.874   4.445  -1.055  1.00  0.00     0.136 A 
ATOM     76  C   UNL     1       4.193   6.176  -0.802  1.00  0.00     0.289 A 
ATOM     77  N   UNL     1       6.145   4.785  -2.366  1.00  0.00    -0.226 NA
ATOM     78  N   UNL     1       4.506   6.467  -2.112  1.00  0.00    -0.165 N 
ATOM     79  O   UNL     1       3.407   6.815  -0.108  1.00  0.00    -0.266 OA
ATOM     80  C   UNL     1       5.444   5.768  -2.824  1.00  0.00     0.217 A 
ATOM     81  N   UNL     1       3.995   7.577  -2.708  1.00  0.00    -0.133 NA
ATOM     82  S   UNL     1       5.568   6.423  -4.425  1.00  0.00    -0.057 S 
ATOM     83  C   UNL     1       4.504   7.710  -3.892  1.00  0.00     0.208 A 
BRANCH  83  84
ATOM     84  N   UNL     1       4.350   8.840  -4.652  1.00  0.00    -0.347 N 
BRANCH  84  85
ATOM     85  C   UNL     1       3.636   8.799  -5.920  1.00  0.00     0.119 C 
BRANCH  85  86
ATOM     86  C   UNL     1       4.575   9.108  -7.080  1.00  0.00     0.021 C 
BRANCH  86  87
ATOM     87  C   UNL     1       5.031  10.565  -7.157  1.00  0.00     0.002 CG0
ATOM     88  G   UNL     1       5.688  11.107  -5.888  1.00  0.00     0.000 G0
ENDBRANCH  86  87
ENDBRANCH  85  86
ENDBRANCH  84  85
BRANCH  84  89
ATOM     89  C   UNL     1       4.395  10.103  -3.913  1.00  0.00     0.119 C 
BRANCH  89  90
ATOM     90  C   UNL     1       4.679  11.331  -4.764  1.00  0.00     0.021 C 
BRANCH  90  91
ATOM     91  C   UNL     1       5.688  11.107  -5.888  1.00  0.00     0.002 CG0
ATOM     92  G   UNL     1       5.031  10.565  -7.157  1.00  0.00     0.000 G0
ENDBRANCH  90  91
ENDBRANCH  89  90
ENDBRANCH  84  89
ENDBRANCH  83  84
ENDBRANCH  72  74
ENDBRANCH  71  72
ENDBRANCH  70  71
ENDBRANCH   1  70
TORSDOF 18
