REMARK SMILES C[C@@H]1C[C@@H](C)CN(C(=O)CCn2cc(C(=O)OCCOCCOC(=O)c3ccc(-c4c5nc(c(-c6ccc(S(=O)(=O)[O-])cc6)c6ccc([nH]6)c(-c6ccc(S(=O)(=O)[O-])cc6)c6nc(c(-c7ccc(S(=O)(=O)[O-])cc7)c7ccc4[nH]7)C=C6)C=C5)cc3)cn2)C1
REMARK SMILES IDX 20 1 19 2 18 3 17 4 15 5 16 6 14 7 12 8 13 9 87 10 86 11
REMARK SMILES IDX 11 12 10 13 8 14 1 15 2 16 3 17 88 18 4 19 7 20 6 21 5 22
REMARK SMILES IDX 9 23 21 24 22 25 23 26 24 27 25 28 26 29 27 30 85 31 28 32
REMARK SMILES IDX 84 33 29 34 30 35 31 36 78 37 32 38 83 39 77 40 79 41 33 42
REMARK SMILES IDX 82 43 76 44 75 45 34 47 64 48 45 49 63 50 46 51 49 52 62 53
REMARK SMILES IDX 80 54 47 55 48 56 61 58 81 59 50 60 35 61 36 62 44 63 37 64
REMARK SMILES IDX 43 65 38 66 39 67 40 68 41 69 42 70 65 71 66 72 74 73 67 74
REMARK SMILES IDX 73 75 68 76 69 77 70 78 71 79 72 80 51 81 52 82 60 83 53 84
REMARK SMILES IDX 59 85 54 86 55 87 56 88 57 89 58 90
REMARK H PARENT 79 46 49 57
REMARK Flexibility Score: inf
ROOT
ATOM      1  O   UNL     1      -3.161  -4.907   3.935  1.00  0.00    -0.374 OA
ENDROOT
BRANCH   1   2
ATOM      2  C   UNL     1      -2.106  -3.954   4.082  1.00  0.00     0.202 C 
BRANCH   2   3
ATOM      3  C   UNL     1      -1.012  -4.049   2.995  1.00  0.00     0.261 C 
BRANCH   3   4
ATOM      4  O   UNL     1      -1.493  -3.575   1.714  1.00  0.00    -0.460 OA
BRANCH   4   5
ATOM      5  C   UNL     1      -0.895  -3.958   0.545  1.00  0.00     0.341 C 
ATOM      6  O   UNL     1      -0.001  -4.788   0.464  1.00  0.00    -0.246 OA
BRANCH   5   7
ATOM      7  C   UNL     1      -1.452  -3.224  -0.593  1.00  0.00     0.098 A 
ATOM      8  N   UNL     1      -2.163  -1.493  -1.791  1.00  0.00    -0.271 N 
ATOM      9  C   UNL     1      -1.082  -1.979  -1.086  1.00  0.00     0.124 A 
ATOM     10  N   UNL     1      -3.008  -2.501  -2.116  1.00  0.00    -0.181 NA
ATOM     11  C   UNL     1      -2.572  -3.542  -1.389  1.00  0.00     0.150 A 
BRANCH   8  12
ATOM     12  C   UNL     1      -2.426  -0.117  -2.247  1.00  0.00     0.154 C 
BRANCH  12  13
ATOM     13  C   UNL     1      -2.959   0.950  -1.237  1.00  0.00     0.124 C 
BRANCH  13  14
ATOM     14  C   UNL     1      -1.856   1.780  -0.521  1.00  0.00     0.224 C 
ATOM     15  C   UNL     1       1.112   0.384   0.522  1.00  0.00     0.009 C 
ATOM     16  C   UNL     1       0.201   0.631   1.738  1.00  0.00     0.006 C 
ATOM     17  C   UNL     1      -0.779  -0.557   2.069  1.00  0.00     0.010 C 
ATOM     18  C   UNL     1      -0.521   1.995   1.568  1.00  0.00     0.122 C 
ATOM     19  C   UNL     1      -2.195  -0.393   1.469  1.00  0.00     0.006 C 
ATOM     20  N   UNL     1      -1.800   1.795   0.884  1.00  0.00    -0.342 N 
ATOM     21  C   UNL     1      -2.705   1.011   1.686  1.00  0.00     0.122 C 
ATOM     22  C   UNL     1      -3.295  -1.397   1.690  1.00  0.00     0.009 C 
ATOM     23  O   UNL     1      -1.010   2.366  -1.201  1.00  0.00    -0.275 OA
ENDBRANCH  13  14
ENDBRANCH  12  13
ENDBRANCH   8  12
ENDBRANCH   5   7
ENDBRANCH   4   5
ENDBRANCH   3   4
ENDBRANCH   2   3
ENDBRANCH   1   2
BRANCH   1  24
ATOM     24  C   UNL     1      -4.138  -4.635   2.934  1.00  0.00     0.202 C 
BRANCH  24  25
ATOM     25  C   UNL     1      -5.312  -3.751   3.351  1.00  0.00     0.261 C 
BRANCH  25  26
ATOM     26  O   UNL     1      -4.930  -2.480   3.863  1.00  0.00    -0.460 OA
BRANCH  26  27
ATOM     27  C   UNL     1      -4.836  -2.362   5.203  1.00  0.00     0.338 C 
ATOM     28  O   UNL     1      -4.717  -3.265   6.020  1.00  0.00    -0.246 OA
BRANCH  27  29
ATOM     29  C   UNL     1      -5.194  -0.971   5.529  1.00  0.00     0.060 A 
ATOM     30  C   UNL     1      -5.759  -0.764   6.785  1.00  0.00     0.016 A 
ATOM     31  C   UNL     1      -5.306  -0.010   4.510  1.00  0.00     0.016 A 
ATOM     32  C   UNL     1      -6.661   0.267   6.924  1.00  0.00     0.010 A 
ATOM     33  C   UNL     1      -6.211   1.014   4.644  1.00  0.00     0.010 A 
ATOM     34  C   UNL     1      -6.953   1.071   5.815  1.00  0.00    -0.014 A 
BRANCH  34  35
ATOM     35  C   UNL     1      -7.987   2.069   5.959  1.00  0.00     0.031 A 
ATOM     36  C   UNL     1      -7.545   3.187   6.816  1.00  0.00     0.074 A 
ATOM     37  C   UNL     1      -9.172   2.002   5.324  1.00  0.00     0.049 A 
ATOM     38  N   UNL     1      -7.894   3.407   8.038  1.00  0.00    -0.248 NA
ATOM     39  C   UNL     1      -6.400   3.994   6.358  1.00  0.00     0.031 C 
ATOM     40  C   UNL     1      -9.600   1.084   4.268  1.00  0.00     0.029 A 
ATOM     41  N   UNL     1     -10.232   2.842   5.431  1.00  0.00    -0.354 N 
ATOM     42  C   UNL     1      -7.187   4.537   8.420  1.00  0.00     0.074 A 
ATOM     43  C   UNL     1      -6.126   4.693   7.458  1.00  0.00     0.031 C 
ATOM     44  C   UNL     1     -10.699   1.593   3.660  1.00  0.00     0.029 A 
ATOM     45  C   UNL     1     -11.111   2.802   4.357  1.00  0.00     0.049 A 
ATOM     46  H   UNL     1     -10.367   3.433   6.207  1.00  0.00     0.167 HD
ATOM     47  C   UNL     1      -7.708   5.426   9.308  1.00  0.00     0.031 A 
ATOM     48  C   UNL     1     -12.015   3.765   4.026  1.00  0.00     0.031 A 
ATOM     49  C   UNL     1      -8.830   4.869  10.020  1.00  0.00     0.049 A 
ATOM     50  C   UNL     1     -12.238   4.583   5.253  1.00  0.00     0.074 A 
ATOM     51  C   UNL     1      -9.004   3.760  10.825  1.00  0.00     0.029 A 
ATOM     52  N   UNL     1     -10.087   5.231   9.588  1.00  0.00    -0.354 N 
ATOM     53  N   UNL     1     -12.805   4.106   6.328  1.00  0.00    -0.248 NA
ATOM     54  C   UNL     1     -11.373   5.737   5.471  1.00  0.00     0.031 C 
ATOM     55  C   UNL     1     -10.267   3.226  10.441  1.00  0.00     0.029 A 
ATOM     56  C   UNL     1     -10.836   4.085   9.499  1.00  0.00     0.049 A 
ATOM     57  H   UNL     1     -10.391   6.144   9.381  1.00  0.00     0.167 HD
ATOM     58  C   UNL     1     -12.041   4.591   7.381  1.00  0.00     0.074 A 
ATOM     59  C   UNL     1     -11.216   5.650   6.796  1.00  0.00     0.031 C 
ATOM     60  C   UNL     1     -11.917   3.898   8.553  1.00  0.00     0.031 A 
BRANCH  47  61
ATOM     61  C   UNL     1      -7.479   6.910   9.195  1.00  0.00    -0.014 A 
ATOM     62  C   UNL     1      -8.009   7.753  10.188  1.00  0.00     0.010 A 
ATOM     63  C   UNL     1      -7.006   7.524   8.015  1.00  0.00     0.010 A 
ATOM     64  C   UNL     1      -8.116   9.134   9.980  1.00  0.00     0.020 A 
ATOM     65  C   UNL     1      -7.064   8.901   7.817  1.00  0.00     0.020 A 
ATOM     66  C   UNL     1      -7.650   9.695   8.790  1.00  0.00     0.054 A 
BRANCH  66  67
ATOM     67  S   UNL     1      -7.871  11.463   8.494  1.00  0.00     0.124 S 
ATOM     68  O   UNL     1      -9.324  11.573   8.413  1.00  0.00    -0.237 OA
ATOM     69  O   UNL     1      -7.252  12.051   9.678  1.00  0.00    -0.237 OA
ATOM     70  O   UNL     1      -7.152  11.692   7.242  1.00  0.00    -0.744 OA
ENDBRANCH  66  67
ENDBRANCH  47  61
BRANCH  48  71
ATOM     71  C   UNL     1     -12.309   4.267   2.650  1.00  0.00    -0.014 A 
ATOM     72  C   UNL     1     -13.296   5.246   2.414  1.00  0.00     0.010 A 
ATOM     73  C   UNL     1     -11.422   3.985   1.589  1.00  0.00     0.010 A 
ATOM     74  C   UNL     1     -13.336   5.966   1.202  1.00  0.00     0.020 A 
ATOM     75  C   UNL     1     -11.461   4.686   0.380  1.00  0.00     0.020 A 
ATOM     76  C   UNL     1     -12.398   5.698   0.201  1.00  0.00     0.054 A 
BRANCH  76  77
ATOM     77  S   UNL     1     -12.298   6.765  -1.268  1.00  0.00     0.124 S 
ATOM     78  O   UNL     1     -13.491   6.380  -2.016  1.00  0.00    -0.237 OA
ATOM     79  O   UNL     1     -12.317   8.105  -0.690  1.00  0.00    -0.237 OA
ATOM     80  O   UNL     1     -11.028   6.380  -1.885  1.00  0.00    -0.744 OA
ENDBRANCH  76  77
ENDBRANCH  48  71
BRANCH  60  81
ATOM     81  C   UNL     1     -12.821   2.712   8.806  1.00  0.00    -0.014 A 
ATOM     82  C   UNL     1     -12.877   1.565   7.989  1.00  0.00     0.010 A 
ATOM     83  C   UNL     1     -13.519   2.696  10.026  1.00  0.00     0.010 A 
ATOM     84  C   UNL     1     -13.639   0.448   8.373  1.00  0.00     0.020 A 
ATOM     85  C   UNL     1     -14.261   1.583  10.423  1.00  0.00     0.020 A 
ATOM     86  C   UNL     1     -14.329   0.468   9.589  1.00  0.00     0.054 A 
BRANCH  86  87
ATOM     87  S   UNL     1     -15.300  -0.979  10.097  1.00  0.00     0.124 S 
ATOM     88  O   UNL     1     -16.384  -0.992   9.119  1.00  0.00    -0.237 OA
ATOM     89  O   UNL     1     -14.336  -2.072   9.985  1.00  0.00    -0.237 OA
ATOM     90  O   UNL     1     -15.707  -0.662  11.466  1.00  0.00    -0.744 OA
ENDBRANCH  86  87
ENDBRANCH  60  81
ENDBRANCH  34  35
ENDBRANCH  27  29
ENDBRANCH  26  27
ENDBRANCH  25  26
ENDBRANCH  24  25
ENDBRANCH   1  24
TORSDOF 20
