REMARK SMILES O=C(OCCOCCOC(=O)c1nccnc1C(=O)Nc1ccc2c(c1)OCO2)c1ccc(-c2c3nc(c(-c4ccc(S(=O)(=O)[O-])cc4)c4ccc([nH]4)c(-c4ccc(S(=O)(=O)[O-])cc4)c4nc(c(-c5ccc(S(=O)(=O)[O-])cc5)c5ccc2[nH]5)C=C4)C=C3)cc1
REMARK SMILES IDX 5 1 4 2 3 3 2 4 1 5 30 6 31 7 89 8 32 9 88 10 33 11 34 12
REMARK SMILES IDX 35 13 82 14 36 15 87 16 81 17 83 18 37 19 86 20 80 21 79 22
REMARK SMILES IDX 38 24 68 25 49 26 67 27 50 28 53 29 66 30 84 31 51 32 52 33
REMARK SMILES IDX 65 35 85 36 54 37 39 38 40 39 48 40 41 41 47 42 42 43 43 44
REMARK SMILES IDX 44 45 45 46 46 47 69 48 70 49 78 50 71 51 77 52 72 53 73 54
REMARK SMILES IDX 74 55 75 56 76 57 55 58 56 59 64 60 57 61 63 62 58 63 59 64
REMARK SMILES IDX 60 65 61 66 62 67 6 68 7 69 8 70 9 71 10 72 11 73 12 74
REMARK SMILES IDX 13 75 17 76 14 77 16 78 15 79 18 80 19 81 20 82 21 84 22 85
REMARK SMILES IDX 26 86 23 87 25 88 24 89 27 90 29 91 28 92
REMARK H PARENT 83 23 53 34 20 83
REMARK Flexibility Score: inf
ROOT
ATOM      1  C   UNL     1       4.193  -0.810   0.712  1.00  0.00     0.202 C 
ENDROOT
BRANCH   1   2
ATOM      2  C   UNL     1       3.437  -0.035   1.802  1.00  0.00     0.261 C 
BRANCH   2   3
ATOM      3  O   UNL     1       2.052   0.248   1.531  1.00  0.00    -0.460 OA
BRANCH   3   4
ATOM      4  C   UNL     1       1.538   1.317   0.881  1.00  0.00     0.338 C 
ATOM      5  O   UNL     1       0.325   1.490   0.832  1.00  0.00    -0.246 OA
BRANCH   4   6
ATOM      6  C   UNL     1       2.429   2.306   0.245  1.00  0.00     0.060 A 
ATOM      7  C   UNL     1       3.389   1.962  -0.708  1.00  0.00     0.016 A 
ATOM      8  C   UNL     1       2.197   3.651   0.529  1.00  0.00     0.016 A 
ATOM      9  C   UNL     1       4.229   2.926  -1.251  1.00  0.00     0.010 A 
ATOM     10  C   UNL     1       2.973   4.630  -0.087  1.00  0.00     0.010 A 
ATOM     11  C   UNL     1       4.027   4.270  -0.944  1.00  0.00    -0.014 A 
BRANCH  11  12
ATOM     12  C   UNL     1       4.951   5.312  -1.439  1.00  0.00     0.031 A 
ATOM     13  C   UNL     1       5.727   6.104  -0.428  1.00  0.00     0.074 A 
ATOM     14  C   UNL     1       5.079   5.559  -2.755  1.00  0.00     0.049 A 
ATOM     15  N   UNL     1       6.363   7.233  -0.573  1.00  0.00    -0.248 NA
ATOM     16  C   UNL     1       5.762   5.559   0.941  1.00  0.00     0.031 C 
ATOM     17  C   UNL     1       4.445   4.797  -3.832  1.00  0.00     0.029 A 
ATOM     18  N   UNL     1       5.788   6.532  -3.410  1.00  0.00    -0.354 N 
ATOM     19  C   UNL     1       6.805   7.576   0.700  1.00  0.00     0.074 A 
ATOM     20  C   UNL     1       6.375   6.529   1.600  1.00  0.00     0.031 C 
ATOM     21  C   UNL     1       4.809   5.320  -5.014  1.00  0.00     0.029 A 
ATOM     22  C   UNL     1       5.625   6.504  -4.774  1.00  0.00     0.049 A 
ATOM     23  H   UNL     1       6.358   7.189  -2.947  1.00  0.00     0.167 HD
ATOM     24  C   UNL     1       7.490   8.680   1.079  1.00  0.00     0.031 A 
ATOM     25  C   UNL     1       6.044   7.369  -5.718  1.00  0.00     0.031 A 
ATOM     26  C   UNL     1       7.922   9.692   0.156  1.00  0.00     0.049 A 
ATOM     27  C   UNL     1       6.792   8.598  -5.278  1.00  0.00     0.074 A 
ATOM     28  C   UNL     1       8.588  10.875   0.415  1.00  0.00     0.029 A 
ATOM     29  N   UNL     1       7.743   9.621  -1.220  1.00  0.00    -0.354 N 
ATOM     30  N   UNL     1       7.123   8.967  -4.062  1.00  0.00    -0.248 NA
ATOM     31  C   UNL     1       7.203   9.536  -6.330  1.00  0.00     0.031 C 
ATOM     32  C   UNL     1       8.790  11.532  -0.805  1.00  0.00     0.029 A 
ATOM     33  C   UNL     1       8.288  10.737  -1.826  1.00  0.00     0.049 A 
ATOM     34  H   UNL     1       7.294   8.884  -1.693  1.00  0.00     0.167 HD
ATOM     35  C   UNL     1       7.789  10.177  -4.202  1.00  0.00     0.074 A 
ATOM     36  C   UNL     1       7.829  10.468  -5.623  1.00  0.00     0.031 C 
ATOM     37  C   UNL     1       8.314  10.983  -3.246  1.00  0.00     0.031 A 
BRANCH  24  38
ATOM     38  C   UNL     1       7.729   8.861   2.552  1.00  0.00    -0.014 A 
ATOM     39  C   UNL     1       8.648   8.059   3.254  1.00  0.00     0.010 A 
ATOM     40  C   UNL     1       6.979   9.819   3.258  1.00  0.00     0.010 A 
ATOM     41  C   UNL     1       8.764   8.169   4.643  1.00  0.00     0.020 A 
ATOM     42  C   UNL     1       7.112   9.950   4.643  1.00  0.00     0.020 A 
ATOM     43  C   UNL     1       7.983   9.103   5.330  1.00  0.00     0.054 A 
BRANCH  43  44
ATOM     44  S   UNL     1       8.121   9.202   7.136  1.00  0.00     0.124 S 
ATOM     45  O   UNL     1       7.345   8.038   7.558  1.00  0.00    -0.237 OA
ATOM     46  O   UNL     1       9.562   9.109   7.357  1.00  0.00    -0.237 OA
ATOM     47  O   UNL     1       7.527  10.497   7.458  1.00  0.00    -0.744 OA
ENDBRANCH  43  44
ENDBRANCH  24  38
BRANCH  25  48
ATOM     48  C   UNL     1       5.720   7.121  -7.149  1.00  0.00    -0.014 A 
ATOM     49  C   UNL     1       6.726   6.743  -8.054  1.00  0.00     0.010 A 
ATOM     50  C   UNL     1       4.391   7.214  -7.606  1.00  0.00     0.010 A 
ATOM     51  C   UNL     1       6.411   6.460  -9.387  1.00  0.00     0.020 A 
ATOM     52  C   UNL     1       4.068   6.906  -8.930  1.00  0.00     0.020 A 
ATOM     53  C   UNL     1       5.082   6.536  -9.815  1.00  0.00     0.054 A 
BRANCH  53  54
ATOM     54  S   UNL     1       4.681   6.078 -11.525  1.00  0.00     0.124 S 
ATOM     55  O   UNL     1       5.118   7.257 -12.266  1.00  0.00    -0.237 OA
ATOM     56  O   UNL     1       5.480   4.871 -11.726  1.00  0.00    -0.237 OA
ATOM     57  O   UNL     1       3.237   5.858 -11.487  1.00  0.00    -0.744 OA
ENDBRANCH  53  54
ENDBRANCH  25  48
BRANCH  37  58
ATOM     58  C   UNL     1       9.007  12.231  -3.709  1.00  0.00    -0.014 A 
ATOM     59  C   UNL     1       8.272  13.360  -4.109  1.00  0.00     0.010 A 
ATOM     60  C   UNL     1      10.411  12.294  -3.670  1.00  0.00     0.010 A 
ATOM     61  C   UNL     1       8.935  14.532  -4.479  1.00  0.00     0.020 A 
ATOM     62  C   UNL     1      11.075  13.470  -4.020  1.00  0.00     0.020 A 
ATOM     63  C   UNL     1      10.332  14.579  -4.432  1.00  0.00     0.054 A 
BRANCH  63  64
ATOM     64  S   UNL     1      11.171  16.131  -4.855  1.00  0.00     0.124 S 
ATOM     65  O   UNL     1      11.104  16.123  -6.314  1.00  0.00    -0.237 OA
ATOM     66  O   UNL     1      10.343  17.136  -4.193  1.00  0.00    -0.237 OA
ATOM     67  O   UNL     1      12.508  15.965  -4.290  1.00  0.00    -0.744 OA
ENDBRANCH  63  64
ENDBRANCH  37  58
ENDBRANCH  11  12
ENDBRANCH   4   6
ENDBRANCH   3   4
ENDBRANCH   2   3
ENDBRANCH   1   2
BRANCH   1  68
ATOM     68  O   UNL     1       3.532  -1.131  -0.508  1.00  0.00    -0.374 OA
BRANCH  68  69
ATOM     69  C   UNL     1       2.182  -1.589  -0.430  1.00  0.00     0.202 C 
BRANCH  69  70
ATOM     70  C   UNL     1       1.983  -2.677  -1.459  1.00  0.00     0.261 C 
BRANCH  70  71
ATOM     71  O   UNL     1       2.917  -3.693  -1.084  1.00  0.00    -0.458 OA
BRANCH  71  72
ATOM     72  C   UNL     1       3.431  -4.369  -2.118  1.00  0.00     0.359 C 
ATOM     73  O   UNL     1       2.984  -4.443  -3.256  1.00  0.00    -0.244 OA
BRANCH  72  74
ATOM     74  C   UNL     1       4.566  -5.144  -1.627  1.00  0.00     0.179 A 
ATOM     75  N   UNL     1       4.240  -6.467  -1.430  1.00  0.00    -0.245 NA
ATOM     76  C   UNL     1       5.824  -4.628  -1.340  1.00  0.00     0.161 A 
ATOM     77  C   UNL     1       5.197  -7.245  -0.895  1.00  0.00     0.132 A 
ATOM     78  N   UNL     1       6.798  -5.476  -0.862  1.00  0.00    -0.247 NA
ATOM     79  C   UNL     1       6.458  -6.761  -0.627  1.00  0.00     0.132 A 
BRANCH  76  80
ATOM     80  C   UNL     1       6.220  -3.209  -1.125  1.00  0.00     0.276 C 
ATOM     81  O   UNL     1       6.722  -2.962  -0.014  1.00  0.00    -0.267 OA
ATOM     82  N   UNL     1       6.170  -2.123  -1.955  1.00  0.00    -0.320 N 
ATOM     83  H   UNL     1       6.656  -1.368  -1.552  1.00  0.00     0.170 HD
BRANCH  82  84
ATOM     84  C   UNL     1       5.646  -1.747  -3.193  1.00  0.00     0.045 A 
ATOM     85  C   UNL     1       5.090  -2.606  -4.139  1.00  0.00     0.030 A 
ATOM     86  C   UNL     1       5.624  -0.357  -3.430  1.00  0.00     0.076 A 
ATOM     87  C   UNL     1       4.360  -2.091  -5.225  1.00  0.00     0.053 A 
ATOM     88  C   UNL     1       4.921   0.122  -4.513  1.00  0.00     0.167 A 
ATOM     89  C   UNL     1       4.276  -0.723  -5.373  1.00  0.00     0.165 A 
ATOM     90  O   UNL     1       4.739   1.431  -4.827  1.00  0.00    -0.454 OA
ATOM     91  O   UNL     1       3.582  -0.055  -6.331  1.00  0.00    -0.454 OA
ATOM     92  C   UNL     1       3.904   1.316  -6.000  1.00  0.00     0.468 C 
ENDBRANCH  82  84
ENDBRANCH  76  80
ENDBRANCH  72  74
ENDBRANCH  71  72
ENDBRANCH  70  71
ENDBRANCH  69  70
ENDBRANCH  68  69
ENDBRANCH   1  68
TORSDOF 19
