REMARK SMILES O=C(OCCOCCOC(=O)c1ccc(-c2c3nc(c(-c4ccc(S(=O)(=O)[O-])cc4)c4ccc([nH]4)c(-c4ccc(S(=O)(=O)[O-])cc4)c4nc(c(-c5ccc(S(=O)(=O)[O-])cc5)c5ccc2[nH]5)C=C4)C=C3)cc1)C1=Cc2cc(S(F)(F)(F)(F)F)ccc2O[C@H]1C(F)(F)F
REMARK SMILES IDX 7 1 6 2 5 3 4 4 3 5 2 6 1 7 72 8 73 9 87 10 74 11 86 12
REMARK SMILES IDX 75 13 85 14 76 15 84 16 83 17 88 18 89 19 90 20 91 21 77 22
REMARK SMILES IDX 78 23 79 24 80 25 81 26 82 27 8 28 9 29 10 30 11 31 12 32
REMARK SMILES IDX 13 33 71 34 14 35 70 36 15 37 16 38 17 39 64 40 18 41 69 42
REMARK SMILES IDX 63 43 65 44 19 45 68 46 62 47 61 48 20 50 50 51 31 52 49 53
REMARK SMILES IDX 32 54 35 55 48 56 66 57 33 58 34 59 47 61 67 62 36 63 21 64
REMARK SMILES IDX 22 65 30 66 23 67 29 68 24 69 25 70 26 71 27 72 28 73 51 74
REMARK SMILES IDX 52 75 60 76 53 77 59 78 54 79 55 80 56 81 57 82 58 83 37 84
REMARK SMILES IDX 38 85 46 86 39 87 45 88 40 89 41 90 42 91 43 92 44 93
REMARK H PARENT 65 49 35 60
REMARK Flexibility Score: inf
ROOT
ATOM      1  C   UNL     1       2.963   1.203  -0.730  1.00  0.00     0.202 C 
ENDROOT
BRANCH   1   2
ATOM      2  O   UNL     1       4.383   1.203  -0.730  1.00  0.00    -0.374 OA
BRANCH   2   3
ATOM      3  C   UNL     1       4.856  -0.016  -1.283  1.00  0.00     0.202 C 
BRANCH   3   4
ATOM      4  C   UNL     1       4.349  -1.182  -0.449  1.00  0.00     0.261 C 
BRANCH   4   5
ATOM      5  O   UNL     1       2.929  -1.182  -0.449  1.00  0.00    -0.460 OA
BRANCH   5   6
ATOM      6  C   UNL     1       2.219  -0.062   0.059  1.00  0.00     0.338 C 
ATOM      7  O   UNL     1       0.948  -0.062   0.059  1.00  0.00    -0.246 OA
BRANCH   6   8
ATOM      8  C   UNL     1       2.979   1.137   0.603  1.00  0.00     0.087 C 
ATOM      9  C   UNL     1       4.340   1.137   0.603  1.00  0.00     0.027 C 
ATOM     10  C   UNL     1       2.219   2.335   1.147  1.00  0.00     0.316 C 
ATOM     11  C   UNL     1       5.100  -0.062   0.059  1.00  0.00     0.019 A 
ATOM     12  O   UNL     1       3.607  -0.252  -1.780  1.00  0.00    -0.475 OA
ATOM     13  C   UNL     1       6.138  -0.533   0.846  1.00  0.00     0.036 A 
ATOM     14  C   UNL     1       4.773  -0.660  -1.081  1.00  0.00     0.128 A 
ATOM     15  C   UNL     1       6.966  -1.478   0.197  1.00  0.00     0.107 A 
ATOM     16  C   UNL     1       5.554  -1.670  -1.589  1.00  0.00     0.048 A 
ATOM     17  C   UNL     1       6.630  -2.146  -0.892  1.00  0.00     0.028 A 
BRANCH  10  18
ATOM     18  C   UNL     1       0.725   2.083   1.032  1.00  0.00     0.430 C 
ATOM     19  F   UNL     1       0.403   1.794  -0.225  1.00  0.00    -0.167 F 
ATOM     20  F   UNL     1       0.372   1.073   1.823  1.00  0.00    -0.167 F 
ATOM     21  F   UNL     1       0.086   3.186   1.411  1.00  0.00    -0.167 F 
ENDBRANCH  10  18
BRANCH  15  22
ATOM     22  S   UNL     1       8.600  -1.795   0.909  1.00  0.00     0.310 S 
ATOM     23  F   UNL     1       8.025  -1.750   2.386  1.00  0.00    -0.094 F 
ATOM     24  F   UNL     1       8.825  -0.240   1.022  1.00  0.00    -0.094 F 
ATOM     25  F   UNL     1       9.999  -2.071   1.528  1.00  0.00    -0.094 F 
ATOM     26  F   UNL     1       8.299  -3.346   0.917  1.00  0.00    -0.094 F 
ATOM     27  F   UNL     1       7.133  -1.529   0.385  1.00  0.00    -0.094 F 
ENDBRANCH  15  22
ENDBRANCH   6   8
ENDBRANCH   5   6
ENDBRANCH   4   5
ENDBRANCH   3   4
ENDBRANCH   2   3
ENDBRANCH   1   2
BRANCH   1  28
ATOM     28  C   UNL     1       2.456   1.063  -2.156  1.00  0.00     0.261 C 
BRANCH  28  29
ATOM     29  O   UNL     1       2.929  -0.156  -2.709  1.00  0.00    -0.460 OA
BRANCH  29  30
ATOM     30  C   UNL     1       4.325  -0.392  -2.817  1.00  0.00     0.338 C 
ATOM     31  O   UNL     1       5.151   0.487  -2.417  1.00  0.00    -0.246 OA
BRANCH  30  32
ATOM     32  C   UNL     1       4.832  -1.697  -3.409  1.00  0.00     0.060 A 
ATOM     33  C   UNL     1       5.813  -2.334  -2.666  1.00  0.00     0.016 A 
ATOM     34  C   UNL     1       4.341  -2.244  -4.515  1.00  0.00     0.016 A 
ATOM     35  C   UNL     1       6.423  -3.421  -3.335  1.00  0.00     0.010 A 
ATOM     36  C   UNL     1       4.901  -3.385  -5.038  1.00  0.00     0.010 A 
ATOM     37  C   UNL     1       5.913  -4.034  -4.388  1.00  0.00    -0.014 A 
BRANCH  37  38
ATOM     38  C   UNL     1       6.425  -5.388  -4.852  1.00  0.00     0.031 A 
ATOM     39  C   UNL     1       6.965  -5.557  -6.128  1.00  0.00     0.074 A 
ATOM     40  C   UNL     1       6.242  -6.418  -3.946  1.00  0.00     0.049 A 
ATOM     41  N   UNL     1       7.417  -6.686  -6.677  1.00  0.00    -0.248 NA
ATOM     42  C   UNL     1       7.129  -4.470  -7.105  1.00  0.00     0.031 C 
ATOM     43  C   UNL     1       5.706  -6.254  -2.654  1.00  0.00     0.029 A 
ATOM     44  N   UNL     1       6.532  -7.754  -4.116  1.00  0.00    -0.354 N 
ATOM     45  C   UNL     1       7.876  -6.448  -7.908  1.00  0.00     0.074 A 
ATOM     46  C   UNL     1       7.691  -5.021  -8.203  1.00  0.00     0.031 C 
ATOM     47  C   UNL     1       5.663  -7.475  -2.057  1.00  0.00     0.029 A 
ATOM     48  C   UNL     1       6.171  -8.422  -2.966  1.00  0.00     0.049 A 
ATOM     49  H   UNL     1       6.928  -8.161  -4.920  1.00  0.00     0.167 HD
ATOM     50  C   UNL     1       8.442  -7.365  -8.794  1.00  0.00     0.031 A 
ATOM     51  C   UNL     1       6.271  -9.780  -2.707  1.00  0.00     0.031 A 
ATOM     52  C   UNL     1       8.582  -8.716  -8.518  1.00  0.00     0.049 A 
ATOM     53  C   UNL     1       6.784 -10.707  -3.616  1.00  0.00     0.074 A 
ATOM     54  C   UNL     1       9.158  -9.653  -9.398  1.00  0.00     0.029 A 
ATOM     55  N   UNL     1       8.199  -9.388  -7.378  1.00  0.00    -0.354 N 
ATOM     56  N   UNL     1       7.279 -10.463  -4.831  1.00  0.00    -0.248 NA
ATOM     57  C   UNL     1       6.865 -12.152  -3.365  1.00  0.00     0.031 C 
ATOM     58  C   UNL     1       9.114 -10.874  -8.801  1.00  0.00     0.029 A 
ATOM     59  C   UNL     1       8.510 -10.720  -7.539  1.00  0.00     0.049 A 
ATOM     60  H   UNL     1       7.776  -8.985  -6.585  1.00  0.00     0.167 HD
ATOM     61  C   UNL     1       7.693 -11.599  -5.395  1.00  0.00     0.074 A 
ATOM     62  C   UNL     1       7.426 -12.703  -4.463  1.00  0.00     0.031 C 
ATOM     63  C   UNL     1       8.286 -11.759  -6.649  1.00  0.00     0.031 A 
BRANCH  50  64
ATOM     64  C   UNL     1       8.934  -6.854 -10.139  1.00  0.00    -0.014 A 
ATOM     65  C   UNL     1       9.995  -5.967 -10.218  1.00  0.00     0.010 A 
ATOM     66  C   UNL     1       8.383  -7.369 -11.232  1.00  0.00     0.010 A 
ATOM     67  C   UNL     1      10.220  -5.457 -11.519  1.00  0.00     0.020 A 
ATOM     68  C   UNL     1       8.749  -6.919 -12.477  1.00  0.00     0.020 A 
ATOM     69  C   UNL     1       9.749  -5.999 -12.627  1.00  0.00     0.054 A 
BRANCH  69  70
ATOM     70  S   UNL     1      10.395  -5.549 -14.258  1.00  0.00     0.124 S 
ATOM     71  O   UNL     1      10.188  -4.051 -14.492  1.00  0.00    -0.237 OA
ATOM     72  O   UNL     1      11.889  -5.874 -14.323  1.00  0.00    -0.237 OA
ATOM     73  O   UNL     1       9.566  -6.434 -15.463  1.00  0.00    -0.744 OA
ENDBRANCH  69  70
ENDBRANCH  50  64
BRANCH  51  74
ATOM     74  C   UNL     1       5.794 -10.288  -1.356  1.00  0.00    -0.014 A 
ATOM     75  C   UNL     1       6.644 -11.035  -0.557  1.00  0.00     0.010 A 
ATOM     76  C   UNL     1       4.524 -10.096  -1.020  1.00  0.00     0.010 A 
ATOM     77  C   UNL     1       5.979 -11.786   0.441  1.00  0.00     0.020 A 
ATOM     78  C   UNL     1       3.976 -10.760   0.051  1.00  0.00     0.020 A 
ATOM     79  C   UNL     1       4.743 -11.562   0.849  1.00  0.00     0.054 A 
BRANCH  79  80
ATOM     80  S   UNL     1       4.100 -12.276   2.383  1.00  0.00     0.124 S 
ATOM     81  O   UNL     1       4.163 -13.803   2.300  1.00  0.00    -0.237 OA
ATOM     82  O   UNL     1       4.946 -11.794   3.564  1.00  0.00    -0.237 OA
ATOM     83  O   UNL     1       2.478 -11.784   2.605  1.00  0.00    -0.744 OA
ENDBRANCH  79  80
ENDBRANCH  51  74
BRANCH  63  84
ATOM     84  C   UNL     1       8.713 -13.158  -7.063  1.00  0.00    -0.014 A 
ATOM     85  C   UNL     1       7.705 -14.102  -7.159  1.00  0.00     0.010 A 
ATOM     86  C   UNL     1       9.973 -13.463  -7.352  1.00  0.00     0.010 A 
ATOM     87  C   UNL     1       8.174 -15.430  -7.293  1.00  0.00     0.020 A 
ATOM     88  C   UNL     1      10.336 -14.764  -7.605  1.00  0.00     0.020 A 
ATOM     89  C   UNL     1       9.400 -15.759  -7.657  1.00  0.00     0.054 A 
BRANCH  89  90
ATOM     90  S   UNL     1       9.818 -17.435  -8.197  1.00  0.00     0.124 S 
ATOM     91  O   UNL     1       9.518 -18.424  -7.068  1.00  0.00    -0.237 OA
ATOM     92  O   UNL     1       8.984 -17.798  -9.428  1.00  0.00    -0.237 OA
ATOM     93  O   UNL     1      11.480 -17.509  -8.592  1.00  0.00    -0.744 OA
ENDBRANCH  89  90
ENDBRANCH  63  84
ENDBRANCH  37  38
ENDBRANCH  30  32
ENDBRANCH  29  30
ENDBRANCH  28  29
ENDBRANCH   1  28
TORSDOF 19
