REMARK SMILES Nc1nccc(N2CCC[C@@](Cc3ccc(F)cc3F)(C(=O)OCCOCCOC(=O)c3ccc(-c4c5nc(c(-c6ccc(S(=O)(=O)[O-])cc6)c6ccc([nH]6)c(-c6ccc(S(=O)(=O)[O-])cc6)c6nc(c(-c7ccc(S(=O)(=O)[O-])cc7)c7ccc4[nH]7)C=C6)C=C5)cc3)C2)n1
REMARK SMILES IDX 27 1 26 2 25 3 24 4 23 5 21 6 22 7 11 8 7 9 8 10 92 11 9 12
REMARK SMILES IDX 10 13 6 14 2 15 3 16 93 17 4 18 5 19 1 20 12 23 13 24 14 25
REMARK SMILES IDX 19 26 15 27 18 28 20 29 16 30 17 31 28 32 29 33 30 34 31 35
REMARK SMILES IDX 32 36 33 37 91 38 34 39 90 40 35 41 36 42 37 43 84 44 38 45
REMARK SMILES IDX 89 46 83 47 85 48 39 49 88 50 82 51 81 52 40 54 70 55 51 56
REMARK SMILES IDX 69 57 52 58 55 59 68 60 86 61 53 62 54 63 67 65 87 66 56 67
REMARK SMILES IDX 41 68 42 69 50 70 43 71 49 72 44 73 45 74 46 75 47 76 48 77
REMARK SMILES IDX 71 78 72 79 80 80 73 81 79 82 74 83 75 84 76 85 77 86 78 87
REMARK SMILES IDX 57 88 58 89 66 90 59 91 65 92 60 93 61 94 62 95 63 96 64 97
REMARK H PARENT 1 21 1 22 85 53 55 64
REMARK Flexibility Score: inf
ROOT
ATOM      1  C   UNL     1       0.935  -7.026  -2.174  1.00  0.00     0.202 C 
ENDROOT
BRANCH   1   2
ATOM      2  O   UNL     1       0.592  -7.094  -3.557  1.00  0.00    -0.374 OA
BRANCH   2   3
ATOM      3  C   UNL     1       1.651  -7.207  -4.501  1.00  0.00     0.202 C 
BRANCH   3   4
ATOM      4  C   UNL     1       2.552  -5.987  -4.719  1.00  0.00     0.261 C 
BRANCH   4   5
ATOM      5  O   UNL     1       2.979  -5.340  -3.509  1.00  0.00    -0.463 OA
BRANCH   5   6
ATOM      6  C   UNL     1       2.443  -4.107  -3.299  1.00  0.00     0.314 C 
ATOM      7  O   UNL     1       1.647  -3.567  -4.062  1.00  0.00    -0.252 OA
BRANCH   6   8
ATOM      8  C   UNL     1       2.973  -3.413  -2.046  1.00  0.00     0.090 C 
ATOM      9  N   UNL     1       2.085  -2.071  -0.197  1.00  0.00    -0.355 N 
ATOM     10  C   UNL     1       2.575  -2.913   0.883  1.00  0.00     0.118 C 
ATOM     11  C   UNL     1       1.714  -2.755  -1.432  1.00  0.00     0.137 C 
ATOM     12  C   UNL     1       3.808  -3.671   0.385  1.00  0.00     0.023 C 
ATOM     13  C   UNL     1       3.577  -4.357  -0.972  1.00  0.00     0.023 C 
BRANCH   9  14
ATOM     14  C   UNL     1       1.272  -0.996   0.135  1.00  0.00     0.134 A 
ATOM     15  C   UNL     1      -0.794  -0.018   0.241  1.00  0.00     0.221 A 
ATOM     16  N   UNL     1      -0.300   1.202   0.467  1.00  0.00    -0.222 NA
ATOM     17  N   UNL     1      -0.064  -1.123   0.062  1.00  0.00    -0.196 NA
ATOM     18  C   UNL     1       1.038   1.293   0.534  1.00  0.00     0.119 A 
ATOM     19  C   UNL     1       1.875   0.217   0.393  1.00  0.00     0.067 A 
BRANCH  15  20
ATOM     20  N   UNL     1      -2.152  -0.136   0.146  1.00  0.00    -0.368 N 
ATOM     21  H   UNL     1      -2.725   0.655   0.271  1.00  0.00     0.159 HD
ATOM     22  H   UNL     1      -2.558  -1.012  -0.048  1.00  0.00     0.159 HD
ENDBRANCH  15  20
ENDBRANCH   9  14
BRANCH   8  23
ATOM     23  C   UNL     1       3.960  -2.301  -2.514  1.00  0.00     0.059 C 
BRANCH  23  24
ATOM     24  C   UNL     1       5.279  -2.796  -3.066  1.00  0.00    -0.011 A 
ATOM     25  C   UNL     1       5.366  -3.324  -4.363  1.00  0.00     0.010 A 
ATOM     26  C   UNL     1       6.442  -2.753  -2.284  1.00  0.00     0.129 A 
ATOM     27  C   UNL     1       6.572  -3.850  -4.829  1.00  0.00     0.040 A 
ATOM     28  C   UNL     1       7.648  -3.265  -2.744  1.00  0.00     0.078 A 
ATOM     29  F   UNL     1       6.405  -2.214  -1.057  1.00  0.00    -0.207 F 
ATOM     30  C   UNL     1       7.697  -3.824  -4.012  1.00  0.00     0.126 A 
ATOM     31  F   UNL     1       8.846  -4.346  -4.456  1.00  0.00    -0.207 F 
ENDBRANCH  23  24
ENDBRANCH   8  23
ENDBRANCH   6   8
ENDBRANCH   5   6
ENDBRANCH   4   5
ENDBRANCH   3   4
ENDBRANCH   2   3
ENDBRANCH   1   2
BRANCH   1  32
ATOM     32  C   UNL     1       1.740  -8.186  -1.569  1.00  0.00     0.261 C 
BRANCH  32  33
ATOM     33  O   UNL     1       3.077  -8.288  -2.100  1.00  0.00    -0.460 OA
BRANCH  33  34
ATOM     34  C   UNL     1       3.392  -9.511  -2.594  1.00  0.00     0.338 C 
ATOM     35  O   UNL     1       2.682 -10.510  -2.592  1.00  0.00    -0.246 OA
BRANCH  34  36
ATOM     36  C   UNL     1       4.678  -9.482  -3.310  1.00  0.00     0.060 A 
ATOM     37  C   UNL     1       4.669  -9.769  -4.681  1.00  0.00     0.016 A 
ATOM     38  C   UNL     1       5.884  -9.341  -2.622  1.00  0.00     0.016 A 
ATOM     39  C   UNL     1       5.871  -9.965  -5.361  1.00  0.00     0.010 A 
ATOM     40  C   UNL     1       7.089  -9.547  -3.305  1.00  0.00     0.010 A 
ATOM     41  C   UNL     1       7.087  -9.898  -4.668  1.00  0.00    -0.014 A 
BRANCH  41  42
ATOM     42  C   UNL     1       8.337 -10.330  -5.341  1.00  0.00     0.031 A 
ATOM     43  C   UNL     1       8.856 -11.725  -5.114  1.00  0.00     0.074 A 
ATOM     44  C   UNL     1       8.988  -9.499  -6.174  1.00  0.00     0.049 A 
ATOM     45  N   UNL     1       9.928 -12.298  -5.599  1.00  0.00    -0.248 NA
ATOM     46  C   UNL     1       8.062 -12.585  -4.223  1.00  0.00     0.031 C 
ATOM     47  C   UNL     1       8.572  -8.137  -6.503  1.00  0.00     0.029 A 
ATOM     48  N   UNL     1      10.144  -9.684  -6.891  1.00  0.00    -0.354 N 
ATOM     49  C   UNL     1       9.939 -13.585  -5.074  1.00  0.00     0.074 A 
ATOM     50  C   UNL     1       8.782 -13.698  -4.211  1.00  0.00     0.031 C 
ATOM     51  C   UNL     1       9.470  -7.601  -7.347  1.00  0.00     0.029 A 
ATOM     52  C   UNL     1      10.535  -8.572  -7.596  1.00  0.00     0.049 A 
ATOM     53  H   UNL     1      10.645 -10.531  -6.898  1.00  0.00     0.167 HD
ATOM     54  C   UNL     1      10.826 -14.586  -5.292  1.00  0.00     0.031 A 
ATOM     55  C   UNL     1      11.637  -8.351  -8.340  1.00  0.00     0.031 A 
ATOM     56  C   UNL     1      11.992 -14.468  -6.128  1.00  0.00     0.049 A 
ATOM     57  C   UNL     1      12.648  -9.452  -8.518  1.00  0.00     0.074 A 
ATOM     58  C   UNL     1      12.949 -15.427  -6.414  1.00  0.00     0.029 A 
ATOM     59  N   UNL     1      12.368 -13.316  -6.803  1.00  0.00    -0.354 N 
ATOM     60  N   UNL     1      12.629 -10.672  -8.035  1.00  0.00    -0.248 NA
ATOM     61  C   UNL     1      13.823  -9.149  -9.346  1.00  0.00     0.031 C 
ATOM     62  C   UNL     1      13.928 -14.840  -7.223  1.00  0.00     0.029 A 
ATOM     63  C   UNL     1      13.555 -13.531  -7.484  1.00  0.00     0.049 A 
ATOM     64  H   UNL     1      11.864 -12.470  -6.798  1.00  0.00     0.167 HD
ATOM     65  C   UNL     1      13.783 -11.286  -8.512  1.00  0.00     0.074 A 
ATOM     66  C   UNL     1      14.467 -10.309  -9.334  1.00  0.00     0.031 C 
ATOM     67  C   UNL     1      14.233 -12.546  -8.289  1.00  0.00     0.031 A 
BRANCH  54  68
ATOM     68  C   UNL     1      10.580 -15.889  -4.578  1.00  0.00    -0.014 A 
ATOM     69  C   UNL     1       9.534 -16.744  -4.968  1.00  0.00     0.010 A 
ATOM     70  C   UNL     1      11.409 -16.265  -3.506  1.00  0.00     0.010 A 
ATOM     71  C   UNL     1       9.287 -17.926  -4.264  1.00  0.00     0.020 A 
ATOM     72  C   UNL     1      11.180 -17.458  -2.814  1.00  0.00     0.020 A 
ATOM     73  C   UNL     1      10.105 -18.269  -3.184  1.00  0.00     0.054 A 
BRANCH  73  74
ATOM     74  S   UNL     1       9.757 -19.801  -2.276  1.00  0.00     0.124 S 
ATOM     75  O   UNL     1       8.593 -19.419  -1.480  1.00  0.00    -0.237 OA
ATOM     76  O   UNL     1       9.498 -20.760  -3.346  1.00  0.00    -0.237 OA
ATOM     77  O   UNL     1      10.981 -20.037  -1.514  1.00  0.00    -0.744 OA
ENDBRANCH  73  74
ENDBRANCH  54  68
BRANCH  55  78
ATOM     78  C   UNL     1      11.848  -7.012  -8.951  1.00  0.00    -0.014 A 
ATOM     79  C   UNL     1      11.699  -6.819 -10.335  1.00  0.00     0.010 A 
ATOM     80  C   UNL     1      12.163  -5.910  -8.135  1.00  0.00     0.010 A 
ATOM     81  C   UNL     1      11.861  -5.546 -10.891  1.00  0.00     0.020 A 
ATOM     82  C   UNL     1      12.302  -4.633  -8.684  1.00  0.00     0.020 A 
ATOM     83  C   UNL     1      12.155  -4.460 -10.061  1.00  0.00     0.054 A 
BRANCH  83  84
ATOM     84  S   UNL     1      12.275  -2.803 -10.792  1.00  0.00     0.124 S 
ATOM     85  O   UNL     1      13.583  -2.849 -11.437  1.00  0.00    -0.237 OA
ATOM     86  O   UNL     1      11.125  -2.771 -11.692  1.00  0.00    -0.237 OA
ATOM     87  O   UNL     1      12.174  -1.913  -9.637  1.00  0.00    -0.744 OA
ENDBRANCH  83  84
ENDBRANCH  55  78
BRANCH  67  88
ATOM     88  C   UNL     1      15.521 -12.951  -8.955  1.00  0.00    -0.014 A 
ATOM     89  C   UNL     1      16.760 -12.479  -8.485  1.00  0.00     0.010 A 
ATOM     90  C   UNL     1      15.496 -13.860 -10.028  1.00  0.00     0.010 A 
ATOM     91  C   UNL     1      17.949 -12.890  -9.095  1.00  0.00     0.020 A 
ATOM     92  C   UNL     1      16.684 -14.290 -10.625  1.00  0.00     0.020 A 
ATOM     93  C   UNL     1      17.904 -13.791 -10.163  1.00  0.00     0.054 A 
BRANCH  93  94
ATOM     94  S   UNL     1      19.462 -14.346 -10.909  1.00  0.00     0.124 S 
ATOM     95  O   UNL     1      19.844 -13.186 -11.710  1.00  0.00    -0.237 OA
ATOM     96  O   UNL     1      20.303 -14.608  -9.743  1.00  0.00    -0.237 OA
ATOM     97  O   UNL     1      19.078 -15.532 -11.671  1.00  0.00    -0.744 OA
ENDBRANCH  93  94
ENDBRANCH  67  88
ENDBRANCH  41  42
ENDBRANCH  34  36
ENDBRANCH  33  34
ENDBRANCH  32  33
ENDBRANCH   1  32
TORSDOF 21
