REMARK SMILES COc1cc2c(cc1OC)[C@H](C(=O)OCCOCCOC(=O)c1ccc(-c3c4nc(c(-c5ccc(S(=O)(=O)[O-])cc5)c5ccc([nH]5)c(-c5ccc(S(=O)(=O)[O-])cc5)c5nc(c(-c6ccc(S(=O)(=O)[O-])cc6)c6ccc3[nH]6)C=C5)C=C4)cc1)[C@@H](c1ccc(SC)cc1)N(C)C2=O
REMARK SMILES IDX 18 1 17 2 16 3 15 4 14 5 12 6 13 7 11 8 3 9 4 10 8 11 5 12
REMARK SMILES IDX 7 13 6 14 94 15 92 16 95 17 83 18 93 19 2 20 1 21 9 22 10 23
REMARK SMILES IDX 84 24 85 25 91 26 86 27 90 28 87 29 88 30 89 31 19 32 20 33
REMARK SMILES IDX 21 34 22 35 23 36 24 37 82 38 25 39 81 40 26 41 27 42 28 43
REMARK SMILES IDX 75 44 29 45 80 46 74 47 76 48 30 49 79 50 73 51 72 52 31 54
REMARK SMILES IDX 61 55 42 56 60 57 43 58 46 59 59 60 77 61 44 62 45 63 58 65
REMARK SMILES IDX 78 66 47 67 32 68 33 69 41 70 34 71 40 72 35 73 36 74 37 75
REMARK SMILES IDX 38 76 39 77 62 78 63 79 71 80 64 81 70 82 65 83 66 84 67 85
REMARK SMILES IDX 68 86 69 87 48 88 49 89 57 90 50 91 56 92 51 93 52 94 53 95
REMARK SMILES IDX 54 96 55 97
REMARK H PARENT 76 53 46 64
REMARK Flexibility Score: inf
ROOT
ATOM      1  C   UNL     1       1.643   7.335  -7.435  1.00  0.00     0.202 C 
ENDROOT
BRANCH   1   2
ATOM      2  O   UNL     1       0.369   6.997  -7.951  1.00  0.00    -0.374 OA
BRANCH   2   3
ATOM      3  C   UNL     1      -0.707   6.736  -7.061  1.00  0.00     0.202 C 
BRANCH   3   4
ATOM      4  C   UNL     1      -0.534   5.683  -5.966  1.00  0.00     0.261 C 
BRANCH   4   5
ATOM      5  O   UNL     1       0.441   6.010  -4.957  1.00  0.00    -0.463 OA
BRANCH   5   6
ATOM      6  C   UNL     1       1.503   5.157  -4.872  1.00  0.00     0.316 C 
ATOM      7  O   UNL     1       1.826   4.359  -5.744  1.00  0.00    -0.251 OA
BRANCH   6   8
ATOM      8  C   UNL     1       2.155   5.204  -3.491  1.00  0.00     0.157 C 
ATOM      9  C   UNL     1       0.935   1.496  -1.578  1.00  0.00     0.161 A 
ATOM     10  C   UNL     1       2.252   1.962  -1.467  1.00  0.00     0.064 A 
ATOM     11  C   UNL     1      -0.023   2.298  -2.206  1.00  0.00     0.161 A 
ATOM     12  C   UNL     1       2.633   3.200  -2.006  1.00  0.00     0.048 A 
ATOM     13  C   UNL     1       0.371   3.537  -2.738  1.00  0.00     0.056 A 
ATOM     14  C   UNL     1       1.710   3.971  -2.712  1.00  0.00    -0.015 A 
ATOM     15  C   UNL     1       4.027   3.663  -1.795  1.00  0.00     0.254 C 
ATOM     16  N   UNL     1       4.450   4.782  -2.509  1.00  0.00    -0.333 N 
ATOM     17  O   UNL     1       4.742   3.058  -1.000  1.00  0.00    -0.269 OA
ATOM     18  C   UNL     1       3.700   5.204  -3.712  1.00  0.00     0.134 C 
ATOM     19  C   UNL     1       5.849   5.163  -2.344  1.00  0.00     0.147 C 
BRANCH   9  20
ATOM     20  O   UNL     1       0.613   0.231  -1.166  1.00  0.00    -0.493 OA
ATOM     21  C   UNL     1       1.054  -0.085   0.152  1.00  0.00     0.278 C 
ENDBRANCH   9  20
BRANCH  11  22
ATOM     22  O   UNL     1      -1.353   2.046  -2.410  1.00  0.00    -0.493 OA
ATOM     23  C   UNL     1      -1.896   0.814  -1.960  1.00  0.00     0.278 C 
ENDBRANCH  11  22
BRANCH  18  24
ATOM     24  C   UNL     1       4.242   6.510  -4.296  1.00  0.00    -0.024 A 
ATOM     25  C   UNL     1       4.038   7.752  -3.676  1.00  0.00     0.007 A 
ATOM     26  C   UNL     1       5.040   6.470  -5.453  1.00  0.00     0.007 A 
ATOM     27  C   UNL     1       4.592   8.919  -4.222  1.00  0.00     0.015 A 
ATOM     28  C   UNL     1       5.598   7.638  -5.990  1.00  0.00     0.015 A 
ATOM     29  C   UNL     1       5.377   8.874  -5.381  1.00  0.00     0.007 A 
BRANCH  29  30
ATOM     30  S   UNL     1       5.959  10.419  -6.061  1.00  0.00    -0.130 SA
ATOM     31  C   UNL     1       7.615   9.981  -6.655  1.00  0.00     0.091 C 
ENDBRANCH  29  30
ENDBRANCH  18  24
ENDBRANCH   6   8
ENDBRANCH   5   6
ENDBRANCH   4   5
ENDBRANCH   3   4
ENDBRANCH   2   3
ENDBRANCH   1   2
BRANCH   1  32
ATOM     32  C   UNL     1       1.800   8.485  -6.431  1.00  0.00     0.261 C 
BRANCH  32  33
ATOM     33  O   UNL     1       0.611   9.009  -5.853  1.00  0.00    -0.460 OA
BRANCH  33  34
ATOM     34  C   UNL     1       0.126  10.109  -6.461  1.00  0.00     0.338 C 
ATOM     35  O   UNL     1       0.575  10.689  -7.438  1.00  0.00    -0.246 OA
BRANCH  34  36
ATOM     36  C   UNL     1      -1.129  10.464  -5.790  1.00  0.00     0.060 A 
ATOM     37  C   UNL     1      -2.323  10.287  -6.492  1.00  0.00     0.016 A 
ATOM     38  C   UNL     1      -1.119  10.996  -4.497  1.00  0.00     0.016 A 
ATOM     39  C   UNL     1      -3.520  10.696  -5.915  1.00  0.00     0.010 A 
ATOM     40  C   UNL     1      -2.322  11.405  -3.921  1.00  0.00     0.010 A 
ATOM     41  C   UNL     1      -3.521  11.292  -4.645  1.00  0.00    -0.014 A 
BRANCH  41  42
ATOM     42  C   UNL     1      -4.767  11.921  -4.150  1.00  0.00     0.031 A 
ATOM     43  C   UNL     1      -4.926  13.412  -4.274  1.00  0.00     0.074 A 
ATOM     44  C   UNL     1      -5.760  11.163  -3.653  1.00  0.00     0.049 A 
ATOM     45  N   UNL     1      -5.954  14.160  -3.972  1.00  0.00    -0.248 NA
ATOM     46  C   UNL     1      -3.775  14.159  -4.810  1.00  0.00     0.031 C 
ATOM     47  C   UNL     1      -5.717   9.708  -3.503  1.00  0.00     0.029 A 
ATOM     48  N   UNL     1      -7.002  11.513  -3.192  1.00  0.00    -0.354 N 
ATOM     49  C   UNL     1      -5.576  15.462  -4.277  1.00  0.00     0.074 A 
ATOM     50  C   UNL     1      -4.213  15.409  -4.757  1.00  0.00     0.031 C 
ATOM     51  C   UNL     1      -6.886   9.288  -2.990  1.00  0.00     0.029 A 
ATOM     52  C   UNL     1      -7.748  10.444  -2.754  1.00  0.00     0.049 A 
ATOM     53  H   UNL     1      -7.330  12.441  -3.175  1.00  0.00     0.167 HD
ATOM     54  C   UNL     1      -6.304  16.599  -4.176  1.00  0.00     0.031 A 
ATOM     55  C   UNL     1      -8.983  10.406  -2.218  1.00  0.00     0.031 A 
ATOM     56  C   UNL     1      -7.657  16.643  -3.690  1.00  0.00     0.049 A 
ATOM     57  C   UNL     1      -9.759  11.690  -2.080  1.00  0.00     0.074 A 
ATOM     58  C   UNL     1      -8.494  17.739  -3.574  1.00  0.00     0.029 A 
ATOM     59  N   UNL     1      -8.368  15.544  -3.232  1.00  0.00    -0.354 N 
ATOM     60  N   UNL     1      -9.405  12.906  -2.422  1.00  0.00    -0.248 NA
ATOM     61  C   UNL     1     -11.105  11.593  -1.500  1.00  0.00     0.031 C 
ATOM     62  C   UNL     1      -9.692  17.311  -2.992  1.00  0.00     0.029 A 
ATOM     63  C   UNL     1      -9.624  15.940  -2.803  1.00  0.00     0.049 A 
ATOM     64  H   UNL     1      -8.030  14.620  -3.213  1.00  0.00     0.167 HD
ATOM     65  C   UNL     1     -10.493  13.717  -2.118  1.00  0.00     0.074 A 
ATOM     66  C   UNL     1     -11.523  12.849  -1.583  1.00  0.00     0.031 C 
ATOM     67  C   UNL     1     -10.631  15.058  -2.268  1.00  0.00     0.031 A 
BRANCH  54  68
ATOM     68  C   UNL     1      -5.639  17.892  -4.568  1.00  0.00    -0.014 A 
ATOM     69  C   UNL     1      -5.368  18.197  -5.914  1.00  0.00     0.010 A 
ATOM     70  C   UNL     1      -5.319  18.836  -3.575  1.00  0.00     0.010 A 
ATOM     71  C   UNL     1      -4.761  19.409  -6.257  1.00  0.00     0.020 A 
ATOM     72  C   UNL     1      -4.735  20.059  -3.916  1.00  0.00     0.020 A 
ATOM     73  C   UNL     1      -4.446  20.332  -5.254  1.00  0.00     0.054 A 
BRANCH  73  74
ATOM     74  S   UNL     1      -3.688  21.910  -5.729  1.00  0.00     0.124 S 
ATOM     75  O   UNL     1      -2.333  21.498  -6.087  1.00  0.00    -0.237 OA
ATOM     76  O   UNL     1      -4.526  22.346  -6.843  1.00  0.00    -0.237 OA
ATOM     77  O   UNL     1      -3.792  22.723  -4.520  1.00  0.00    -0.744 OA
ENDBRANCH  73  74
ENDBRANCH  54  68
BRANCH  55  78
ATOM     78  C   UNL     1      -9.554   9.110  -1.760  1.00  0.00    -0.014 A 
ATOM     79  C   UNL     1     -10.634   8.514  -2.434  1.00  0.00     0.010 A 
ATOM     80  C   UNL     1      -9.006   8.459  -0.639  1.00  0.00     0.010 A 
ATOM     81  C   UNL     1     -11.166   7.301  -1.986  1.00  0.00     0.020 A 
ATOM     82  C   UNL     1      -9.517   7.233  -0.205  1.00  0.00     0.020 A 
ATOM     83  C   UNL     1     -10.603   6.667  -0.874  1.00  0.00     0.054 A 
BRANCH  83  84
ATOM     84  S   UNL     1     -11.275   5.069  -0.339  1.00  0.00     0.124 S 
ATOM     85  O   UNL     1     -12.530   5.463   0.291  1.00  0.00    -0.237 OA
ATOM     86  O   UNL     1     -11.399   4.340  -1.599  1.00  0.00    -0.237 OA
ATOM     87  O   UNL     1     -10.251   4.555   0.569  1.00  0.00    -0.744 OA
ENDBRANCH  83  84
ENDBRANCH  55  78
BRANCH  67  88
ATOM     88  C   UNL     1     -11.950  15.666  -1.873  1.00  0.00    -0.014 A 
ATOM     89  C   UNL     1     -12.319  15.793  -0.522  1.00  0.00     0.010 A 
ATOM     90  C   UNL     1     -12.810  16.164  -2.869  1.00  0.00     0.010 A 
ATOM     91  C   UNL     1     -13.541  16.374  -0.176  1.00  0.00     0.020 A 
ATOM     92  C   UNL     1     -14.020  16.772  -2.526  1.00  0.00     0.020 A 
ATOM     93  C   UNL     1     -14.385  16.859  -1.181  1.00  0.00     0.054 A 
BRANCH  93  94
ATOM     94  S   UNL     1     -15.951  17.641  -0.705  1.00  0.00     0.124 S 
ATOM     95  O   UNL     1     -16.762  16.488  -0.325  1.00  0.00    -0.237 OA
ATOM     96  O   UNL     1     -15.552  18.518   0.392  1.00  0.00    -0.237 OA
ATOM     97  O   UNL     1     -16.378  18.329  -1.921  1.00  0.00    -0.744 OA
ENDBRANCH  93  94
ENDBRANCH  67  88
ENDBRANCH  41  42
ENDBRANCH  34  36
ENDBRANCH  33  34
ENDBRANCH  32  33
ENDBRANCH   1  32
TORSDOF 21
