REMARK SMILES Cc1ccc(-c2cc(Cl)cc3c2O[C@@H](C(F)(F)F)C(C(=O)OCCOCCOC(=O)c2ccc(-c4c5nc(c(-c6ccc(S(=O)(=O)[O-])cc6)c6ccc([nH]6)c(-c6ccc(S(=O)(=O)[O-])cc6)c6nc(c(-c7ccc(S(=O)(=O)[O-])cc7)c7ccc4[nH]7)C=C6)C=C5)cc2)=C3)cc1
REMARK SMILES IDX 26 1 25 2 24 3 23 4 22 5 20 6 21 7 19 8 6 9 7 10 12 11 8 12
REMARK SMILES IDX 11 13 13 14 9 15 10 16 91 17 14 18 5 19 1 20 2 21 3 22 93 23
REMARK SMILES IDX 4 24 92 25 15 26 16 27 17 28 18 29 27 30 28 31 29 32 30 33
REMARK SMILES IDX 31 34 32 35 90 36 33 37 89 38 34 39 35 40 36 41 83 42 37 43
REMARK SMILES IDX 88 44 82 45 84 46 38 47 87 48 81 49 80 50 39 52 69 53 50 54
REMARK SMILES IDX 68 55 51 56 54 57 67 58 85 59 52 60 53 61 66 63 86 64 55 65
REMARK SMILES IDX 40 66 41 67 49 68 42 69 48 70 43 71 44 72 45 73 46 74 47 75
REMARK SMILES IDX 70 76 71 77 79 78 72 79 78 80 73 81 74 82 75 83 76 84 77 85
REMARK SMILES IDX 56 86 57 87 65 88 58 89 64 90 59 91 60 92 61 93 62 94 63 95
REMARK H PARENT 84 51 54 62
REMARK Flexibility Score: inf
ROOT
ATOM      1  C   UNL     1      -3.543  -4.705   1.869  1.00  0.00     0.202 C 
ENDROOT
BRANCH   1   2
ATOM      2  O   UNL     1      -3.213  -3.751   0.866  1.00  0.00    -0.374 OA
BRANCH   2   3
ATOM      3  C   UNL     1      -2.269  -2.762   1.221  1.00  0.00     0.202 C 
BRANCH   3   4
ATOM      4  C   UNL     1      -2.563  -1.734   2.317  1.00  0.00     0.261 C 
BRANCH   4   5
ATOM      5  O   UNL     1      -3.932  -1.426   2.546  1.00  0.00    -0.460 OA
BRANCH   5   6
ATOM      6  C   UNL     1      -4.426  -0.160   2.445  1.00  0.00     0.338 C 
ATOM      7  O   UNL     1      -3.820   0.861   2.249  1.00  0.00    -0.246 OA
BRANCH   6   8
ATOM      8  C   UNL     1      -5.954  -0.280   2.360  1.00  0.00     0.087 C 
ATOM      9  C   UNL     1      -4.472  -0.388  -1.243  1.00  0.00     0.026 A 
ATOM     10  C   UNL     1      -4.926   0.492  -2.246  1.00  0.00     0.033 A 
ATOM     11  C   UNL     1      -5.365  -0.611  -0.172  1.00  0.00     0.135 A 
ATOM     12  C   UNL     1      -6.043   1.305  -2.042  1.00  0.00     0.042 A 
ATOM     13  C   UNL     1      -6.247   0.447   0.173  1.00  0.00     0.019 A 
ATOM     14  O   UNL     1      -5.393  -1.796   0.606  1.00  0.00    -0.475 OA
ATOM     15  Cl  UNL     1      -6.543   2.386  -3.281  1.00  0.00    -0.084 Cl
ATOM     16  C   UNL     1      -6.649   1.358  -0.793  1.00  0.00     0.032 A 
ATOM     17  C   UNL     1      -6.606   0.638   1.613  1.00  0.00     0.027 C 
ATOM     18  C   UNL     1      -6.275  -1.655   1.806  1.00  0.00     0.316 C 
BRANCH   9  19
ATOM     19  C   UNL     1      -2.975  -0.368  -1.104  1.00  0.00    -0.015 A 
ATOM     20  C   UNL     1       1.367   0.045  -0.691  1.00  0.00     0.044 C 
ATOM     21  C   UNL     1      -0.120  -0.066  -0.891  1.00  0.00    -0.051 A 
ATOM     22  C   UNL     1      -0.694  -1.117  -1.621  1.00  0.00     0.004 A 
ATOM     23  C   UNL     1      -0.977   0.856  -0.297  1.00  0.00     0.004 A 
ATOM     24  C   UNL     1      -2.100  -1.246  -1.757  1.00  0.00     0.009 A 
ATOM     25  C   UNL     1      -2.369   0.707  -0.408  1.00  0.00     0.009 A 
ENDBRANCH   9  19
BRANCH  18  26
ATOM     26  C   UNL     1      -6.377  -2.688   2.965  1.00  0.00     0.430 C 
ATOM     27  F   UNL     1      -7.333  -2.244   3.845  1.00  0.00    -0.167 F 
ATOM     28  F   UNL     1      -6.831  -3.884   2.521  1.00  0.00    -0.167 F 
ATOM     29  F   UNL     1      -5.293  -2.906   3.723  1.00  0.00    -0.167 F 
ENDBRANCH  18  26
ENDBRANCH   6   8
ENDBRANCH   5   6
ENDBRANCH   4   5
ENDBRANCH   3   4
ENDBRANCH   2   3
ENDBRANCH   1   2
BRANCH   1  30
ATOM     30  C   UNL     1      -2.405  -5.540   2.474  1.00  0.00     0.261 C 
BRANCH  30  31
ATOM     31  O   UNL     1      -1.493  -4.736   3.249  1.00  0.00    -0.460 OA
BRANCH  31  32
ATOM     32  C   UNL     1      -0.159  -5.000   3.119  1.00  0.00     0.338 C 
ATOM     33  O   UNL     1       0.385  -5.848   2.436  1.00  0.00    -0.246 OA
BRANCH  32  34
ATOM     34  C   UNL     1       0.524  -3.781   3.620  1.00  0.00     0.060 A 
ATOM     35  C   UNL     1       0.461  -3.422   4.965  1.00  0.00     0.016 A 
ATOM     36  C   UNL     1       0.808  -2.823   2.649  1.00  0.00     0.016 A 
ATOM     37  C   UNL     1       0.402  -2.068   5.301  1.00  0.00     0.010 A 
ATOM     38  C   UNL     1       0.616  -1.486   2.972  1.00  0.00     0.010 A 
ATOM     39  C   UNL     1       0.266  -1.119   4.277  1.00  0.00    -0.014 A 
BRANCH  39  40
ATOM     40  C   UNL     1      -0.628   0.052   4.468  1.00  0.00     0.031 A 
ATOM     41  C   UNL     1      -0.312   1.427   3.994  1.00  0.00     0.074 A 
ATOM     42  C   UNL     1      -1.899  -0.175   4.913  1.00  0.00     0.049 A 
ATOM     43  N   UNL     1      -0.883   2.477   4.483  1.00  0.00    -0.248 NA
ATOM     44  C   UNL     1       0.661   1.778   2.962  1.00  0.00     0.031 C 
ATOM     45  C   UNL     1      -3.027   0.758   4.948  1.00  0.00     0.029 A 
ATOM     46  N   UNL     1      -2.478  -1.331   5.428  1.00  0.00    -0.354 N 
ATOM     47  C   UNL     1      -0.684   3.521   3.613  1.00  0.00     0.074 A 
ATOM     48  C   UNL     1       0.405   3.082   2.777  1.00  0.00     0.031 C 
ATOM     49  C   UNL     1      -4.056   0.212   5.617  1.00  0.00     0.029 A 
ATOM     50  C   UNL     1      -3.597  -1.031   6.196  1.00  0.00     0.049 A 
ATOM     51  H   UNL     1      -2.138  -2.241   5.270  1.00  0.00     0.167 HD
ATOM     52  C   UNL     1      -1.545   4.584   3.631  1.00  0.00     0.031 A 
ATOM     53  C   UNL     1      -3.588  -1.295   7.533  1.00  0.00     0.031 A 
ATOM     54  C   UNL     1      -2.475   4.511   4.775  1.00  0.00     0.049 A 
ATOM     55  C   UNL     1      -3.295  -0.028   8.339  1.00  0.00     0.074 A 
ATOM     56  C   UNL     1      -3.850   4.437   4.922  1.00  0.00     0.029 A 
ATOM     57  N   UNL     1      -1.953   4.237   6.044  1.00  0.00    -0.354 N 
ATOM     58  N   UNL     1      -3.235   1.163   7.792  1.00  0.00    -0.248 NA
ATOM     59  C   UNL     1      -3.047   0.058   9.775  1.00  0.00     0.031 C 
ATOM     60  C   UNL     1      -4.127   3.959   6.246  1.00  0.00     0.029 A 
ATOM     61  C   UNL     1      -2.930   3.799   6.925  1.00  0.00     0.049 A 
ATOM     62  H   UNL     1      -1.004   4.342   6.283  1.00  0.00     0.167 HD
ATOM     63  C   UNL     1      -2.837   2.114   8.682  1.00  0.00     0.074 A 
ATOM     64  C   UNL     1      -2.789   1.375   9.935  1.00  0.00     0.031 C 
ATOM     65  C   UNL     1      -2.553   3.400   8.293  1.00  0.00     0.031 A 
BRANCH  52  66
ATOM     66  C   UNL     1      -1.623   5.633   2.526  1.00  0.00    -0.014 A 
ATOM     67  C   UNL     1      -2.406   6.797   2.684  1.00  0.00     0.010 A 
ATOM     68  C   UNL     1      -0.985   5.502   1.271  1.00  0.00     0.010 A 
ATOM     69  C   UNL     1      -2.502   7.783   1.677  1.00  0.00     0.020 A 
ATOM     70  C   UNL     1      -1.037   6.492   0.275  1.00  0.00     0.020 A 
ATOM     71  C   UNL     1      -1.799   7.633   0.481  1.00  0.00     0.054 A 
BRANCH  71  72
ATOM     72  S   UNL     1      -1.885   8.921  -0.797  1.00  0.00     0.124 S 
ATOM     73  O   UNL     1      -3.281   8.853  -1.220  1.00  0.00    -0.237 OA
ATOM     74  O   UNL     1      -1.506  10.126  -0.065  1.00  0.00    -0.237 OA
ATOM     75  O   UNL     1      -0.914   8.482  -1.800  1.00  0.00    -0.744 OA
ENDBRANCH  71  72
ENDBRANCH  52  66
BRANCH  53  76
ATOM     76  C   UNL     1      -3.397  -2.760   7.793  1.00  0.00    -0.014 A 
ATOM     77  C   UNL     1      -4.533  -3.563   7.517  1.00  0.00     0.010 A 
ATOM     78  C   UNL     1      -2.141  -3.398   7.767  1.00  0.00     0.010 A 
ATOM     79  C   UNL     1      -4.418  -4.894   7.085  1.00  0.00     0.020 A 
ATOM     80  C   UNL     1      -2.023  -4.742   7.339  1.00  0.00     0.020 A 
ATOM     81  C   UNL     1      -3.158  -5.468   6.960  1.00  0.00     0.054 A 
BRANCH  81  82
ATOM     82  S   UNL     1      -2.981  -7.079   6.121  1.00  0.00     0.124 S 
ATOM     83  O   UNL     1      -3.000  -8.015   7.239  1.00  0.00    -0.237 OA
ATOM     84  O   UNL     1      -4.146  -7.130   5.238  1.00  0.00    -0.237 OA
ATOM     85  O   UNL     1      -1.697  -6.949   5.435  1.00  0.00    -0.744 OA
ENDBRANCH  81  82
ENDBRANCH  53  76
BRANCH  65  86
ATOM     86  C   UNL     1      -1.888   4.453   9.163  1.00  0.00    -0.014 A 
ATOM     87  C   UNL     1      -1.129   4.173  10.309  1.00  0.00     0.010 A 
ATOM     88  C   UNL     1      -1.912   5.806   8.735  1.00  0.00     0.010 A 
ATOM     89  C   UNL     1      -0.472   5.192  11.017  1.00  0.00     0.020 A 
ATOM     90  C   UNL     1      -1.214   6.819   9.398  1.00  0.00     0.020 A 
ATOM     91  C   UNL     1      -0.517   6.508  10.556  1.00  0.00     0.054 A 
BRANCH  91  92
ATOM     92  S   UNL     1       0.396   7.799  11.438  1.00  0.00     0.124 S 
ATOM     93  O   UNL     1      -0.559   8.187  12.473  1.00  0.00    -0.237 OA
ATOM     94  O   UNL     1       1.583   7.092  11.915  1.00  0.00    -0.237 OA
ATOM     95  O   UNL     1       0.650   8.804  10.409  1.00  0.00    -0.744 OA
ENDBRANCH  91  92
ENDBRANCH  65  86
ENDBRANCH  39  40
ENDBRANCH  32  34
ENDBRANCH  31  32
ENDBRANCH  30  31
ENDBRANCH   1  30
TORSDOF 19
