REMARK SMILES C=C[C@@H](C)Oc1cnc2ccccc2c1C(=O)OCCOCCOC(=O)c1ccc(-c2c3nc(c(-c4ccc(S(=O)(=O)[O-])cc4)c4ccc([nH]4)c(-c4ccc(S(=O)(=O)[O-])cc4)c4nc(c(-c5ccc(S(=O)(=O)[O-])cc5)c5ccc2[nH]5)C=C4)C=C3)cc1
REMARK SMILES IDX 21 1 20 2 19 3 18 4 16 5 17 6 15 7 6 8 7 9 8 10 14 11 9 12
REMARK SMILES IDX 13 13 10 14 12 15 11 16 5 17 3 18 4 19 2 20 1 21 22 22 23 23
REMARK SMILES IDX 24 24 25 25 26 26 27 27 28 28 86 29 29 30 85 31 30 32 31 33
REMARK SMILES IDX 32 34 79 35 33 36 84 37 78 38 80 39 34 40 83 41 77 42 76 43
REMARK SMILES IDX 35 45 65 46 46 47 64 48 47 49 50 50 63 51 81 52 48 53 49 54
REMARK SMILES IDX 62 56 82 57 51 58 36 59 37 60 45 61 38 62 44 63 39 64 40 65
REMARK SMILES IDX 41 66 42 67 43 68 66 69 67 70 75 71 68 72 74 73 69 74 70 75
REMARK SMILES IDX 71 76 72 77 73 78 52 79 53 80 61 81 54 82 60 83 55 84 56 85
REMARK SMILES IDX 57 86 58 87 59 88
REMARK H PARENT 80 44 50 55
REMARK Flexibility Score: inf
ROOT
ATOM      1  O   UNL     1      -5.202  -1.364   3.238  1.00  0.00    -0.374 OA
ENDROOT
BRANCH   1   2
ATOM      2  C   UNL     1      -6.042  -2.501   3.021  1.00  0.00     0.202 C 
BRANCH   2   3
ATOM      3  C   UNL     1      -5.686  -3.365   1.811  1.00  0.00     0.261 C 
BRANCH   3   4
ATOM      4  O   UNL     1      -4.422  -4.011   2.032  1.00  0.00    -0.460 OA
BRANCH   4   5
ATOM      5  C   UNL     1      -3.598  -4.040   0.962  1.00  0.00     0.342 C 
ATOM      6  O   UNL     1      -3.887  -3.762  -0.193  1.00  0.00    -0.246 OA
BRANCH   5   7
ATOM      7  C   UNL     1      -2.228  -4.372   1.392  1.00  0.00     0.113 A 
ATOM      8  C   UNL     1      -1.232  -3.409   1.184  1.00  0.00     0.153 A 
ATOM      9  C   UNL     1       0.056  -3.778   1.512  1.00  0.00     0.159 A 
ATOM     10  N   UNL     1       0.407  -5.005   1.960  1.00  0.00    -0.252 NA
ATOM     11  C   UNL     1      -1.925  -5.641   1.953  1.00  0.00     0.018 A 
ATOM     12  C   UNL     1      -0.562  -5.903   2.196  1.00  0.00     0.071 A 
ATOM     13  C   UNL     1      -2.877  -6.636   2.297  1.00  0.00     0.011 A 
ATOM     14  C   UNL     1      -0.194  -7.133   2.723  1.00  0.00     0.029 A 
ATOM     15  C   UNL     1      -2.485  -7.847   2.866  1.00  0.00     0.001 A 
ATOM     16  C   UNL     1      -1.137  -8.103   3.066  1.00  0.00     0.002 A 
BRANCH   8  17
ATOM     17  O   UNL     1      -1.573  -2.110   0.934  1.00  0.00    -0.484 OA
BRANCH  17  18
ATOM     18  C   UNL     1      -1.099  -1.440  -0.248  1.00  0.00     0.192 C 
ATOM     19  C   UNL     1      -1.569  -2.096  -1.543  1.00  0.00     0.057 C 
BRANCH  18  20
ATOM     20  C   UNL     1       0.388  -1.176  -0.259  1.00  0.00     0.009 C 
ATOM     21  C   UNL     1       0.953   0.011   0.000  1.00  0.00     0.008 C 
ENDBRANCH  18  20
ENDBRANCH  17  18
ENDBRANCH   8  17
ENDBRANCH   5   7
ENDBRANCH   4   5
ENDBRANCH   3   4
ENDBRANCH   2   3
ENDBRANCH   1   2
BRANCH   1  22
ATOM     22  C   UNL     1      -3.873  -1.603   3.700  1.00  0.00     0.202 C 
BRANCH  22  23
ATOM     23  C   UNL     1      -3.705  -1.919   5.191  1.00  0.00     0.261 C 
BRANCH  23  24
ATOM     24  O   UNL     1      -4.386  -3.118   5.597  1.00  0.00    -0.460 OA
BRANCH  24  25
ATOM     25  C   UNL     1      -5.511  -2.901   6.321  1.00  0.00     0.338 C 
ATOM     26  O   UNL     1      -5.960  -1.821   6.676  1.00  0.00    -0.246 OA
BRANCH  25  27
ATOM     27  C   UNL     1      -6.257  -4.160   6.511  1.00  0.00     0.060 A 
ATOM     28  C   UNL     1      -7.626  -4.144   6.216  1.00  0.00     0.016 A 
ATOM     29  C   UNL     1      -5.663  -5.295   7.066  1.00  0.00     0.016 A 
ATOM     30  C   UNL     1      -8.423  -5.239   6.541  1.00  0.00     0.010 A 
ATOM     31  C   UNL     1      -6.466  -6.393   7.399  1.00  0.00     0.010 A 
ATOM     32  C   UNL     1      -7.856  -6.348   7.182  1.00  0.00    -0.014 A 
BRANCH  32  33
ATOM     33  C   UNL     1      -8.751  -7.363   7.789  1.00  0.00     0.031 A 
ATOM     34  C   UNL     1      -9.057  -7.273   9.260  1.00  0.00     0.074 A 
ATOM     35  C   UNL     1      -9.323  -8.320   7.039  1.00  0.00     0.049 A 
ATOM     36  N   UNL     1      -9.827  -8.034   9.995  1.00  0.00    -0.248 NA
ATOM     37  C   UNL     1      -8.409  -6.178  10.000  1.00  0.00     0.031 C 
ATOM     38  C   UNL     1      -9.136  -8.491   5.599  1.00  0.00     0.029 A 
ATOM     39  N   UNL     1     -10.183  -9.330   7.391  1.00  0.00    -0.354 N 
ATOM     40  C   UNL     1      -9.752  -7.514  11.283  1.00  0.00     0.074 A 
ATOM     41  C   UNL     1      -8.835  -6.396  11.234  1.00  0.00     0.031 C 
ATOM     42  C   UNL     1      -9.855  -9.552   5.191  1.00  0.00     0.029 A 
ATOM     43  C   UNL     1     -10.534 -10.144   6.343  1.00  0.00     0.049 A 
ATOM     44  H   UNL     1     -10.516  -9.459   8.309  1.00  0.00     0.167 HD
ATOM     45  C   UNL     1     -10.394  -7.922  12.404  1.00  0.00     0.031 A 
ATOM     46  C   UNL     1     -11.306 -11.248   6.315  1.00  0.00     0.031 A 
ATOM     47  C   UNL     1     -11.288  -9.048  12.458  1.00  0.00     0.049 A 
ATOM     48  C   UNL     1     -11.975 -11.717   7.580  1.00  0.00     0.074 A 
ATOM     49  C   UNL     1     -11.986  -9.544  13.545  1.00  0.00     0.029 A 
ATOM     50  N   UNL     1     -11.602  -9.858  11.377  1.00  0.00    -0.354 N 
ATOM     51  N   UNL     1     -11.908 -11.204   8.786  1.00  0.00    -0.248 NA
ATOM     52  C   UNL     1     -12.837 -12.902   7.475  1.00  0.00     0.031 C 
ATOM     53  C   UNL     1     -12.687 -10.683  13.130  1.00  0.00     0.029 A 
ATOM     54  C   UNL     1     -12.471 -10.861  11.773  1.00  0.00     0.049 A 
ATOM     55  H   UNL     1     -11.258  -9.737  10.462  1.00  0.00     0.167 HD
ATOM     56  C   UNL     1     -12.742 -11.986   9.578  1.00  0.00     0.074 A 
ATOM     57  C   UNL     1     -13.307 -13.002   8.712  1.00  0.00     0.031 C 
ATOM     58  C   UNL     1     -13.021 -11.869  10.901  1.00  0.00     0.031 A 
BRANCH  45  59
ATOM     59  C   UNL     1     -10.107  -7.158  13.670  1.00  0.00    -0.014 A 
ATOM     60  C   UNL     1     -10.576  -5.844  13.851  1.00  0.00     0.010 A 
ATOM     61  C   UNL     1      -9.344  -7.758  14.687  1.00  0.00     0.010 A 
ATOM     62  C   UNL     1     -10.234  -5.122  14.998  1.00  0.00     0.020 A 
ATOM     63  C   UNL     1      -9.023  -7.049  15.848  1.00  0.00     0.020 A 
ATOM     64  C   UNL     1      -9.448  -5.726  15.984  1.00  0.00     0.054 A 
BRANCH  64  65
ATOM     65  S   UNL     1      -8.996  -4.762  17.453  1.00  0.00     0.124 S 
ATOM     66  O   UNL     1      -7.955  -3.884  16.926  1.00  0.00    -0.237 OA
ATOM     67  O   UNL     1     -10.252  -4.105  17.807  1.00  0.00    -0.237 OA
ATOM     68  O   UNL     1      -8.537  -5.773  18.402  1.00  0.00    -0.744 OA
ENDBRANCH  64  65
ENDBRANCH  45  59
BRANCH  46  69
ATOM     69  C   UNL     1     -11.483 -11.982   5.034  1.00  0.00    -0.014 A 
ATOM     70  C   UNL     1     -12.698 -11.921   4.330  1.00  0.00     0.010 A 
ATOM     71  C   UNL     1     -10.411 -12.713   4.489  1.00  0.00     0.010 A 
ATOM     72  C   UNL     1     -12.836 -12.576   3.102  1.00  0.00     0.020 A 
ATOM     73  C   UNL     1     -10.538 -13.349   3.252  1.00  0.00     0.020 A 
ATOM     74  C   UNL     1     -11.753 -13.280   2.567  1.00  0.00     0.054 A 
BRANCH  74  75
ATOM     75  S   UNL     1     -11.925 -14.045   0.931  1.00  0.00     0.124 S 
ATOM     76  O   UNL     1     -12.754 -15.209   1.225  1.00  0.00    -0.237 OA
ATOM     77  O   UNL     1     -12.569 -12.988   0.155  1.00  0.00    -0.237 OA
ATOM     78  O   UNL     1     -10.546 -14.337   0.544  1.00  0.00    -0.744 OA
ENDBRANCH  74  75
ENDBRANCH  46  69
BRANCH  58  79
ATOM     79  C   UNL     1     -14.010 -12.840  11.491  1.00  0.00    -0.014 A 
ATOM     80  C   UNL     1     -13.673 -14.186  11.713  1.00  0.00     0.010 A 
ATOM     81  C   UNL     1     -15.284 -12.380  11.874  1.00  0.00     0.010 A 
ATOM     82  C   UNL     1     -14.605 -15.064  12.275  1.00  0.00     0.020 A 
ATOM     83  C   UNL     1     -16.209 -13.248  12.459  1.00  0.00     0.020 A 
ATOM     84  C   UNL     1     -15.869 -14.589  12.641  1.00  0.00     0.054 A 
BRANCH  84  85
ATOM     85  S   UNL     1     -17.052 -15.738  13.399  1.00  0.00     0.124 S 
ATOM     86  O   UNL     1     -17.503 -16.512  12.246  1.00  0.00    -0.237 OA
ATOM     87  O   UNL     1     -16.225 -16.465  14.360  1.00  0.00    -0.237 OA
ATOM     88  O   UNL     1     -18.057 -14.858  13.992  1.00  0.00    -0.744 OA
ENDBRANCH  84  85
ENDBRANCH  58  79
ENDBRANCH  32  33
ENDBRANCH  25  27
ENDBRANCH  24  25
ENDBRANCH  23  24
ENDBRANCH  22  23
ENDBRANCH   1  22
TORSDOF 20
