REMARK SMILES C[NH2+]CCC(=O)N1CC[C@@H](C(=O)OCCOCCOC(=O)c2ccc(-c3c4nc(c(-c5ccc(S(=O)(=O)[O-])cc5)c5ccc([nH]5)c(-c5ccc(S(=O)(=O)[O-])cc5)c5nc(c(-c6ccc(S(=O)(=O)[O-])cc6)c6ccc3[nH]6)C=C5)C=C4)cc2)[C@@H]1C
REMARK SMILES IDX 15 1 14 2 13 3 11 4 12 5 10 6 7 7 8 8 82 9 9 10 83 11 5 12
REMARK SMILES IDX 6 13 4 14 3 15 2 16 1 17 16 20 17 21 18 22 19 23 20 24 21 25
REMARK SMILES IDX 22 26 23 27 81 28 24 29 80 30 25 31 26 32 27 33 74 34 28 35
REMARK SMILES IDX 79 36 73 37 75 38 29 39 78 40 72 41 71 42 30 44 60 45 41 46
REMARK SMILES IDX 59 47 42 48 45 49 58 50 76 51 43 52 44 53 57 55 77 56 46 57
REMARK SMILES IDX 31 58 32 59 40 60 33 61 39 62 34 63 35 64 36 65 37 66 38 67
REMARK SMILES IDX 61 68 62 69 70 70 63 71 69 72 64 73 65 74 66 75 67 76 68 77
REMARK SMILES IDX 47 78 48 79 56 80 49 81 55 82 50 83 51 84 52 85 53 86 54 87
REMARK H PARENT 2 18 2 19 75 43 45 54
REMARK Flexibility Score: inf
ROOT
ATOM      1  C   UNL     1       4.605  -0.578   0.537  1.00  0.00     0.202 C 
ENDROOT
BRANCH   1   2
ATOM      2  C   UNL     1       4.593   0.713   1.357  1.00  0.00     0.261 C 
BRANCH   2   3
ATOM      3  O   UNL     1       3.552   1.605   0.908  1.00  0.00    -0.463 OA
BRANCH   3   4
ATOM      4  C   UNL     1       3.950   2.679   0.178  1.00  0.00     0.311 C 
ATOM      5  O   UNL     1       5.112   2.962  -0.084  1.00  0.00    -0.252 OA
BRANCH   4   6
ATOM      6  C   UNL     1       2.790   3.547  -0.261  1.00  0.00     0.123 C 
ATOM      7  N   UNL     1       0.404   3.483  -0.149  1.00  0.00    -0.339 N 
ATOM      8  C   UNL     1       0.852   4.707   0.481  1.00  0.00     0.121 C 
ATOM      9  C   UNL     1       1.540   2.791  -0.766  1.00  0.00     0.096 C 
ATOM     10  C   UNL     1       2.279   4.405   0.891  1.00  0.00     0.039 C 
ATOM     11  C   UNL     1       1.461   2.852  -2.294  1.00  0.00     0.032 C 
BRANCH   7  12
ATOM     12  C   UNL     1      -0.945   3.295  -0.356  1.00  0.00     0.228 C 
ATOM     13  O   UNL     1      -1.681   4.276  -0.518  1.00  0.00    -0.275 OA
BRANCH  12  14
ATOM     14  C   UNL     1      -1.587   1.935  -0.110  1.00  0.00     0.161 C 
BRANCH  14  15
ATOM     15  C   UNL     1      -1.302   0.739  -1.009  1.00  0.00     0.270 C 
BRANCH  15  16
ATOM     16  N   UNL     1      -0.129  -0.091  -0.752  1.00  0.00    -0.348 N 
ATOM     17  C   UNL     1       0.266  -0.195   0.643  1.00  0.00     0.330 C 
ATOM     18  H   UNL     1      -0.327  -1.032  -1.095  1.00  0.00     0.346 HD
ATOM     19  H   UNL     1       0.648   0.363  -1.232  1.00  0.00     0.346 HD
ENDBRANCH  15  16
ENDBRANCH  14  15
ENDBRANCH  12  14
ENDBRANCH   7  12
ENDBRANCH   4   6
ENDBRANCH   3   4
ENDBRANCH   2   3
ENDBRANCH   1   2
BRANCH   1  20
ATOM     20  O   UNL     1       5.046  -0.420  -0.812  1.00  0.00    -0.374 OA
BRANCH  20  21
ATOM     21  C   UNL     1       4.037  -0.083  -1.762  1.00  0.00     0.202 C 
BRANCH  21  22
ATOM     22  C   UNL     1       3.272  -1.271  -2.356  1.00  0.00     0.261 C 
BRANCH  22  23
ATOM     23  O   UNL     1       2.449  -1.911  -1.365  1.00  0.00    -0.460 OA
BRANCH  23  24
ATOM     24  C   UNL     1       2.953  -3.058  -0.849  1.00  0.00     0.338 C 
ATOM     25  O   UNL     1       3.968  -3.632  -1.212  1.00  0.00    -0.246 OA
BRANCH  24  26
ATOM     26  C   UNL     1       2.211  -3.444   0.373  1.00  0.00     0.060 A 
ATOM     27  C   UNL     1       2.960  -3.901   1.463  1.00  0.00     0.016 A 
ATOM     28  C   UNL     1       0.817  -3.386   0.464  1.00  0.00     0.016 A 
ATOM     29  C   UNL     1       2.320  -4.384   2.604  1.00  0.00     0.010 A 
ATOM     30  C   UNL     1       0.177  -3.827   1.630  1.00  0.00     0.010 A 
ATOM     31  C   UNL     1       0.920  -4.404   2.676  1.00  0.00    -0.014 A 
BRANCH  31  32
ATOM     32  C   UNL     1       0.259  -5.242   3.717  1.00  0.00     0.031 A 
ATOM     33  C   UNL     1      -0.399  -6.535   3.285  1.00  0.00     0.074 A 
ATOM     34  C   UNL     1       0.312  -4.927   5.027  1.00  0.00     0.049 A 
ATOM     35  N   UNL     1      -0.976  -7.456   4.014  1.00  0.00    -0.248 NA
ATOM     36  C   UNL     1      -0.414  -6.828   1.840  1.00  0.00     0.031 C 
ATOM     37  C   UNL     1       0.929  -3.727   5.592  1.00  0.00     0.029 A 
ATOM     38  N   UNL     1      -0.155  -5.607   6.128  1.00  0.00    -0.354 N 
ATOM     39  C   UNL     1      -1.437  -8.415   3.118  1.00  0.00     0.074 A 
ATOM     40  C   UNL     1      -1.114  -7.950   1.790  1.00  0.00     0.031 C 
ATOM     41  C   UNL     1       0.817  -3.764   6.933  1.00  0.00     0.029 A 
ATOM     42  C   UNL     1       0.098  -4.976   7.324  1.00  0.00     0.049 A 
ATOM     43  H   UNL     1      -0.628  -6.468   6.066  1.00  0.00     0.167 HD
ATOM     44  C   UNL     1      -2.057  -9.591   3.369  1.00  0.00     0.031 A 
ATOM     45  C   UNL     1      -0.214  -5.330   8.588  1.00  0.00     0.031 A 
ATOM     46  C   UNL     1      -2.351 -10.085   4.686  1.00  0.00     0.049 A 
ATOM     47  C   UNL     1      -0.926  -6.640   8.837  1.00  0.00     0.074 A 
ATOM     48  C   UNL     1      -2.931 -11.291   5.039  1.00  0.00     0.029 A 
ATOM     49  N   UNL     1      -2.089  -9.405   5.864  1.00  0.00    -0.354 N 
ATOM     50  N   UNL     1      -1.303  -7.555   7.976  1.00  0.00    -0.248 NA
ATOM     51  C   UNL     1      -1.233  -6.974  10.237  1.00  0.00     0.031 C 
ATOM     52  C   UNL     1      -3.080 -11.313   6.428  1.00  0.00     0.029 A 
ATOM     53  C   UNL     1      -2.519 -10.156   6.944  1.00  0.00     0.049 A 
ATOM     54  H   UNL     1      -1.660  -8.521   5.924  1.00  0.00     0.167 HD
ATOM     55  C   UNL     1      -1.845  -8.590   8.735  1.00  0.00     0.074 A 
ATOM     56  C   UNL     1      -1.732  -8.196  10.122  1.00  0.00     0.031 C 
ATOM     57  C   UNL     1      -2.384  -9.765   8.322  1.00  0.00     0.031 A 
BRANCH  44  58
ATOM     58  C   UNL     1      -2.482 -10.434   2.195  1.00  0.00    -0.014 A 
ATOM     59  C   UNL     1      -1.543 -11.125   1.409  1.00  0.00     0.010 A 
ATOM     60  C   UNL     1      -3.854 -10.604   1.935  1.00  0.00     0.010 A 
ATOM     61  C   UNL     1      -1.970 -11.964   0.376  1.00  0.00     0.020 A 
ATOM     62  C   UNL     1      -4.285 -11.465   0.923  1.00  0.00     0.020 A 
ATOM     63  C   UNL     1      -3.339 -12.136   0.146  1.00  0.00     0.054 A 
BRANCH  63  64
ATOM     64  S   UNL     1      -3.865 -13.296  -1.145  1.00  0.00     0.124 S 
ATOM     65  O   UNL     1      -3.483 -12.586  -2.363  1.00  0.00    -0.237 OA
ATOM     66  O   UNL     1      -3.078 -14.488  -0.840  1.00  0.00    -0.237 OA
ATOM     67  O   UNL     1      -5.303 -13.430  -0.928  1.00  0.00    -0.744 OA
ENDBRANCH  63  64
ENDBRANCH  44  58
BRANCH  45  68
ATOM     68  C   UNL     1       0.119  -4.436   9.737  1.00  0.00    -0.014 A 
ATOM     69  C   UNL     1       1.024  -4.840  10.737  1.00  0.00     0.010 A 
ATOM     70  C   UNL     1      -0.535  -3.197   9.876  1.00  0.00     0.010 A 
ATOM     71  C   UNL     1       1.224  -4.051  11.876  1.00  0.00     0.020 A 
ATOM     72  C   UNL     1      -0.309  -2.389  10.994  1.00  0.00     0.020 A 
ATOM     73  C   UNL     1       0.551  -2.833  11.999  1.00  0.00     0.054 A 
BRANCH  73  74
ATOM     74  S   UNL     1       0.818  -1.828  13.486  1.00  0.00     0.124 S 
ATOM     75  O   UNL     1       0.089  -2.584  14.499  1.00  0.00    -0.237 OA
ATOM     76  O   UNL     1       2.273  -1.834  13.614  1.00  0.00    -0.237 OA
ATOM     77  O   UNL     1       0.237  -0.534  13.131  1.00  0.00    -0.744 OA
ENDBRANCH  73  74
ENDBRANCH  45  68
BRANCH  57  78
ATOM     78  C   UNL     1      -2.820 -10.748   9.379  1.00  0.00    -0.014 A 
ATOM     79  C   UNL     1      -3.919 -10.499  10.219  1.00  0.00     0.010 A 
ATOM     80  C   UNL     1      -2.124 -11.965   9.509  1.00  0.00     0.010 A 
ATOM     81  C   UNL     1      -4.274 -11.419  11.211  1.00  0.00     0.020 A 
ATOM     82  C   UNL     1      -2.498 -12.904  10.473  1.00  0.00     0.020 A 
ATOM     83  C   UNL     1      -3.555 -12.613  11.336  1.00  0.00     0.054 A 
BRANCH  83  84
ATOM     84  S   UNL     1      -4.031 -13.790  12.631  1.00  0.00     0.124 S 
ATOM     85  O   UNL     1      -3.554 -13.121  13.838  1.00  0.00    -0.237 OA
ATOM     86  O   UNL     1      -5.483 -13.861  12.483  1.00  0.00    -0.237 OA
ATOM     87  O   UNL     1      -3.313 -15.011  12.271  1.00  0.00    -0.744 OA
ENDBRANCH  83  84
ENDBRANCH  57  78
ENDBRANCH  31  32
ENDBRANCH  24  26
ENDBRANCH  23  24
ENDBRANCH  22  23
ENDBRANCH  21  22
ENDBRANCH  20  21
ENDBRANCH   1  20
TORSDOF 21
