REMARK SMILES C[C@@H](C(=O)OCCOCCOC(=O)c1ccc(-c2c3nc(c(-c4ccc(S(=O)(=O)[O-])cc4)c4ccc([nH]4)c(-c4ccc(S(=O)(=O)[O-])cc4)c4nc(c(-c5ccc(S(=O)(=O)[O-])cc5)c5ccc2[nH]5)C=C4)C=C3)cc1)c1ccc(OC2CCCC2)cc1F
REMARK SMILES IDX 8 1 7 2 6 3 5 4 3 5 4 6 2 7 1 8 74 9 75 10 85 11 76 12 84 13
REMARK SMILES IDX 86 14 77 15 78 16 79 17 80 18 83 19 81 20 82 21 9 22 10 23
REMARK SMILES IDX 11 24 12 25 13 26 14 27 15 28 73 29 16 30 72 31 17 32 18 33
REMARK SMILES IDX 19 34 66 35 20 36 71 37 65 38 67 39 21 40 70 41 64 42 63 43
REMARK SMILES IDX 22 45 52 46 33 47 51 48 34 49 37 50 50 51 68 52 35 53 36 54
REMARK SMILES IDX 49 56 69 57 38 58 23 59 24 60 32 61 25 62 31 63 26 64 27 65
REMARK SMILES IDX 28 66 29 67 30 68 53 69 54 70 62 71 55 72 61 73 56 74 57 75
REMARK SMILES IDX 58 76 59 77 60 78 39 79 40 80 48 81 41 82 47 83 42 84 43 85
REMARK SMILES IDX 44 86 45 87 46 88
REMARK H PARENT 67 44 37 55
REMARK Flexibility Score: inf
ROOT
ATOM      1  O   UNL     1       0.694  -2.205   3.938  1.00  0.00    -0.374 OA
ENDROOT
BRANCH   1   2
ATOM      2  C   UNL     1       2.037  -2.656   3.793  1.00  0.00     0.202 C 
BRANCH   2   3
ATOM      3  C   UNL     1       2.483  -3.176   2.422  1.00  0.00     0.261 C 
BRANCH   3   4
ATOM      4  O   UNL     1       2.084  -2.325   1.336  1.00  0.00    -0.463 OA
BRANCH   4   5
ATOM      5  C   UNL     1       1.083  -2.836   0.564  1.00  0.00     0.313 C 
ATOM      6  O   UNL     1       0.644  -3.972   0.705  1.00  0.00    -0.252 OA
BRANCH   5   7
ATOM      7  C   UNL     1       0.531  -1.827  -0.470  1.00  0.00     0.129 C 
ATOM      8  C   UNL     1       1.281  -0.487  -0.476  1.00  0.00     0.025 C 
BRANCH   7   9
ATOM      9  C   UNL     1      -0.988  -1.702  -0.338  1.00  0.00     0.002 A 
ATOM     10  C   UNL     1      -1.667  -0.524   0.004  1.00  0.00     0.011 A 
ATOM     11  C   UNL     1      -1.769  -2.848  -0.528  1.00  0.00     0.130 A 
ATOM     12  C   UNL     1      -3.063  -0.526   0.172  1.00  0.00     0.047 A 
ATOM     13  C   UNL     1      -3.136  -2.870  -0.281  1.00  0.00     0.086 A 
ATOM     14  F   UNL     1      -1.210  -3.977  -0.984  1.00  0.00    -0.207 F 
ATOM     15  C   UNL     1      -3.808  -1.702   0.041  1.00  0.00     0.122 A 
BRANCH  15  16
ATOM     16  O   UNL     1      -5.154  -1.565   0.224  1.00  0.00    -0.490 OA
BRANCH  16  17
ATOM     17  C   UNL     1      -6.054  -2.669   0.130  1.00  0.00     0.173 C 
ATOM     18  C   UNL     1      -6.098  -3.412  -1.204  1.00  0.00     0.045 C 
ATOM     19  C   UNL     1      -5.906  -3.711   1.235  1.00  0.00     0.045 C 
ATOM     20  C   UNL     1      -6.587  -4.812  -0.864  1.00  0.00     0.004 C 
ATOM     21  C   UNL     1      -6.337  -5.039   0.625  1.00  0.00     0.004 C 
ENDBRANCH  16  17
ENDBRANCH  15  16
ENDBRANCH   7   9
ENDBRANCH   5   7
ENDBRANCH   4   5
ENDBRANCH   3   4
ENDBRANCH   2   3
ENDBRANCH   1   2
BRANCH   1  22
ATOM     22  C   UNL     1       0.334  -0.958   3.343  1.00  0.00     0.202 C 
BRANCH  22  23
ATOM     23  C   UNL     1       1.012   0.315   3.866  1.00  0.00     0.261 C 
BRANCH  23  24
ATOM     24  O   UNL     1       2.418   0.357   3.556  1.00  0.00    -0.460 OA
BRANCH  24  25
ATOM     25  C   UNL     1       3.232   0.449   4.635  1.00  0.00     0.338 C 
ATOM     26  O   UNL     1       2.893   0.581   5.805  1.00  0.00    -0.246 OA
BRANCH  25  27
ATOM     27  C   UNL     1       4.625   0.161   4.252  1.00  0.00     0.060 A 
ATOM     28  C   UNL     1       5.271  -0.897   4.905  1.00  0.00     0.016 A 
ATOM     29  C   UNL     1       5.319   0.965   3.346  1.00  0.00     0.016 A 
ATOM     30  C   UNL     1       6.628  -1.127   4.691  1.00  0.00     0.010 A 
ATOM     31  C   UNL     1       6.685   0.741   3.143  1.00  0.00     0.010 A 
ATOM     32  C   UNL     1       7.353  -0.281   3.842  1.00  0.00    -0.014 A 
BRANCH  32  33
ATOM     33  C   UNL     1       8.833  -0.374   3.817  1.00  0.00     0.031 A 
ATOM     34  C   UNL     1       9.638   0.588   4.649  1.00  0.00     0.074 A 
ATOM     35  C   UNL     1       9.452  -1.328   3.099  1.00  0.00     0.049 A 
ATOM     36  N   UNL     1      10.936   0.692   4.770  1.00  0.00    -0.248 NA
ATOM     37  C   UNL     1       8.877   1.559   5.453  1.00  0.00     0.031 C 
ATOM     38  C   UNL     1       8.782  -2.346   2.291  1.00  0.00     0.029 A 
ATOM     39  N   UNL     1      10.789  -1.591   2.934  1.00  0.00    -0.354 N 
ATOM     40  C   UNL     1      11.149   1.740   5.659  1.00  0.00     0.074 A 
ATOM     41  C   UNL     1       9.848   2.258   6.023  1.00  0.00     0.031 C 
ATOM     42  C   UNL     1       9.714  -3.121   1.708  1.00  0.00     0.029 A 
ATOM     43  C   UNL     1      11.043  -2.635   2.078  1.00  0.00     0.049 A 
ATOM     44  H   UNL     1      11.498  -1.081   3.388  1.00  0.00     0.167 HD
ATOM     45  C   UNL     1      12.321   2.224   6.135  1.00  0.00     0.031 A 
ATOM     46  C   UNL     1      12.213  -3.129   1.627  1.00  0.00     0.031 A 
ATOM     47  C   UNL     1      13.615   1.720   5.759  1.00  0.00     0.049 A 
ATOM     48  C   UNL     1      13.505  -2.528   2.112  1.00  0.00     0.074 A 
ATOM     49  C   UNL     1      14.861   2.142   6.189  1.00  0.00     0.029 A 
ATOM     50  N   UNL     1      13.830   0.687   4.860  1.00  0.00    -0.354 N 
ATOM     51  N   UNL     1      13.690  -1.547   2.964  1.00  0.00    -0.248 NA
ATOM     52  C   UNL     1      14.748  -3.106   1.581  1.00  0.00     0.031 C 
ATOM     53  C   UNL     1      15.832   1.398   5.509  1.00  0.00     0.029 A 
ATOM     54  C   UNL     1      15.189   0.473   4.701  1.00  0.00     0.049 A 
ATOM     55  H   UNL     1      13.121   0.180   4.401  1.00  0.00     0.167 HD
ATOM     56  C   UNL     1      15.068  -1.407   3.089  1.00  0.00     0.074 A 
ATOM     57  C   UNL     1      15.669  -2.412   2.236  1.00  0.00     0.031 C 
ATOM     58  C   UNL     1      15.773  -0.528   3.845  1.00  0.00     0.031 A 
BRANCH  45  59
ATOM     59  C   UNL     1      12.252   3.384   7.092  1.00  0.00    -0.014 A 
ATOM     60  C   UNL     1      11.794   3.214   8.411  1.00  0.00     0.010 A 
ATOM     61  C   UNL     1      12.676   4.659   6.673  1.00  0.00     0.010 A 
ATOM     62  C   UNL     1      11.722   4.306   9.281  1.00  0.00     0.020 A 
ATOM     63  C   UNL     1      12.630   5.748   7.548  1.00  0.00     0.020 A 
ATOM     64  C   UNL     1      12.136   5.568   8.841  1.00  0.00     0.054 A 
BRANCH  64  65
ATOM     65  S   UNL     1      12.043   6.966   9.993  1.00  0.00     0.124 S 
ATOM     66  O   UNL     1      10.606   7.224  10.037  1.00  0.00    -0.237 OA
ATOM     67  O   UNL     1      12.619   6.413  11.217  1.00  0.00    -0.237 OA
ATOM     68  O   UNL     1      12.842   8.003   9.345  1.00  0.00    -0.744 OA
ENDBRANCH  64  65
ENDBRANCH  45  59
BRANCH  46  69
ATOM     69  C   UNL     1      12.213  -4.244   0.640  1.00  0.00    -0.014 A 
ATOM     70  C   UNL     1      12.638  -5.532   1.007  1.00  0.00     0.010 A 
ATOM     71  C   UNL     1      11.774  -4.017  -0.678  1.00  0.00     0.010 A 
ATOM     72  C   UNL     1      12.636  -6.571   0.070  1.00  0.00     0.020 A 
ATOM     73  C   UNL     1      11.745  -5.058  -1.609  1.00  0.00     0.020 A 
ATOM     74  C   UNL     1      12.186  -6.327  -1.231  1.00  0.00     0.054 A 
BRANCH  74  75
ATOM     75  S   UNL     1      12.135  -7.703  -2.413  1.00  0.00     0.124 S 
ATOM     76  O   UNL     1      13.546  -7.872  -2.744  1.00  0.00    -0.237 OA
ATOM     77  O   UNL     1      11.536  -8.776  -1.623  1.00  0.00    -0.237 OA
ATOM     78  O   UNL     1      11.293  -7.192  -3.494  1.00  0.00    -0.744 OA
ENDBRANCH  74  75
ENDBRANCH  46  69
BRANCH  58  79
ATOM     79  C   UNL     1      17.275  -0.629   3.810  1.00  0.00    -0.014 A 
ATOM     80  C   UNL     1      18.009  -0.204   2.689  1.00  0.00     0.010 A 
ATOM     81  C   UNL     1      17.964  -1.103   4.941  1.00  0.00     0.010 A 
ATOM     82  C   UNL     1      19.405  -0.279   2.689  1.00  0.00     0.020 A 
ATOM     83  C   UNL     1      19.360  -1.155   4.955  1.00  0.00     0.020 A 
ATOM     84  C   UNL     1      20.072  -0.755   3.822  1.00  0.00     0.054 A 
BRANCH  84  85
ATOM     85  S   UNL     1      21.885  -0.802   3.815  1.00  0.00     0.124 S 
ATOM     86  O   UNL     1      22.156  -1.950   2.954  1.00  0.00    -0.237 OA
ATOM     87  O   UNL     1      22.239   0.501   3.256  1.00  0.00    -0.237 OA
ATOM     88  O   UNL     1      22.233  -0.983   5.223  1.00  0.00    -0.744 OA
ENDBRANCH  84  85
ENDBRANCH  58  79
ENDBRANCH  32  33
ENDBRANCH  25  27
ENDBRANCH  24  25
ENDBRANCH  23  24
ENDBRANCH  22  23
ENDBRANCH   1  22
TORSDOF 20
