REMARK SMILES COc1ncccc1NS(=O)(=O)c1ccc(C(=O)OCCOCCOC(=O)c2ccc(-c3c4nc(c(-c5ccc(S(=O)(=O)[O-])cc5)c5ccc([nH]5)c(-c5ccc(S(=O)(=O)[O-])cc5)c5nc(c(-c6ccc(S(=O)(=O)[O-])cc6)c6ccc3[nH]6)C=C5)C=C4)cc2)cc1
REMARK SMILES IDX 21 1 20 2 19 3 17 4 18 5 16 6 13 7 14 8 89 9 15 10 88 11
REMARK SMILES IDX 10 12 11 13 12 14 9 15 8 17 3 18 4 19 5 20 7 21 6 22 2 23
REMARK SMILES IDX 1 24 22 25 23 26 24 27 25 28 26 29 27 30 28 31 29 32 87 33
REMARK SMILES IDX 30 34 86 35 31 36 32 37 33 38 80 39 34 40 85 41 79 42 81 43
REMARK SMILES IDX 35 44 84 45 78 46 77 47 36 49 66 50 47 51 65 52 48 53 51 54
REMARK SMILES IDX 64 55 82 56 49 57 50 58 63 60 83 61 52 62 37 63 38 64 46 65
REMARK SMILES IDX 39 66 45 67 40 68 41 69 42 70 43 71 44 72 67 73 68 74 76 75
REMARK SMILES IDX 69 76 75 77 70 78 71 79 72 80 73 81 74 82 53 83 54 84 62 85
REMARK SMILES IDX 55 86 61 87 56 88 57 89 58 90 59 91 60 92
REMARK H PARENT 9 16 81 48 51 59
REMARK Flexibility Score: inf
ROOT
ATOM      1  C   UNL     1      -5.948  -0.916   2.922  1.00  0.00     0.202 C 
ENDROOT
BRANCH   1   2
ATOM      2  C   UNL     1      -5.422  -1.147   1.503  1.00  0.00     0.261 C 
BRANCH   2   3
ATOM      3  O   UNL     1      -3.995  -1.292   1.507  1.00  0.00    -0.460 OA
BRANCH   3   4
ATOM      4  C   UNL     1      -3.327  -0.329   0.830  1.00  0.00     0.338 C 
ATOM      5  O   UNL     1      -3.812   0.522   0.101  1.00  0.00    -0.246 OA
BRANCH   4   6
ATOM      6  C   UNL     1      -1.897  -0.315   1.229  1.00  0.00     0.060 A 
ATOM      7  C   UNL     1       0.854  -0.237   1.552  1.00  0.00     0.087 A 
ATOM      8  C   UNL     1       0.174   0.939   1.220  1.00  0.00     0.023 A 
ATOM      9  C   UNL     1       0.153  -1.391   1.927  1.00  0.00     0.023 A 
ATOM     10  C   UNL     1      -1.206   0.893   1.054  1.00  0.00     0.017 A 
ATOM     11  C   UNL     1      -1.232  -1.438   1.740  1.00  0.00     0.017 A 
BRANCH   7  12
ATOM     12  S   UNL     1       2.612  -0.317   1.328  1.00  0.00     0.262 S 
ATOM     13  O   UNL     1       3.176  -0.897   2.526  1.00  0.00    -0.201 OA
ATOM     14  O   UNL     1       3.048   0.987   0.864  1.00  0.00    -0.201 OA
BRANCH  12  15
ATOM     15  N   UNL     1       2.959  -1.328   0.015  1.00  0.00    -0.274 N 
ATOM     16  H   UNL     1       3.792  -1.170  -0.485  1.00  0.00     0.180 HD
BRANCH  15  17
ATOM     17  C   UNL     1       2.109  -2.401  -0.407  1.00  0.00     0.111 A 
ATOM     18  C   UNL     1       0.877  -2.214  -1.052  1.00  0.00     0.238 A 
ATOM     19  N   UNL     1       0.092  -3.216  -1.497  1.00  0.00    -0.220 NA
ATOM     20  C   UNL     1       0.578  -4.468  -1.372  1.00  0.00     0.115 A 
ATOM     21  C   UNL     1       2.601  -3.702  -0.348  1.00  0.00     0.034 A 
ATOM     22  C   UNL     1       1.823  -4.755  -0.833  1.00  0.00     0.023 A 
BRANCH  18  23
ATOM     23  O   UNL     1       0.310  -0.974  -1.141  1.00  0.00    -0.480 OA
ATOM     24  C   UNL     1       0.816  -0.207  -2.217  1.00  0.00     0.280 C 
ENDBRANCH  18  23
ENDBRANCH  15  17
ENDBRANCH  12  15
ENDBRANCH   7  12
ENDBRANCH   4   6
ENDBRANCH   3   4
ENDBRANCH   2   3
ENDBRANCH   1   2
BRANCH   1  25
ATOM     25  O   UNL     1      -5.547   0.276   3.599  1.00  0.00    -0.374 OA
BRANCH  25  26
ATOM     26  C   UNL     1      -4.192   0.400   4.019  1.00  0.00     0.202 C 
BRANCH  26  27
ATOM     27  C   UNL     1      -3.698  -0.448   5.200  1.00  0.00     0.261 C 
BRANCH  27  28
ATOM     28  O   UNL     1      -3.905  -1.859   5.037  1.00  0.00    -0.460 OA
BRANCH  28  29
ATOM     29  C   UNL     1      -4.925  -2.356   5.784  1.00  0.00     0.338 C 
ATOM     30  O   UNL     1      -5.628  -1.746   6.571  1.00  0.00    -0.246 OA
BRANCH  29  31
ATOM     31  C   UNL     1      -5.206  -3.748   5.388  1.00  0.00     0.060 A 
ATOM     32  C   UNL     1      -6.504  -4.048   4.956  1.00  0.00     0.016 A 
ATOM     33  C   UNL     1      -4.247  -4.753   5.516  1.00  0.00     0.016 A 
ATOM     34  C   UNL     1      -6.861  -5.367   4.687  1.00  0.00     0.010 A 
ATOM     35  C   UNL     1      -4.610  -6.078   5.255  1.00  0.00     0.010 A 
ATOM     36  C   UNL     1      -5.926  -6.394   4.870  1.00  0.00    -0.014 A 
BRANCH  36  37
ATOM     37  C   UNL     1      -6.369  -7.807   4.788  1.00  0.00     0.031 A 
ATOM     38  C   UNL     1      -6.622  -8.571   6.059  1.00  0.00     0.074 A 
ATOM     39  C   UNL     1      -6.572  -8.392   3.594  1.00  0.00     0.049 A 
ATOM     40  N   UNL     1      -6.989  -9.816   6.216  1.00  0.00    -0.248 NA
ATOM     41  C   UNL     1      -6.434  -7.833   7.319  1.00  0.00     0.031 C 
ATOM     42  C   UNL     1      -6.404  -7.742   2.294  1.00  0.00     0.029 A 
ATOM     43  N   UNL     1      -6.962  -9.671   3.283  1.00  0.00    -0.354 N 
ATOM     44  C   UNL     1      -7.068 -10.016   7.590  1.00  0.00     0.074 A 
ATOM     45  C   UNL     1      -6.681  -8.772   8.221  1.00  0.00     0.031 C 
ATOM     46  C   UNL     1      -6.687  -8.629   1.324  1.00  0.00     0.029 A 
ATOM     47  C   UNL     1      -7.019  -9.916   1.933  1.00  0.00     0.049 A 
ATOM     48  H   UNL     1      -7.181 -10.348   3.964  1.00  0.00     0.167 HD
ATOM     49  C   UNL     1      -7.434 -11.132   8.264  1.00  0.00     0.031 A 
ATOM     50  C   UNL     1      -7.286 -11.055   1.262  1.00  0.00     0.031 A 
ATOM     51  C   UNL     1      -7.806 -12.370   7.632  1.00  0.00     0.049 A 
ATOM     52  C   UNL     1      -7.616 -12.305   2.035  1.00  0.00     0.074 A 
ATOM     53  C   UNL     1      -8.211 -13.552   8.228  1.00  0.00     0.029 A 
ATOM     54  N   UNL     1      -7.811 -12.591   6.263  1.00  0.00    -0.354 N 
ATOM     55  N   UNL     1      -7.712 -12.471   3.333  1.00  0.00    -0.248 NA
ATOM     56  C   UNL     1      -7.881 -13.519   1.251  1.00  0.00     0.031 C 
ATOM     57  C   UNL     1      -8.399 -14.506   7.222  1.00  0.00     0.029 A 
ATOM     58  C   UNL     1      -8.178 -13.899   5.996  1.00  0.00     0.049 A 
ATOM     59  H   UNL     1      -7.586 -11.917   5.582  1.00  0.00     0.167 HD
ATOM     60  C   UNL     1      -8.073 -13.801   3.520  1.00  0.00     0.074 A 
ATOM     61  C   UNL     1      -8.194 -14.390   2.202  1.00  0.00     0.031 C 
ATOM     62  C   UNL     1      -8.288 -14.474   4.678  1.00  0.00     0.031 A 
BRANCH  49  63
ATOM     63  C   UNL     1      -7.414 -11.074   9.770  1.00  0.00    -0.014 A 
ATOM     64  C   UNL     1      -8.358 -10.318  10.487  1.00  0.00     0.010 A 
ATOM     65  C   UNL     1      -6.455 -11.820  10.480  1.00  0.00     0.010 A 
ATOM     66  C   UNL     1      -8.319 -10.278  11.884  1.00  0.00     0.020 A 
ATOM     67  C   UNL     1      -6.430 -11.805  11.877  1.00  0.00     0.020 A 
ATOM     68  C   UNL     1      -7.353 -11.020  12.570  1.00  0.00     0.054 A 
BRANCH  68  69
ATOM     69  S   UNL     1      -7.338 -10.965  14.383  1.00  0.00     0.124 S 
ATOM     70  O   UNL     1      -6.838  -9.616  14.639  1.00  0.00    -0.237 OA
ATOM     71  O   UNL     1      -8.742 -11.188  14.721  1.00  0.00    -0.237 OA
ATOM     72  O   UNL     1      -6.430 -12.046  14.756  1.00  0.00    -0.744 OA
ENDBRANCH  68  69
ENDBRANCH  49  63
BRANCH  50  73
ATOM     73  C   UNL     1      -7.229 -11.070  -0.225  1.00  0.00    -0.014 A 
ATOM     74  C   UNL     1      -8.399 -11.228  -0.989  1.00  0.00     0.010 A 
ATOM     75  C   UNL     1      -5.996 -10.921  -0.887  1.00  0.00     0.010 A 
ATOM     76  C   UNL     1      -8.334 -11.252  -2.386  1.00  0.00     0.020 A 
ATOM     77  C   UNL     1      -5.931 -10.915  -2.283  1.00  0.00     0.020 A 
ATOM     78  C   UNL     1      -7.101 -11.091  -3.024  1.00  0.00     0.054 A 
BRANCH  78  79
ATOM     79  S   UNL     1      -7.048 -11.070  -4.837  1.00  0.00     0.124 S 
ATOM     80  O   UNL     1      -7.285 -12.473  -5.164  1.00  0.00    -0.237 OA
ATOM     81  O   UNL     1      -8.130 -10.149  -5.173  1.00  0.00    -0.237 OA
ATOM     82  O   UNL     1      -5.705 -10.576  -5.134  1.00  0.00    -0.744 OA
ENDBRANCH  78  79
ENDBRANCH  50  73
BRANCH  62  83
ATOM     83  C   UNL     1      -8.705 -15.919   4.576  1.00  0.00    -0.014 A 
ATOM     84  C   UNL     1      -7.799 -16.915   4.172  1.00  0.00     0.010 A 
ATOM     85  C   UNL     1     -10.011 -16.292   4.947  1.00  0.00     0.010 A 
ATOM     86  C   UNL     1      -8.200 -18.253   4.109  1.00  0.00     0.020 A 
ATOM     87  C   UNL     1     -10.407 -17.632   4.914  1.00  0.00     0.020 A 
ATOM     88  C   UNL     1      -9.502 -18.602   4.481  1.00  0.00     0.054 A 
BRANCH  88  89
ATOM     89  S   UNL     1      -9.983 -20.351   4.432  1.00  0.00     0.124 S 
ATOM     90  O   UNL     1     -10.092 -20.596   2.996  1.00  0.00    -0.237 OA
ATOM     91  O   UNL     1      -8.864 -21.010   5.099  1.00  0.00    -0.237 OA
ATOM     92  O   UNL     1     -11.246 -20.384   5.167  1.00  0.00    -0.744 OA
ENDBRANCH  88  89
ENDBRANCH  62  83
ENDBRANCH  36  37
ENDBRANCH  29  31
ENDBRANCH  28  29
ENDBRANCH  27  28
ENDBRANCH  26  27
ENDBRANCH  25  26
ENDBRANCH   1  25
TORSDOF 21
