REMARK SMILES CC[C@@H](C)CNC(=O)N1CCO[C@@H](CC(=O)OCCOCCOC(=O)c2ccc(-c3c4nc(c(-c5ccc(S(=O)(=O)[O-])cc5)c5ccc([nH]5)c(-c5ccc(S(=O)(=O)[O-])cc5)c5nc(c(-c6ccc(S(=O)(=O)[O-])cc6)c6ccc3[nH]6)C=C5)C=C4)cc2)C1
REMARK SMILES IDX 19 1 18 2 17 3 15 4 16 5 14 6 13 7 9 8 10 9 86 10 11 11
REMARK SMILES IDX 12 12 7 13 6 14 8 16 5 17 3 18 4 19 2 20 1 21 20 22 21 23
REMARK SMILES IDX 22 24 23 25 24 26 25 27 26 28 27 29 85 30 28 31 84 32 29 33
REMARK SMILES IDX 30 34 31 35 78 36 32 37 83 38 77 39 79 40 33 41 82 42 76 43
REMARK SMILES IDX 75 44 34 46 64 47 45 48 63 49 46 50 49 51 62 52 80 53 47 54
REMARK SMILES IDX 48 55 61 57 81 58 50 59 35 60 36 61 44 62 37 63 43 64 38 65
REMARK SMILES IDX 39 66 40 67 41 68 42 69 65 70 66 71 74 72 67 73 73 74 68 75
REMARK SMILES IDX 69 76 70 77 71 78 72 79 51 80 52 81 60 82 53 83 59 84 54 85
REMARK SMILES IDX 55 86 56 87 57 88 58 89
REMARK H PARENT 6 15 79 45 49 56
REMARK Flexibility Score: inf
ROOT
ATOM      1  C   UNL     1       7.602   0.911  -5.352  1.00  0.00     0.202 C 
ENDROOT
BRANCH   1   2
ATOM      2  C   UNL     1       7.638   0.372  -6.784  1.00  0.00     0.261 C 
BRANCH   2   3
ATOM      3  O   UNL     1       6.435  -0.349  -7.115  1.00  0.00    -0.463 OA
BRANCH   3   4
ATOM      4  C   UNL     1       6.559  -1.692  -7.249  1.00  0.00     0.308 C 
ATOM      5  O   UNL     1       7.603  -2.320  -7.121  1.00  0.00    -0.252 OA
BRANCH   4   6
ATOM      6  C   UNL     1       5.260  -2.346  -7.639  1.00  0.00     0.156 C 
BRANCH   6   7
ATOM      7  C   UNL     1       4.045  -2.074  -6.750  1.00  0.00     0.149 C 
ATOM      8  N   UNL     1       2.123  -0.586  -6.279  1.00  0.00    -0.320 N 
ATOM      9  C   UNL     1       1.211  -1.626  -6.731  1.00  0.00     0.150 C 
ATOM     10  C   UNL     1       3.435  -0.660  -6.934  1.00  0.00     0.154 C 
ATOM     11  C   UNL     1       1.837  -2.975  -6.406  1.00  0.00     0.182 C 
ATOM     12  O   UNL     1       3.087  -3.114  -7.098  1.00  0.00    -0.374 OA
BRANCH   8  13
ATOM     13  C   UNL     1       1.739   0.559  -5.655  1.00  0.00     0.317 C 
ATOM     14  N   UNL     1       0.851   0.520  -4.631  1.00  0.00    -0.338 N 
ATOM     15  H   UNL     1       0.503   1.404  -4.373  1.00  0.00     0.165 HD
ATOM     16  O   UNL     1       2.216   1.651  -5.957  1.00  0.00    -0.249 OA
BRANCH  14  17
ATOM     17  C   UNL     1       0.315  -0.576  -3.843  1.00  0.00     0.121 C 
BRANCH  17  18
ATOM     18  C   UNL     1       0.974  -0.738  -2.458  1.00  0.00     0.005 C 
ATOM     19  C   UNL     1       0.622  -2.132  -1.919  1.00  0.00     0.009 C 
BRANCH  18  20
ATOM     20  C   UNL     1       0.527   0.378  -1.492  1.00  0.00     0.002 C 
ATOM     21  C   UNL     1       1.075   0.229  -0.078  1.00  0.00     0.004 C 
ENDBRANCH  18  20
ENDBRANCH  17  18
ENDBRANCH  14  17
ENDBRANCH   8  13
ENDBRANCH   6   7
ENDBRANCH   4   6
ENDBRANCH   3   4
ENDBRANCH   2   3
ENDBRANCH   1   2
BRANCH   1  22
ATOM     22  O   UNL     1       7.681  -0.062  -4.309  1.00  0.00    -0.374 OA
BRANCH  22  23
ATOM     23  C   UNL     1       6.473  -0.747  -3.983  1.00  0.00     0.202 C 
BRANCH  23  24
ATOM     24  C   UNL     1       5.477   0.006  -3.092  1.00  0.00     0.261 C 
BRANCH  24  25
ATOM     25  O   UNL     1       4.944   1.177  -3.734  1.00  0.00    -0.460 OA
BRANCH  25  26
ATOM     26  C   UNL     1       5.380   2.361  -3.236  1.00  0.00     0.338 C 
ATOM     27  O   UNL     1       6.102   2.527  -2.263  1.00  0.00    -0.246 OA
BRANCH  26  28
ATOM     28  C   UNL     1       5.010   3.455  -4.152  1.00  0.00     0.060 A 
ATOM     29  C   UNL     1       6.030   4.249  -4.690  1.00  0.00     0.016 A 
ATOM     30  C   UNL     1       3.678   3.721  -4.461  1.00  0.00     0.016 A 
ATOM     31  C   UNL     1       5.715   5.314  -5.537  1.00  0.00     0.010 A 
ATOM     32  C   UNL     1       3.365   4.775  -5.324  1.00  0.00     0.010 A 
ATOM     33  C   UNL     1       4.378   5.596  -5.848  1.00  0.00    -0.014 A 
BRANCH  33  34
ATOM     34  C   UNL     1       4.020   6.805  -6.632  1.00  0.00     0.031 A 
ATOM     35  C   UNL     1       3.403   7.982  -5.926  1.00  0.00     0.074 A 
ATOM     36  C   UNL     1       4.237   6.858  -7.959  1.00  0.00     0.049 A 
ATOM     37  N   UNL     1       2.976   9.116  -6.420  1.00  0.00    -0.248 NA
ATOM     38  C   UNL     1       3.240   7.860  -4.469  1.00  0.00     0.031 C 
ATOM     39  C   UNL     1       4.855   5.801  -8.758  1.00  0.00     0.029 A 
ATOM     40  N   UNL     1       3.955   7.847  -8.870  1.00  0.00    -0.354 N 
ATOM     41  C   UNL     1       2.480   9.836  -5.339  1.00  0.00     0.074 A 
ATOM     42  C   UNL     1       2.628   8.996  -4.170  1.00  0.00     0.031 C 
ATOM     43  C   UNL     1       4.915   6.202 -10.040  1.00  0.00     0.029 A 
ATOM     44  C   UNL     1       4.298   7.522 -10.161  1.00  0.00     0.049 A 
ATOM     45  H   UNL     1       3.545   8.707  -8.622  1.00  0.00     0.167 HD
ATOM     46  C   UNL     1       1.955  11.085  -5.318  1.00  0.00     0.031 A 
ATOM     47  C   UNL     1       4.117   8.199 -11.312  1.00  0.00     0.031 A 
ATOM     48  C   UNL     1       1.791  11.911  -6.485  1.00  0.00     0.049 A 
ATOM     49  C   UNL     1       3.444   9.546 -11.281  1.00  0.00     0.074 A 
ATOM     50  C   UNL     1       1.300  13.202  -6.564  1.00  0.00     0.029 A 
ATOM     51  N   UNL     1       2.093  11.518  -7.781  1.00  0.00    -0.354 N 
ATOM     52  N   UNL     1       3.021  10.233 -10.246  1.00  0.00    -0.248 NA
ATOM     53  C   UNL     1       3.217  10.205 -12.575  1.00  0.00     0.031 C 
ATOM     54  C   UNL     1       1.241  13.565  -7.914  1.00  0.00     0.029 A 
ATOM     55  C   UNL     1       1.755  12.524  -8.672  1.00  0.00     0.049 A 
ATOM     56  H   UNL     1       2.489  10.652  -8.031  1.00  0.00     0.167 HD
ATOM     57  C   UNL     1       2.490  11.410 -10.763  1.00  0.00     0.074 A 
ATOM     58  C   UNL     1       2.662  11.351 -12.200  1.00  0.00     0.031 C 
ATOM     59  C   UNL     1       1.911  12.446 -10.104  1.00  0.00     0.031 A 
BRANCH  46  60
ATOM     60  C   UNL     1       1.477  11.607  -3.987  1.00  0.00    -0.014 A 
ATOM     61  C   UNL     1       2.379  11.912  -2.951  1.00  0.00     0.010 A 
ATOM     62  C   UNL     1       0.099  11.788  -3.766  1.00  0.00     0.010 A 
ATOM     63  C   UNL     1       1.909  12.322  -1.700  1.00  0.00     0.020 A 
ATOM     64  C   UNL     1      -0.373  12.229  -2.527  1.00  0.00     0.020 A 
ATOM     65  C   UNL     1       0.534  12.467  -1.493  1.00  0.00     0.054 A 
BRANCH  65  66
ATOM     66  S   UNL     1      -0.051  12.975   0.147  1.00  0.00     0.124 S 
ATOM     67  O   UNL     1       0.170  11.764   0.933  1.00  0.00    -0.237 OA
ATOM     68  O   UNL     1       0.825  14.099   0.467  1.00  0.00    -0.237 OA
ATOM     69  O   UNL     1      -1.452  13.324  -0.076  1.00  0.00    -0.744 OA
ENDBRANCH  65  66
ENDBRANCH  46  60
BRANCH  47  70
ATOM     70  C   UNL     1       4.578   7.604 -12.597  1.00  0.00    -0.014 A 
ATOM     71  C   UNL     1       5.687   8.140 -13.272  1.00  0.00     0.010 A 
ATOM     72  C   UNL     1       3.933   6.472 -13.131  1.00  0.00     0.010 A 
ATOM     73  C   UNL     1       6.150   7.551 -14.453  1.00  0.00     0.020 A 
ATOM     74  C   UNL     1       4.409   5.865 -14.297  1.00  0.00     0.020 A 
ATOM     75  C   UNL     1       5.515   6.410 -14.951  1.00  0.00     0.054 A 
BRANCH  75  76
ATOM     76  S   UNL     1       6.196   5.609 -16.431  1.00  0.00     0.124 S 
ATOM     77  O   UNL     1       5.848   6.561 -17.481  1.00  0.00    -0.237 OA
ATOM     78  O   UNL     1       7.617   5.513 -16.109  1.00  0.00    -0.237 OA
ATOM     79  O   UNL     1       5.489   4.331 -16.485  1.00  0.00    -0.744 OA
ENDBRANCH  75  76
ENDBRANCH  47  70
BRANCH  59  80
ATOM     80  C   UNL     1       1.414  13.606 -10.928  1.00  0.00    -0.014 A 
ATOM     81  C   UNL     1       0.259  13.488 -11.721  1.00  0.00     0.010 A 
ATOM     82  C   UNL     1       2.068  14.849 -10.854  1.00  0.00     0.010 A 
ATOM     83  C   UNL     1      -0.223  14.587 -12.438  1.00  0.00     0.020 A 
ATOM     84  C   UNL     1       1.574  15.958 -11.547  1.00  0.00     0.020 A 
ATOM     85  C   UNL     1       0.435  15.817 -12.343  1.00  0.00     0.054 A 
BRANCH  85  86
ATOM     86  S   UNL     1      -0.249  17.242 -13.233  1.00  0.00     0.124 S 
ATOM     87  O   UNL     1       0.061  16.912 -14.621  1.00  0.00    -0.237 OA
ATOM     88  O   UNL     1      -1.665  17.193 -12.876  1.00  0.00    -0.237 OA
ATOM     89  O   UNL     1       0.486  18.380 -12.685  1.00  0.00    -0.744 OA
ENDBRANCH  85  86
ENDBRANCH  59  80
ENDBRANCH  33  34
ENDBRANCH  26  28
ENDBRANCH  25  26
ENDBRANCH  24  25
ENDBRANCH  23  24
ENDBRANCH  22  23
ENDBRANCH   1  22
TORSDOF 22
