REMARK SMILES O=C(OCCOCCOC(=O)[C@H]1O[C@@H](Oc2c(-c3cc(O)c(O)c(O)c3)oc3cc(O)cc(O)c3c2=O)[C@H](O)[C@@H](O)[C@@H]1O)c1ccc(-c2c3nc(c(-c4ccc(S(=O)(=O)[O-])cc4)c4ccc([nH]4)c(-c4ccc(S(=O)(=O)[O-])cc4)c4nc(c(-c5ccc(S(=O)(=O)[O-])cc5)c5ccc2[nH]5)C=C4)C=C3)cc1
REMARK SMILES IDX 7 1 6 2 5 3 4 4 3 5 2 6 1 7 44 8 45 9 103 10 46 11 102 12
REMARK SMILES IDX 47 13 48 14 49 15 96 16 50 17 101 18 95 19 97 20 51 21
REMARK SMILES IDX 100 22 94 23 93 24 52 26 82 27 63 28 81 29 64 30 67 31 80 32
REMARK SMILES IDX 98 33 65 34 66 35 79 37 99 38 68 39 53 40 54 41 62 42 55 43
REMARK SMILES IDX 61 44 56 45 57 46 58 47 59 48 60 49 83 50 84 51 92 52 85 53
REMARK SMILES IDX 91 54 86 55 87 56 88 57 89 58 90 59 69 60 70 61 78 62 71 63
REMARK SMILES IDX 77 64 72 65 73 66 74 67 75 68 76 69 8 70 9 71 10 72 11 73
REMARK SMILES IDX 12 74 13 75 42 76 14 77 40 78 38 79 43 80 15 82 16 83 17 84
REMARK SMILES IDX 36 85 27 86 35 87 37 88 28 89 33 90 29 91 32 92 30 93 18 94
REMARK SMILES IDX 19 95 26 96 20 97 24 98 22 99 21 100 25 102 23 104 34 106
REMARK SMILES IDX 31 108 41 110 39 112
REMARK H PARENT 97 25 67 36 43 81 21 101 25 103 23 105 34 107 31 109 41 111
REMARK H PARENT 39 113
REMARK Flexibility Score: inf
ROOT
ATOM      1  C   UNL     1       5.030   2.978  -4.388  1.00  0.00     0.202 C 
ENDROOT
BRANCH   1   2
ATOM      2  O   UNL     1       4.584   2.237  -3.240  1.00  0.00    -0.374 OA
BRANCH   2   3
ATOM      3  C   UNL     1       5.617   1.707  -2.397  1.00  0.00     0.202 C 
BRANCH   3   4
ATOM      4  C   UNL     1       6.414   0.504  -2.920  1.00  0.00     0.261 C 
BRANCH   4   5
ATOM      5  O   UNL     1       6.936   0.753  -4.237  1.00  0.00    -0.460 OA
BRANCH   5   6
ATOM      6  C   UNL     1       6.452   0.311  -5.422  1.00  0.00     0.338 C 
ATOM      7  O   UNL     1       7.058   0.589  -6.456  1.00  0.00    -0.246 OA
BRANCH   6   8
ATOM      8  C   UNL     1       5.192  -0.480  -5.534  1.00  0.00     0.060 A 
ATOM      9  C   UNL     1       4.145  -0.416  -4.617  1.00  0.00     0.016 A 
ATOM     10  C   UNL     1       5.017  -1.276  -6.676  1.00  0.00     0.016 A 
ATOM     11  C   UNL     1       3.008  -1.179  -4.753  1.00  0.00     0.010 A 
ATOM     12  C   UNL     1       3.838  -2.006  -6.863  1.00  0.00     0.010 A 
ATOM     13  C   UNL     1       2.841  -1.967  -5.883  1.00  0.00    -0.014 A 
BRANCH  13  14
ATOM     14  C   UNL     1       1.638  -2.809  -5.898  1.00  0.00     0.031 A 
ATOM     15  C   UNL     1       1.797  -4.261  -5.582  1.00  0.00     0.074 A 
ATOM     16  C   UNL     1       0.434  -2.208  -5.952  1.00  0.00     0.049 A 
ATOM     17  N   UNL     1       0.881  -5.183  -5.479  1.00  0.00    -0.248 NA
ATOM     18  C   UNL     1       3.168  -4.737  -5.319  1.00  0.00     0.031 C 
ATOM     19  C   UNL     1       0.219  -0.761  -6.092  1.00  0.00     0.029 A 
ATOM     20  N   UNL     1      -0.828  -2.718  -5.829  1.00  0.00    -0.354 N 
ATOM     21  C   UNL     1       1.564  -6.349  -5.161  1.00  0.00     0.074 A 
ATOM     22  C   UNL     1       2.970  -6.027  -5.099  1.00  0.00     0.031 C 
ATOM     23  C   UNL     1      -1.095  -0.501  -6.009  1.00  0.00     0.029 A 
ATOM     24  C   UNL     1      -1.814  -1.762  -5.896  1.00  0.00     0.049 A 
ATOM     25  H   UNL     1      -1.012  -3.677  -5.704  1.00  0.00     0.167 HD
ATOM     26  C   UNL     1       1.048  -7.579  -4.944  1.00  0.00     0.031 A 
ATOM     27  C   UNL     1      -3.152  -1.907  -5.908  1.00  0.00     0.031 A 
ATOM     28  C   UNL     1      -0.359  -7.856  -5.033  1.00  0.00     0.049 A 
ATOM     29  C   UNL     1      -3.691  -3.306  -5.796  1.00  0.00     0.074 A 
ATOM     30  C   UNL     1      -1.010  -9.070  -4.946  1.00  0.00     0.029 A 
ATOM     31  N   UNL     1      -1.335  -6.885  -5.224  1.00  0.00    -0.354 N 
ATOM     32  N   UNL     1      -3.032  -4.427  -5.604  1.00  0.00    -0.248 NA
ATOM     33  C   UNL     1      -5.143  -3.468  -5.913  1.00  0.00     0.031 C 
ATOM     34  C   UNL     1      -2.377  -8.838  -5.136  1.00  0.00     0.029 A 
ATOM     35  C   UNL     1      -2.584  -7.473  -5.272  1.00  0.00     0.049 A 
ATOM     36  H   UNL     1      -1.161  -5.920  -5.311  1.00  0.00     0.167 HD
ATOM     37  C   UNL     1      -3.991  -5.429  -5.567  1.00  0.00     0.074 A 
ATOM     38  C   UNL     1      -5.277  -4.773  -5.720  1.00  0.00     0.031 C 
ATOM     39  C   UNL     1      -3.834  -6.770  -5.431  1.00  0.00     0.031 A 
BRANCH  26  40
ATOM     40  C   UNL     1       2.019  -8.694  -4.678  1.00  0.00    -0.014 A 
ATOM     41  C   UNL     1       2.714  -8.790  -3.459  1.00  0.00     0.010 A 
ATOM     42  C   UNL     1       2.261  -9.650  -5.681  1.00  0.00     0.010 A 
ATOM     43  C   UNL     1       3.655  -9.804  -3.259  1.00  0.00     0.020 A 
ATOM     44  C   UNL     1       3.183 -10.680  -5.476  1.00  0.00     0.020 A 
ATOM     45  C   UNL     1       3.884 -10.742  -4.271  1.00  0.00     0.054 A 
BRANCH  45  46
ATOM     46  S   UNL     1       5.096 -12.060  -3.977  1.00  0.00     0.124 S 
ATOM     47  O   UNL     1       6.357 -11.325  -4.014  1.00  0.00    -0.237 OA
ATOM     48  O   UNL     1       4.703 -12.568  -2.666  1.00  0.00    -0.237 OA
ATOM     49  O   UNL     1       4.882 -12.983  -5.090  1.00  0.00    -0.744 OA
ENDBRANCH  45  46
ENDBRANCH  26  40
BRANCH  27  50
ATOM     50  C   UNL     1      -4.042  -0.731  -6.133  1.00  0.00    -0.014 A 
ATOM     51  C   UNL     1      -4.995  -0.332  -5.181  1.00  0.00     0.010 A 
ATOM     52  C   UNL     1      -3.952  -0.012  -7.342  1.00  0.00     0.010 A 
ATOM     53  C   UNL     1      -5.861   0.736  -5.448  1.00  0.00     0.020 A 
ATOM     54  C   UNL     1      -4.788   1.077  -7.598  1.00  0.00     0.020 A 
ATOM     55  C   UNL     1      -5.755   1.431  -6.657  1.00  0.00     0.054 A 
BRANCH  55  56
ATOM     56  S   UNL     1      -6.885   2.812  -6.986  1.00  0.00     0.124 S 
ATOM     57  O   UNL     1      -8.146   2.118  -7.232  1.00  0.00    -0.237 OA
ATOM     58  O   UNL     1      -6.816   3.580  -5.746  1.00  0.00    -0.237 OA
ATOM     59  O   UNL     1      -6.295   3.468  -8.151  1.00  0.00    -0.744 OA
ENDBRANCH  55  56
ENDBRANCH  27  50
BRANCH  39  60
ATOM     60  C   UNL     1      -5.090  -7.593  -5.413  1.00  0.00    -0.014 A 
ATOM     61  C   UNL     1      -5.851  -7.785  -6.580  1.00  0.00     0.010 A 
ATOM     62  C   UNL     1      -5.488  -8.213  -4.215  1.00  0.00     0.010 A 
ATOM     63  C   UNL     1      -7.018  -8.547  -6.536  1.00  0.00     0.020 A 
ATOM     64  C   UNL     1      -6.635  -9.004  -4.178  1.00  0.00     0.020 A 
ATOM     65  C   UNL     1      -7.403  -9.150  -5.335  1.00  0.00     0.054 A 
BRANCH  65  66
ATOM     66  S   UNL     1      -8.908 -10.158  -5.311  1.00  0.00     0.124 S 
ATOM     67  O   UNL     1      -9.954  -9.141  -5.368  1.00  0.00    -0.237 OA
ATOM     68  O   UNL     1      -8.762 -10.979  -6.511  1.00  0.00    -0.237 OA
ATOM     69  O   UNL     1      -8.815 -10.888  -4.049  1.00  0.00    -0.744 OA
ENDBRANCH  65  66
ENDBRANCH  39  60
ENDBRANCH  13  14
ENDBRANCH   6   8
ENDBRANCH   5   6
ENDBRANCH   4   5
ENDBRANCH   3   4
ENDBRANCH   2   3
ENDBRANCH   1   2
BRANCH   1  70
ATOM     70  C   UNL     1       4.214   4.262  -4.532  1.00  0.00     0.261 C 
BRANCH  70  71
ATOM     71  O   UNL     1       4.515   5.069  -3.390  1.00  0.00    -0.461 OA
BRANCH  71  72
ATOM     72  C   UNL     1       3.761   4.732  -2.321  1.00  0.00     0.338 C 
ATOM     73  O   UNL     1       2.558   4.469  -2.346  1.00  0.00    -0.249 OA
BRANCH  72  74
ATOM     74  C   UNL     1       4.558   4.707  -1.032  1.00  0.00     0.263 C 
ATOM     75  O   UNL     1       5.992   4.685  -1.145  1.00  0.00    -0.322 OA
ATOM     76  C   UNL     1       4.154   5.936  -0.233  1.00  0.00     0.186 C 
ATOM     77  C   UNL     1       6.588   4.327   0.109  1.00  0.00     0.340 C 
ATOM     78  C   UNL     1       4.690   5.768   1.185  1.00  0.00     0.181 C 
ATOM     79  C   UNL     1       6.138   5.290   1.231  1.00  0.00     0.214 C 
BRANCH  76  80
ATOM     80  O   UNL     1       2.747   6.173  -0.078  1.00  0.00    -0.387 OA
ATOM     81  H   UNL     1       2.350   5.446   0.427  1.00  0.00     0.211 HD
ENDBRANCH  76  80
BRANCH  77  82
ATOM     82  O   UNL     1       8.038   4.230   0.133  1.00  0.00    -0.454 OA
BRANCH  82  83
ATOM     83  C   UNL     1       8.836   4.778  -0.856  1.00  0.00     0.214 A 
ATOM     84  C   UNL     1       9.209   6.076  -0.923  1.00  0.00     0.181 A 
ATOM     85  C   UNL     1       9.584   3.818  -1.740  1.00  0.00     0.239 A 
ATOM     86  O   UNL     1      10.069   6.612  -1.855  1.00  0.00    -0.452 OA
ATOM     87  C   UNL     1      10.689   4.380  -2.573  1.00  0.00     0.111 A 
ATOM     88  O   UNL     1       9.288   2.628  -1.740  1.00  0.00    -0.285 OA
ATOM     89  C   UNL     1      10.836   5.765  -2.601  1.00  0.00     0.146 A 
ATOM     90  C   UNL     1      11.585   3.608  -3.332  1.00  0.00     0.134 A 
ATOM     91  C   UNL     1      11.809   6.381  -3.394  1.00  0.00     0.094 A 
ATOM     92  C   UNL     1      12.569   4.217  -4.128  1.00  0.00     0.093 A 
ATOM     93  C   UNL     1      12.663   5.604  -4.157  1.00  0.00     0.123 A 
BRANCH  84  94
ATOM     94  C   UNL     1       8.700   7.111  -0.019  1.00  0.00     0.029 A 
ATOM     95  C   UNL     1       7.799   8.057  -0.537  1.00  0.00     0.062 A 
ATOM     96  C   UNL     1       8.989   7.082   1.359  1.00  0.00     0.062 A 
ATOM     97  C   UNL     1       7.078   8.855   0.336  1.00  0.00     0.162 A 
ATOM     98  C   UNL     1       8.243   7.881   2.219  1.00  0.00     0.162 A 
ATOM     99  C   UNL     1       7.262   8.725   1.708  1.00  0.00     0.200 A 
BRANCH  97 100
ATOM    100  O   UNL     1       6.104   9.667  -0.164  1.00  0.00    -0.504 OA
ATOM    101  H   UNL     1       5.990   9.746  -1.091  1.00  0.00     0.293 HD
ENDBRANCH  97 100
BRANCH  98 102
ATOM    102  O   UNL     1       8.351   7.694   3.567  1.00  0.00    -0.504 OA
ATOM    103  H   UNL     1       7.853   8.228   4.155  1.00  0.00     0.293 HD
ENDBRANCH  98 102
BRANCH  99 104
ATOM    104  O   UNL     1       6.313   9.230   2.559  1.00  0.00    -0.502 OA
ATOM    105  H   UNL     1       5.645   9.800   2.232  1.00  0.00     0.293 HD
ENDBRANCH  99 104
ENDBRANCH  84  94
BRANCH  90 106
ATOM    106  O   UNL     1      11.542   2.244  -3.286  1.00  0.00    -0.507 OA
ATOM    107  H   UNL     1      12.145   1.739  -3.796  1.00  0.00     0.293 HD
ENDBRANCH  90 106
BRANCH  93 108
ATOM    108  O   UNL     1      13.594   6.249  -4.916  1.00  0.00    -0.508 OA
ATOM    109  H   UNL     1      13.632   7.185  -4.915  1.00  0.00     0.293 HD
ENDBRANCH  93 108
ENDBRANCH  82  83
ENDBRANCH  77  82
BRANCH  78 110
ATOM    110  O   UNL     1       4.563   7.052   1.860  1.00  0.00    -0.387 OA
ATOM    111  H   UNL     1       5.092   7.717   1.393  1.00  0.00     0.211 HD
ENDBRANCH  78 110
BRANCH  79 112
ATOM    112  O   UNL     1       6.430   4.762   2.529  1.00  0.00    -0.384 OA
ATOM    113  H   UNL     1       5.889   3.972   2.686  1.00  0.00     0.211 HD
ENDBRANCH  79 112
ENDBRANCH  72  74
ENDBRANCH  71  72
ENDBRANCH  70  71
ENDBRANCH   1  70
TORSDOF 28
