REMARK SMILES CC1=C[C@H](C(=O)N/N=C/c2ccc(C(=O)OCCOCCOC(=O)c3ccc(-c4c5nc(c(-c6ccc(S(=O)(=O)[O-])cc6)c6ccc([nH]6)c(-c6ccc(S(=O)(=O)[O-])cc6)c6nc(c(-c7ccc(S(=O)(=O)[O-])cc7)c7ccc4[nH]7)C=C6)C=C5)cc3)cc2)N=N1
REMARK SMILES IDX 19 1 18 2 17 3 16 4 14 5 15 6 13 7 10 8 11 9 86 10 12 11
REMARK SMILES IDX 85 12 9 13 8 14 7 15 5 16 6 17 4 19 1 20 2 21 3 22 88 23
REMARK SMILES IDX 87 24 20 25 21 26 22 27 23 28 24 29 25 30 26 31 84 32 27 33
REMARK SMILES IDX 83 34 28 35 29 36 30 37 77 38 31 39 82 40 76 41 78 42 32 43
REMARK SMILES IDX 81 44 75 45 74 46 33 48 63 49 44 50 62 51 45 52 48 53 61 54
REMARK SMILES IDX 79 55 46 56 47 57 60 59 80 60 49 61 34 62 35 63 43 64 36 65
REMARK SMILES IDX 42 66 37 67 38 68 39 69 40 70 41 71 64 72 65 73 73 74 66 75
REMARK SMILES IDX 72 76 67 77 68 78 69 79 70 80 71 81 50 82 51 83 59 84 52 85
REMARK SMILES IDX 58 86 53 87 54 88 55 89 56 90 57 91
REMARK H PARENT 7 18 78 47 48 58
REMARK Flexibility Score: inf
ROOT
ATOM      1  O   UNL     1      -0.779  -6.643   2.077  1.00  0.00    -0.374 OA
ENDROOT
BRANCH   1   2
ATOM      2  C   UNL     1      -0.504  -6.947   3.443  1.00  0.00     0.202 C 
BRANCH   2   3
ATOM      3  C   UNL     1       0.668  -6.260   4.146  1.00  0.00     0.261 C 
BRANCH   3   4
ATOM      4  O   UNL     1       0.572  -4.826   4.162  1.00  0.00    -0.460 OA
BRANCH   4   5
ATOM      5  C   UNL     1       1.454  -4.231   3.328  1.00  0.00     0.338 C 
ATOM      6  O   UNL     1       2.288  -4.796   2.633  1.00  0.00    -0.246 OA
BRANCH   5   7
ATOM      7  C   UNL     1       1.231  -2.776   3.198  1.00  0.00     0.060 A 
ATOM      8  C   UNL     1       1.280  -0.018   2.792  1.00  0.00    -0.005 A 
ATOM      9  C   UNL     1       1.547  -0.887   1.733  1.00  0.00     0.010 A 
ATOM     10  C   UNL     1       0.909  -0.523   4.043  1.00  0.00     0.010 A 
ATOM     11  C   UNL     1       1.510  -2.256   1.930  1.00  0.00     0.016 A 
ATOM     12  C   UNL     1       0.885  -1.917   4.250  1.00  0.00     0.016 A 
BRANCH   8  13
ATOM     13  C   UNL     1       1.526   1.405   2.500  1.00  0.00     0.141 C 
ATOM     14  N   UNL     1       1.283   2.393   3.296  1.00  0.00    -0.181 NA
BRANCH  14  15
ATOM     15  N   UNL     1       1.640   3.622   2.810  1.00  0.00    -0.245 N 
ATOM     16  C   UNL     1       1.320   4.258   1.636  1.00  0.00     0.270 C 
ATOM     17  O   UNL     1       1.946   5.303   1.383  1.00  0.00    -0.270 OA
ATOM     18  H   UNL     1       2.228   4.140   3.406  1.00  0.00     0.193 HD
BRANCH  16  19
ATOM     19  C   UNL     1       0.299   3.754   0.607  1.00  0.00     0.244 C 
ATOM     20  C   UNL     1       0.175   0.562  -1.267  1.00  0.00     0.068 C 
ATOM     21  C   UNL     1       0.037   1.799  -0.453  1.00  0.00     0.058 C 
ATOM     22  C   UNL     1       0.841   2.865  -0.454  1.00  0.00     0.037 C 
ATOM     23  N   UNL     1      -0.933   1.878   0.516  1.00  0.00    -0.160 NA
ATOM     24  N   UNL     1      -0.791   2.938   1.193  1.00  0.00    -0.171 NA
ENDBRANCH  16  19
ENDBRANCH  14  15
ENDBRANCH   8  13
ENDBRANCH   5   7
ENDBRANCH   4   5
ENDBRANCH   3   4
ENDBRANCH   2   3
ENDBRANCH   1   2
BRANCH   1  25
ATOM     25  C   UNL     1      -1.238  -5.350   1.692  1.00  0.00     0.202 C 
BRANCH  25  26
ATOM     26  C   UNL     1      -2.606  -4.877   2.162  1.00  0.00     0.261 C 
BRANCH  26  27
ATOM     27  O   UNL     1      -2.674  -4.815   3.575  1.00  0.00    -0.460 OA
BRANCH  27  28
ATOM     28  C   UNL     1      -3.355  -5.844   4.132  1.00  0.00     0.338 C 
ATOM     29  O   UNL     1      -3.723  -6.865   3.586  1.00  0.00    -0.246 OA
BRANCH  28  30
ATOM     30  C   UNL     1      -3.694  -5.483   5.512  1.00  0.00     0.060 A 
ATOM     31  C   UNL     1      -4.489  -6.407   6.189  1.00  0.00     0.016 A 
ATOM     32  C   UNL     1      -3.613  -4.136   5.886  1.00  0.00     0.016 A 
ATOM     33  C   UNL     1      -5.469  -5.911   7.012  1.00  0.00     0.010 A 
ATOM     34  C   UNL     1      -4.601  -3.643   6.692  1.00  0.00     0.010 A 
ATOM     35  C   UNL     1      -5.584  -4.523   7.135  1.00  0.00    -0.014 A 
BRANCH  35  36
ATOM     36  C   UNL     1      -6.726  -3.988   7.832  1.00  0.00     0.031 A 
ATOM     37  C   UNL     1      -6.503  -4.018   9.287  1.00  0.00     0.074 A 
ATOM     38  C   UNL     1      -7.771  -3.425   7.199  1.00  0.00     0.049 A 
ATOM     39  N   UNL     1      -6.876  -4.939  10.111  1.00  0.00    -0.248 NA
ATOM     40  C   UNL     1      -5.491  -3.093   9.831  1.00  0.00     0.031 C 
ATOM     41  C   UNL     1      -7.897  -3.073   5.779  1.00  0.00     0.029 A 
ATOM     42  N   UNL     1      -8.928  -2.953   7.728  1.00  0.00    -0.354 N 
ATOM     43  C   UNL     1      -6.370  -4.528  11.336  1.00  0.00     0.074 A 
ATOM     44  C   UNL     1      -5.292  -3.624  11.037  1.00  0.00     0.031 C 
ATOM     45  C   UNL     1      -8.948  -2.230   5.621  1.00  0.00     0.029 A 
ATOM     46  C   UNL     1      -9.651  -2.113   6.888  1.00  0.00     0.049 A 
ATOM     47  H   UNL     1      -9.231  -3.186   8.635  1.00  0.00     0.167 HD
ATOM     48  C   UNL     1      -7.127  -4.614  12.465  1.00  0.00     0.031 A 
ATOM     49  C   UNL     1     -10.711  -1.347   7.256  1.00  0.00     0.031 A 
ATOM     50  C   UNL     1      -8.304  -5.411  12.232  1.00  0.00     0.049 A 
ATOM     51  C   UNL     1     -11.242  -1.932   8.513  1.00  0.00     0.074 A 
ATOM     52  C   UNL     1      -8.587  -6.747  12.057  1.00  0.00     0.029 A 
ATOM     53  N   UNL     1      -9.357  -4.693  11.717  1.00  0.00    -0.354 N 
ATOM     54  N   UNL     1     -11.755  -3.131   8.579  1.00  0.00    -0.248 NA
ATOM     55  C   UNL     1     -10.834  -1.362   9.791  1.00  0.00     0.031 C 
ATOM     56  C   UNL     1      -9.749  -6.795  11.232  1.00  0.00     0.029 A 
ATOM     57  C   UNL     1     -10.183  -5.494  10.975  1.00  0.00     0.049 A 
ATOM     58  H   UNL     1      -9.499  -3.730  11.863  1.00  0.00     0.167 HD
ATOM     59  C   UNL     1     -11.352  -3.620   9.811  1.00  0.00     0.074 A 
ATOM     60  C   UNL     1     -10.930  -2.446  10.568  1.00  0.00     0.031 C 
ATOM     61  C   UNL     1     -11.105  -4.950   9.993  1.00  0.00     0.031 A 
BRANCH  48  62
ATOM     62  C   UNL     1      -7.094  -3.574  13.564  1.00  0.00    -0.014 A 
ATOM     63  C   UNL     1      -7.889  -3.776  14.708  1.00  0.00     0.010 A 
ATOM     64  C   UNL     1      -6.523  -2.292  13.411  1.00  0.00     0.010 A 
ATOM     65  C   UNL     1      -8.120  -2.742  15.628  1.00  0.00     0.020 A 
ATOM     66  C   UNL     1      -6.713  -1.267  14.337  1.00  0.00     0.020 A 
ATOM     67  C   UNL     1      -7.530  -1.493  15.432  1.00  0.00     0.054 A 
BRANCH  67  68
ATOM     68  S   UNL     1      -7.873  -0.147  16.588  1.00  0.00     0.124 S 
ATOM     69  O   UNL     1      -9.302   0.070  16.386  1.00  0.00    -0.237 OA
ATOM     70  O   UNL     1      -7.492  -0.739  17.867  1.00  0.00    -0.237 OA
ATOM     71  O   UNL     1      -7.003   0.932  16.125  1.00  0.00    -0.744 OA
ENDBRANCH  67  68
ENDBRANCH  48  62
BRANCH  49  72
ATOM     72  C   UNL     1     -11.040   0.038   6.823  1.00  0.00    -0.014 A 
ATOM     73  C   UNL     1     -12.304   0.608   7.077  1.00  0.00     0.010 A 
ATOM     74  C   UNL     1     -10.002   0.909   6.431  1.00  0.00     0.010 A 
ATOM     75  C   UNL     1     -12.505   2.000   6.999  1.00  0.00     0.020 A 
ATOM     76  C   UNL     1     -10.195   2.296   6.352  1.00  0.00     0.020 A 
ATOM     77  C   UNL     1     -11.441   2.838   6.657  1.00  0.00     0.054 A 
BRANCH  77  78
ATOM     78  S   UNL     1     -11.659   4.645   6.725  1.00  0.00     0.124 S 
ATOM     79  O   UNL     1     -12.558   4.892   5.601  1.00  0.00    -0.237 OA
ATOM     80  O   UNL     1     -12.236   4.847   8.051  1.00  0.00    -0.237 OA
ATOM     81  O   UNL     1     -10.302   5.162   6.557  1.00  0.00    -0.744 OA
ENDBRANCH  77  78
ENDBRANCH  49  72
BRANCH  61  82
ATOM     82  C   UNL     1     -11.741  -5.926   9.036  1.00  0.00    -0.014 A 
ATOM     83  C   UNL     1     -11.410  -6.056   7.674  1.00  0.00     0.010 A 
ATOM     84  C   UNL     1     -12.655  -6.834   9.597  1.00  0.00     0.010 A 
ATOM     85  C   UNL     1     -11.994  -7.070   6.895  1.00  0.00     0.020 A 
ATOM     86  C   UNL     1     -13.223  -7.853   8.835  1.00  0.00     0.020 A 
ATOM     87  C   UNL     1     -12.897  -7.963   7.484  1.00  0.00     0.054 A 
BRANCH  87  88
ATOM     88  S   UNL     1     -13.625  -9.300   6.494  1.00  0.00     0.124 S 
ATOM     89  O   UNL     1     -14.491  -8.574   5.569  1.00  0.00    -0.237 OA
ATOM     90  O   UNL     1     -12.454  -9.935   5.895  1.00  0.00    -0.237 OA
ATOM     91  O   UNL     1     -14.327 -10.121   7.481  1.00  0.00    -0.744 OA
ENDBRANCH  87  88
ENDBRANCH  61  82
ENDBRANCH  35  36
ENDBRANCH  28  30
ENDBRANCH  27  28
ENDBRANCH  26  27
ENDBRANCH  25  26
ENDBRANCH   1  25
TORSDOF 20
