REMARK SMILES CO[C@@H]1C[C@@H](C(=O)OCCOCCOC(=O)c2ccc(-c3c4nc(c(-c5ccc(S(=O)(=O)[O-])cc5)c5ccc([nH]5)c(-c5ccc(S(=O)(=O)[O-])cc5)c5nc(c(-c6ccc(S(=O)(=O)[O-])cc6)c6ccc3[nH]6)C=C5)C=C4)cc2)N(C(=O)c2nc(C(C)C)n[nH]2)C1
REMARK SMILES IDX 11 1 10 2 9 3 8 4 6 5 7 6 5 7 3 8 4 9 88 10 77 11 2 12 1 13
REMARK SMILES IDX 78 14 79 15 80 16 81 17 87 18 82 19 86 20 83 22 84 23 85 24
REMARK SMILES IDX 12 25 13 26 14 27 15 28 16 29 17 30 18 31 76 32 19 33 75 34
REMARK SMILES IDX 20 35 21 36 22 37 69 38 23 39 74 40 68 41 70 42 24 43 73 44
REMARK SMILES IDX 67 45 66 46 25 48 55 49 36 50 54 51 37 52 40 53 53 54 71 55
REMARK SMILES IDX 38 56 39 57 52 59 72 60 41 61 26 62 27 63 35 64 28 65 34 66
REMARK SMILES IDX 29 67 30 68 31 69 32 70 33 71 56 72 57 73 65 74 58 75 64 76
REMARK SMILES IDX 59 77 60 78 61 79 62 80 63 81 42 82 43 83 51 84 44 85 50 86
REMARK SMILES IDX 45 87 46 88 47 89 48 90 49 91
REMARK H PARENT 87 21 70 47 40 58
REMARK Flexibility Score: inf
ROOT
ATOM      1  O   UNL     1       4.545   6.235   0.862  1.00  0.00    -0.374 OA
ENDROOT
BRANCH   1   2
ATOM      2  C   UNL     1       5.070   6.512   2.171  1.00  0.00     0.202 C 
BRANCH   2   3
ATOM      3  C   UNL     1       4.138   6.279   3.383  1.00  0.00     0.261 C 
BRANCH   3   4
ATOM      4  O   UNL     1       3.829   4.887   3.569  1.00  0.00    -0.462 OA
BRANCH   4   5
ATOM      5  C   UNL     1       2.575   4.491   3.257  1.00  0.00     0.329 C 
ATOM      6  O   UNL     1       1.613   5.247   3.186  1.00  0.00    -0.250 OA
BRANCH   5   7
ATOM      7  C   UNL     1       2.576   3.063   2.693  1.00  0.00     0.198 C 
ATOM      8  C   UNL     1       1.305   1.092   2.246  1.00  0.00     0.140 C 
ATOM      9  C   UNL     1       1.151   2.490   2.825  1.00  0.00     0.071 C 
ATOM     10  C   UNL     1       2.690   0.679   2.763  1.00  0.00     0.153 C 
ATOM     11  N   UNL     1       3.411   1.918   3.105  1.00  0.00    -0.319 N 
BRANCH   8  12
ATOM     12  O   UNL     1       1.233   1.231   0.821  1.00  0.00    -0.380 OA
ATOM     13  C   UNL     1       1.151  -0.004   0.123  1.00  0.00     0.195 C 
ENDBRANCH   8  12
BRANCH  11  14
ATOM     14  C   UNL     1       4.742   1.757   3.502  1.00  0.00     0.292 C 
ATOM     15  O   UNL     1       5.138   0.602   3.702  1.00  0.00    -0.265 OA
BRANCH  14  16
ATOM     16  C   UNL     1       5.660   2.842   3.815  1.00  0.00     0.214 A 
ATOM     17  N   UNL     1       6.255   3.682   2.976  1.00  0.00    -0.207 NA
ATOM     18  N   UNL     1       6.387   2.846   4.974  1.00  0.00    -0.255 N 
ATOM     19  C   UNL     1       7.406   4.079   3.635  1.00  0.00     0.153 A 
ATOM     20  N   UNL     1       7.448   3.666   4.907  1.00  0.00    -0.158 NA
ATOM     21  H   UNL     1       6.158   2.309   5.767  1.00  0.00     0.192 HD
BRANCH  19  22
ATOM     22  C   UNL     1       8.537   4.882   3.021  1.00  0.00     0.053 C 
ATOM     23  C   UNL     1       9.921   4.349   3.429  1.00  0.00     0.016 C 
ATOM     24  C   UNL     1       8.531   4.979   1.490  1.00  0.00     0.016 C 
ENDBRANCH  19  22
ENDBRANCH  14  16
ENDBRANCH  11  14
ENDBRANCH   5   7
ENDBRANCH   4   5
ENDBRANCH   3   4
ENDBRANCH   2   3
ENDBRANCH   1   2
BRANCH   1  25
ATOM     25  C   UNL     1       4.437   4.848   0.520  1.00  0.00     0.202 C 
BRANCH  25  26
ATOM     26  C   UNL     1       5.408   4.317  -0.552  1.00  0.00     0.261 C 
BRANCH  26  27
ATOM     27  O   UNL     1       6.121   3.171  -0.012  1.00  0.00    -0.460 OA
BRANCH  27  28
ATOM     28  C   UNL     1       6.840   2.391  -0.869  1.00  0.00     0.338 C 
ATOM     29  O   UNL     1       6.837   2.495  -2.083  1.00  0.00    -0.246 OA
BRANCH  28  30
ATOM     30  C   UNL     1       7.732   1.442  -0.114  1.00  0.00     0.060 A 
ATOM     31  C   UNL     1       7.838   1.523   1.268  1.00  0.00     0.016 A 
ATOM     32  C   UNL     1       8.582   0.549  -0.761  1.00  0.00     0.016 A 
ATOM     33  C   UNL     1       8.857   0.903   1.990  1.00  0.00     0.010 A 
ATOM     34  C   UNL     1       9.545  -0.176  -0.023  1.00  0.00     0.010 A 
ATOM     35  C   UNL     1       9.742   0.038   1.361  1.00  0.00    -0.014 A 
BRANCH  35  36
ATOM     36  C   UNL     1      10.930  -0.531   2.080  1.00  0.00     0.031 A 
ATOM     37  C   UNL     1      12.284  -0.408   1.425  1.00  0.00     0.074 A 
ATOM     38  C   UNL     1      10.885  -1.088   3.312  1.00  0.00     0.049 A 
ATOM     39  N   UNL     1      13.349  -1.151   1.566  1.00  0.00    -0.248 NA
ATOM     40  C   UNL     1      12.447   0.698   0.465  1.00  0.00     0.031 C 
ATOM     41  C   UNL     1       9.731  -1.120   4.213  1.00  0.00     0.029 A 
ATOM     42  N   UNL     1      11.867  -1.741   4.030  1.00  0.00    -0.354 N 
ATOM     43  C   UNL     1      14.260  -0.685   0.622  1.00  0.00     0.074 A 
ATOM     44  C   UNL     1      13.642   0.439  -0.045  1.00  0.00     0.031 C 
ATOM     45  C   UNL     1      10.082  -1.707   5.369  1.00  0.00     0.029 A 
ATOM     46  C   UNL     1      11.429  -2.247   5.235  1.00  0.00     0.049 A 
ATOM     47  H   UNL     1      12.794  -1.837   3.711  1.00  0.00     0.167 HD
ATOM     48  C   UNL     1      15.479  -1.190   0.319  1.00  0.00     0.031 A 
ATOM     49  C   UNL     1      11.995  -3.128   6.088  1.00  0.00     0.031 A 
ATOM     50  C   UNL     1      16.090  -2.267   1.053  1.00  0.00     0.049 A 
ATOM     51  C   UNL     1      13.310  -3.756   5.704  1.00  0.00     0.074 A 
ATOM     52  C   UNL     1      17.275  -2.933   0.798  1.00  0.00     0.029 A 
ATOM     53  N   UNL     1      15.572  -2.804   2.223  1.00  0.00    -0.354 N 
ATOM     54  N   UNL     1      14.071  -3.503   4.665  1.00  0.00    -0.248 NA
ATOM     55  C   UNL     1      13.816  -4.828   6.573  1.00  0.00     0.031 C 
ATOM     56  C   UNL     1      17.454  -3.898   1.796  1.00  0.00     0.029 A 
ATOM     57  C   UNL     1      16.410  -3.792   2.703  1.00  0.00     0.049 A 
ATOM     58  H   UNL     1      14.729  -2.523   2.648  1.00  0.00     0.167 HD
ATOM     59  C   UNL     1      15.147  -4.379   4.760  1.00  0.00     0.074 A 
ATOM     60  C   UNL     1      14.950  -5.155   5.967  1.00  0.00     0.031 C 
ATOM     61  C   UNL     1      16.198  -4.537   3.917  1.00  0.00     0.031 A 
BRANCH  48  62
ATOM     62  C   UNL     1      16.165  -0.669  -0.917  1.00  0.00    -0.014 A 
ATOM     63  C   UNL     1      16.748   0.607  -0.979  1.00  0.00     0.010 A 
ATOM     64  C   UNL     1      16.221  -1.500  -2.054  1.00  0.00     0.010 A 
ATOM     65  C   UNL     1      17.335   1.058  -2.168  1.00  0.00     0.020 A 
ATOM     66  C   UNL     1      16.829  -1.065  -3.233  1.00  0.00     0.020 A 
ATOM     67  C   UNL     1      17.365   0.222  -3.289  1.00  0.00     0.054 A 
BRANCH  67  68
ATOM     68  S   UNL     1      18.130   0.829  -4.819  1.00  0.00     0.124 S 
ATOM     69  O   UNL     1      17.131   1.782  -5.297  1.00  0.00    -0.237 OA
ATOM     70  O   UNL     1      19.380   1.415  -4.343  1.00  0.00    -0.237 OA
ATOM     71  O   UNL     1      18.280  -0.375  -5.633  1.00  0.00    -0.744 OA
ENDBRANCH  67  68
ENDBRANCH  48  62
BRANCH  49  72
ATOM     72  C   UNL     1      11.261  -3.577   7.311  1.00  0.00    -0.014 A 
ATOM     73  C   UNL     1      11.758  -3.311   8.600  1.00  0.00     0.010 A 
ATOM     74  C   UNL     1      10.044  -4.277   7.191  1.00  0.00     0.010 A 
ATOM     75  C   UNL     1      11.052  -3.727   9.737  1.00  0.00     0.020 A 
ATOM     76  C   UNL     1       9.316  -4.660   8.322  1.00  0.00     0.020 A 
ATOM     77  C   UNL     1       9.830  -4.390   9.590  1.00  0.00     0.054 A 
BRANCH  77  78
ATOM     78  S   UNL     1       8.884  -4.847  11.072  1.00  0.00     0.124 S 
ATOM     79  O   UNL     1       9.617  -6.013  11.553  1.00  0.00    -0.237 OA
ATOM     80  O   UNL     1       8.989  -3.647  11.899  1.00  0.00    -0.237 OA
ATOM     81  O   UNL     1       7.546  -5.118  10.551  1.00  0.00    -0.744 OA
ENDBRANCH  77  78
ENDBRANCH  49  72
BRANCH  61  82
ATOM     82  C   UNL     1      17.245  -5.544   4.299  1.00  0.00    -0.014 A 
ATOM     83  C   UNL     1      17.028  -6.923   4.134  1.00  0.00     0.010 A 
ATOM     84  C   UNL     1      18.496  -5.092   4.757  1.00  0.00     0.010 A 
ATOM     85  C   UNL     1      18.042  -7.835   4.438  1.00  0.00     0.020 A 
ATOM     86  C   UNL     1      19.518  -5.999   5.040  1.00  0.00     0.020 A 
ATOM     87  C   UNL     1      19.282  -7.366   4.888  1.00  0.00     0.054 A 
BRANCH  87  88
ATOM     88  S   UNL     1      20.603  -8.564   5.216  1.00  0.00     0.124 S 
ATOM     89  O   UNL     1      20.171  -9.154   6.479  1.00  0.00    -0.237 OA
ATOM     90  O   UNL     1      20.534  -9.446   4.053  1.00  0.00    -0.237 OA
ATOM     91  O   UNL     1      21.807  -7.739   5.293  1.00  0.00    -0.744 OA
ENDBRANCH  87  88
ENDBRANCH  61  82
ENDBRANCH  35  36
ENDBRANCH  28  30
ENDBRANCH  27  28
ENDBRANCH  26  27
ENDBRANCH  25  26
ENDBRANCH   1  25
TORSDOF 21
