REMARK SMILES CS(=O)(=O)c1ccc(/C=C(/C(=O)OCCOCCOC(=O)c2ccc(-c3c4nc(c(-c5ccc(S(=O)(=O)[O-])cc5)c5ccc([nH]5)c(-c5ccc(S(=O)(=O)[O-])cc5)c5nc(c(-c6ccc(S(=O)(=O)[O-])cc6)c6ccc3[nH]6)C=C5)C=C4)cc2)c2ccc(F)cc2)cc1
REMARK SMILES IDX 17 1 16 2 15 3 14 4 13 5 11 6 12 7 10 8 9 9 8 10 5 11 6 12
REMARK SMILES IDX 90 13 7 14 89 15 2 16 1 17 3 18 4 19 82 20 83 21 88 22 84 23
REMARK SMILES IDX 87 24 85 25 86 26 18 27 19 28 20 29 21 30 22 31 23 32 81 33
REMARK SMILES IDX 24 34 80 35 25 36 26 37 27 38 74 39 28 40 79 41 73 42 75 43
REMARK SMILES IDX 29 44 78 45 72 46 71 47 30 49 60 50 41 51 59 52 42 53 45 54
REMARK SMILES IDX 58 55 76 56 43 57 44 58 57 60 77 61 46 62 31 63 32 64 40 65
REMARK SMILES IDX 33 66 39 67 34 68 35 69 36 70 37 71 38 72 61 73 62 74 70 75
REMARK SMILES IDX 63 76 69 77 64 78 65 79 66 80 67 81 68 82 47 83 48 84 56 85
REMARK SMILES IDX 49 86 55 87 50 88 51 89 52 90 53 91 54 92
REMARK H PARENT 75 48 45 59
REMARK Flexibility Score: inf
ROOT
ATOM      1  C   UNL     1       0.155  -6.921   7.714  1.00  0.00     0.202 C 
ENDROOT
BRANCH   1   2
ATOM      2  O   UNL     1       1.086  -7.646   8.510  1.00  0.00    -0.374 OA
BRANCH   2   3
ATOM      3  C   UNL     1       2.060  -6.893   9.237  1.00  0.00     0.202 C 
BRANCH   3   4
ATOM      4  C   UNL     1       3.195  -6.263   8.424  1.00  0.00     0.261 C 
BRANCH   4   5
ATOM      5  O   UNL     1       2.700  -5.254   7.522  1.00  0.00    -0.460 OA
BRANCH   5   6
ATOM      6  C   UNL     1       2.956  -5.485   6.209  1.00  0.00     0.338 C 
ATOM      7  O   UNL     1       3.681  -6.365   5.767  1.00  0.00    -0.246 OA
BRANCH   6   8
ATOM      8  C   UNL     1       2.132  -4.609   5.313  1.00  0.00     0.067 C 
ATOM      9  C   UNL     1       1.881  -3.321   5.647  1.00  0.00     0.024 C 
BRANCH   9  10
ATOM     10  C   UNL     1       1.303  -2.256   4.787  1.00  0.00    -0.025 A 
ATOM     11  C   UNL     1       0.615  -0.246   2.948  1.00  0.00     0.067 A 
ATOM     12  C   UNL     1      -0.003  -1.492   2.873  1.00  0.00     0.021 A 
ATOM     13  C   UNL     1       1.479   0.050   4.001  1.00  0.00     0.021 A 
ATOM     14  C   UNL     1       0.322  -2.476   3.809  1.00  0.00     0.009 A 
ATOM     15  C   UNL     1       1.819  -0.956   4.914  1.00  0.00     0.009 A 
BRANCH  11  16
ATOM     16  S   UNL     1       0.312   0.940   1.662  1.00  0.00     0.175 S 
ATOM     17  C   UNL     1       1.096   0.215   0.241  1.00  0.00     0.163 C 
ATOM     18  O   UNL     1       1.044   2.152   1.989  1.00  0.00    -0.224 OA
ATOM     19  O   UNL     1      -1.115   0.968   1.428  1.00  0.00    -0.224 OA
ENDBRANCH  11  16
ENDBRANCH   9  10
BRANCH   8  20
ATOM     20  C   UNL     1       1.704  -5.215   4.036  1.00  0.00    -0.011 A 
ATOM     21  C   UNL     1       0.538  -6.003   4.001  1.00  0.00     0.012 A 
ATOM     22  C   UNL     1       2.412  -4.979   2.852  1.00  0.00     0.012 A 
ATOM     23  C   UNL     1       0.071  -6.518   2.793  1.00  0.00     0.040 A 
ATOM     24  C   UNL     1       1.941  -5.495   1.645  1.00  0.00     0.040 A 
ATOM     25  C   UNL     1       0.774  -6.253   1.625  1.00  0.00     0.123 A 
ATOM     26  F   UNL     1       0.311  -6.722   0.460  1.00  0.00    -0.207 F 
ENDBRANCH   8  20
ENDBRANCH   6   8
ENDBRANCH   5   6
ENDBRANCH   4   5
ENDBRANCH   3   4
ENDBRANCH   2   3
ENDBRANCH   1   2
BRANCH   1  27
ATOM     27  C   UNL     1      -1.030  -6.251   8.420  1.00  0.00     0.261 C 
BRANCH  27  28
ATOM     28  O   UNL     1      -0.628  -5.378   9.482  1.00  0.00    -0.460 OA
BRANCH  28  29
ATOM     29  C   UNL     1      -0.800  -5.912  10.716  1.00  0.00     0.338 C 
ATOM     30  O   UNL     1      -1.328  -6.980  10.987  1.00  0.00    -0.246 OA
BRANCH  29  31
ATOM     31  C   UNL     1      -0.100  -5.101  11.729  1.00  0.00     0.060 A 
ATOM     32  C   UNL     1       0.721  -5.789  12.630  1.00  0.00     0.016 A 
ATOM     33  C   UNL     1      -0.298  -3.724  11.852  1.00  0.00     0.016 A 
ATOM     34  C   UNL     1       1.283  -5.116  13.709  1.00  0.00     0.010 A 
ATOM     35  C   UNL     1       0.266  -3.049  12.940  1.00  0.00     0.010 A 
ATOM     36  C   UNL     1       1.014  -3.755  13.900  1.00  0.00    -0.014 A 
BRANCH  36  37
ATOM     37  C   UNL     1       1.366  -3.141  15.203  1.00  0.00     0.031 A 
ATOM     38  C   UNL     1       0.293  -3.000  16.251  1.00  0.00     0.074 A 
ATOM     39  C   UNL     1       2.637  -2.800  15.481  1.00  0.00     0.049 A 
ATOM     40  N   UNL     1       0.391  -2.572  17.483  1.00  0.00    -0.248 NA
ATOM     41  C   UNL     1      -1.069  -3.398  15.859  1.00  0.00     0.031 C 
ATOM     42  C   UNL     1       3.767  -2.927  14.561  1.00  0.00     0.029 A 
ATOM     43  N   UNL     1       3.190  -2.290  16.628  1.00  0.00    -0.354 N 
ATOM     44  C   UNL     1      -0.892  -2.648  18.012  1.00  0.00     0.074 A 
ATOM     45  C   UNL     1      -1.758  -3.126  16.957  1.00  0.00     0.031 C 
ATOM     46  C   UNL     1       4.884  -2.513  15.185  1.00  0.00     0.029 A 
ATOM     47  C   UNL     1       4.544  -2.074  16.537  1.00  0.00     0.049 A 
ATOM     48  H   UNL     1       2.667  -2.097  17.439  1.00  0.00     0.167 HD
ATOM     49  C   UNL     1      -1.313  -2.358  19.267  1.00  0.00     0.031 A 
ATOM     50  C   UNL     1       5.409  -1.576  17.442  1.00  0.00     0.031 A 
ATOM     51  C   UNL     1      -0.452  -1.872  20.312  1.00  0.00     0.049 A 
ATOM     52  C   UNL     1       4.909  -1.212  18.815  1.00  0.00     0.074 A 
ATOM     53  C   UNL     1      -0.777  -1.557  21.619  1.00  0.00     0.029 A 
ATOM     54  N   UNL     1       0.905  -1.626  20.167  1.00  0.00    -0.354 N 
ATOM     55  N   UNL     1       3.697  -1.315  19.307  1.00  0.00    -0.248 NA
ATOM     56  C   UNL     1       5.901  -0.682  19.761  1.00  0.00     0.031 C 
ATOM     57  C   UNL     1       0.373  -1.071  22.250  1.00  0.00     0.029 A 
ATOM     58  C   UNL     1       1.428  -1.141  21.354  1.00  0.00     0.049 A 
ATOM     59  H   UNL     1       1.421  -1.773  19.341  1.00  0.00     0.167 HD
ATOM     60  C   UNL     1       3.787  -0.888  20.628  1.00  0.00     0.074 A 
ATOM     61  C   UNL     1       5.175  -0.544  20.862  1.00  0.00     0.031 C 
ATOM     62  C   UNL     1       2.811  -0.795  21.567  1.00  0.00     0.031 A 
BRANCH  49  63
ATOM     63  C   UNL     1      -2.779  -2.530  19.563  1.00  0.00    -0.014 A 
ATOM     64  C   UNL     1      -3.360  -3.809  19.659  1.00  0.00     0.010 A 
ATOM     65  C   UNL     1      -3.584  -1.396  19.774  1.00  0.00     0.010 A 
ATOM     66  C   UNL     1      -4.726  -3.947  19.919  1.00  0.00     0.020 A 
ATOM     67  C   UNL     1      -4.945  -1.532  20.062  1.00  0.00     0.020 A 
ATOM     68  C   UNL     1      -5.511  -2.807  20.116  1.00  0.00     0.054 A 
BRANCH  68  69
ATOM     69  S   UNL     1      -7.278  -3.015  20.469  1.00  0.00     0.124 S 
ATOM     70  O   UNL     1      -7.801  -3.414  19.165  1.00  0.00    -0.237 OA
ATOM     71  O   UNL     1      -7.280  -4.058  21.492  1.00  0.00    -0.237 OA
ATOM     72  O   UNL     1      -7.698  -1.694  20.930  1.00  0.00    -0.744 OA
ENDBRANCH  68  69
ENDBRANCH  49  63
BRANCH  50  73
ATOM     73  C   UNL     1       6.840  -1.393  17.077  1.00  0.00    -0.014 A 
ATOM     74  C   UNL     1       7.840  -2.199  17.649  1.00  0.00     0.010 A 
ATOM     75  C   UNL     1       7.209  -0.404  16.146  1.00  0.00     0.010 A 
ATOM     76  C   UNL     1       9.184  -2.008  17.310  1.00  0.00     0.020 A 
ATOM     77  C   UNL     1       8.547  -0.229  15.785  1.00  0.00     0.020 A 
ATOM     78  C   UNL     1       9.528  -1.025  16.378  1.00  0.00     0.054 A 
BRANCH  78  79
ATOM     79  S   UNL     1      11.270  -0.830  15.911  1.00  0.00     0.124 S 
ATOM     80  O   UNL     1      11.828  -0.173  17.088  1.00  0.00    -0.237 OA
ATOM     81  O   UNL     1      11.695  -2.210  15.694  1.00  0.00    -0.237 OA
ATOM     82  O   UNL     1      11.209  -0.009  14.704  1.00  0.00    -0.744 OA
ENDBRANCH  78  79
ENDBRANCH  50  73
BRANCH  62  83
ATOM     83  C   UNL     1       3.218  -0.333  22.941  1.00  0.00    -0.014 A 
ATOM     84  C   UNL     1       3.594   1.000  23.185  1.00  0.00     0.010 A 
ATOM     85  C   UNL     1       3.200  -1.246  24.012  1.00  0.00     0.010 A 
ATOM     86  C   UNL     1       3.992   1.399  24.464  1.00  0.00     0.020 A 
ATOM     87  C   UNL     1       3.568  -0.844  25.298  1.00  0.00     0.020 A 
ATOM     88  C   UNL     1       3.984   0.472  25.511  1.00  0.00     0.054 A 
BRANCH  88  89
ATOM     89  S   UNL     1       4.496   1.014  27.164  1.00  0.00     0.124 S 
ATOM     90  O   UNL     1       5.947   1.093  27.021  1.00  0.00    -0.237 OA
ATOM     91  O   UNL     1       3.808   2.295  27.311  1.00  0.00    -0.237 OA
ATOM     92  O   UNL     1       4.013  -0.050  28.042  1.00  0.00    -0.744 OA
ENDBRANCH  88  89
ENDBRANCH  62  83
ENDBRANCH  36  37
ENDBRANCH  29  31
ENDBRANCH  28  29
ENDBRANCH  27  28
ENDBRANCH   1  27
TORSDOF 20
