REMARK SMILES CN(C)Nc1ncnc(Nc2ccc(C(=O)OCCOCCOC(=O)c3ccc(-c4c5nc(c(-c6ccc(S(=O)(=O)[O-])cc6)c6ccc([nH]6)c(-c6ccc(S(=O)(=O)[O-])cc6)c6nc(c(-c7ccc(S(=O)(=O)[O-])cc7)c7ccc4[nH]7)C=C6)C=C5)cc3)cc2)c1[N+](=O)[O-]
REMARK SMILES IDX 19 1 18 2 17 3 15 4 16 5 14 6 11 7 12 8 87 9 13 10 86 11
REMARK SMILES IDX 10 12 9 14 5 15 6 16 88 17 7 18 8 19 4 20 2 22 1 23 3 24
REMARK SMILES IDX 89 25 90 26 91 27 20 28 21 29 22 30 23 31 24 32 25 33 26 34
REMARK SMILES IDX 27 35 85 36 28 37 84 38 29 39 30 40 31 41 78 42 32 43 83 44
REMARK SMILES IDX 77 45 79 46 33 47 82 48 76 49 75 50 34 52 64 53 45 54 63 55
REMARK SMILES IDX 46 56 49 57 62 58 80 59 47 60 48 61 61 63 81 64 50 65 35 66
REMARK SMILES IDX 36 67 44 68 37 69 43 70 38 71 39 72 40 73 41 74 42 75 65 76
REMARK SMILES IDX 66 77 74 78 67 79 73 80 68 81 69 82 70 83 71 84 72 85 51 86
REMARK SMILES IDX 52 87 60 88 53 89 59 90 54 91 55 92 56 93 57 94 58 95
REMARK H PARENT 10 13 4 21 79 51 49 62
REMARK Flexibility Score: inf
ROOT
ATOM      1  C   UNL     1       9.276   0.123  -9.194  1.00  0.00     0.202 C 
ENDROOT
BRANCH   1   2
ATOM      2  C   UNL     1       8.589  -1.226  -8.966  1.00  0.00     0.261 C 
BRANCH   2   3
ATOM      3  O   UNL     1       7.632  -1.143  -7.899  1.00  0.00    -0.460 OA
BRANCH   3   4
ATOM      4  C   UNL     1       8.011  -1.748  -6.751  1.00  0.00     0.338 C 
ATOM      5  O   UNL     1       8.991  -2.465  -6.585  1.00  0.00    -0.246 OA
BRANCH   4   6
ATOM      6  C   UNL     1       7.159  -1.305  -5.628  1.00  0.00     0.060 A 
ATOM      7  C   UNL     1       5.620  -0.708  -3.362  1.00  0.00     0.040 A 
ATOM      8  C   UNL     1       7.000  -0.898  -3.244  1.00  0.00     0.027 A 
ATOM      9  C   UNL     1       5.040  -0.729  -4.642  1.00  0.00     0.027 A 
ATOM     10  C   UNL     1       7.762  -1.210  -4.368  1.00  0.00     0.018 A 
ATOM     11  C   UNL     1       5.803  -1.014  -5.778  1.00  0.00     0.018 A 
BRANCH   7  12
ATOM     12  N   UNL     1       4.838  -0.706  -2.190  1.00  0.00    -0.334 N 
ATOM     13  H   UNL     1       5.070  -0.050  -1.495  1.00  0.00     0.168 HD
BRANCH  12  14
ATOM     14  C   UNL     1       3.752  -1.565  -1.929  1.00  0.00     0.215 A 
ATOM     15  C   UNL     1       1.855  -2.279  -0.695  1.00  0.00     0.225 A 
ATOM     16  N   UNL     1       1.550  -3.180  -1.652  1.00  0.00    -0.212 NA
ATOM     17  C   UNL     1       3.004  -1.516  -0.766  1.00  0.00     0.354 A 
ATOM     18  C   UNL     1       2.354  -3.227  -2.713  1.00  0.00     0.227 A 
ATOM     19  N   UNL     1       3.410  -2.438  -2.904  1.00  0.00    -0.212 NA
BRANCH  15  20
ATOM     20  N   UNL     1       0.829  -2.151   0.245  1.00  0.00    -0.298 N 
ATOM     21  H   UNL     1       0.395  -2.980   0.552  1.00  0.00     0.184 HD
BRANCH  20  22
ATOM     22  N   UNL     1       0.357  -0.930   0.797  1.00  0.00    -0.228 NA
ATOM     23  C   UNL     1       0.263   0.144  -0.209  1.00  0.00     0.130 C 
ATOM     24  C   UNL     1      -1.010  -1.193   1.290  1.00  0.00     0.130 C 
ENDBRANCH  20  22
ENDBRANCH  15  20
BRANCH  17  25
ATOM     25  N   UNL     1       3.499  -0.828   0.391  1.00  0.00     0.070 N 
ATOM     26  O   UNL     1       3.886   0.342   0.241  1.00  0.00    -0.258 OA
ATOM     27  O   UNL     1       3.632  -1.481   1.436  1.00  0.00    -0.258 OA
ENDBRANCH  17  25
ENDBRANCH  12  14
ENDBRANCH   7  12
ENDBRANCH   4   6
ENDBRANCH   3   4
ENDBRANCH   2   3
ENDBRANCH   1   2
BRANCH   1  28
ATOM     28  O   UNL     1      10.034   0.634  -8.095  1.00  0.00    -0.374 OA
BRANCH  28  29
ATOM     29  C   UNL     1       9.309   1.351  -7.093  1.00  0.00     0.202 C 
BRANCH  29  30
ATOM     30  C   UNL     1       8.967   2.810  -7.417  1.00  0.00     0.261 C 
BRANCH  30  31
ATOM     31  O   UNL     1       7.971   2.905  -8.452  1.00  0.00    -0.460 OA
BRANCH  31  32
ATOM     32  C   UNL     1       8.426   3.359  -9.642  1.00  0.00     0.338 C 
ATOM     33  O   UNL     1       9.552   3.774  -9.891  1.00  0.00    -0.246 OA
BRANCH  32  34
ATOM     34  C   UNL     1       7.421   3.113 -10.692  1.00  0.00     0.060 A 
ATOM     35  C   UNL     1       7.849   2.467 -11.859  1.00  0.00     0.016 A 
ATOM     36  C   UNL     1       6.100   3.551 -10.569  1.00  0.00     0.016 A 
ATOM     37  C   UNL     1       6.973   2.301 -12.928  1.00  0.00     0.010 A 
ATOM     38  C   UNL     1       5.224   3.392 -11.648  1.00  0.00     0.010 A 
ATOM     39  C   UNL     1       5.666   2.798 -12.844  1.00  0.00    -0.014 A 
BRANCH  39  40
ATOM     40  C   UNL     1       4.813   2.824 -14.057  1.00  0.00     0.031 A 
ATOM     41  C   UNL     1       4.688   4.107 -14.833  1.00  0.00     0.074 A 
ATOM     42  C   UNL     1       4.179   1.714 -14.477  1.00  0.00     0.049 A 
ATOM     43  N   UNL     1       3.981   4.361 -15.904  1.00  0.00    -0.248 NA
ATOM     44  C   UNL     1       5.463   5.256 -14.336  1.00  0.00     0.031 C 
ATOM     45  C   UNL     1       4.256   0.402 -13.836  1.00  0.00     0.029 A 
ATOM     46  N   UNL     1       3.341   1.518 -15.546  1.00  0.00    -0.354 N 
ATOM     47  C   UNL     1       4.218   5.697 -16.204  1.00  0.00     0.074 A 
ATOM     48  C   UNL     1       5.111   6.208 -15.188  1.00  0.00     0.031 C 
ATOM     49  C   UNL     1       3.489  -0.463 -14.522  1.00  0.00     0.029 A 
ATOM     50  C   UNL     1       2.844   0.240 -15.629  1.00  0.00     0.049 A 
ATOM     51  H   UNL     1       3.118   2.227 -16.192  1.00  0.00     0.167 HD
ATOM     52  C   UNL     1       3.738   6.432 -17.236  1.00  0.00     0.031 A 
ATOM     53  C   UNL     1       1.953  -0.296 -16.487  1.00  0.00     0.031 A 
ATOM     54  C   UNL     1       2.839   5.925 -18.239  1.00  0.00     0.049 A 
ATOM     55  C   UNL     1       1.377   0.560 -17.585  1.00  0.00     0.074 A 
ATOM     56  C   UNL     1       2.309   6.587 -19.333  1.00  0.00     0.029 A 
ATOM     57  N   UNL     1       2.331   4.636 -18.267  1.00  0.00    -0.354 N 
ATOM     58  N   UNL     1       1.629   1.816 -17.869  1.00  0.00    -0.248 NA
ATOM     59  C   UNL     1       0.403  -0.077 -18.481  1.00  0.00     0.031 C 
ATOM     60  C   UNL     1       1.437   5.714 -19.991  1.00  0.00     0.029 A 
ATOM     61  C   UNL     1       1.471   4.489 -19.342  1.00  0.00     0.049 A 
ATOM     62  H   UNL     1       2.549   3.928 -17.618  1.00  0.00     0.167 HD
ATOM     63  C   UNL     1       0.865   2.111 -18.994  1.00  0.00     0.074 A 
ATOM     64  C   UNL     1       0.151   0.900 -19.343  1.00  0.00     0.031 C 
ATOM     65  C   UNL     1       0.766   3.278 -19.677  1.00  0.00     0.031 A 
BRANCH  52  66
ATOM     66  C   UNL     1       4.150   7.879 -17.309  1.00  0.00    -0.014 A 
ATOM     67  C   UNL     1       5.460   8.248 -17.665  1.00  0.00     0.010 A 
ATOM     68  C   UNL     1       3.202   8.885 -17.050  1.00  0.00     0.010 A 
ATOM     69  C   UNL     1       5.823   9.596 -17.723  1.00  0.00     0.020 A 
ATOM     70  C   UNL     1       3.554  10.235 -17.132  1.00  0.00     0.020 A 
ATOM     71  C   UNL     1       4.869  10.581 -17.452  1.00  0.00     0.054 A 
BRANCH  71  72
ATOM     72  S   UNL     1       5.362  12.324 -17.552  1.00  0.00     0.124 S 
ATOM     73  O   UNL     1       6.175  12.475 -16.347  1.00  0.00    -0.237 OA
ATOM     74  O   UNL     1       6.095  12.378 -18.814  1.00  0.00    -0.237 OA
ATOM     75  O   UNL     1       4.092  13.046 -17.540  1.00  0.00    -0.744 OA
ENDBRANCH  71  72
ENDBRANCH  52  66
BRANCH  53  76
ATOM     76  C   UNL     1       1.535  -1.716 -16.330  1.00  0.00    -0.014 A 
ATOM     77  C   UNL     1       1.924  -2.688 -17.267  1.00  0.00     0.010 A 
ATOM     78  C   UNL     1       0.742  -2.101 -15.232  1.00  0.00     0.010 A 
ATOM     79  C   UNL     1       1.517  -4.018 -17.117  1.00  0.00     0.020 A 
ATOM     80  C   UNL     1       0.356  -3.434 -15.065  1.00  0.00     0.020 A 
ATOM     81  C   UNL     1       0.738  -4.383 -16.015  1.00  0.00     0.054 A 
BRANCH  81  82
ATOM     82  S   UNL     1       0.267  -6.123 -15.810  1.00  0.00     0.124 S 
ATOM     83  O   UNL     1      -0.766  -6.280 -16.828  1.00  0.00    -0.237 OA
ATOM     84  O   UNL     1       1.524  -6.822 -16.069  1.00  0.00    -0.237 OA
ATOM     85  O   UNL     1      -0.199  -6.189 -14.427  1.00  0.00    -0.744 OA
ENDBRANCH  81  82
ENDBRANCH  53  76
BRANCH  65  86
ATOM     86  C   UNL     1      -0.120   3.299 -20.895  1.00  0.00    -0.014 A 
ATOM     87  C   UNL     1      -1.521   3.281 -20.779  1.00  0.00     0.010 A 
ATOM     88  C   UNL     1       0.461   3.398 -22.173  1.00  0.00     0.010 A 
ATOM     89  C   UNL     1      -2.324   3.333 -21.922  1.00  0.00     0.020 A 
ATOM     90  C   UNL     1      -0.339   3.477 -23.316  1.00  0.00     0.020 A 
ATOM     91  C   UNL     1      -1.728   3.430 -23.184  1.00  0.00     0.054 A 
BRANCH  91  92
ATOM     92  S   UNL     1      -2.792   3.541 -24.648  1.00  0.00     0.124 S 
ATOM     93  O   UNL     1      -3.276   2.169 -24.776  1.00  0.00    -0.237 OA
ATOM     94  O   UNL     1      -3.793   4.526 -24.245  1.00  0.00    -0.237 OA
ATOM     95  O   UNL     1      -1.883   3.982 -25.704  1.00  0.00    -0.744 OA
ENDBRANCH  91  92
ENDBRANCH  65  86
ENDBRANCH  39  40
ENDBRANCH  32  34
ENDBRANCH  31  32
ENDBRANCH  30  31
ENDBRANCH  29  30
ENDBRANCH  28  29
ENDBRANCH   1  28
TORSDOF 22
