REMARK SMILES O=C(OCCOCCOC(=O)c1ccc(-c2c3nc(c(-c4ccc(S(=O)(=O)[O-])cc4)c4ccc([nH]4)c(-c4ccc(S(=O)(=O)[O-])cc4)c4nc(c(-c5ccc(S(=O)(=O)[O-])cc5)c5ccc2[nH]5)C=C4)C=C3)cc1)C1=C[C@H]2C=C[C@@H]1[C@@H]1C=C[C@H]21
REMARK SMILES IDX 7 1 6 2 5 3 4 4 3 5 2 6 1 7 72 8 73 9 77 10 74 11 76 12
REMARK SMILES IDX 78 13 75 14 81 15 79 16 80 17 8 18 9 19 10 20 11 21 12 22
REMARK SMILES IDX 13 23 71 24 14 25 70 26 15 27 16 28 17 29 64 30 18 31 69 32
REMARK SMILES IDX 63 33 65 34 19 35 68 36 62 37 61 38 20 40 50 41 31 42 49 43
REMARK SMILES IDX 32 44 35 45 48 46 66 47 33 48 34 49 47 51 67 52 36 53 21 54
REMARK SMILES IDX 22 55 30 56 23 57 29 58 24 59 25 60 26 61 27 62 28 63 51 64
REMARK SMILES IDX 52 65 60 66 53 67 59 68 54 69 55 70 56 71 57 72 58 73 37 74
REMARK SMILES IDX 38 75 46 76 39 77 45 78 40 79 41 80 42 81 43 82 44 83
REMARK H PARENT 65 39 35 50
REMARK Flexibility Score: inf
ROOT
ATOM      1  C   UNL     1       2.739   0.777  -2.120  1.00  0.00     0.202 C 
ENDROOT
BRANCH   1   2
ATOM      2  O   UNL     1       3.966   0.871  -1.393  1.00  0.00    -0.374 OA
BRANCH   2   3
ATOM      3  C   UNL     1       4.516  -0.380  -0.971  1.00  0.00     0.202 C 
BRANCH   3   4
ATOM      4  C   UNL     1       4.396  -0.564   0.543  1.00  0.00     0.261 C 
BRANCH   4   5
ATOM      5  O   UNL     1       3.031  -0.857   0.919  1.00  0.00    -0.460 OA
BRANCH   5   6
ATOM      6  C   UNL     1       2.173   0.026   1.474  1.00  0.00     0.334 C 
ATOM      7  O   UNL     1       1.003  -0.263   1.699  1.00  0.00    -0.247 OA
BRANCH   6   8
ATOM      8  C   UNL     1       2.636   1.387   1.734  1.00  0.00     0.041 C 
ATOM      9  C   UNL     1       3.350   1.815   2.804  1.00  0.00    -0.007 C 
ATOM     10  C   UNL     1       2.151   2.496   0.813  1.00  0.00     0.056 C 
ATOM     11  C   UNL     1       3.583   3.338   2.813  1.00  0.00     0.042 C 
ATOM     12  C   UNL     1       3.388   3.304   0.408  1.00  0.00    -0.022 C 
ATOM     13  C   UNL     1       1.266   3.376   1.744  1.00  0.00     0.031 C 
ATOM     14  C   UNL     1       4.146   3.716   1.445  1.00  0.00    -0.022 C 
ATOM     15  C   UNL     1       2.145   3.955   2.905  1.00  0.00     0.030 C 
ATOM     16  C   UNL     1       0.985   4.816   1.365  1.00  0.00    -0.026 C 
ATOM     17  C   UNL     1       1.830   5.321   2.287  1.00  0.00    -0.026 C 
ENDBRANCH   6   8
ENDBRANCH   5   6
ENDBRANCH   4   5
ENDBRANCH   3   4
ENDBRANCH   2   3
ENDBRANCH   1   2
BRANCH   1  18
ATOM     18  C   UNL     1       2.928   0.802  -3.633  1.00  0.00     0.261 C 
BRANCH  18  19
ATOM     19  O   UNL     1       3.472  -0.438  -4.080  1.00  0.00    -0.460 OA
BRANCH  19  20
ATOM     20  C   UNL     1       4.818  -0.462  -4.210  1.00  0.00     0.338 C 
ATOM     21  O   UNL     1       5.593   0.474  -4.123  1.00  0.00    -0.246 OA
BRANCH  20  22
ATOM     22  C   UNL     1       5.228  -1.874  -4.294  1.00  0.00     0.060 A 
ATOM     23  C   UNL     1       6.416  -2.251  -3.658  1.00  0.00     0.016 A 
ATOM     24  C   UNL     1       4.438  -2.817  -4.960  1.00  0.00     0.016 A 
ATOM     25  C   UNL     1       6.831  -3.578  -3.708  1.00  0.00     0.010 A 
ATOM     26  C   UNL     1       4.851  -4.143  -5.004  1.00  0.00     0.010 A 
ATOM     27  C   UNL     1       6.061  -4.520  -4.401  1.00  0.00    -0.014 A 
BRANCH  27  28
ATOM     28  C   UNL     1       6.572  -5.887  -4.612  1.00  0.00     0.031 A 
ATOM     29  C   UNL     1       7.179  -6.224  -5.943  1.00  0.00     0.074 A 
ATOM     30  C   UNL     1       6.463  -6.804  -3.637  1.00  0.00     0.049 A 
ATOM     31  N   UNL     1       7.627  -7.371  -6.377  1.00  0.00    -0.248 NA
ATOM     32  C   UNL     1       7.287  -5.125  -6.919  1.00  0.00     0.031 C 
ATOM     33  C   UNL     1       5.897  -6.565  -2.308  1.00  0.00     0.029 A 
ATOM     34  N   UNL     1       6.811  -8.129  -3.621  1.00  0.00    -0.354 N 
ATOM     35  C   UNL     1       8.058  -7.137  -7.676  1.00  0.00     0.074 A 
ATOM     36  C   UNL     1       7.796  -5.746  -7.972  1.00  0.00     0.031 C 
ATOM     37  C   UNL     1       5.926  -7.713  -1.609  1.00  0.00     0.029 A 
ATOM     38  C   UNL     1       6.479  -8.769  -2.451  1.00  0.00     0.049 A 
ATOM     39  H   UNL     1       7.255  -8.579  -4.375  1.00  0.00     0.167 HD
ATOM     40  C   UNL     1       8.627  -8.008  -8.541  1.00  0.00     0.031 A 
ATOM     41  C   UNL     1       6.590 -10.068  -2.115  1.00  0.00     0.031 A 
ATOM     42  C   UNL     1       8.872  -9.390  -8.231  1.00  0.00     0.049 A 
ATOM     43  C   UNL     1       7.181 -11.026  -3.116  1.00  0.00     0.074 A 
ATOM     44  C   UNL     1       9.474 -10.354  -9.019  1.00  0.00     0.029 A 
ATOM     45  N   UNL     1       8.519 -10.005  -7.040  1.00  0.00    -0.354 N 
ATOM     46  N   UNL     1       7.633 -10.781  -4.324  1.00  0.00    -0.248 NA
ATOM     47  C   UNL     1       7.283 -12.433  -2.708  1.00  0.00     0.031 C 
ATOM     48  C   UNL     1       9.435 -11.567  -8.324  1.00  0.00     0.029 A 
ATOM     49  C   UNL     1       8.863 -11.344  -7.081  1.00  0.00     0.049 A 
ATOM     50  H   UNL     1       8.088  -9.556  -6.277  1.00  0.00     0.167 HD
ATOM     51  C   UNL     1       8.094 -11.999  -4.811  1.00  0.00     0.074 A 
ATOM     52  C   UNL     1       7.884 -12.974  -3.759  1.00  0.00     0.031 C 
ATOM     53  C   UNL     1       8.640 -12.290  -6.017  1.00  0.00     0.031 A 
BRANCH  40  54
ATOM     54  C   UNL     1       9.000  -7.499  -9.906  1.00  0.00    -0.014 A 
ATOM     55  C   UNL     1      10.096  -6.636 -10.086  1.00  0.00     0.010 A 
ATOM     56  C   UNL     1       8.280  -7.937 -11.032  1.00  0.00     0.010 A 
ATOM     57  C   UNL     1      10.453  -6.206 -11.367  1.00  0.00     0.020 A 
ATOM     58  C   UNL     1       8.649  -7.528 -12.316  1.00  0.00     0.020 A 
ATOM     59  C   UNL     1       9.729  -6.658 -12.474  1.00  0.00     0.054 A 
BRANCH  59  60
ATOM     60  S   UNL     1      10.250  -6.128 -14.129  1.00  0.00     0.124 S 
ATOM     61  O   UNL     1       9.843  -4.725 -14.139  1.00  0.00    -0.237 OA
ATOM     62  O   UNL     1      11.692  -6.362 -14.100  1.00  0.00    -0.237 OA
ATOM     63  O   UNL     1       9.498  -7.001 -15.027  1.00  0.00    -0.744 OA
ENDBRANCH  59  60
ENDBRANCH  40  54
BRANCH  41  64
ATOM     64  C   UNL     1       6.110 -10.544  -0.790  1.00  0.00    -0.014 A 
ATOM     65  C   UNL     1       7.019 -10.996   0.183  1.00  0.00     0.010 A 
ATOM     66  C   UNL     1       4.734 -10.560  -0.498  1.00  0.00     0.010 A 
ATOM     67  C   UNL     1       6.559 -11.483   1.411  1.00  0.00     0.020 A 
ATOM     68  C   UNL     1       4.271 -11.018   0.739  1.00  0.00     0.020 A 
ATOM     69  C   UNL     1       5.187 -11.492   1.680  1.00  0.00     0.054 A 
BRANCH  69  70
ATOM     70  S   UNL     1       4.614 -12.102   3.290  1.00  0.00     0.124 S 
ATOM     71  O   UNL     1       4.785 -13.545   3.145  1.00  0.00    -0.237 OA
ATOM     72  O   UNL     1       5.529 -11.447   4.220  1.00  0.00    -0.237 OA
ATOM     73  O   UNL     1       3.230 -11.638   3.358  1.00  0.00    -0.744 OA
ENDBRANCH  69  70
ENDBRANCH  41  64
BRANCH  53  74
ATOM     74  C   UNL     1       9.073 -13.712  -6.252  1.00  0.00    -0.014 A 
ATOM     75  C   UNL     1       8.130 -14.733  -6.457  1.00  0.00     0.010 A 
ATOM     76  C   UNL     1      10.445 -14.015  -6.323  1.00  0.00     0.010 A 
ATOM     77  C   UNL     1       8.552 -16.043  -6.697  1.00  0.00     0.020 A 
ATOM     78  C   UNL     1      10.870 -15.318  -6.592  1.00  0.00     0.020 A 
ATOM     79  C   UNL     1       9.920 -16.326  -6.763  1.00  0.00     0.054 A 
BRANCH  79  80
ATOM     80  S   UNL     1      10.442 -18.026  -7.118  1.00  0.00     0.124 S 
ATOM     81  O   UNL     1      10.174 -18.697  -5.849  1.00  0.00    -0.237 OA
ATOM     82  O   UNL     1       9.569 -18.405  -8.226  1.00  0.00    -0.237 OA
ATOM     83  O   UNL     1      11.855 -17.889  -7.464  1.00  0.00    -0.744 OA
ENDBRANCH  79  80
ENDBRANCH  53  74
ENDBRANCH  27  28
ENDBRANCH  20  22
ENDBRANCH  19  20
ENDBRANCH  18  19
ENDBRANCH   1  18
TORSDOF 17
