REMARK SMILES Cc1ccc(S(=O)(=O)Nc2cc(C(=O)OCCOCCOC(=O)c3ccc(-c4c5nc(c(-c6ccc(S(=O)(=O)[O-])cc6)c6ccc([nH]6)c(-c6ccc(S(=O)(=O)[O-])cc6)c6nc(c(-c7ccc(S(=O)(=O)[O-])cc7)c7ccc4[nH]7)C=C6)C=C5)cc3)cnc2N2CCCC2)c(C)c1
REMARK SMILES IDX 18 1 17 2 16 3 15 4 13 5 14 6 12 7 10 8 11 9 86 10 85 11
REMARK SMILES IDX 84 12 9 13 6 15 7 16 8 17 5 18 1 19 2 20 3 21 94 22 4 23
REMARK SMILES IDX 92 24 93 25 87 26 88 27 91 28 89 29 90 30 19 31 20 32 21 33
REMARK SMILES IDX 22 34 23 35 24 36 25 37 83 38 26 39 82 40 27 41 28 42 29 43
REMARK SMILES IDX 76 44 30 45 81 46 75 47 77 48 31 49 80 50 74 51 73 52 32 54
REMARK SMILES IDX 62 55 43 56 61 57 44 58 47 59 60 60 78 61 45 62 46 63 59 65
REMARK SMILES IDX 79 66 48 67 33 68 34 69 42 70 35 71 41 72 36 73 37 74 38 75
REMARK SMILES IDX 39 76 40 77 63 78 64 79 72 80 65 81 71 82 66 83 67 84 68 85
REMARK SMILES IDX 69 86 70 87 49 88 50 89 58 90 51 91 57 92 52 93 53 94 54 95
REMARK SMILES IDX 55 96 56 97
REMARK H PARENT 9 14 77 53 47 64
REMARK Flexibility Score: inf
ROOT
ATOM      1  O   UNL     1       4.258  -4.238   3.767  1.00  0.00    -0.374 OA
ENDROOT
BRANCH   1   2
ATOM      2  C   UNL     1       3.890  -2.862   3.873  1.00  0.00     0.202 C 
BRANCH   2   3
ATOM      3  C   UNL     1       3.550  -2.124   2.575  1.00  0.00     0.261 C 
BRANCH   3   4
ATOM      4  O   UNL     1       2.359  -2.651   1.969  1.00  0.00    -0.460 OA
BRANCH   4   5
ATOM      5  C   UNL     1       2.537  -3.300   0.799  1.00  0.00     0.339 C 
ATOM      6  O   UNL     1       3.585  -3.423   0.173  1.00  0.00    -0.246 OA
BRANCH   5   7
ATOM      7  C   UNL     1       1.289  -3.950   0.372  1.00  0.00     0.080 A 
ATOM      8  C   UNL     1      -1.081  -4.013   0.097  1.00  0.00     0.092 A 
ATOM      9  C   UNL     1       0.030  -3.518   0.773  1.00  0.00     0.048 A 
ATOM     10  C   UNL     1      -0.926  -5.068  -0.837  1.00  0.00     0.153 A 
ATOM     11  N   UNL     1       0.293  -5.565  -1.138  1.00  0.00    -0.236 NA
ATOM     12  C   UNL     1       1.369  -4.976  -0.560  1.00  0.00     0.129 A 
BRANCH   8  13
ATOM     13  N   UNL     1      -2.376  -3.448   0.357  1.00  0.00    -0.276 N 
ATOM     14  H   UNL     1      -3.026  -3.967   0.883  1.00  0.00     0.180 HD
BRANCH  13  15
ATOM     15  S   UNL     1      -2.825  -1.899  -0.218  1.00  0.00     0.262 S 
ATOM     16  O   UNL     1      -3.632  -1.371   0.863  1.00  0.00    -0.201 OA
ATOM     17  O   UNL     1      -3.411  -2.081  -1.529  1.00  0.00    -0.201 OA
BRANCH  15  18
ATOM     18  C   UNL     1      -1.406  -0.829  -0.451  1.00  0.00     0.090 A 
ATOM     19  C   UNL     1       2.346   1.280  -0.206  1.00  0.00     0.044 C 
ATOM     20  C   UNL     1       1.031   0.576  -0.368  1.00  0.00    -0.051 A 
ATOM     21  C   UNL     1       0.937  -0.623  -1.072  1.00  0.00     0.005 A 
ATOM     22  C   UNL     1      -0.145   1.158   0.114  1.00  0.00     0.008 A 
ATOM     23  C   UNL     1      -0.284  -1.301  -1.145  1.00  0.00     0.023 A 
ATOM     24  C   UNL     1      -1.382   0.487   0.040  1.00  0.00    -0.030 A 
ATOM     25  C   UNL     1      -2.602   1.294   0.394  1.00  0.00     0.046 C 
ENDBRANCH  15  18
ENDBRANCH  13  15
ENDBRANCH   8  13
BRANCH  10  26
ATOM     26  N   UNL     1      -2.043  -5.609  -1.456  1.00  0.00    -0.355 N 
ATOM     27  C   UNL     1      -2.468  -5.003  -2.711  1.00  0.00     0.118 C 
ATOM     28  C   UNL     1      -2.114  -7.063  -1.613  1.00  0.00     0.118 C 
ATOM     29  C   UNL     1      -3.663  -5.873  -3.066  1.00  0.00     0.023 C 
ATOM     30  C   UNL     1      -3.188  -7.274  -2.694  1.00  0.00     0.023 C 
ENDBRANCH  10  26
ENDBRANCH   5   7
ENDBRANCH   4   5
ENDBRANCH   3   4
ENDBRANCH   2   3
ENDBRANCH   1   2
BRANCH   1  31
ATOM     31  C   UNL     1       3.242  -5.190   3.465  1.00  0.00     0.202 C 
BRANCH  31  32
ATOM     32  C   UNL     1       2.247  -5.576   4.567  1.00  0.00     0.261 C 
BRANCH  32  33
ATOM     33  O   UNL     1       1.603  -4.453   5.185  1.00  0.00    -0.460 OA
BRANCH  33  34
ATOM     34  C   UNL     1       2.075  -4.172   6.425  1.00  0.00     0.338 C 
ATOM     35  O   UNL     1       2.919  -4.799   7.048  1.00  0.00    -0.246 OA
BRANCH  34  36
ATOM     36  C   UNL     1       1.556  -2.878   6.899  1.00  0.00     0.060 A 
ATOM     37  C   UNL     1       2.496  -1.950   7.360  1.00  0.00     0.016 A 
ATOM     38  C   UNL     1       0.187  -2.606   6.983  1.00  0.00     0.016 A 
ATOM     39  C   UNL     1       2.071  -0.775   7.970  1.00  0.00     0.010 A 
ATOM     40  C   UNL     1      -0.238  -1.423   7.599  1.00  0.00     0.010 A 
ATOM     41  C   UNL     1       0.702  -0.524   8.133  1.00  0.00    -0.014 A 
BRANCH  41  42
ATOM     42  C   UNL     1       0.294   0.624   8.979  1.00  0.00     0.031 A 
ATOM     43  C   UNL     1      -0.092   0.388  10.413  1.00  0.00     0.074 A 
ATOM     44  C   UNL     1       0.357   1.877   8.496  1.00  0.00     0.049 A 
ATOM     45  N   UNL     1      -0.336   1.260  11.357  1.00  0.00    -0.248 NA
ATOM     46  C   UNL     1      -0.215  -1.014  10.840  1.00  0.00     0.031 C 
ATOM     47  C   UNL     1       0.726   2.234   7.127  1.00  0.00     0.029 A 
ATOM     48  N   UNL     1       0.127   3.081   9.111  1.00  0.00    -0.354 N 
ATOM     49  C   UNL     1      -0.632   0.515  12.493  1.00  0.00     0.074 A 
ATOM     50  C   UNL     1      -0.581  -0.879  12.106  1.00  0.00     0.031 C 
ATOM     51  C   UNL     1       0.705   3.572   7.007  1.00  0.00     0.029 A 
ATOM     52  C   UNL     1       0.312   4.162   8.286  1.00  0.00     0.049 A 
ATOM     53  H   UNL     1      -0.144   3.162  10.054  1.00  0.00     0.167 HD
ATOM     54  C   UNL     1      -0.909   0.948  13.747  1.00  0.00     0.031 A 
ATOM     55  C   UNL     1       0.184   5.481   8.531  1.00  0.00     0.031 A 
ATOM     56  C   UNL     1      -0.994   2.336  14.122  1.00  0.00     0.049 A 
ATOM     57  C   UNL     1      -0.151   5.945   9.921  1.00  0.00     0.074 A 
ATOM     58  C   UNL     1      -1.261   2.879  15.367  1.00  0.00     0.029 A 
ATOM     59  N   UNL     1      -0.827   3.402  13.250  1.00  0.00    -0.354 N 
ATOM     60  N   UNL     1      -0.380   5.228  10.996  1.00  0.00    -0.248 NA
ATOM     61  C   UNL     1      -0.218   7.396  10.136  1.00  0.00     0.031 C 
ATOM     62  C   UNL     1      -1.305   4.272  15.237  1.00  0.00     0.029 A 
ATOM     63  C   UNL     1      -1.007   4.600  13.923  1.00  0.00     0.049 A 
ATOM     64  H   UNL     1      -0.613   3.320  12.293  1.00  0.00     0.167 HD
ATOM     65  C   UNL     1      -0.600   6.142  12.022  1.00  0.00     0.074 A 
ATOM     66  C   UNL     1      -0.458   7.462  11.440  1.00  0.00     0.031 C 
ATOM     67  C   UNL     1      -0.886   5.908  13.328  1.00  0.00     0.031 A 
BRANCH  54  68
ATOM     68  C   UNL     1      -1.177  -0.106  14.790  1.00  0.00    -0.014 A 
ATOM     69  C   UNL     1      -0.146  -0.940  15.265  1.00  0.00     0.010 A 
ATOM     70  C   UNL     1      -2.478  -0.275  15.295  1.00  0.00     0.010 A 
ATOM     71  C   UNL     1      -0.425  -1.962  16.177  1.00  0.00     0.020 A 
ATOM     72  C   UNL     1      -2.756  -1.278  16.228  1.00  0.00     0.020 A 
ATOM     73  C   UNL     1      -1.732  -2.132  16.643  1.00  0.00     0.054 A 
BRANCH  73  74
ATOM     74  S   UNL     1      -2.075  -3.481  17.806  1.00  0.00     0.124 S 
ATOM     75  O   UNL     1      -2.045  -4.649  16.929  1.00  0.00    -0.237 OA
ATOM     76  O   UNL     1      -0.968  -3.380  18.754  1.00  0.00    -0.237 OA
ATOM     77  O   UNL     1      -3.389  -3.144  18.350  1.00  0.00    -0.744 OA
ENDBRANCH  73  74
ENDBRANCH  54  68
BRANCH  55  78
ATOM     78  C   UNL     1       0.396   6.447   7.420  1.00  0.00    -0.014 A 
ATOM     79  C   UNL     1       1.559   7.232   7.355  1.00  0.00     0.010 A 
ATOM     80  C   UNL     1      -0.549   6.532   6.380  1.00  0.00     0.010 A 
ATOM     81  C   UNL     1       1.778   8.079   6.264  1.00  0.00     0.020 A 
ATOM     82  C   UNL     1      -0.322   7.359   5.278  1.00  0.00     0.020 A 
ATOM     83  C   UNL     1       0.841   8.128   5.227  1.00  0.00     0.054 A 
BRANCH  83  84
ATOM     84  S   UNL     1       1.199   9.147   3.768  1.00  0.00     0.124 S 
ATOM     85  O   UNL     1       0.950  10.495   4.269  1.00  0.00    -0.237 OA
ATOM     86  O   UNL     1       2.596   8.820   3.491  1.00  0.00    -0.237 OA
ATOM     87  O   UNL     1       0.247   8.661   2.772  1.00  0.00    -0.744 OA
ENDBRANCH  83  84
ENDBRANCH  55  78
BRANCH  67  88
ATOM     88  C   UNL     1      -1.047   7.111  14.222  1.00  0.00    -0.014 A 
ATOM     89  C   UNL     1      -2.167   7.956  14.117  1.00  0.00     0.010 A 
ATOM     90  C   UNL     1      -0.070   7.387  15.195  1.00  0.00     0.010 A 
ATOM     91  C   UNL     1      -2.280   9.085  14.935  1.00  0.00     0.020 A 
ATOM     92  C   UNL     1      -0.194   8.499  16.034  1.00  0.00     0.020 A 
ATOM     93  C   UNL     1      -1.287   9.353  15.882  1.00  0.00     0.054 A 
BRANCH  93  94
ATOM     94  S   UNL     1      -1.455  10.821  16.936  1.00  0.00     0.124 S 
ATOM     95  O   UNL     1      -1.087  11.896  16.018  1.00  0.00    -0.237 OA
ATOM     96  O   UNL     1      -2.862  10.780  17.325  1.00  0.00    -0.237 OA
ATOM     97  O   UNL     1      -0.508  10.577  18.022  1.00  0.00    -0.744 OA
ENDBRANCH  93  94
ENDBRANCH  67  88
ENDBRANCH  41  42
ENDBRANCH  34  36
ENDBRANCH  33  34
ENDBRANCH  32  33
ENDBRANCH  31  32
ENDBRANCH   1  31
TORSDOF 21
