REMARK SMILES Nc1ccc([C@H]([NH3+])C(=O)OCCOCCOC(=O)c2ccc(-c3c4nc(c(-c5ccc(S(=O)(=O)[O-])cc5)c5ccc([nH]5)c(-c5ccc(S(=O)(=O)[O-])cc5)c5nc(c(-c6ccc(S(=O)(=O)[O-])cc6)c6ccc3[nH]6)C=C5)C=C4)cc2)cc1C(F)(F)F
REMARK SMILES IDX 14 1 13 2 12 3 11 4 10 5 8 6 9 7 6 8 5 9 2 10 3 11 80 12
REMARK SMILES IDX 4 13 79 14 1 15 81 18 82 19 83 20 84 21 7 22 15 26 16 27
REMARK SMILES IDX 17 28 18 29 19 30 20 31 78 32 21 33 77 34 22 35 23 36 24 37
REMARK SMILES IDX 71 38 25 39 76 40 70 41 72 42 26 43 75 44 69 45 68 46 27 48
REMARK SMILES IDX 57 49 38 50 56 51 39 52 42 53 55 54 73 55 40 56 41 57 54 59
REMARK SMILES IDX 74 60 43 61 28 62 29 63 37 64 30 65 36 66 31 67 32 68 33 69
REMARK SMILES IDX 34 70 35 71 58 72 59 73 67 74 60 75 66 76 61 77 62 78 63 79
REMARK SMILES IDX 64 80 65 81 44 82 45 83 53 84 46 85 52 86 47 87 48 88 49 89
REMARK SMILES IDX 50 90 51 91
REMARK H PARENT 1 16 1 17 7 23 7 24 7 25 72 47 42 58
REMARK Flexibility Score: inf
ROOT
ATOM      1  C   UNL     1      -3.025   0.226   3.551  1.00  0.00     0.202 C 
ENDROOT
BRANCH   1   2
ATOM      2  O   UNL     1      -3.998  -0.568   4.228  1.00  0.00    -0.374 OA
BRANCH   2   3
ATOM      3  C   UNL     1      -4.167  -1.918   3.793  1.00  0.00     0.202 C 
BRANCH   3   4
ATOM      4  C   UNL     1      -4.906  -2.121   2.468  1.00  0.00     0.261 C 
BRANCH   4   5
ATOM      5  O   UNL     1      -4.138  -1.613   1.365  1.00  0.00    -0.459 OA
BRANCH   5   6
ATOM      6  C   UNL     1      -4.703  -0.582   0.667  1.00  0.00     0.369 C 
ATOM      7  O   UNL     1      -5.838  -0.151   0.844  1.00  0.00    -0.245 OA
BRANCH   6   8
ATOM      8  C   UNL     1      -3.755  -0.038  -0.421  1.00  0.00     0.323 C 
BRANCH   8   9
ATOM      9  C   UNL     1      -3.953  -0.787  -1.719  1.00  0.00     0.021 A 
ATOM     10  C   UNL     1      -4.542  -2.224  -4.088  1.00  0.00     0.044 A 
ATOM     11  C   UNL     1      -4.769  -0.843  -3.997  1.00  0.00     0.026 A 
ATOM     12  C   UNL     1      -3.951  -2.883  -3.002  1.00  0.00     0.079 A 
ATOM     13  C   UNL     1      -4.491  -0.133  -2.828  1.00  0.00     0.013 A 
ATOM     14  C   UNL     1      -3.664  -2.155  -1.827  1.00  0.00     0.025 A 
BRANCH  10  15
ATOM     15  N   UNL     1      -4.810  -2.855  -5.294  1.00  0.00    -0.398 N 
ATOM     16  H   UNL     1      -5.227  -2.352  -6.030  1.00  0.00     0.156 HD
ATOM     17  H   UNL     1      -4.583  -3.805  -5.413  1.00  0.00     0.156 HD
ENDBRANCH  10  15
BRANCH  12  18
ATOM     18  C   UNL     1      -3.633  -4.359  -2.991  1.00  0.00     0.418 C 
ATOM     19  F   UNL     1      -2.304  -4.595  -2.800  1.00  0.00    -0.166 F 
ATOM     20  F   UNL     1      -4.272  -5.008  -1.976  1.00  0.00    -0.166 F 
ATOM     21  F   UNL     1      -3.972  -5.026  -4.130  1.00  0.00    -0.166 F 
ENDBRANCH  12  18
ENDBRANCH   8   9
BRANCH   8  22
ATOM     22  N   UNL     1      -2.334  -0.016  -0.004  1.00  0.00    -0.342 N 
ATOM     23  H   UNL     1      -2.015  -0.970   0.166  1.00  0.00     0.345 HD
ATOM     24  H   UNL     1      -2.240   0.531   0.852  1.00  0.00     0.345 HD
ATOM     25  H   UNL     1      -1.770   0.405  -0.741  1.00  0.00     0.345 HD
ENDBRANCH   8  22
ENDBRANCH   6   8
ENDBRANCH   5   6
ENDBRANCH   4   5
ENDBRANCH   3   4
ENDBRANCH   2   3
ENDBRANCH   1   2
BRANCH   1  26
ATOM     26  C   UNL     1      -1.551  -0.020   3.898  1.00  0.00     0.261 C 
BRANCH  26  27
ATOM     27  O   UNL     1      -1.108  -1.355   3.599  1.00  0.00    -0.460 OA
BRANCH  27  28
ATOM     28  C   UNL     1      -0.911  -2.137   4.686  1.00  0.00     0.338 C 
ATOM     29  O   UNL     1      -1.036  -1.813   5.862  1.00  0.00    -0.246 OA
BRANCH  28  30
ATOM     30  C   UNL     1      -0.672  -3.533   4.280  1.00  0.00     0.060 A 
ATOM     31  C   UNL     1      -1.472  -4.523   4.865  1.00  0.00     0.016 A 
ATOM     32  C   UNL     1       0.371  -3.881   3.418  1.00  0.00     0.016 A 
ATOM     33  C   UNL     1      -1.198  -5.869   4.633  1.00  0.00     0.010 A 
ATOM     34  C   UNL     1       0.649  -5.234   3.193  1.00  0.00     0.010 A 
ATOM     35  C   UNL     1      -0.110  -6.233   3.830  1.00  0.00    -0.014 A 
BRANCH  35  36
ATOM     36  C   UNL     1       0.319  -7.652   3.781  1.00  0.00     0.031 A 
ATOM     37  C   UNL     1       1.468  -8.099   4.643  1.00  0.00     0.074 A 
ATOM     38  C   UNL     1      -0.329  -8.540   3.005  1.00  0.00     0.049 A 
ATOM     39  N   UNL     1       2.011  -9.284   4.750  1.00  0.00    -0.248 NA
ATOM     40  C   UNL     1       2.087  -7.074   5.499  1.00  0.00     0.031 C 
ATOM     41  C   UNL     1      -1.482  -8.238   2.157  1.00  0.00     0.029 A 
ATOM     42  N   UNL     1      -0.103  -9.878   2.804  1.00  0.00    -0.354 N 
ATOM     43  C   UNL     1       3.039  -9.147   5.676  1.00  0.00     0.074 A 
ATOM     44  C   UNL     1       3.061  -7.758   6.081  1.00  0.00     0.031 C 
ATOM     45  C   UNL     1      -1.860  -9.361   1.522  1.00  0.00     0.029 A 
ATOM     46  C   UNL     1      -0.959 -10.450   1.894  1.00  0.00     0.049 A 
ATOM     47  H   UNL     1       0.604 -10.381   3.269  1.00  0.00     0.167 HD
ATOM     48  C   UNL     1       3.886 -10.092   6.150  1.00  0.00     0.031 A 
ATOM     49  C   UNL     1      -1.000 -11.705   1.402  1.00  0.00     0.031 A 
ATOM     50  C   UNL     1       3.871 -11.470   5.736  1.00  0.00     0.049 A 
ATOM     51  C   UNL     1      -0.006 -12.724   1.895  1.00  0.00     0.074 A 
ATOM     52  C   UNL     1       4.678 -12.508   6.170  1.00  0.00     0.029 A 
ATOM     53  N   UNL     1       3.011 -12.002   4.787  1.00  0.00    -0.354 N 
ATOM     54  N   UNL     1       0.944 -12.584   2.789  1.00  0.00    -0.248 NA
ATOM     55  C   UNL     1      -0.097 -14.073   1.318  1.00  0.00     0.031 C 
ATOM     56  C   UNL     1       4.341 -13.655   5.444  1.00  0.00     0.029 A 
ATOM     57  C   UNL     1       3.284 -13.346   4.601  1.00  0.00     0.049 A 
ATOM     58  H   UNL     1       2.309 -11.498   4.315  1.00  0.00     0.167 HD
ATOM     59  C   UNL     1       1.546 -13.834   2.901  1.00  0.00     0.074 A 
ATOM     60  C   UNL     1       0.847 -14.718   1.992  1.00  0.00     0.031 C 
ATOM     61  C   UNL     1       2.581 -14.215   3.691  1.00  0.00     0.031 A 
BRANCH  48  62
ATOM     62  C   UNL     1       4.928  -9.653   7.144  1.00  0.00    -0.014 A 
ATOM     63  C   UNL     1       4.580  -9.313   8.464  1.00  0.00     0.010 A 
ATOM     64  C   UNL     1       6.280  -9.605   6.759  1.00  0.00     0.010 A 
ATOM     65  C   UNL     1       5.560  -8.892   9.367  1.00  0.00     0.020 A 
ATOM     66  C   UNL     1       7.266  -9.210   7.666  1.00  0.00     0.020 A 
ATOM     67  C   UNL     1       6.897  -8.837   8.960  1.00  0.00     0.054 A 
BRANCH  67  68
ATOM     68  S   UNL     1       8.151  -8.296  10.154  1.00  0.00     0.124 S 
ATOM     69  O   UNL     1       7.902  -6.858  10.220  1.00  0.00    -0.237 OA
ATOM     70  O   UNL     1       7.799  -9.049  11.355  1.00  0.00    -0.237 OA
ATOM     71  O   UNL     1       9.414  -8.681   9.529  1.00  0.00    -0.744 OA
ENDBRANCH  67  68
ENDBRANCH  48  62
BRANCH  49  72
ATOM     72  C   UNL     1      -2.013 -12.061   0.372  1.00  0.00    -0.014 A 
ATOM     73  C   UNL     1      -3.088 -12.911   0.685  1.00  0.00     0.010 A 
ATOM     74  C   UNL     1      -1.913 -11.536  -0.929  1.00  0.00     0.010 A 
ATOM     75  C   UNL     1      -4.040 -13.236  -0.287  1.00  0.00     0.020 A 
ATOM     76  C   UNL     1      -2.875 -11.838  -1.896  1.00  0.00     0.020 A 
ATOM     77  C   UNL     1      -3.929 -12.694  -1.571  1.00  0.00     0.054 A 
BRANCH  77  78
ATOM     78  S   UNL     1      -5.209 -13.079  -2.799  1.00  0.00     0.124 S 
ATOM     79  O   UNL     1      -4.886 -14.457  -3.152  1.00  0.00    -0.237 OA
ATOM     80  O   UNL     1      -6.442 -12.892  -2.038  1.00  0.00    -0.237 OA
ATOM     81  O   UNL     1      -4.981 -12.091  -3.851  1.00  0.00    -0.744 OA
ENDBRANCH  77  78
ENDBRANCH  49  72
BRANCH  61  82
ATOM     82  C   UNL     1       3.003 -15.659   3.636  1.00  0.00    -0.014 A 
ATOM     83  C   UNL     1       3.706 -16.174   2.533  1.00  0.00     0.010 A 
ATOM     84  C   UNL     1       2.746 -16.497   4.738  1.00  0.00     0.010 A 
ATOM     85  C   UNL     1       4.120 -17.510   2.521  1.00  0.00     0.020 A 
ATOM     86  C   UNL     1       3.181 -17.825   4.740  1.00  0.00     0.020 A 
ATOM     87  C   UNL     1       3.854 -18.327   3.624  1.00  0.00     0.054 A 
BRANCH  87  88
ATOM     88  S   UNL     1       4.443 -20.043   3.605  1.00  0.00     0.124 S 
ATOM     89  O   UNL     1       3.501 -20.677   2.687  1.00  0.00    -0.237 OA
ATOM     90  O   UNL     1       5.810 -19.908   3.109  1.00  0.00    -0.237 OA
ATOM     91  O   UNL     1       4.332 -20.463   5.000  1.00  0.00    -0.744 OA
ENDBRANCH  87  88
ENDBRANCH  61  82
ENDBRANCH  35  36
ENDBRANCH  28  30
ENDBRANCH  27  28
ENDBRANCH  26  27
ENDBRANCH   1  26
TORSDOF 21
