REMARK SMILES CCN1C(=O)C[C@@H](C(=O)OCCOCCOC(=O)c2ccc(-c3c4nc(c(-c5ccc(S(=O)(=O)[O-])cc5)c5ccc([nH]5)c(-c5ccc(S(=O)(=O)[O-])cc5)c5nc(c(-c6ccc(S(=O)(=O)[O-])cc6)c6ccc3[nH]6)C=C5)C=C4)cc2)[C@H]1c1ccccc1C1CC1
REMARK SMILES IDX 14 1 13 2 12 3 11 4 10 5 8 6 9 7 7 8 3 9 4 10 79 11 5 12
REMARK SMILES IDX 6 13 2 14 1 15 80 16 81 17 85 18 82 19 84 20 83 21 86 22
REMARK SMILES IDX 87 23 88 24 15 25 16 26 17 27 18 28 19 29 20 30 78 31 21 32
REMARK SMILES IDX 77 33 22 34 23 35 24 36 71 37 25 38 76 39 70 40 72 41 26 42
REMARK SMILES IDX 75 43 69 44 68 45 27 47 57 48 38 49 56 50 39 51 42 52 55 53
REMARK SMILES IDX 73 54 40 55 41 56 54 58 74 59 43 60 28 61 29 62 37 63 30 64
REMARK SMILES IDX 36 65 31 66 32 67 33 68 34 69 35 70 58 71 59 72 67 73 60 74
REMARK SMILES IDX 66 75 61 76 62 77 63 78 64 79 65 80 44 81 45 82 53 83 46 84
REMARK SMILES IDX 52 85 47 86 48 87 49 88 50 89 51 90
REMARK H PARENT 72 46 42 57
REMARK Flexibility Score: inf
ROOT
ATOM      1  C   UNL     1      -0.516   3.927  -6.256  1.00  0.00     0.202 C 
ENDROOT
BRANCH   1   2
ATOM      2  O   UNL     1      -1.829   3.375  -6.333  1.00  0.00    -0.374 OA
BRANCH   2   3
ATOM      3  C   UNL     1      -2.863   3.951  -5.542  1.00  0.00     0.202 C 
BRANCH   3   4
ATOM      4  C   UNL     1      -2.832   3.709  -4.031  1.00  0.00     0.261 C 
BRANCH   4   5
ATOM      5  O   UNL     1      -1.575   4.049  -3.432  1.00  0.00    -0.463 OA
BRANCH   5   6
ATOM      6  C   UNL     1      -0.797   2.979  -3.105  1.00  0.00     0.312 C 
ATOM      7  O   UNL     1      -1.094   1.808  -3.306  1.00  0.00    -0.252 OA
BRANCH   6   8
ATOM      8  C   UNL     1       0.508   3.432  -2.487  1.00  0.00     0.135 C 
ATOM      9  N   UNL     1       0.843   1.826  -0.828  1.00  0.00    -0.335 N 
ATOM     10  C   UNL     1       1.561   1.371  -1.938  1.00  0.00     0.224 C 
ATOM     11  C   UNL     1       0.563   3.246  -0.972  1.00  0.00     0.130 C 
ATOM     12  O   UNL     1       2.126   0.299  -2.087  1.00  0.00    -0.275 OA
ATOM     13  C   UNL     1       1.613   2.489  -2.962  1.00  0.00     0.118 C 
BRANCH   9  14
ATOM     14  C   UNL     1       0.621   1.104   0.420  1.00  0.00     0.117 C 
ATOM     15  C   UNL     1       1.074  -0.346   0.451  1.00  0.00     0.027 C 
ENDBRANCH   9  14
BRANCH  11  16
ATOM     16  C   UNL     1      -0.570   3.874  -0.181  1.00  0.00    -0.021 A 
ATOM     17  C   UNL     1      -1.864   3.313  -0.341  1.00  0.00     0.006 A 
ATOM     18  C   UNL     1      -0.423   5.053   0.606  1.00  0.00    -0.040 A 
ATOM     19  C   UNL     1      -3.013   3.944   0.125  1.00  0.00     0.000 A 
ATOM     20  C   UNL     1      -1.629   5.666   1.045  1.00  0.00     0.004 A 
ATOM     21  C   UNL     1      -2.898   5.144   0.795  1.00  0.00     0.000 A 
BRANCH  18  22
ATOM     22  C   UNL     1       0.847   5.764   1.087  1.00  0.00     0.019 C 
ATOM     23  C   UNL     1       2.194   5.127   1.290  1.00  0.00     0.009 C 
ATOM     24  C   UNL     1       1.989   6.127   0.179  1.00  0.00     0.009 C 
ENDBRANCH  18  22
ENDBRANCH  11  16
ENDBRANCH   6   8
ENDBRANCH   5   6
ENDBRANCH   4   5
ENDBRANCH   3   4
ENDBRANCH   2   3
ENDBRANCH   1   2
BRANCH   1  25
ATOM     25  C   UNL     1      -0.296   5.363  -6.744  1.00  0.00     0.261 C 
BRANCH  25  26
ATOM     26  O   UNL     1      -0.979   6.346  -5.944  1.00  0.00    -0.460 OA
BRANCH  26  27
ATOM     27  C   UNL     1      -1.927   7.046  -6.611  1.00  0.00     0.338 C 
ATOM     28  O   UNL     1      -2.236   6.931  -7.791  1.00  0.00    -0.246 OA
BRANCH  27  29
ATOM     29  C   UNL     1      -2.695   7.896  -5.689  1.00  0.00     0.060 A 
ATOM     30  C   UNL     1      -4.075   7.675  -5.593  1.00  0.00     0.016 A 
ATOM     31  C   UNL     1      -2.102   8.987  -5.053  1.00  0.00     0.016 A 
ATOM     32  C   UNL     1      -4.878   8.579  -4.904  1.00  0.00     0.010 A 
ATOM     33  C   UNL     1      -2.912   9.900  -4.371  1.00  0.00     0.010 A 
ATOM     34  C   UNL     1      -4.307   9.722  -4.330  1.00  0.00    -0.014 A 
BRANCH  34  35
ATOM     35  C   UNL     1      -5.188  10.805  -3.834  1.00  0.00     0.031 A 
ATOM     36  C   UNL     1      -5.462  11.988  -4.724  1.00  0.00     0.074 A 
ATOM     37  C   UNL     1      -5.766  10.718  -2.623  1.00  0.00     0.049 A 
ATOM     38  N   UNL     1      -6.179  13.055  -4.485  1.00  0.00    -0.248 NA
ATOM     39  C   UNL     1      -4.846  11.964  -6.062  1.00  0.00     0.031 C 
ATOM     40  C   UNL     1      -5.616   9.599  -1.693  1.00  0.00     0.029 A 
ATOM     41  N   UNL     1      -6.596  11.592  -1.969  1.00  0.00    -0.354 N 
ATOM     42  C   UNL     1      -6.098  13.831  -5.636  1.00  0.00     0.074 A 
ATOM     43  C   UNL     1      -5.241  13.126  -6.564  1.00  0.00     0.031 C 
ATOM     44  C   UNL     1      -6.327   9.860  -0.582  1.00  0.00     0.029 A 
ATOM     45  C   UNL     1      -6.953  11.174  -0.710  1.00  0.00     0.049 A 
ATOM     46  H   UNL     1      -6.906  12.439  -2.364  1.00  0.00     0.167 HD
ATOM     47  C   UNL     1      -6.687  15.022  -5.898  1.00  0.00     0.031 A 
ATOM     48  C   UNL     1      -7.684  11.792   0.239  1.00  0.00     0.031 A 
ATOM     49  C   UNL     1      -7.529  15.727  -4.968  1.00  0.00     0.049 A 
ATOM     50  C   UNL     1      -8.268  13.149  -0.049  1.00  0.00     0.074 A 
ATOM     51  C   UNL     1      -8.177  16.938  -5.141  1.00  0.00     0.029 A 
ATOM     52  N   UNL     1      -7.836  15.287  -3.690  1.00  0.00    -0.354 N 
ATOM     53  N   UNL     1      -8.192  13.864  -1.146  1.00  0.00    -0.248 NA
ATOM     54  C   UNL     1      -9.044  13.780   1.029  1.00  0.00     0.031 C 
ATOM     55  C   UNL     1      -8.836  17.253  -3.948  1.00  0.00     0.029 A 
ATOM     56  C   UNL     1      -8.645  16.213  -3.053  1.00  0.00     0.049 A 
ATOM     57  H   UNL     1      -7.525  14.441  -3.294  1.00  0.00     0.167 HD
ATOM     58  C   UNL     1      -8.931  15.017  -0.900  1.00  0.00     0.074 A 
ATOM     59  C   UNL     1      -9.456  14.897   0.445  1.00  0.00     0.031 C 
ATOM     60  C   UNL     1      -9.159  16.077  -1.714  1.00  0.00     0.031 A 
BRANCH  47  61
ATOM     61  C   UNL     1      -6.414  15.655  -7.236  1.00  0.00    -0.014 A 
ATOM     62  C   UNL     1      -6.987  15.144  -8.414  1.00  0.00     0.010 A 
ATOM     63  C   UNL     1      -5.604  16.803  -7.311  1.00  0.00     0.010 A 
ATOM     64  C   UNL     1      -6.730  15.751  -9.647  1.00  0.00     0.020 A 
ATOM     65  C   UNL     1      -5.364  17.427  -8.538  1.00  0.00     0.020 A 
ATOM     66  C   UNL     1      -5.917  16.887  -9.701  1.00  0.00     0.054 A 
BRANCH  66  67
ATOM     67  S   UNL     1      -5.619  17.671 -11.310  1.00  0.00     0.124 S 
ATOM     68  O   UNL     1      -4.697  16.728 -11.938  1.00  0.00    -0.237 OA
ATOM     69  O   UNL     1      -6.957  17.723 -11.894  1.00  0.00    -0.237 OA
ATOM     70  O   UNL     1      -5.044  18.968 -10.963  1.00  0.00    -0.744 OA
ENDBRANCH  66  67
ENDBRANCH  47  61
BRANCH  48  71
ATOM     71  C   UNL     1      -7.883  11.142   1.563  1.00  0.00    -0.014 A 
ATOM     72  C   UNL     1      -9.147  10.658   1.944  1.00  0.00     0.010 A 
ATOM     73  C   UNL     1      -6.802  11.011   2.454  1.00  0.00     0.010 A 
ATOM     74  C   UNL     1      -9.329  10.071   3.199  1.00  0.00     0.020 A 
ATOM     75  C   UNL     1      -6.975  10.401   3.698  1.00  0.00     0.020 A 
ATOM     76  C   UNL     1      -8.242   9.945   4.069  1.00  0.00     0.054 A 
BRANCH  76  77
ATOM     77  S   UNL     1      -8.488   9.137   5.674  1.00  0.00     0.124 S 
ATOM     78  O   UNL     1      -9.175  10.175   6.434  1.00  0.00    -0.237 OA
ATOM     79  O   UNL     1      -9.293   7.970   5.320  1.00  0.00    -0.237 OA
ATOM     80  O   UNL     1      -7.127   8.833   6.112  1.00  0.00    -0.744 OA
ENDBRANCH  76  77
ENDBRANCH  48  71
BRANCH  60  81
ATOM     81  C   UNL     1     -10.040  17.178  -1.189  1.00  0.00    -0.014 A 
ATOM     82  C   UNL     1      -9.581  18.076  -0.210  1.00  0.00     0.010 A 
ATOM     83  C   UNL     1     -11.330  17.348  -1.726  1.00  0.00     0.010 A 
ATOM     84  C   UNL     1     -10.408  19.107   0.245  1.00  0.00     0.020 A 
ATOM     85  C   UNL     1     -12.149  18.393  -1.293  1.00  0.00     0.020 A 
ATOM     86  C   UNL     1     -11.688  19.258  -0.298  1.00  0.00     0.054 A 
BRANCH  86  87
ATOM     87  S   UNL     1     -12.726  20.629   0.277  1.00  0.00     0.124 S 
ATOM     88  O   UNL     1     -13.158  20.152   1.588  1.00  0.00    -0.237 OA
ATOM     89  O   UNL     1     -11.795  21.754   0.293  1.00  0.00    -0.237 OA
ATOM     90  O   UNL     1     -13.778  20.714  -0.733  1.00  0.00    -0.744 OA
ENDBRANCH  86  87
ENDBRANCH  60  81
ENDBRANCH  34  35
ENDBRANCH  27  29
ENDBRANCH  26  27
ENDBRANCH  25  26
ENDBRANCH   1  25
TORSDOF 20
