REMARK SMILES NC(=O)C[NH+]1CCC([NH2+]Cc2cc(C(=O)OCCOCCOC(=O)c3ccc(-c4c5nc(c(-c6ccc(S(=O)(=O)[O-])cc6)c6ccc([nH]6)c(-c6ccc(S(=O)(=O)[O-])cc6)c6nc(c(-c7ccc(S(=O)(=O)[O-])cc7)c7ccc4[nH]7)C=C6)C=C5)cc3)cs2)CC1
REMARK SMILES IDX 18 1 17 2 16 3 14 4 15 5 13 6 11 7 12 8 86 9 85 10 10 11
REMARK SMILES IDX 9 12 8 15 5 16 6 17 88 18 7 20 87 21 4 22 2 23 1 24 3 27
REMARK SMILES IDX 19 28 20 29 21 30 22 31 23 32 24 33 25 34 26 35 84 36 27 37
REMARK SMILES IDX 83 38 28 39 29 40 30 41 77 42 31 43 82 44 76 45 78 46 32 47
REMARK SMILES IDX 81 48 75 49 74 50 33 52 63 53 44 54 62 55 45 56 48 57 61 58
REMARK SMILES IDX 79 59 46 60 47 61 60 63 80 64 49 65 34 66 35 67 43 68 36 69
REMARK SMILES IDX 42 70 37 71 38 72 39 73 40 74 41 75 64 76 65 77 73 78 66 79
REMARK SMILES IDX 72 80 67 81 68 82 69 83 70 84 71 85 50 86 51 87 59 88 52 89
REMARK SMILES IDX 58 90 53 91 54 92 55 93 56 94 57 95
REMARK H PARENT 9 13 9 14 5 19 1 25 1 26 78 51 48 62
REMARK Flexibility Score: inf
ROOT
ATOM      1  C   UNL     1       1.863   7.220  -4.640  1.00  0.00     0.202 C 
ENDROOT
BRANCH   1   2
ATOM      2  C   UNL     1       3.255   6.899  -5.182  1.00  0.00     0.261 C 
BRANCH   2   3
ATOM      3  O   UNL     1       3.413   5.492  -5.422  1.00  0.00    -0.460 OA
BRANCH   3   4
ATOM      4  C   UNL     1       4.196   4.838  -4.518  1.00  0.00     0.339 C 
ATOM      5  O   UNL     1       4.773   5.374  -3.578  1.00  0.00    -0.246 OA
BRANCH   4   6
ATOM      6  C   UNL     1       4.282   3.400  -4.764  1.00  0.00     0.071 A 
ATOM      7  C   UNL     1       3.866   1.250  -5.641  1.00  0.00     0.060 A 
ATOM      8  C   UNL     1       3.550   2.598  -5.711  1.00  0.00     0.037 A 
ATOM      9  S   UNL     1       5.176   0.992  -4.555  1.00  0.00    -0.142 S 
ATOM     10  C   UNL     1       5.136   2.606  -4.023  1.00  0.00     0.081 A 
BRANCH   7  11
ATOM     11  C   UNL     1       3.251   0.101  -6.409  1.00  0.00     0.308 C 
BRANCH  11  12
ATOM     12  N   UNL     1       3.336  -1.194  -5.725  1.00  0.00    -0.339 N 
ATOM     13  H   UNL     1       3.334  -1.921  -6.441  1.00  0.00     0.346 HD
ATOM     14  H   UNL     1       4.187  -1.141  -5.165  1.00  0.00     0.346 HD
BRANCH  12  15
ATOM     15  C   UNL     1       2.268  -1.517  -4.763  1.00  0.00     0.194 C 
ATOM     16  N   UNL     1       1.518  -2.032  -1.952  1.00  0.00    -0.327 N 
ATOM     17  C   UNL     1       1.740  -3.163  -2.876  1.00  0.00     0.268 C 
ATOM     18  C   UNL     1       0.922  -0.917  -2.705  1.00  0.00     0.268 C 
ATOM     19  H   UNL     1       2.393  -1.699  -1.548  1.00  0.00     0.348 HD
ATOM     20  C   UNL     1       2.691  -2.796  -4.017  1.00  0.00     0.126 C 
ATOM     21  C   UNL     1       1.920  -0.422  -3.750  1.00  0.00     0.126 C 
BRANCH  16  22
ATOM     22  C   UNL     1       0.654  -2.492  -0.833  1.00  0.00     0.363 C 
BRANCH  22  23
ATOM     23  C   UNL     1       0.186  -1.359   0.082  1.00  0.00     0.272 C 
ATOM     24  N   UNL     1       1.158  -0.512   0.532  1.00  0.00    -0.365 N 
ATOM     25  H   UNL     1       0.921   0.237   1.125  1.00  0.00     0.159 HD
ATOM     26  H   UNL     1       2.095  -0.652   0.264  1.00  0.00     0.159 HD
ATOM     27  O   UNL     1      -0.981  -1.222   0.435  1.00  0.00    -0.269 OA
ENDBRANCH  22  23
ENDBRANCH  16  22
ENDBRANCH  12  15
ENDBRANCH  11  12
ENDBRANCH   7  11
ENDBRANCH   4   6
ENDBRANCH   3   4
ENDBRANCH   2   3
ENDBRANCH   1   2
BRANCH   1  28
ATOM     28  O   UNL     1       1.532   6.582  -3.408  1.00  0.00    -0.374 OA
BRANCH  28  29
ATOM     29  C   UNL     1       0.948   5.279  -3.506  1.00  0.00     0.202 C 
BRANCH  29  30
ATOM     30  C   UNL     1      -0.545   5.257  -3.863  1.00  0.00     0.261 C 
BRANCH  30  31
ATOM     31  O   UNL     1      -0.749   5.536  -5.262  1.00  0.00    -0.460 OA
BRANCH  31  32
ATOM     32  C   UNL     1      -1.358   6.716  -5.538  1.00  0.00     0.338 C 
ATOM     33  O   UNL     1      -1.832   7.505  -4.739  1.00  0.00    -0.246 OA
BRANCH  32  34
ATOM     34  C   UNL     1      -1.179   7.032  -6.971  1.00  0.00     0.060 A 
ATOM     35  C   UNL     1      -0.654   8.290  -7.298  1.00  0.00     0.016 A 
ATOM     36  C   UNL     1      -1.538   6.132  -7.976  1.00  0.00     0.016 A 
ATOM     37  C   UNL     1      -0.513   8.663  -8.635  1.00  0.00     0.010 A 
ATOM     38  C   UNL     1      -1.408   6.513  -9.315  1.00  0.00     0.010 A 
ATOM     39  C   UNL     1      -0.918   7.788  -9.651  1.00  0.00    -0.014 A 
BRANCH  39  40
ATOM     40  C   UNL     1      -0.946   8.248 -11.060  1.00  0.00     0.031 A 
ATOM     41  C   UNL     1      -2.249   8.710 -11.650  1.00  0.00     0.074 A 
ATOM     42  C   UNL     1       0.175   8.255 -11.805  1.00  0.00     0.049 A 
ATOM     43  N   UNL     1      -2.515   9.088 -12.873  1.00  0.00    -0.248 NA
ATOM     44  C   UNL     1      -3.406   8.749 -10.740  1.00  0.00     0.031 C 
ATOM     45  C   UNL     1       1.506   7.876 -11.334  1.00  0.00     0.029 A 
ATOM     46  N   UNL     1       0.365   8.585 -13.123  1.00  0.00    -0.354 N 
ATOM     47  C   UNL     1      -3.869   9.402 -12.884  1.00  0.00     0.074 A 
ATOM     48  C   UNL     1      -4.374   9.149 -11.552  1.00  0.00     0.031 C 
ATOM     49  C   UNL     1       2.375   7.982 -12.355  1.00  0.00     0.029 A 
ATOM     50  C   UNL     1       1.656   8.400 -13.557  1.00  0.00     0.049 A 
ATOM     51  H   UNL     1      -0.355   8.923 -13.704  1.00  0.00     0.167 HD
ATOM     52  C   UNL     1      -4.623   9.861 -13.911  1.00  0.00     0.031 A 
ATOM     53  C   UNL     1       2.190   8.525 -14.788  1.00  0.00     0.031 A 
ATOM     54  C   UNL     1      -4.123  10.095 -15.239  1.00  0.00     0.049 A 
ATOM     55  C   UNL     1       1.313   8.953 -15.935  1.00  0.00     0.074 A 
ATOM     56  C   UNL     1      -4.806  10.574 -16.343  1.00  0.00     0.029 A 
ATOM     57  N   UNL     1      -2.820   9.858 -15.647  1.00  0.00    -0.354 N 
ATOM     58  N   UNL     1       0.039   9.268 -15.925  1.00  0.00    -0.248 NA
ATOM     59  C   UNL     1       1.945   9.042 -17.260  1.00  0.00     0.031 C 
ATOM     60  C   UNL     1      -3.929  10.573 -17.433  1.00  0.00     0.029 A 
ATOM     61  C   UNL     1      -2.685  10.149 -16.994  1.00  0.00     0.049 A 
ATOM     62  H   UNL     1      -2.096   9.530 -15.065  1.00  0.00     0.167 HD
ATOM     63  C   UNL     1      -0.276   9.614 -17.235  1.00  0.00     0.074 A 
ATOM     64  C   UNL     1       0.941   9.481 -18.009  1.00  0.00     0.031 C 
ATOM     65  C   UNL     1      -1.467  10.009 -17.751  1.00  0.00     0.031 A 
BRANCH  52  66
ATOM     66  C   UNL     1      -6.085  10.103 -13.644  1.00  0.00    -0.014 A 
ATOM     67  C   UNL     1      -6.512  11.194 -12.867  1.00  0.00     0.010 A 
ATOM     68  C   UNL     1      -7.046   9.244 -14.207  1.00  0.00     0.010 A 
ATOM     69  C   UNL     1      -7.873  11.399 -12.625  1.00  0.00     0.020 A 
ATOM     70  C   UNL     1      -8.409   9.460 -13.989  1.00  0.00     0.020 A 
ATOM     71  C   UNL     1      -8.813  10.527 -13.184  1.00  0.00     0.054 A 
BRANCH  71  72
ATOM     72  S   UNL     1     -10.574  10.826 -12.868  1.00  0.00     0.124 S 
ATOM     73  O   UNL     1     -10.704  10.407 -11.475  1.00  0.00    -0.237 OA
ATOM     74  O   UNL     1     -10.704  12.261 -13.107  1.00  0.00    -0.237 OA
ATOM     75  O   UNL     1     -11.251   9.971 -13.841  1.00  0.00    -0.744 OA
ENDBRANCH  71  72
ENDBRANCH  52  66
BRANCH  53  76
ATOM     76  C   UNL     1       3.628   8.209 -15.008  1.00  0.00    -0.014 A 
ATOM     77  C   UNL     1       4.551   9.229 -15.295  1.00  0.00     0.010 A 
ATOM     78  C   UNL     1       4.081   6.879 -14.928  1.00  0.00     0.010 A 
ATOM     79  C   UNL     1       5.899   8.924 -15.508  1.00  0.00     0.020 A 
ATOM     80  C   UNL     1       5.432   6.574 -15.114  1.00  0.00     0.020 A 
ATOM     81  C   UNL     1       6.331   7.598 -15.413  1.00  0.00     0.054 A 
BRANCH  81  82
ATOM     82  S   UNL     1       8.095   7.232 -15.635  1.00  0.00     0.124 S 
ATOM     83  O   UNL     1       8.253   7.367 -17.079  1.00  0.00    -0.237 OA
ATOM     84  O   UNL     1       8.735   8.267 -14.827  1.00  0.00    -0.237 OA
ATOM     85  O   UNL     1       8.229   5.874 -15.112  1.00  0.00    -0.744 OA
ENDBRANCH  81  82
ENDBRANCH  53  76
BRANCH  65  86
ATOM     86  C   UNL     1      -1.514  10.352 -19.216  1.00  0.00    -0.014 A 
ATOM     87  C   UNL     1      -1.479   9.348 -20.199  1.00  0.00     0.010 A 
ATOM     88  C   UNL     1      -1.671  11.694 -19.610  1.00  0.00     0.010 A 
ATOM     89  C   UNL     1      -1.580   9.682 -21.553  1.00  0.00     0.020 A 
ATOM     90  C   UNL     1      -1.798  12.029 -20.960  1.00  0.00     0.020 A 
ATOM     91  C   UNL     1      -1.741  11.021 -21.925  1.00  0.00     0.054 A 
BRANCH  91  92
ATOM     92  S   UNL     1      -1.932  11.423 -23.684  1.00  0.00     0.124 S 
ATOM     93  O   UNL     1      -0.570  11.255 -24.183  1.00  0.00    -0.237 OA
ATOM     94  O   UNL     1      -2.896  10.424 -24.139  1.00  0.00    -0.237 OA
ATOM     95  O   UNL     1      -2.427  12.797 -23.674  1.00  0.00    -0.744 OA
ENDBRANCH  91  92
ENDBRANCH  65  86
ENDBRANCH  39  40
ENDBRANCH  32  34
ENDBRANCH  31  32
ENDBRANCH  30  31
ENDBRANCH  29  30
ENDBRANCH  28  29
ENDBRANCH   1  28
TORSDOF 22
