REMARK SMILES CCOc1ccc(-c2nc(C(=O)OCCOCCOC(=O)c3ccc(-c4c5nc(c(-c6ccc(S(=O)(=O)[O-])cc6)c6ccc([nH]6)c(-c6ccc(S(=O)(=O)[O-])cc6)c6nc(c(-c7ccc(S(=O)(=O)[O-])cc7)c7ccc4[nH]7)C=C6)C=C5)cc3)cc(=O)[nH]2)cc1
REMARK SMILES IDX 16 1 15 2 14 3 13 4 11 5 12 6 10 7 8 8 9 9 85 10 83 11 82 13
REMARK SMILES IDX 84 14 7 15 4 16 5 17 87 18 6 19 86 20 3 21 2 22 1 23 17 24
REMARK SMILES IDX 18 25 19 26 20 27 21 28 22 29 23 30 81 31 24 32 80 33 25 34
REMARK SMILES IDX 26 35 27 36 74 37 28 38 79 39 73 40 75 41 29 42 78 43 72 44
REMARK SMILES IDX 71 45 30 47 60 48 41 49 59 50 42 51 45 52 58 53 76 54 43 55
REMARK SMILES IDX 44 56 57 58 77 59 46 60 31 61 32 62 40 63 33 64 39 65 34 66
REMARK SMILES IDX 35 67 36 68 37 69 38 70 61 71 62 72 70 73 63 74 69 75 64 76
REMARK SMILES IDX 65 77 66 78 67 79 68 80 47 81 48 82 56 83 49 84 55 85 50 86
REMARK SMILES IDX 51 87 52 88 53 89 54 90
REMARK H PARENT 85 12 75 46 45 57
REMARK Flexibility Score: inf
ROOT
ATOM      1  O   UNL     1       9.531  -4.936   1.426  1.00  0.00    -0.374 OA
ENDROOT
BRANCH   1   2
ATOM      2  C   UNL     1      10.646  -5.518   0.749  1.00  0.00     0.202 C 
BRANCH   2   3
ATOM      3  C   UNL     1      10.348  -6.120  -0.628  1.00  0.00     0.261 C 
BRANCH   3   4
ATOM      4  O   UNL     1       9.948  -5.095  -1.552  1.00  0.00    -0.459 OA
BRANCH   4   5
ATOM      5  C   UNL     1       8.684  -5.216  -2.037  1.00  0.00     0.357 C 
ATOM      6  O   UNL     1       7.960  -6.195  -1.920  1.00  0.00    -0.244 OA
BRANCH   5   7
ATOM      7  C   UNL     1       8.214  -3.906  -2.604  1.00  0.00     0.156 A 
ATOM      8  C   UNL     1       6.463  -2.467  -2.861  1.00  0.00     0.141 A 
ATOM      9  N   UNL     1       6.906  -3.561  -2.343  1.00  0.00    -0.223 NA
ATOM     10  N   UNL     1       7.231  -1.634  -3.626  1.00  0.00    -0.306 N 
ATOM     11  C   UNL     1       8.548  -1.892  -3.866  1.00  0.00     0.251 A 
ATOM     12  H   UNL     1       6.822  -0.827  -4.013  1.00  0.00     0.171 HD
ATOM     13  C   UNL     1       9.066  -3.150  -3.310  1.00  0.00     0.107 A 
ATOM     14  O   UNL     1       9.263  -1.125  -4.499  1.00  0.00    -0.269 OA
BRANCH   8  15
ATOM     15  C   UNL     1       5.074  -2.052  -2.615  1.00  0.00     0.018 A 
ATOM     16  C   UNL     1       2.406  -1.520  -2.069  1.00  0.00     0.119 A 
ATOM     17  C   UNL     1       2.812  -1.746  -3.386  1.00  0.00     0.047 A 
ATOM     18  C   UNL     1       3.325  -1.576  -1.023  1.00  0.00     0.047 A 
ATOM     19  C   UNL     1       4.156  -2.003  -3.667  1.00  0.00     0.016 A 
ATOM     20  C   UNL     1       4.666  -1.841  -1.295  1.00  0.00     0.016 A 
BRANCH  16  21
ATOM     21  O   UNL     1       1.068  -1.399  -1.814  1.00  0.00    -0.494 OA
BRANCH  21  22
ATOM     22  C   UNL     1       0.681  -0.062  -1.482  1.00  0.00     0.226 C 
ATOM     23  C   UNL     1       0.644   0.147   0.023  1.00  0.00     0.049 C 
ENDBRANCH  21  22
ENDBRANCH  16  21
ENDBRANCH   8  15
ENDBRANCH   5   7
ENDBRANCH   4   5
ENDBRANCH   3   4
ENDBRANCH   2   3
ENDBRANCH   1   2
BRANCH   1  24
ATOM     24  C   UNL     1       9.160  -3.611   1.043  1.00  0.00     0.202 C 
BRANCH  24  25
ATOM     25  C   UNL     1      10.000  -2.476   1.643  1.00  0.00     0.261 C 
BRANCH  25  26
ATOM     26  O   UNL     1      11.348  -2.479   1.139  1.00  0.00    -0.460 OA
BRANCH  26  27
ATOM     27  C   UNL     1      12.291  -2.844   2.040  1.00  0.00     0.338 C 
ATOM     28  O   UNL     1      12.121  -3.079   3.229  1.00  0.00    -0.246 OA
BRANCH  27  29
ATOM     29  C   UNL     1      13.570  -3.106   1.355  1.00  0.00     0.060 A 
ATOM     30  C   UNL     1      14.207  -4.325   1.622  1.00  0.00     0.016 A 
ATOM     31  C   UNL     1      14.169  -2.162   0.518  1.00  0.00     0.016 A 
ATOM     32  C   UNL     1      15.469  -4.584   1.091  1.00  0.00     0.010 A 
ATOM     33  C   UNL     1      15.439  -2.421  -0.008  1.00  0.00     0.010 A 
ATOM     34  C   UNL     1      16.109  -3.618   0.305  1.00  0.00    -0.014 A 
BRANCH  34  35
ATOM     35  C   UNL     1      17.529  -3.808  -0.077  1.00  0.00     0.031 A 
ATOM     36  C   UNL     1      18.601  -3.103   0.708  1.00  0.00     0.074 A 
ATOM     37  C   UNL     1      17.864  -4.612  -1.101  1.00  0.00     0.049 A 
ATOM     38  N   UNL     1      19.898  -3.122   0.540  1.00  0.00    -0.248 NA
ATOM     39  C   UNL     1      18.147  -2.262   1.826  1.00  0.00     0.031 C 
ATOM     40  C   UNL     1      16.921  -5.370  -1.922  1.00  0.00     0.029 A 
ATOM     41  N   UNL     1      19.094  -4.916  -1.629  1.00  0.00    -0.354 N 
ATOM     42  C   UNL     1      20.417  -2.289   1.525  1.00  0.00     0.074 A 
ATOM     43  C   UNL     1      19.291  -1.758   2.264  1.00  0.00     0.031 C 
ATOM     44  C   UNL     1      17.607  -6.040  -2.863  1.00  0.00     0.029 A 
ATOM     45  C   UNL     1      19.032  -5.737  -2.727  1.00  0.00     0.049 A 
ATOM     46  H   UNL     1      19.940  -4.577  -1.256  1.00  0.00     0.167 HD
ATOM     47  C   UNL     1      21.713  -1.994   1.792  1.00  0.00     0.031 A 
ATOM     48  C   UNL     1      20.007  -6.180  -3.545  1.00  0.00     0.031 A 
ATOM     49  C   UNL     1      22.829  -2.503   1.040  1.00  0.00     0.049 A 
ATOM     50  C   UNL     1      21.436  -5.801  -3.267  1.00  0.00     0.074 A 
ATOM     51  C   UNL     1      24.179  -2.284   1.247  1.00  0.00     0.029 A 
ATOM     52  N   UNL     1      22.723  -3.318  -0.078  1.00  0.00    -0.354 N 
ATOM     53  N   UNL     1      21.916  -5.049  -2.305  1.00  0.00    -0.248 NA
ATOM     54  C   UNL     1      22.456  -6.340  -4.177  1.00  0.00     0.031 C 
ATOM     55  C   UNL     1      24.887  -2.920   0.220  1.00  0.00     0.029 A 
ATOM     56  C   UNL     1      23.982  -3.586  -0.591  1.00  0.00     0.049 A 
ATOM     57  H   UNL     1      21.878  -3.657  -0.452  1.00  0.00     0.167 HD
ATOM     58  C   UNL     1      23.296  -5.038  -2.483  1.00  0.00     0.074 A 
ATOM     59  C   UNL     1      23.573  -5.870  -3.637  1.00  0.00     0.031 C 
ATOM     60  C   UNL     1      24.245  -4.401  -1.752  1.00  0.00     0.031 A 
BRANCH  47  61
ATOM     61  C   UNL     1      21.975  -1.032   2.922  1.00  0.00    -0.014 A 
ATOM     62  C   UNL     1      21.744  -1.395   4.262  1.00  0.00     0.010 A 
ATOM     63  C   UNL     1      22.442   0.263   2.636  1.00  0.00     0.010 A 
ATOM     64  C   UNL     1      21.910  -0.460   5.287  1.00  0.00     0.020 A 
ATOM     65  C   UNL     1      22.638   1.193   3.661  1.00  0.00     0.020 A 
ATOM     66  C   UNL     1      22.343   0.833   4.977  1.00  0.00     0.054 A 
BRANCH  66  67
ATOM     67  S   UNL     1      22.520   2.041   6.319  1.00  0.00     0.124 S 
ATOM     68  O   UNL     1      21.127   2.380   6.602  1.00  0.00    -0.237 OA
ATOM     69  O   UNL     1      23.201   1.272   7.358  1.00  0.00    -0.237 OA
ATOM     70  O   UNL     1      23.312   3.111   5.721  1.00  0.00    -0.744 OA
ENDBRANCH  66  67
ENDBRANCH  47  61
BRANCH  48  71
ATOM     71  C   UNL     1      19.643  -7.023  -4.715  1.00  0.00    -0.014 A 
ATOM     72  C   UNL     1      19.905  -8.402  -4.718  1.00  0.00     0.010 A 
ATOM     73  C   UNL     1      18.965  -6.450  -5.808  1.00  0.00     0.010 A 
ATOM     74  C   UNL     1      19.484  -9.199  -5.788  1.00  0.00     0.020 A 
ATOM     75  C   UNL     1      18.522  -7.246  -6.867  1.00  0.00     0.020 A 
ATOM     76  C   UNL     1      18.785  -8.617  -6.850  1.00  0.00     0.054 A 
BRANCH  76  77
ATOM     77  S   UNL     1      18.151  -9.687  -8.172  1.00  0.00     0.124 S 
ATOM     78  O   UNL     1      19.366 -10.013  -8.910  1.00  0.00    -0.237 OA
ATOM     79  O   UNL     1      17.549 -10.788  -7.423  1.00  0.00    -0.237 OA
ATOM     80  O   UNL     1      17.198  -8.831  -8.876  1.00  0.00    -0.744 OA
ENDBRANCH  76  77
ENDBRANCH  48  71
BRANCH  60  81
ATOM     81  C   UNL     1      25.682  -4.588  -2.165  1.00  0.00    -0.014 A 
ATOM     82  C   UNL     1      26.195  -3.971  -3.320  1.00  0.00     0.010 A 
ATOM     83  C   UNL     1      26.546  -5.346  -1.352  1.00  0.00     0.010 A 
ATOM     84  C   UNL     1      27.540  -4.131  -3.668  1.00  0.00     0.020 A 
ATOM     85  C   UNL     1      27.896  -5.486  -1.683  1.00  0.00     0.020 A 
ATOM     86  C   UNL     1      28.382  -4.888  -2.848  1.00  0.00     0.054 A 
BRANCH  86  87
ATOM     87  S   UNL     1      30.133  -5.045  -3.297  1.00  0.00     0.124 S 
ATOM     88  O   UNL     1      30.077  -5.981  -4.416  1.00  0.00    -0.237 OA
ATOM     89  O   UNL     1      30.500  -3.674  -3.642  1.00  0.00    -0.237 OA
ATOM     90  O   UNL     1      30.757  -5.563  -2.082  1.00  0.00    -0.744 OA
ENDBRANCH  86  87
ENDBRANCH  60  81
ENDBRANCH  34  35
ENDBRANCH  27  29
ENDBRANCH  26  27
ENDBRANCH  25  26
ENDBRANCH  24  25
ENDBRANCH   1  24
TORSDOF 20
