REMARK SMILES O=C(OCCOCCOC(=O)[C@@H]1CC(=O)N(CCO)C1)c1ccc(-c2c3nc(c(-c4ccc(S(=O)(=O)[O-])cc4)c4ccc([nH]4)c(-c4ccc(S(=O)(=O)[O-])cc4)c4nc(c(-c5ccc(S(=O)(=O)[O-])cc5)c5ccc2[nH]5)C=C4)C=C3)cc1
REMARK SMILES IDX 6 1 5 2 4 3 3 4 2 5 1 6 21 7 22 8 80 9 23 10 79 11 24 12
REMARK SMILES IDX 25 13 26 14 73 15 27 16 78 17 72 18 74 19 28 20 77 21 71 22
REMARK SMILES IDX 70 23 29 25 59 26 40 27 58 28 41 29 44 30 57 31 75 32 42 33
REMARK SMILES IDX 43 34 56 36 76 37 45 38 30 39 31 40 39 41 32 42 38 43 33 44
REMARK SMILES IDX 34 45 35 46 36 47 37 48 60 49 61 50 69 51 62 52 68 53 63 54
REMARK SMILES IDX 64 55 65 56 66 57 67 58 46 59 47 60 55 61 48 62 54 63 49 64
REMARK SMILES IDX 50 65 51 66 52 67 53 68 7 69 8 70 9 71 10 72 11 73 12 74
REMARK SMILES IDX 13 75 20 76 14 77 16 78 15 79 17 80 18 81 19 82
REMARK H PARENT 74 24 44 35 19 83
REMARK Flexibility Score: inf
ROOT
ATOM      1  O   UNL     1       3.902   1.174   1.113  1.00  0.00    -0.374 OA
ENDROOT
BRANCH   1   2
ATOM      2  C   UNL     1       4.225   1.552  -0.226  1.00  0.00     0.202 C 
BRANCH   2   3
ATOM      3  C   UNL     1       4.049   0.458  -1.282  1.00  0.00     0.261 C 
BRANCH   3   4
ATOM      4  O   UNL     1       2.692  -0.007  -1.297  1.00  0.00    -0.460 OA
BRANCH   4   5
ATOM      5  C   UNL     1       2.176  -1.056  -0.611  1.00  0.00     0.338 C 
ATOM      6  O   UNL     1       0.960  -1.234  -0.631  1.00  0.00    -0.246 OA
BRANCH   5   7
ATOM      7  C   UNL     1       3.021  -2.024   0.146  1.00  0.00     0.060 A 
ATOM      8  C   UNL     1       4.219  -1.695   0.778  1.00  0.00     0.016 A 
ATOM      9  C   UNL     1       2.538  -3.333   0.294  1.00  0.00     0.016 A 
ATOM     10  C   UNL     1       4.957  -2.622   1.472  1.00  0.00     0.010 A 
ATOM     11  C   UNL     1       3.252  -4.274   1.044  1.00  0.00     0.010 A 
ATOM     12  C   UNL     1       4.469  -3.909   1.628  1.00  0.00    -0.014 A 
BRANCH  12  13
ATOM     13  C   UNL     1       5.362  -4.835   2.329  1.00  0.00     0.031 A 
ATOM     14  C   UNL     1       6.146  -5.804   1.507  1.00  0.00     0.074 A 
ATOM     15  C   UNL     1       5.622  -4.609   3.631  1.00  0.00     0.049 A 
ATOM     16  N   UNL     1       7.019  -6.688   1.895  1.00  0.00    -0.248 NA
ATOM     17  C   UNL     1       5.940  -5.755   0.046  1.00  0.00     0.031 C 
ATOM     18  C   UNL     1       5.016  -3.541   4.441  1.00  0.00     0.029 A 
ATOM     19  N   UNL     1       6.504  -5.207   4.485  1.00  0.00    -0.354 N 
ATOM     20  C   UNL     1       7.447  -7.318   0.736  1.00  0.00     0.074 A 
ATOM     21  C   UNL     1       6.738  -6.724  -0.373  1.00  0.00     0.031 C 
ATOM     22  C   UNL     1       5.570  -3.546   5.663  1.00  0.00     0.029 A 
ATOM     23  C   UNL     1       6.497  -4.665   5.749  1.00  0.00     0.049 A 
ATOM     24  H   UNL     1       7.089  -5.954   4.221  1.00  0.00     0.167 HD
ATOM     25  C   UNL     1       8.353  -8.314   0.625  1.00  0.00     0.031 A 
ATOM     26  C   UNL     1       7.138  -5.071   6.859  1.00  0.00     0.031 A 
ATOM     27  C   UNL     1       9.025  -8.879   1.762  1.00  0.00     0.049 A 
ATOM     28  C   UNL     1       8.029  -6.276   6.728  1.00  0.00     0.074 A 
ATOM     29  C   UNL     1       9.888  -9.955   1.811  1.00  0.00     0.029 A 
ATOM     30  N   UNL     1       8.904  -8.395   3.060  1.00  0.00    -0.354 N 
ATOM     31  N   UNL     1       8.353  -6.944   5.643  1.00  0.00    -0.248 NA
ATOM     32  C   UNL     1       8.630  -6.792   7.960  1.00  0.00     0.031 C 
ATOM     33  C   UNL     1      10.245 -10.156   3.148  1.00  0.00     0.029 A 
ATOM     34  C   UNL     1       9.661  -9.163   3.922  1.00  0.00     0.049 A 
ATOM     35  H   UNL     1       8.359  -7.619   3.325  1.00  0.00     0.167 HD
ATOM     36  C   UNL     1       9.208  -7.954   6.061  1.00  0.00     0.074 A 
ATOM     37  C   UNL     1       9.378  -7.781   7.492  1.00  0.00     0.031 C 
ATOM     38  C   UNL     1       9.793  -8.944   5.341  1.00  0.00     0.031 A 
BRANCH  25  39
ATOM     39  C   UNL     1       8.585  -8.887  -0.743  1.00  0.00    -0.014 A 
ATOM     40  C   UNL     1       9.293  -8.177  -1.729  1.00  0.00     0.010 A 
ATOM     41  C   UNL     1       8.079 -10.163  -1.047  1.00  0.00     0.010 A 
ATOM     42  C   UNL     1       9.473  -8.727  -3.002  1.00  0.00     0.020 A 
ATOM     43  C   UNL     1       8.278 -10.727  -2.309  1.00  0.00     0.020 A 
ATOM     44  C   UNL     1       8.968 -10.001  -3.282  1.00  0.00     0.054 A 
BRANCH  44  45
ATOM     45  S   UNL     1       9.258 -10.708  -4.926  1.00  0.00     0.124 S 
ATOM     46  O   UNL     1       8.402  -9.877  -5.769  1.00  0.00    -0.237 OA
ATOM     47  O   UNL     1      10.695 -10.514  -5.106  1.00  0.00    -0.237 OA
ATOM     48  O   UNL     1       8.833 -12.099  -4.787  1.00  0.00    -0.744 OA
ENDBRANCH  44  45
ENDBRANCH  25  39
BRANCH  26  49
ATOM     49  C   UNL     1       6.875  -4.425   8.177  1.00  0.00    -0.014 A 
ATOM     50  C   UNL     1       7.904  -3.823   8.921  1.00  0.00     0.010 A 
ATOM     51  C   UNL     1       5.575  -4.453   8.722  1.00  0.00     0.010 A 
ATOM     52  C   UNL     1       7.650  -3.310  10.199  1.00  0.00     0.020 A 
ATOM     53  C   UNL     1       5.309  -3.908   9.980  1.00  0.00     0.020 A 
ATOM     54  C   UNL     1       6.355  -3.363  10.723  1.00  0.00     0.054 A 
BRANCH  54  55
ATOM     55  S   UNL     1       6.049  -2.715  12.389  1.00  0.00     0.124 S 
ATOM     56  O   UNL     1       6.695  -3.720  13.228  1.00  0.00    -0.237 OA
ATOM     57  O   UNL     1       6.704  -1.410  12.346  1.00  0.00    -0.237 OA
ATOM     58  O   UNL     1       4.591  -2.670  12.478  1.00  0.00    -0.744 OA
ENDBRANCH  54  55
ENDBRANCH  26  49
BRANCH  38  59
ATOM     59  C   UNL     1      10.693  -9.879   6.098  1.00  0.00    -0.014 A 
ATOM     60  C   UNL     1      10.170 -10.811   7.010  1.00  0.00     0.010 A 
ATOM     61  C   UNL     1      12.078  -9.841   5.861  1.00  0.00     0.010 A 
ATOM     62  C   UNL     1      11.027 -11.661   7.710  1.00  0.00     0.020 A 
ATOM     63  C   UNL     1      12.933 -10.715   6.529  1.00  0.00     0.020 A 
ATOM     64  C   UNL     1      12.402 -11.606   7.465  1.00  0.00     0.054 A 
BRANCH  64  65
ATOM     65  S   UNL     1      13.490 -12.740   8.365  1.00  0.00     0.124 S 
ATOM     66  O   UNL     1      13.485 -12.163   9.706  1.00  0.00    -0.237 OA
ATOM     67  O   UNL     1      12.801 -14.021   8.227  1.00  0.00    -0.237 OA
ATOM     68  O   UNL     1      14.760 -12.643   7.649  1.00  0.00    -0.744 OA
ENDBRANCH  64  65
ENDBRANCH  38  59
ENDBRANCH  12  13
ENDBRANCH   5   7
ENDBRANCH   4   5
ENDBRANCH   3   4
ENDBRANCH   2   3
ENDBRANCH   1   2
BRANCH   1  69
ATOM     69  C   UNL     1       2.536   1.322   1.517  1.00  0.00     0.202 C 
BRANCH  69  70
ATOM     70  C   UNL     1       2.446   2.330   2.662  1.00  0.00     0.261 C 
BRANCH  70  71
ATOM     71  O   UNL     1       3.120   3.520   2.233  1.00  0.00    -0.463 OA
BRANCH  71  72
ATOM     72  C   UNL     1       4.461   3.530   2.496  1.00  0.00     0.311 C 
ATOM     73  O   UNL     1       5.018   2.859   3.352  1.00  0.00    -0.252 OA
BRANCH  72  74
ATOM     74  C   UNL     1       5.183   4.369   1.460  1.00  0.00     0.128 C 
ATOM     75  C   UNL     1       6.568   4.787   1.945  1.00  0.00     0.117 C 
ATOM     76  C   UNL     1       4.476   5.682   1.240  1.00  0.00     0.135 C 
ATOM     77  C   UNL     1       6.244   6.029   2.737  1.00  0.00     0.223 C 
ATOM     78  N   UNL     1       4.999   6.476   2.316  1.00  0.00    -0.339 N 
ATOM     79  O   UNL     1       6.964   6.558   3.568  1.00  0.00    -0.275 OA
BRANCH  78  80
ATOM     80  C   UNL     1       4.226   7.516   2.971  1.00  0.00     0.147 C 
BRANCH  80  81
ATOM     81  C   UNL     1       4.142   8.793   2.145  1.00  0.00     0.177 C 
BRANCH  81  82
ATOM     82  O   UNL     1       3.319   8.613   0.992  1.00  0.00    -0.395 OA
ATOM     83  H   UNL     1       3.698   7.920   0.429  1.00  0.00     0.210 HD
ENDBRANCH  81  82
ENDBRANCH  80  81
ENDBRANCH  78  80
ENDBRANCH  72  74
ENDBRANCH  71  72
ENDBRANCH  70  71
ENDBRANCH  69  70
ENDBRANCH   1  69
TORSDOF 20
