REMARK SMILES CCN(CC)C(=O)CN(CC(=O)OCCOCCOC(=O)c1ccc(-c2c3nc(c(-c4ccc(S(=O)(=O)[O-])cc4)c4ccc([nH]4)c(-c4ccc(S(=O)(=O)[O-])cc4)c4nc(c(-c5ccc(S(=O)(=O)[O-])cc5)c5ccc2[nH]5)C=C4)C=C3)cc1)c1ccccc1
REMARK SMILES IDX 15 1 14 2 13 3 11 4 12 5 10 6 9 7 8 8 6 9 3 10 7 11 2 12
REMARK SMILES IDX 1 13 4 14 5 15 82 16 83 17 87 18 84 19 86 20 85 21 16 22
REMARK SMILES IDX 17 23 18 24 19 25 20 26 21 27 22 28 23 29 81 30 24 31 80 32
REMARK SMILES IDX 25 33 26 34 27 35 74 36 28 37 79 38 73 39 75 40 29 41 78 42
REMARK SMILES IDX 72 43 71 44 30 46 60 47 41 48 59 49 42 50 45 51 58 52 76 53
REMARK SMILES IDX 43 54 44 55 57 57 77 58 46 59 31 60 32 61 40 62 33 63 39 64
REMARK SMILES IDX 34 65 35 66 36 67 37 68 38 69 61 70 62 71 70 72 63 73 69 74
REMARK SMILES IDX 64 75 65 76 66 77 67 78 68 79 47 80 48 81 56 82 49 83 55 84
REMARK SMILES IDX 50 85 51 86 52 87 53 88 54 89
REMARK H PARENT 75 45 45 56
REMARK Flexibility Score: inf
ROOT
ATOM      1  C   UNL     1       3.833   9.289  -1.336  1.00  0.00     0.202 C 
ENDROOT
BRANCH   1   2
ATOM      2  C   UNL     1       3.754   8.613   0.041  1.00  0.00     0.261 C 
BRANCH   2   3
ATOM      3  O   UNL     1       3.376   7.228  -0.022  1.00  0.00    -0.462 OA
BRANCH   3   4
ATOM      4  C   UNL     1       2.183   6.932   0.557  1.00  0.00     0.325 C 
ATOM      5  O   UNL     1       1.503   7.726   1.205  1.00  0.00    -0.250 OA
BRANCH   4   6
ATOM      6  C   UNL     1       1.645   5.550   0.218  1.00  0.00     0.239 C 
BRANCH   6   7
ATOM      7  N   UNL     1       2.584   4.425   0.243  1.00  0.00    -0.351 N 
BRANCH   7   8
ATOM      8  C   UNL     1       2.932   3.756   1.506  1.00  0.00     0.217 C 
BRANCH   8   9
ATOM      9  C   UNL     1       2.483   2.276   1.627  1.00  0.00     0.242 C 
ATOM     10  N   UNL     1       1.128   1.938   1.725  1.00  0.00    -0.342 N 
ATOM     11  O   UNL     1       3.348   1.391   1.688  1.00  0.00    -0.273 OA
BRANCH  10  12
ATOM     12  C   UNL     1       0.789   0.516   1.813  1.00  0.00     0.116 C 
ATOM     13  C   UNL     1       0.781  -0.148   0.442  1.00  0.00     0.027 C 
ENDBRANCH  10  12
BRANCH  10  14
ATOM     14  C   UNL     1       0.004   2.863   1.648  1.00  0.00     0.116 C 
ATOM     15  C   UNL     1      -0.239   3.614   2.946  1.00  0.00     0.027 C 
ENDBRANCH  10  14
ENDBRANCH   8   9
ENDBRANCH   7   8
BRANCH   7  16
ATOM     16  C   UNL     1       2.959   3.830  -0.948  1.00  0.00     0.038 A 
ATOM     17  C   UNL     1       4.181   4.140  -1.548  1.00  0.00     0.026 A 
ATOM     18  C   UNL     1       2.138   2.889  -1.582  1.00  0.00     0.026 A 
ATOM     19  C   UNL     1       4.567   3.542  -2.753  1.00  0.00     0.002 A 
ATOM     20  C   UNL     1       2.527   2.269  -2.772  1.00  0.00     0.002 A 
ATOM     21  C   UNL     1       3.741   2.603  -3.363  1.00  0.00     0.000 A 
ENDBRANCH   7  16
ENDBRANCH   6   7
ENDBRANCH   4   6
ENDBRANCH   3   4
ENDBRANCH   2   3
ENDBRANCH   1   2
BRANCH   1  22
ATOM     22  O   UNL     1       2.779   8.999  -2.255  1.00  0.00    -0.374 OA
BRANCH  22  23
ATOM     23  C   UNL     1       2.784   7.709  -2.879  1.00  0.00     0.202 C 
BRANCH  23  24
ATOM     24  C   UNL     1       4.077   7.299  -3.588  1.00  0.00     0.261 C 
BRANCH  24  25
ATOM     25  O   UNL     1       5.116   7.058  -2.624  1.00  0.00    -0.460 OA
BRANCH  25  26
ATOM     26  C   UNL     1       6.355   6.996  -3.156  1.00  0.00     0.338 C 
ATOM     27  O   UNL     1       6.646   6.932  -4.336  1.00  0.00    -0.246 OA
BRANCH  26  28
ATOM     28  C   UNL     1       7.338   7.188  -2.076  1.00  0.00     0.060 A 
ATOM     29  C   UNL     1       7.845   8.474  -1.869  1.00  0.00     0.016 A 
ATOM     30  C   UNL     1       7.833   6.101  -1.353  1.00  0.00     0.016 A 
ATOM     31  C   UNL     1       8.901   8.666  -0.976  1.00  0.00     0.010 A 
ATOM     32  C   UNL     1       8.884   6.300  -0.449  1.00  0.00     0.010 A 
ATOM     33  C   UNL     1       9.456   7.575  -0.290  1.00  0.00    -0.014 A 
BRANCH  33  34
ATOM     34  C   UNL     1      10.724   7.759   0.465  1.00  0.00     0.031 A 
ATOM     35  C   UNL     1      12.026   7.333  -0.169  1.00  0.00     0.074 A 
ATOM     36  C   UNL     1      10.736   8.361   1.669  1.00  0.00     0.049 A 
ATOM     37  N   UNL     1      13.248   7.474   0.280  1.00  0.00    -0.248 NA
ATOM     38  C   UNL     1      11.941   6.671  -1.481  1.00  0.00     0.031 C 
ATOM     39  C   UNL     1       9.558   8.845   2.387  1.00  0.00     0.029 A 
ATOM     40  N   UNL     1      11.787   8.678   2.496  1.00  0.00    -0.354 N 
ATOM     41  C   UNL     1      14.075   6.931  -0.697  1.00  0.00     0.074 A 
ATOM     42  C   UNL     1      13.216   6.421  -1.743  1.00  0.00     0.031 C 
ATOM     43  C   UNL     1       9.952   9.409   3.543  1.00  0.00     0.029 A 
ATOM     44  C   UNL     1      11.407   9.309   3.657  1.00  0.00     0.049 A 
ATOM     45  H   UNL     1      12.724   8.473   2.277  1.00  0.00     0.167 HD
ATOM     46  C   UNL     1      15.428   6.877  -0.734  1.00  0.00     0.031 A 
ATOM     47  C   UNL     1      12.144   9.754   4.694  1.00  0.00     0.031 A 
ATOM     48  C   UNL     1      16.294   7.369   0.303  1.00  0.00     0.049 A 
ATOM     49  C   UNL     1      13.645   9.615   4.661  1.00  0.00     0.074 A 
ATOM     50  C   UNL     1      17.679   7.358   0.343  1.00  0.00     0.029 A 
ATOM     51  N   UNL     1      15.865   7.956   1.481  1.00  0.00    -0.354 N 
ATOM     52  N   UNL     1      14.408   9.131   3.711  1.00  0.00    -0.248 NA
ATOM     53  C   UNL     1      14.383  10.097   5.839  1.00  0.00     0.031 C 
ATOM     54  C   UNL     1      18.085   7.901   1.566  1.00  0.00     0.029 A 
ATOM     55  C   UNL     1      16.956   8.294   2.264  1.00  0.00     0.049 A 
ATOM     56  H   UNL     1      14.924   8.111   1.725  1.00  0.00     0.167 HD
ATOM     57  C   UNL     1      15.716   9.277   4.165  1.00  0.00     0.074 A 
ATOM     58  C   UNL     1      15.641   9.905   5.467  1.00  0.00     0.031 C 
ATOM     59  C   UNL     1      16.874   8.925   3.556  1.00  0.00     0.031 A 
BRANCH  46  60
ATOM     60  C   UNL     1      16.064   6.253  -1.946  1.00  0.00    -0.014 A 
ATOM     61  C   UNL     1      16.112   6.947  -3.169  1.00  0.00     0.010 A 
ATOM     62  C   UNL     1      16.676   4.991  -1.847  1.00  0.00     0.010 A 
ATOM     63  C   UNL     1      16.741   6.378  -4.279  1.00  0.00     0.020 A 
ATOM     64  C   UNL     1      17.324   4.428  -2.950  1.00  0.00     0.020 A 
ATOM     65  C   UNL     1      17.342   5.120  -4.163  1.00  0.00     0.054 A 
BRANCH  65  66
ATOM     66  S   UNL     1      18.188   4.423  -5.608  1.00  0.00     0.124 S 
ATOM     67  O   UNL     1      17.063   4.017  -6.448  1.00  0.00    -0.237 OA
ATOM     68  O   UNL     1      18.964   5.557  -6.105  1.00  0.00    -0.237 OA
ATOM     69  O   UNL     1      18.978   3.328  -5.053  1.00  0.00    -0.744 OA
ENDBRANCH  65  66
ENDBRANCH  46  60
BRANCH  47  70
ATOM     70  C   UNL     1      11.480  10.374   5.873  1.00  0.00    -0.014 A 
ATOM     71  C   UNL     1      11.620  11.748   6.137  1.00  0.00     0.010 A 
ATOM     72  C   UNL     1      10.735   9.578   6.762  1.00  0.00     0.010 A 
ATOM     73  C   UNL     1      11.053  12.309   7.286  1.00  0.00     0.020 A 
ATOM     74  C   UNL     1      10.146  10.140   7.897  1.00  0.00     0.020 A 
ATOM     75  C   UNL     1      10.324  11.499   8.161  1.00  0.00     0.054 A 
BRANCH  75  76
ATOM     76  S   UNL     1       9.576  12.246   9.636  1.00  0.00     0.124 S 
ATOM     77  O   UNL     1      10.723  12.363  10.531  1.00  0.00    -0.237 OA
ATOM     78  O   UNL     1       9.044  13.505   9.121  1.00  0.00    -0.237 OA
ATOM     79  O   UNL     1       8.565  11.269  10.035  1.00  0.00    -0.744 OA
ENDBRANCH  75  76
ENDBRANCH  47  70
BRANCH  59  80
ATOM     80  C   UNL     1      18.163   9.242   4.267  1.00  0.00    -0.014 A 
ATOM     81  C   UNL     1      18.580   8.498   5.385  1.00  0.00     0.010 A 
ATOM     82  C   UNL     1      18.994  10.265   3.776  1.00  0.00     0.010 A 
ATOM     83  C   UNL     1      19.791   8.793   6.018  1.00  0.00     0.020 A 
ATOM     84  C   UNL     1      20.217  10.547   4.391  1.00  0.00     0.020 A 
ATOM     85  C   UNL     1      20.602   9.817   5.518  1.00  0.00     0.054 A 
BRANCH  85  86
ATOM     86  S   UNL     1      22.189  10.155   6.329  1.00  0.00     0.124 S 
ATOM     87  O   UNL     1      21.771  10.883   7.524  1.00  0.00    -0.237 OA
ATOM     88  O   UNL     1      22.724   8.815   6.564  1.00  0.00    -0.237 OA
ATOM     89  O   UNL     1      22.921  10.945   5.341  1.00  0.00    -0.744 OA
ENDBRANCH  85  86
ENDBRANCH  59  80
ENDBRANCH  33  34
ENDBRANCH  26  28
ENDBRANCH  25  26
ENDBRANCH  24  25
ENDBRANCH  23  24
ENDBRANCH  22  23
ENDBRANCH   1  22
TORSDOF 23
