REMARK SMILES O=C(C[C@@H](NC(=O)c1cc(-c2ccc(F)cc2)on1)c1cccc(Br)c1)OCCOCCOC(=O)c1ccc(-c2c3nc(c(-c4ccc(S(=O)(=O)[O-])cc4)c4ccc([nH]4)c(-c4ccc(S(=O)(=O)[O-])cc4)c4nc(c(-c5ccc(S(=O)(=O)[O-])cc5)c5ccc2[nH]5)C=C4)C=C3)cc1
REMARK SMILES IDX 29 1 28 2 27 3 2 4 1 5 3 6 4 7 5 8 6 9 7 11 8 12 9 13 19 14
REMARK SMILES IDX 10 15 18 16 11 17 12 18 17 19 13 20 16 21 14 22 15 23 20 24
REMARK SMILES IDX 21 25 26 26 22 27 24 28 23 29 25 30 30 31 31 32 32 33 33 34
REMARK SMILES IDX 34 35 35 36 36 37 37 38 95 39 38 40 94 41 39 42 40 43 41 44
REMARK SMILES IDX 88 45 42 46 93 47 87 48 89 49 43 50 92 51 86 52 85 53 44 55
REMARK SMILES IDX 74 56 55 57 73 58 56 59 59 60 72 61 90 62 57 63 58 64 71 66
REMARK SMILES IDX 91 67 60 68 45 69 46 70 54 71 47 72 53 73 48 74 49 75 50 76
REMARK SMILES IDX 51 77 52 78 75 79 76 80 84 81 77 82 83 83 78 84 79 85 80 86
REMARK SMILES IDX 81 87 82 88 61 89 62 90 70 91 63 92 69 93 64 94 65 95 66 96
REMARK SMILES IDX 67 97 68 98
REMARK H PARENT 5 10 89 54 59 65
REMARK Flexibility Score: inf
ROOT
ATOM      1  C   UNL     1       4.804  -0.134   1.152  1.00  0.00     0.202 C 
ENDROOT
BRANCH   1   2
ATOM      2  C   UNL     1       4.174   1.134   0.545  1.00  0.00     0.261 C 
BRANCH   2   3
ATOM      3  O   UNL     1       2.788   1.111   0.173  1.00  0.00    -0.463 OA
BRANCH   3   4
ATOM      4  C   UNL     1       2.374   0.678  -1.040  1.00  0.00     0.308 C 
ATOM      5  O   UNL     1       1.522   1.288  -1.678  1.00  0.00    -0.252 OA
BRANCH   4   6
ATOM      6  C   UNL     1       2.819  -0.691  -1.455  1.00  0.00     0.152 C 
BRANCH   6   7
ATOM      7  C   UNL     1       3.882  -0.798  -2.549  1.00  0.00     0.124 C 
BRANCH   7   8
ATOM      8  N   UNL     1       5.121  -0.052  -2.280  1.00  0.00    -0.343 N 
ATOM      9  C   UNL     1       6.432  -0.348  -1.977  1.00  0.00     0.273 C 
ATOM     10  H   UNL     1       4.973   0.920  -2.329  1.00  0.00     0.164 HD
ATOM     11  O   UNL     1       7.149   0.597  -1.644  1.00  0.00    -0.267 OA
BRANCH   9  12
ATOM     12  C   UNL     1       6.982  -1.675  -2.175  1.00  0.00     0.171 A 
ATOM     13  C   UNL     1       7.586  -2.147  -3.366  1.00  0.00     0.088 A 
ATOM     14  N   UNL     1       7.023  -2.610  -1.214  1.00  0.00    -0.074 NA
ATOM     15  C   UNL     1       7.758  -3.494  -3.152  1.00  0.00     0.167 A 
ATOM     16  O   UNL     1       7.501  -3.758  -1.837  1.00  0.00    -0.355 OA
BRANCH  15  17
ATOM     17  C   UNL     1       7.898  -4.634  -4.056  1.00  0.00     0.020 A 
ATOM     18  C   UNL     1       8.001  -4.407  -5.441  1.00  0.00     0.015 A 
ATOM     19  C   UNL     1       7.656  -5.943  -3.606  1.00  0.00     0.015 A 
ATOM     20  C   UNL     1       7.719  -5.428  -6.352  1.00  0.00     0.040 A 
ATOM     21  C   UNL     1       7.379  -6.965  -4.520  1.00  0.00     0.040 A 
ATOM     22  C   UNL     1       7.375  -6.687  -5.881  1.00  0.00     0.123 A 
ATOM     23  F   UNL     1       6.990  -7.632  -6.748  1.00  0.00    -0.207 F 
ENDBRANCH  15  17
ENDBRANCH   9  12
ENDBRANCH   7   8
BRANCH   7  24
ATOM     24  C   UNL     1       4.063  -2.245  -2.979  1.00  0.00    -0.024 A 
ATOM     25  C   UNL     1       4.435  -2.521  -4.301  1.00  0.00     0.006 A 
ATOM     26  C   UNL     1       3.854  -3.332  -2.103  1.00  0.00     0.021 A 
ATOM     27  C   UNL     1       4.587  -3.838  -4.734  1.00  0.00     0.002 A 
ATOM     28  C   UNL     1       3.997  -4.645  -2.546  1.00  0.00     0.018 A 
ATOM     29  C   UNL     1       4.361  -4.901  -3.860  1.00  0.00     0.016 A 
ATOM     30  Br  UNL     1       3.701  -6.080  -1.351  1.00  0.00    -0.051 Br
ENDBRANCH   7  24
ENDBRANCH   6   7
ENDBRANCH   4   6
ENDBRANCH   3   4
ENDBRANCH   2   3
ENDBRANCH   1   2
BRANCH   1  31
ATOM     31  O   UNL     1       4.058  -1.329   1.302  1.00  0.00    -0.374 OA
BRANCH  31  32
ATOM     32  C   UNL     1       2.820  -1.312   2.005  1.00  0.00     0.202 C 
BRANCH  32  33
ATOM     33  C   UNL     1       2.910  -1.218   3.520  1.00  0.00     0.261 C 
BRANCH  33  34
ATOM     34  O   UNL     1       3.312   0.099   3.907  1.00  0.00    -0.460 OA
BRANCH  34  35
ATOM     35  C   UNL     1       4.575   0.194   4.377  1.00  0.00     0.338 C 
ATOM     36  O   UNL     1       5.363  -0.718   4.584  1.00  0.00    -0.246 OA
BRANCH  35  37
ATOM     37  C   UNL     1       4.954   1.613   4.400  1.00  0.00     0.060 A 
ATOM     38  C   UNL     1       6.202   1.970   3.869  1.00  0.00     0.016 A 
ATOM     39  C   UNL     1       4.114   2.569   4.974  1.00  0.00     0.016 A 
ATOM     40  C   UNL     1       6.654   3.276   3.990  1.00  0.00     0.010 A 
ATOM     41  C   UNL     1       4.573   3.875   5.110  1.00  0.00     0.010 A 
ATOM     42  C   UNL     1       5.869   4.207   4.678  1.00  0.00    -0.014 A 
BRANCH  42  43
ATOM     43  C   UNL     1       6.516   5.425   5.202  1.00  0.00     0.031 A 
ATOM     44  C   UNL     1       6.991   5.401   6.630  1.00  0.00     0.074 A 
ATOM     45  C   UNL     1       6.706   6.498   4.420  1.00  0.00     0.049 A 
ATOM     46  N   UNL     1       7.567   6.341   7.328  1.00  0.00    -0.248 NA
ATOM     47  C   UNL     1       6.777   4.144   7.372  1.00  0.00     0.031 C 
ATOM     48  C   UNL     1       6.336   6.594   3.009  1.00  0.00     0.029 A 
ATOM     49  N   UNL     1       7.267   7.712   4.709  1.00  0.00    -0.354 N 
ATOM     50  C   UNL     1       7.762   5.799   8.594  1.00  0.00     0.074 A 
ATOM     51  C   UNL     1       7.214   4.463   8.579  1.00  0.00     0.031 C 
ATOM     52  C   UNL     1       6.685   7.809   2.552  1.00  0.00     0.029 A 
ATOM     53  C   UNL     1       7.267   8.581   3.647  1.00  0.00     0.049 A 
ATOM     54  H   UNL     1       7.634   7.940   5.594  1.00  0.00     0.167 HD
ATOM     55  C   UNL     1       8.350   6.367   9.673  1.00  0.00     0.031 A 
ATOM     56  C   UNL     1       7.684   9.860   3.581  1.00  0.00     0.031 A 
ATOM     57  C   UNL     1       8.880   7.704   9.671  1.00  0.00     0.049 A 
ATOM     58  C   UNL     1       8.278  10.493   4.811  1.00  0.00     0.074 A 
ATOM     59  C   UNL     1       9.515   8.381  10.695  1.00  0.00     0.029 A 
ATOM     60  N   UNL     1       8.827   8.570   8.587  1.00  0.00    -0.354 N 
ATOM     61  N   UNL     1       8.473   9.970   5.999  1.00  0.00    -0.248 NA
ATOM     62  C   UNL     1       8.724  11.886   4.684  1.00  0.00     0.031 C 
ATOM     63  C   UNL     1       9.784   9.680  10.253  1.00  0.00     0.029 A 
ATOM     64  C   UNL     1       9.392   9.786   8.926  1.00  0.00     0.049 A 
ATOM     65  H   UNL     1       8.444   8.351   7.707  1.00  0.00     0.167 HD
ATOM     66  C   UNL     1       9.107  10.955   6.750  1.00  0.00     0.074 A 
ATOM     67  C   UNL     1       9.263  12.102   5.877  1.00  0.00     0.031 C 
ATOM     68  C   UNL     1       9.533  10.914   8.038  1.00  0.00     0.031 A 
BRANCH  55  69
ATOM     69  C   UNL     1       8.388   5.563  10.947  1.00  0.00    -0.014 A 
ATOM     70  C   UNL     1       9.165   4.395  11.065  1.00  0.00     0.010 A 
ATOM     71  C   UNL     1       7.624   5.987  12.050  1.00  0.00     0.010 A 
ATOM     72  C   UNL     1       9.134   3.639  12.241  1.00  0.00     0.020 A 
ATOM     73  C   UNL     1       7.618   5.253  13.240  1.00  0.00     0.020 A 
ATOM     74  C   UNL     1       8.357   4.071  13.319  1.00  0.00     0.054 A 
BRANCH  74  75
ATOM     75  S   UNL     1       8.337   3.075  14.835  1.00  0.00     0.124 S 
ATOM     76  O   UNL     1       7.564   1.907  14.417  1.00  0.00    -0.237 OA
ATOM     77  O   UNL     1       9.757   2.834  15.077  1.00  0.00    -0.237 OA
ATOM     78  O   UNL     1       7.678   3.939  15.811  1.00  0.00    -0.744 OA
ENDBRANCH  74  75
ENDBRANCH  55  69
BRANCH  56  79
ATOM     79  C   UNL     1       7.569  10.609   2.301  1.00  0.00    -0.014 A 
ATOM     80  C   UNL     1       8.720  10.959   1.574  1.00  0.00     0.010 A 
ATOM     81  C   UNL     1       6.305  10.956   1.788  1.00  0.00     0.010 A 
ATOM     82  C   UNL     1       8.611  11.650   0.364  1.00  0.00     0.020 A 
ATOM     83  C   UNL     1       6.190  11.621   0.565  1.00  0.00     0.020 A 
ATOM     84  C   UNL     1       7.346  11.971  -0.137  1.00  0.00     0.054 A 
BRANCH  84  85
ATOM     85  S   UNL     1       7.230  12.810  -1.740  1.00  0.00     0.124 S 
ATOM     86  O   UNL     1       7.740  14.141  -1.426  1.00  0.00    -0.237 OA
ATOM     87  O   UNL     1       8.089  11.986  -2.588  1.00  0.00    -0.237 OA
ATOM     88  O   UNL     1       5.806  12.745  -2.060  1.00  0.00    -0.744 OA
ENDBRANCH  84  85
ENDBRANCH  56  79
BRANCH  68  89
ATOM     89  C   UNL     1      10.267  12.122   8.562  1.00  0.00    -0.014 A 
ATOM     90  C   UNL     1       9.612  13.344   8.793  1.00  0.00     0.010 A 
ATOM     91  C   UNL     1      11.636  12.009   8.866  1.00  0.00     0.010 A 
ATOM     92  C   UNL     1      10.326  14.446   9.271  1.00  0.00     0.020 A 
ATOM     93  C   UNL     1      12.345  13.097   9.379  1.00  0.00     0.020 A 
ATOM     94  C   UNL     1      11.689  14.316   9.559  1.00  0.00     0.054 A 
BRANCH  94  95
ATOM     95  S   UNL     1      12.589  15.755  10.196  1.00  0.00     0.124 S 
ATOM     96  O   UNL     1      12.682  16.603   9.011  1.00  0.00    -0.237 OA
ATOM     97  O   UNL     1      11.706  16.242  11.252  1.00  0.00    -0.237 OA
ATOM     98  O   UNL     1      13.856  15.194  10.661  1.00  0.00    -0.744 OA
ENDBRANCH  94  95
ENDBRANCH  68  89
ENDBRANCH  42  43
ENDBRANCH  35  37
ENDBRANCH  34  35
ENDBRANCH  33  34
ENDBRANCH  32  33
ENDBRANCH  31  32
ENDBRANCH   1  31
TORSDOF 22
