REMARK SMILES O=C(CCC(=O)c1c[nH]c2ccccc12)OCCOCCOC(=O)c1ccc(-c2c3nc(c(-c4ccc(S(=O)(=O)[O-])cc4)c4ccc([nH]4)c(-c4ccc(S(=O)(=O)[O-])cc4)c4nc(c(-c5ccc(S(=O)(=O)[O-])cc5)c5ccc2[nH]5)C=C4)C=C3)cc1
REMARK SMILES IDX 19 1 18 2 17 3 16 4 2 5 1 6 3 7 4 8 5 9 6 10 7 11 8 12 15 13
REMARK SMILES IDX 9 14 10 15 14 16 11 18 13 19 12 20 20 21 21 22 22 23 23 24
REMARK SMILES IDX 24 25 25 26 26 27 84 28 27 29 83 30 28 31 29 32 30 33 77 34
REMARK SMILES IDX 31 35 82 36 76 37 78 38 32 39 81 40 75 41 74 42 33 44 63 45
REMARK SMILES IDX 44 46 62 47 45 48 48 49 61 50 79 51 46 52 47 53 60 55 80 56
REMARK SMILES IDX 49 57 34 58 35 59 43 60 36 61 42 62 37 63 38 64 39 65 40 66
REMARK SMILES IDX 41 67 64 68 65 69 73 70 66 71 72 72 67 73 68 74 69 75 70 76
REMARK SMILES IDX 71 77 50 78 51 79 59 80 52 81 58 82 53 83 54 84 55 85 56 86
REMARK SMILES IDX 57 87
REMARK H PARENT 9 17 78 43 48 54
REMARK Flexibility Score: inf
ROOT
ATOM      1  O   UNL     1       4.453  -3.346   0.695  1.00  0.00    -0.374 OA
ENDROOT
BRANCH   1   2
ATOM      2  C   UNL     1       5.297  -2.205   0.814  1.00  0.00     0.202 C 
BRANCH   2   3
ATOM      3  C   UNL     1       4.987  -1.056  -0.147  1.00  0.00     0.261 C 
BRANCH   3   4
ATOM      4  O   UNL     1       3.586  -0.749  -0.147  1.00  0.00    -0.463 OA
BRANCH   4   5
ATOM      5  C   UNL     1       2.862  -0.807  -1.289  1.00  0.00     0.306 C 
ATOM      6  O   UNL     1       1.720  -1.259  -1.298  1.00  0.00    -0.252 OA
BRANCH   5   7
ATOM      7  C   UNL     1       3.411  -0.050  -2.462  1.00  0.00     0.131 C 
BRANCH   7   8
ATOM      8  C   UNL     1       3.129   1.432  -2.265  1.00  0.00     0.093 C 
BRANCH   8   9
ATOM      9  C   UNL     1       4.123   2.049  -1.306  1.00  0.00     0.165 C 
ATOM     10  O   UNL     1       5.329   1.870  -1.490  1.00  0.00    -0.294 OA
BRANCH   9  11
ATOM     11  C   UNL     1       3.650   2.914  -0.230  1.00  0.00     0.043 A 
ATOM     12  C   UNL     1       4.173   4.178  -0.019  1.00  0.00     0.095 A 
ATOM     13  C   UNL     1       2.698   2.680   0.823  1.00  0.00     0.010 A 
ATOM     14  N   UNL     1       3.587   4.715   1.091  1.00  0.00    -0.360 N 
ATOM     15  C   UNL     1       2.718   3.808   1.650  1.00  0.00     0.046 A 
ATOM     16  C   UNL     1       1.857   1.612   1.210  1.00  0.00     0.011 A 
ATOM     17  H   UNL     1       3.761   5.619   1.440  1.00  0.00     0.166 HD
ATOM     18  C   UNL     1       1.972   3.907   2.832  1.00  0.00     0.027 A 
ATOM     19  C   UNL     1       1.121   1.685   2.400  1.00  0.00     0.001 A 
ATOM     20  C   UNL     1       1.183   2.817   3.202  1.00  0.00     0.002 A 
ENDBRANCH   9  11
ENDBRANCH   8   9
ENDBRANCH   7   8
ENDBRANCH   5   7
ENDBRANCH   4   5
ENDBRANCH   3   4
ENDBRANCH   2   3
ENDBRANCH   1   2
BRANCH   1  21
ATOM     21  C   UNL     1       3.146  -3.265   1.279  1.00  0.00     0.202 C 
BRANCH  21  22
ATOM     22  C   UNL     1       3.070  -3.125   2.804  1.00  0.00     0.261 C 
BRANCH  22  23
ATOM     23  O   UNL     1       3.404  -1.801   3.275  1.00  0.00    -0.460 OA
BRANCH  23  24
ATOM     24  C   UNL     1       4.455  -1.763   4.126  1.00  0.00     0.338 C 
ATOM     25  O   UNL     1       5.154  -2.711   4.468  1.00  0.00    -0.246 OA
BRANCH  24  26
ATOM     26  C   UNL     1       4.771  -0.400   4.580  1.00  0.00     0.060 A 
ATOM     27  C   UNL     1       6.050   0.094   4.299  1.00  0.00     0.016 A 
ATOM     28  C   UNL     1       3.956   0.232   5.522  1.00  0.00     0.016 A 
ATOM     29  C   UNL     1       6.565   1.152   5.046  1.00  0.00     0.010 A 
ATOM     30  C   UNL     1       4.474   1.298   6.269  1.00  0.00     0.010 A 
ATOM     31  C   UNL     1       5.807   1.709   6.086  1.00  0.00    -0.014 A 
BRANCH  31  32
ATOM     32  C   UNL     1       6.492   2.539   7.111  1.00  0.00     0.031 A 
ATOM     33  C   UNL     1       6.924   1.892   8.406  1.00  0.00     0.074 A 
ATOM     34  C   UNL     1       6.789   3.830   6.879  1.00  0.00     0.049 A 
ATOM     35  N   UNL     1       7.574   2.411   9.417  1.00  0.00    -0.248 NA
ATOM     36  C   UNL     1       6.577   0.472   8.583  1.00  0.00     0.031 C 
ATOM     37  C   UNL     1       6.467   4.567   5.658  1.00  0.00     0.029 A 
ATOM     38  N   UNL     1       7.441   4.747   7.666  1.00  0.00    -0.354 N 
ATOM     39  C   UNL     1       7.706   1.387  10.351  1.00  0.00     0.074 A 
ATOM     40  C   UNL     1       7.043   0.226   9.799  1.00  0.00     0.031 C 
ATOM     41  C   UNL     1       6.928   5.825   5.777  1.00  0.00     0.029 A 
ATOM     42  C   UNL     1       7.560   5.986   7.086  1.00  0.00     0.049 A 
ATOM     43  H   UNL     1       7.790   4.535   8.562  1.00  0.00     0.167 HD
ATOM     44  C   UNL     1       8.328   1.404  11.555  1.00  0.00     0.031 A 
ATOM     45  C   UNL     1       8.114   7.121   7.556  1.00  0.00     0.031 A 
ATOM     46  C   UNL     1       8.991   2.553  12.110  1.00  0.00     0.049 A 
ATOM     47  C   UNL     1       8.768   7.127   8.912  1.00  0.00     0.074 A 
ATOM     48  C   UNL     1       9.666   2.660  13.314  1.00  0.00     0.029 A 
ATOM     49  N   UNL     1       9.064   3.795  11.500  1.00  0.00    -0.354 N 
ATOM     50  N   UNL     1       8.903   6.143   9.769  1.00  0.00    -0.248 NA
ATOM     51  C   UNL     1       9.361   8.398   9.355  1.00  0.00     0.031 C 
ATOM     52  C   UNL     1      10.113   3.980  13.450  1.00  0.00     0.029 A 
ATOM     53  C   UNL     1       9.757   4.679  12.308  1.00  0.00     0.049 A 
ATOM     54  H   UNL     1       8.680   4.015  10.620  1.00  0.00     0.167 HD
ATOM     55  C   UNL     1       9.626   6.668  10.837  1.00  0.00     0.074 A 
ATOM     56  C   UNL     1       9.903   8.052  10.515  1.00  0.00     0.031 C 
ATOM     57  C   UNL     1      10.030   6.054  11.977  1.00  0.00     0.031 A 
BRANCH  44  58
ATOM     58  C   UNL     1       8.291   0.138  12.370  1.00  0.00    -0.014 A 
ATOM     59  C   UNL     1       9.072  -0.978  12.019  1.00  0.00     0.010 A 
ATOM     60  C   UNL     1       7.484   0.074  13.520  1.00  0.00     0.010 A 
ATOM     61  C   UNL     1       9.013  -2.150  12.780  1.00  0.00     0.020 A 
ATOM     62  C   UNL     1       7.440  -1.087  14.296  1.00  0.00     0.020 A 
ATOM     63  C   UNL     1       8.191  -2.199  13.910  1.00  0.00     0.054 A 
BRANCH  63  64
ATOM     64  S   UNL     1       8.138  -3.726  14.889  1.00  0.00     0.124 S 
ATOM     65  O   UNL     1       7.301  -4.587  14.057  1.00  0.00    -0.237 OA
ATOM     66  O   UNL     1       9.546  -4.107  14.969  1.00  0.00    -0.237 OA
ATOM     67  O   UNL     1       7.537  -3.306  16.152  1.00  0.00    -0.744 OA
ENDBRANCH  63  64
ENDBRANCH  44  58
BRANCH  45  68
ATOM     68  C   UNL     1       8.082   8.355   6.727  1.00  0.00    -0.014 A 
ATOM     69  C   UNL     1       9.254   8.841   6.121  1.00  0.00     0.010 A 
ATOM     70  C   UNL     1       6.874   9.049   6.540  1.00  0.00     0.010 A 
ATOM     71  C   UNL     1       9.220  10.008   5.352  1.00  0.00     0.020 A 
ATOM     72  C   UNL     1       6.832  10.203   5.754  1.00  0.00     0.020 A 
ATOM     73  C   UNL     1       8.008  10.681   5.173  1.00  0.00     0.054 A 
BRANCH  73  74
ATOM     74  S   UNL     1       7.969  12.158   4.120  1.00  0.00     0.124 S 
ATOM     75  O   UNL     1       8.532  13.175   5.003  1.00  0.00    -0.237 OA
ATOM     76  O   UNL     1       8.807  11.765   2.990  1.00  0.00    -0.237 OA
ATOM     77  O   UNL     1       6.550  12.312   3.807  1.00  0.00    -0.744 OA
ENDBRANCH  73  74
ENDBRANCH  45  68
BRANCH  57  78
ATOM     78  C   UNL     1      10.856   6.862  12.942  1.00  0.00    -0.014 A 
ATOM     79  C   UNL     1      10.280   7.869  13.736  1.00  0.00     0.010 A 
ATOM     80  C   UNL     1      12.228   6.582  13.080  1.00  0.00     0.010 A 
ATOM     81  C   UNL     1      11.069   8.610  14.620  1.00  0.00     0.020 A 
ATOM     82  C   UNL     1      13.016   7.304  13.980  1.00  0.00     0.020 A 
ATOM     83  C   UNL     1      12.434   8.328  14.731  1.00  0.00     0.054 A 
BRANCH  83  84
ATOM     84  S   UNL     1      13.439   9.286  15.899  1.00  0.00     0.124 S 
ATOM     85  O   UNL     1      13.647  10.533  15.167  1.00  0.00    -0.237 OA
ATOM     86  O   UNL     1      12.571   9.383  17.070  1.00  0.00    -0.237 OA
ATOM     87  O   UNL     1      14.633   8.464  16.083  1.00  0.00    -0.744 OA
ENDBRANCH  83  84
ENDBRANCH  57  78
ENDBRANCH  31  32
ENDBRANCH  24  26
ENDBRANCH  23  24
ENDBRANCH  22  23
ENDBRANCH  21  22
ENDBRANCH   1  21
TORSDOF 20
