REMARK SMILES COc1cc(C)cc2c1[C@@H](C)[C@@H](CC(=O)N[C@@H](Cc1c[nH]c3ccccc13)C(=O)OCCOCCOC(=O)c1ccc(-c3c4nc(c(-c5ccc(S(=O)(=O)[O-])cc5)c5ccc([nH]5)c(-c5ccc(S(=O)(=O)[O-])cc5)c5nc(c(-c6ccc(S(=O)(=O)[O-])cc6)c6ccc3[nH]6)C=C5)C=C4)cc1)C(=O)O2
REMARK SMILES IDX 32 1 31 2 30 3 28 4 29 5 17 6 16 7 14 8 15 9 13 11 12 12
REMARK SMILES IDX 3 13 4 14 9 15 5 16 8 17 10 18 6 19 7 20 101 21 11 22 99 23
REMARK SMILES IDX 100 24 2 25 1 26 18 27 19 28 20 29 27 30 21 31 22 32 26 33
REMARK SMILES IDX 23 35 25 36 24 37 33 38 34 39 35 40 36 41 37 42 38 43 39 44
REMARK SMILES IDX 40 45 98 46 41 47 97 48 42 49 43 50 44 51 91 52 45 53 96 54
REMARK SMILES IDX 90 55 92 56 46 57 95 58 89 59 88 60 47 62 77 63 58 64 76 65
REMARK SMILES IDX 59 66 62 67 75 68 93 69 60 70 61 71 74 73 94 74 63 75 48 76
REMARK SMILES IDX 49 77 57 78 50 79 56 80 51 81 52 82 53 83 54 84 55 85 78 86
REMARK SMILES IDX 79 87 87 88 80 89 86 90 81 91 82 92 83 93 84 94 85 95 64 96
REMARK SMILES IDX 65 97 73 98 66 99 72 100 67 101 68 102 69 103 70 104 71 105
REMARK H PARENT 16 10 21 34 92 61 62 72
REMARK Flexibility Score: inf
ROOT
ATOM      1  C   UNL     1       0.372  10.117  -0.988  1.00  0.00     0.202 C 
ENDROOT
BRANCH   1   2
ATOM      2  C   UNL     1      -0.342   9.845  -2.316  1.00  0.00     0.261 C 
BRANCH   2   3
ATOM      3  O   UNL     1      -1.478   8.988  -2.124  1.00  0.00    -0.462 OA
BRANCH   3   4
ATOM      4  C   UNL     1      -1.715   8.141  -3.154  1.00  0.00     0.329 C 
ATOM      5  O   UNL     1      -1.232   8.264  -4.275  1.00  0.00    -0.250 OA
BRANCH   4   6
ATOM      6  C   UNL     1      -2.512   6.903  -2.732  1.00  0.00     0.196 C 
BRANCH   6   7
ATOM      7  N   UNL     1      -2.937   6.660  -1.355  1.00  0.00    -0.342 N 
ATOM      8  C   UNL     1      -3.135   5.423  -0.787  1.00  0.00     0.221 C 
ATOM      9  O   UNL     1      -4.044   5.271   0.028  1.00  0.00    -0.275 OA
ATOM     10  H   UNL     1      -3.094   7.448  -0.786  1.00  0.00     0.164 HD
BRANCH   8  11
ATOM     11  C   UNL     1      -2.108   4.315  -1.020  1.00  0.00     0.116 C 
BRANCH  11  12
ATOM     12  C   UNL     1      -2.327   3.292  -2.162  1.00  0.00     0.116 C 
ATOM     13  C   UNL     1       0.940   1.577  -1.280  1.00  0.00     0.126 A 
ATOM     14  C   UNL     1       2.234   2.107  -1.144  1.00  0.00     0.050 A 
ATOM     15  C   UNL     1      -0.044   2.297  -1.966  1.00  0.00     0.041 A 
ATOM     16  C   UNL     1       2.572   3.353  -1.696  1.00  0.00    -0.044 A 
ATOM     17  C   UNL     1       0.369   3.452  -2.647  1.00  0.00     0.138 A 
ATOM     18  C   UNL     1      -1.529   1.958  -2.015  1.00  0.00     0.038 C 
ATOM     19  C   UNL     1       3.939   3.935  -1.492  1.00  0.00     0.044 C 
ATOM     20  C   UNL     1       1.641   4.001  -2.503  1.00  0.00     0.051 A 
ATOM     21  O   UNL     1      -0.495   4.114  -3.539  1.00  0.00    -0.426 OA
ATOM     22  C   UNL     1      -2.093   1.128  -0.857  1.00  0.00     0.014 C 
ATOM     23  C   UNL     1      -1.845   3.805  -3.494  1.00  0.00     0.315 C 
ATOM     24  O   UNL     1      -2.583   3.985  -4.455  1.00  0.00    -0.251 OA
BRANCH  13  25
ATOM     25  O   UNL     1       0.619   0.315  -0.865  1.00  0.00    -0.496 OA
ATOM     26  C   UNL     1       1.155  -0.075   0.393  1.00  0.00     0.278 C 
ENDBRANCH  13  25
ENDBRANCH  11  12
ENDBRANCH   8  11
ENDBRANCH   6   7
BRANCH   6  27
ATOM     27  C   UNL     1      -3.666   6.668  -3.692  1.00  0.00     0.074 C 
BRANCH  27  28
ATOM     28  C   UNL     1      -4.845   7.594  -3.762  1.00  0.00    -0.020 A 
ATOM     29  C   UNL     1      -5.208   8.194  -4.956  1.00  0.00     0.087 A 
ATOM     30  C   UNL     1      -5.948   7.816  -2.859  1.00  0.00     0.003 A 
ATOM     31  N   UNL     1      -6.572   8.253  -4.957  1.00  0.00    -0.361 N 
ATOM     32  C   UNL     1      -7.045   8.114  -3.677  1.00  0.00     0.046 A 
ATOM     33  C   UNL     1      -6.202   7.705  -1.473  1.00  0.00     0.010 A 
ATOM     34  H   UNL     1      -7.132   8.377  -5.757  1.00  0.00     0.166 HD
ATOM     35  C   UNL     1      -8.361   8.202  -3.208  1.00  0.00     0.026 A 
ATOM     36  C   UNL     1      -7.497   7.915  -0.971  1.00  0.00     0.001 A 
ATOM     37  C   UNL     1      -8.566   8.127  -1.832  1.00  0.00     0.002 A 
ENDBRANCH  27  28
ENDBRANCH   6  27
ENDBRANCH   4   6
ENDBRANCH   3   4
ENDBRANCH   2   3
ENDBRANCH   1   2
BRANCH   1  38
ATOM     38  O   UNL     1       0.833   8.971  -0.272  1.00  0.00    -0.374 OA
BRANCH  38  39
ATOM     39  C   UNL     1      -0.143   8.038   0.198  1.00  0.00     0.202 C 
BRANCH  39  40
ATOM     40  C   UNL     1      -1.234   8.558   1.153  1.00  0.00     0.261 C 
BRANCH  40  41
ATOM     41  O   UNL     1      -2.172   9.457   0.522  1.00  0.00    -0.460 OA
BRANCH  41  42
ATOM     42  C   UNL     1      -2.255  10.691   1.086  1.00  0.00     0.338 C 
ATOM     43  O   UNL     1      -1.672  11.077   2.084  1.00  0.00    -0.246 OA
BRANCH  42  44
ATOM     44  C   UNL     1      -3.005  11.615   0.210  1.00  0.00     0.060 A 
ATOM     45  C   UNL     1      -4.366  11.443  -0.046  1.00  0.00     0.016 A 
ATOM     46  C   UNL     1      -2.337  12.757  -0.253  1.00  0.00     0.016 A 
ATOM     47  C   UNL     1      -5.069  12.449  -0.725  1.00  0.00     0.010 A 
ATOM     48  C   UNL     1      -3.036  13.751  -0.939  1.00  0.00     0.010 A 
ATOM     49  C   UNL     1      -4.416  13.622  -1.150  1.00  0.00    -0.014 A 
BRANCH  49  50
ATOM     50  C   UNL     1      -5.183  14.792  -1.652  1.00  0.00     0.031 A 
ATOM     51  C   UNL     1      -5.218  15.145  -3.109  1.00  0.00     0.074 A 
ATOM     52  C   UNL     1      -5.801  15.585  -0.753  1.00  0.00     0.049 A 
ATOM     53  N   UNL     1      -5.853  16.127  -3.696  1.00  0.00    -0.248 NA
ATOM     54  C   UNL     1      -4.440  14.298  -4.026  1.00  0.00     0.031 C 
ATOM     55  C   UNL     1      -5.803  15.364   0.695  1.00  0.00     0.029 A 
ATOM     56  N   UNL     1      -6.540  16.731  -0.915  1.00  0.00    -0.354 N 
ATOM     57  C   UNL     1      -5.577  16.005  -5.051  1.00  0.00     0.074 A 
ATOM     58  C   UNL     1      -4.674  14.882  -5.196  1.00  0.00     0.031 C 
ATOM     59  C   UNL     1      -6.528  16.326   1.285  1.00  0.00     0.029 A 
ATOM     60  C   UNL     1      -7.019  17.251   0.266  1.00  0.00     0.049 A 
ATOM     61  H   UNL     1      -6.712  17.141  -1.793  1.00  0.00     0.167 HD
ATOM     62  C   UNL     1      -6.054  16.750  -6.077  1.00  0.00     0.031 A 
ATOM     63  C   UNL     1      -7.771  18.343   0.509  1.00  0.00     0.031 A 
ATOM     64  C   UNL     1      -6.941  17.876  -5.919  1.00  0.00     0.049 A 
ATOM     65  C   UNL     1      -8.240  19.186  -0.644  1.00  0.00     0.074 A 
ATOM     66  C   UNL     1      -7.516  18.654  -6.910  1.00  0.00     0.029 A 
ATOM     67  N   UNL     1      -7.372  18.393  -4.707  1.00  0.00    -0.354 N 
ATOM     68  N   UNL     1      -8.041  19.002  -1.927  1.00  0.00    -0.248 NA
ATOM     69  C   UNL     1      -9.042  20.376  -0.324  1.00  0.00     0.031 C 
ATOM     70  C   UNL     1      -8.235  19.683  -6.298  1.00  0.00     0.029 A 
ATOM     71  C   UNL     1      -8.172  19.504  -4.926  1.00  0.00     0.049 A 
ATOM     72  H   UNL     1      -7.145  18.026  -3.823  1.00  0.00     0.167 HD
ATOM     73  C   UNL     1      -8.705  20.042  -2.567  1.00  0.00     0.074 A 
ATOM     74  C   UNL     1      -9.329  20.841  -1.534  1.00  0.00     0.031 C 
ATOM     75  C   UNL     1      -8.785  20.305  -3.894  1.00  0.00     0.031 A 
BRANCH  62  76
ATOM     76  C   UNL     1      -5.672  16.369  -7.485  1.00  0.00    -0.014 A 
ATOM     77  C   UNL     1      -4.894  17.244  -8.266  1.00  0.00     0.010 A 
ATOM     78  C   UNL     1      -6.230  15.228  -8.087  1.00  0.00     0.010 A 
ATOM     79  C   UNL     1      -4.718  17.009  -9.633  1.00  0.00     0.020 A 
ATOM     80  C   UNL     1      -6.035  14.975  -9.448  1.00  0.00     0.020 A 
ATOM     81  C   UNL     1      -5.303  15.882 -10.218  1.00  0.00     0.054 A 
BRANCH  81  82
ATOM     82  S   UNL     1      -5.116  15.625 -12.005  1.00  0.00     0.124 S 
ATOM     83  O   UNL     1      -6.007  16.640 -12.558  1.00  0.00    -0.237 OA
ATOM     84  O   UNL     1      -3.688  15.855 -12.212  1.00  0.00    -0.237 OA
ATOM     85  O   UNL     1      -5.548  14.242 -12.198  1.00  0.00    -0.744 OA
ENDBRANCH  81  82
ENDBRANCH  62  76
BRANCH  63  86
ATOM     86  C   UNL     1      -8.161  18.661   1.911  1.00  0.00    -0.014 A 
ATOM     87  C   UNL     1      -7.195  19.067   2.850  1.00  0.00     0.010 A 
ATOM     88  C   UNL     1      -9.491  18.485   2.333  1.00  0.00     0.010 A 
ATOM     89  C   UNL     1      -7.539  19.240   4.193  1.00  0.00     0.020 A 
ATOM     90  C   UNL     1      -9.845  18.686   3.671  1.00  0.00     0.020 A 
ATOM     91  C   UNL     1      -8.860  19.034   4.598  1.00  0.00     0.054 A 
BRANCH  91  92
ATOM     92  S   UNL     1      -9.276  19.218   6.354  1.00  0.00     0.124 S 
ATOM     93  O   UNL     1      -8.746  17.980   6.918  1.00  0.00    -0.237 OA
ATOM     94  O   UNL     1      -8.560  20.436   6.726  1.00  0.00    -0.237 OA
ATOM     95  O   UNL     1     -10.732  19.331   6.351  1.00  0.00    -0.744 OA
ENDBRANCH  91  92
ENDBRANCH  63  86
BRANCH  75  96
ATOM     96  C   UNL     1      -9.562  21.519  -4.338  1.00  0.00    -0.014 A 
ATOM     97  C   UNL     1     -10.748  21.360  -5.079  1.00  0.00     0.010 A 
ATOM     98  C   UNL     1      -9.040  22.811  -4.151  1.00  0.00     0.010 A 
ATOM     99  C   UNL     1     -11.372  22.464  -5.666  1.00  0.00     0.020 A 
ATOM    100  C   UNL     1      -9.678  23.921  -4.712  1.00  0.00     0.020 A 
ATOM    101  C   UNL     1     -10.823  23.737  -5.491  1.00  0.00     0.054 A 
BRANCH 101 102
ATOM    102  S   UNL     1     -11.613  25.151  -6.309  1.00  0.00     0.124 S 
ATOM    103  O   UNL     1     -11.206  24.968  -7.699  1.00  0.00    -0.237 OA
ATOM    104  O   UNL     1     -13.031  24.930  -6.034  1.00  0.00    -0.237 OA
ATOM    105  O   UNL     1     -11.029  26.308  -5.635  1.00  0.00    -0.744 OA
ENDBRANCH 101 102
ENDBRANCH  75  96
ENDBRANCH  49  50
ENDBRANCH  42  44
ENDBRANCH  41  42
ENDBRANCH  40  41
ENDBRANCH  39  40
ENDBRANCH  38  39
ENDBRANCH   1  38
TORSDOF 23
