REMARK SMILES Cc1cc2c(c(C)c1Cl)C=C(C(=O)OCCOCCOC(=O)c1ccc(-c3c4nc(c(-c5ccc(S(=O)(=O)[O-])cc5)c5ccc([nH]5)c(-c5ccc(S(=O)(=O)[O-])cc5)c5nc(c(-c6ccc(S(=O)(=O)[O-])cc6)c6ccc3[nH]6)C=C5)C=C4)cc1)[C@H](C(F)(F)F)O2
REMARK SMILES IDX 18 1 17 2 16 3 15 4 14 5 12 6 13 7 11 8 1 9 2 10 3 11 8 12
REMARK SMILES IDX 4 13 6 14 9 15 5 16 88 17 7 18 10 19 83 20 84 21 85 22 86 23
REMARK SMILES IDX 87 24 19 25 20 26 21 27 22 28 23 29 24 30 82 31 25 32 81 33
REMARK SMILES IDX 26 34 27 35 28 36 75 37 29 38 80 39 74 40 76 41 30 42 79 43
REMARK SMILES IDX 73 44 72 45 31 47 61 48 42 49 60 50 43 51 46 52 59 53 77 54
REMARK SMILES IDX 44 55 45 56 58 58 78 59 47 60 32 61 33 62 41 63 34 64 40 65
REMARK SMILES IDX 35 66 36 67 37 68 38 69 39 70 62 71 63 72 71 73 64 74 70 75
REMARK SMILES IDX 65 76 66 77 67 78 68 79 69 80 48 81 49 82 57 83 50 84 56 85
REMARK SMILES IDX 51 86 52 87 53 88 54 89 55 90
REMARK H PARENT 76 46 46 57
REMARK Flexibility Score: inf
ROOT
ATOM      1  C   UNL     1       0.585   5.468   7.078  1.00  0.00     0.202 C 
ENDROOT
BRANCH   1   2
ATOM      2  O   UNL     1      -0.325   6.489   7.497  1.00  0.00    -0.374 OA
BRANCH   2   3
ATOM      3  C   UNL     1      -1.442   6.070   8.283  1.00  0.00     0.202 C 
BRANCH   3   4
ATOM      4  C   UNL     1      -2.701   5.675   7.508  1.00  0.00     0.261 C 
BRANCH   4   5
ATOM      5  O   UNL     1      -2.445   4.510   6.705  1.00  0.00    -0.460 OA
BRANCH   5   6
ATOM      6  C   UNL     1      -2.255   4.768   5.397  1.00  0.00     0.338 C 
ATOM      7  O   UNL     1      -2.518   5.816   4.826  1.00  0.00    -0.246 OA
BRANCH   6   8
ATOM      8  C   UNL     1      -1.556   3.645   4.741  1.00  0.00     0.087 C 
ATOM      9  C   UNL     1       0.972  -0.205   0.180  1.00  0.00     0.046 C 
ATOM     10  C   UNL     1       0.598   0.915   1.113  1.00  0.00    -0.028 A 
ATOM     11  C   UNL     1      -0.198   0.628   2.232  1.00  0.00     0.052 A 
ATOM     12  C   UNL     1       0.993   2.247   0.871  1.00  0.00     0.047 A 
ATOM     13  C   UNL     1      -0.620   1.646   3.083  1.00  0.00     0.128 A 
ATOM     14  C   UNL     1       0.587   3.291   1.730  1.00  0.00    -0.021 A 
ATOM     15  Cl  UNL     1       1.960   2.586  -0.535  1.00  0.00    -0.084 Cl
ATOM     16  C   UNL     1      -0.241   2.971   2.835  1.00  0.00     0.022 A 
ATOM     17  O   UNL     1      -1.478   1.270   4.086  1.00  0.00    -0.475 OA
ATOM     18  C   UNL     1       0.986   4.730   1.488  1.00  0.00     0.047 C 
ATOM     19  C   UNL     1      -0.830   4.004   3.675  1.00  0.00     0.027 C 
ATOM     20  C   UNL     1      -1.719   2.215   5.174  1.00  0.00     0.316 C 
BRANCH  20  21
ATOM     21  C   UNL     1      -0.866   1.784   6.386  1.00  0.00     0.430 C 
ATOM     22  F   UNL     1      -1.026   2.581   7.463  1.00  0.00    -0.167 F 
ATOM     23  F   UNL     1      -1.197   0.530   6.785  1.00  0.00    -0.167 F 
ATOM     24  F   UNL     1       0.458   1.774   6.096  1.00  0.00    -0.167 F 
ENDBRANCH  20  21
ENDBRANCH   6   8
ENDBRANCH   5   6
ENDBRANCH   4   5
ENDBRANCH   3   4
ENDBRANCH   2   3
ENDBRANCH   1   2
BRANCH   1  25
ATOM     25  C   UNL     1       1.577   4.942   8.126  1.00  0.00     0.261 C 
BRANCH  25  26
ATOM     26  O   UNL     1       0.920   4.140   9.125  1.00  0.00    -0.460 OA
BRANCH  26  27
ATOM     27  C   UNL     1       0.774   4.732  10.335  1.00  0.00     0.338 C 
ATOM     28  O   UNL     1       1.244   5.803  10.689  1.00  0.00    -0.246 OA
BRANCH  27  29
ATOM     29  C   UNL     1      -0.255   4.010  11.113  1.00  0.00     0.060 A 
ATOM     30  C   UNL     1      -1.303   4.769  11.650  1.00  0.00     0.016 A 
ATOM     31  C   UNL     1      -0.197   2.632  11.329  1.00  0.00     0.016 A 
ATOM     32  C   UNL     1      -2.274   4.161  12.442  1.00  0.00     0.010 A 
ATOM     33  C   UNL     1      -1.166   2.025  12.138  1.00  0.00     0.010 A 
ATOM     34  C   UNL     1      -2.188   2.792  12.727  1.00  0.00    -0.014 A 
BRANCH  34  35
ATOM     35  C   UNL     1      -3.068   2.222  13.778  1.00  0.00     0.031 A 
ATOM     36  C   UNL     1      -2.508   2.031  15.162  1.00  0.00     0.074 A 
ATOM     37  C   UNL     1      -4.364   1.954  13.532  1.00  0.00     0.049 A 
ATOM     38  N   UNL     1      -3.106   1.606  16.245  1.00  0.00    -0.248 NA
ATOM     39  C   UNL     1      -1.087   2.370  15.354  1.00  0.00     0.031 C 
ATOM     40  C   UNL     1      -5.039   2.146  12.249  1.00  0.00     0.029 A 
ATOM     41  N   UNL     1      -5.349   1.477  14.362  1.00  0.00    -0.354 N 
ATOM     42  C   UNL     1      -2.141   1.634  17.244  1.00  0.00     0.074 A 
ATOM     43  C   UNL     1      -0.906   2.071  16.631  1.00  0.00     0.031 C 
ATOM     44  C   UNL     1      -6.333   1.805  12.383  1.00  0.00     0.029 A 
ATOM     45  C   UNL     1      -6.572   1.342  13.749  1.00  0.00     0.049 A 
ATOM     46  H   UNL     1      -5.193   1.253  15.308  1.00  0.00     0.167 HD
ATOM     47  C   UNL     1      -2.272   1.341  18.559  1.00  0.00     0.031 A 
ATOM     48  C   UNL     1      -7.749   0.893  14.232  1.00  0.00     0.031 A 
ATOM     49  C   UNL     1      -3.496   0.896  19.169  1.00  0.00     0.049 A 
ATOM     50  C   UNL     1      -7.845   0.473  15.678  1.00  0.00     0.074 A 
ATOM     51  C   UNL     1      -3.727   0.580  20.496  1.00  0.00     0.029 A 
ATOM     52  N   UNL     1      -4.690   0.696  18.494  1.00  0.00    -0.354 N 
ATOM     53  N   UNL     1      -6.929   0.533  16.616  1.00  0.00    -0.248 NA
ATOM     54  C   UNL     1      -9.133  -0.073  16.130  1.00  0.00     0.031 C 
ATOM     55  C   UNL     1      -5.044   0.126  20.612  1.00  0.00     0.029 A 
ATOM     56  C   UNL     1      -5.653   0.225  19.371  1.00  0.00     0.049 A 
ATOM     57  H   UNL     1      -4.833   0.864  17.535  1.00  0.00     0.167 HD
ATOM     58  C   UNL     1      -7.537   0.052  17.772  1.00  0.00     0.074 A 
ATOM     59  C   UNL     1      -8.903  -0.277  17.421  1.00  0.00     0.031 C 
ATOM     60  C   UNL     1      -7.010  -0.103  19.011  1.00  0.00     0.031 A 
BRANCH  47  61
ATOM     61  C   UNL     1      -1.053   1.479  19.431  1.00  0.00    -0.014 A 
ATOM     62  C   UNL     1      -0.536   2.746  19.757  1.00  0.00     0.010 A 
ATOM     63  C   UNL     1      -0.451   0.332  19.979  1.00  0.00     0.010 A 
ATOM     64  C   UNL     1       0.578   2.861  20.592  1.00  0.00     0.020 A 
ATOM     65  C   UNL     1       0.646   0.444  20.838  1.00  0.00     0.020 A 
ATOM     66  C   UNL     1       1.161   1.709  21.129  1.00  0.00     0.054 A 
BRANCH  66  67
ATOM     67  S   UNL     1       2.585   1.895  22.236  1.00  0.00     0.124 S 
ATOM     68  O   UNL     1       3.616   2.379  21.322  1.00  0.00    -0.237 OA
ATOM     69  O   UNL     1       2.103   2.870  23.212  1.00  0.00    -0.237 OA
ATOM     70  O   UNL     1       2.799   0.548  22.758  1.00  0.00    -0.744 OA
ENDBRANCH  66  67
ENDBRANCH  47  61
BRANCH  48  71
ATOM     71  C   UNL     1      -8.938   0.815  13.338  1.00  0.00    -0.014 A 
ATOM     72  C   UNL     1     -10.042   1.663  13.537  1.00  0.00     0.010 A 
ATOM     73  C   UNL     1      -8.970  -0.107  12.275  1.00  0.00     0.010 A 
ATOM     74  C   UNL     1     -11.156   1.587  12.695  1.00  0.00     0.020 A 
ATOM     75  C   UNL     1     -10.070  -0.167  11.414  1.00  0.00     0.020 A 
ATOM     76  C   UNL     1     -11.159   0.678  11.633  1.00  0.00     0.054 A 
BRANCH  76  77
ATOM     77  S   UNL     1     -12.590   0.643  10.518  1.00  0.00     0.124 S 
ATOM     78  O   UNL     1     -13.638   0.110  11.381  1.00  0.00    -0.237 OA
ATOM     79  O   UNL     1     -12.729   2.050  10.147  1.00  0.00    -0.237 OA
ATOM     80  O   UNL     1     -12.160  -0.239   9.435  1.00  0.00    -0.744 OA
ENDBRANCH  76  77
ENDBRANCH  48  71
BRANCH  60  81
ATOM     81  C   UNL     1      -7.899  -0.649  20.099  1.00  0.00    -0.014 A 
ATOM     82  C   UNL     1      -8.267  -2.005  20.118  1.00  0.00     0.010 A 
ATOM     83  C   UNL     1      -8.278   0.179  21.173  1.00  0.00     0.010 A 
ATOM     84  C   UNL     1      -9.003  -2.523  21.188  1.00  0.00     0.020 A 
ATOM     85  C   UNL     1      -8.989  -0.342  22.258  1.00  0.00     0.020 A 
ATOM     86  C   UNL     1      -9.351  -1.690  22.256  1.00  0.00     0.054 A 
BRANCH  86  87
ATOM     87  S   UNL     1     -10.236  -2.411  23.666  1.00  0.00     0.124 S 
ATOM     88  O   UNL     1     -11.539  -2.721  23.082  1.00  0.00    -0.237 OA
ATOM     89  O   UNL     1      -9.408  -3.566  24.004  1.00  0.00    -0.237 OA
ATOM     90  O   UNL     1     -10.240  -1.340  24.660  1.00  0.00    -0.744 OA
ENDBRANCH  86  87
ENDBRANCH  60  81
ENDBRANCH  34  35
ENDBRANCH  27  29
ENDBRANCH  26  27
ENDBRANCH  25  26
ENDBRANCH   1  25
TORSDOF 18
