REMARK SMILES [NH3+][C@H](CS[C@@H]1CC(=O)N(c2ccc3ccccc3c2)C1=O)C(=O)OCCOCCOC(=O)c1ccc(-c2c3nc(c(-c4ccc(S(=O)(=O)[O-])cc4)c4ccc([nH]4)c(-c4ccc(S(=O)(=O)[O-])cc4)c4nc(c(-c5ccc(S(=O)(=O)[O-])cc5)c5ccc2[nH]5)C=C4)C=C3)cc1
REMARK SMILES IDX 26 1 25 2 24 3 22 4 23 5 2 6 1 7 3 11 4 12 5 13 6 14 20 15
REMARK SMILES IDX 7 16 9 17 21 18 8 19 10 20 11 21 19 22 12 23 18 24 13 25
REMARK SMILES IDX 17 26 14 27 16 28 15 29 27 30 28 31 29 32 30 33 31 34 32 35
REMARK SMILES IDX 33 36 34 37 92 38 35 39 91 40 36 41 37 42 38 43 85 44 39 45
REMARK SMILES IDX 90 46 84 47 86 48 40 49 89 50 83 51 82 52 41 54 71 55 52 56
REMARK SMILES IDX 70 57 53 58 56 59 69 60 87 61 54 62 55 63 68 65 88 66 57 67
REMARK SMILES IDX 42 68 43 69 51 70 44 71 50 72 45 73 46 74 47 75 48 76 49 77
REMARK SMILES IDX 72 78 73 79 81 80 74 81 80 82 75 83 76 84 77 85 78 86 79 87
REMARK SMILES IDX 58 88 59 89 67 90 60 91 66 92 61 93 62 94 63 95 64 96 65 97
REMARK H PARENT 1 8 1 9 1 10 86 53 56 64
REMARK Flexibility Score: inf
ROOT
ATOM      1  C   UNL     1      -3.820   0.787  -0.215  1.00  0.00     0.202 C 
ENDROOT
BRANCH   1   2
ATOM      2  C   UNL     1      -3.171   1.225  -1.530  1.00  0.00     0.261 C 
BRANCH   2   3
ATOM      3  O   UNL     1      -1.745   1.045  -1.507  1.00  0.00    -0.459 OA
BRANCH   3   4
ATOM      4  C   UNL     1      -1.007   2.184  -1.377  1.00  0.00     0.365 C 
ATOM      5  O   UNL     1      -1.474   3.317  -1.352  1.00  0.00    -0.245 OA
BRANCH   4   6
ATOM      6  C   UNL     1       0.502   1.882  -1.265  1.00  0.00     0.301 C 
BRANCH   6   7
ATOM      7  N   UNL     1       1.165   2.319  -2.509  1.00  0.00    -0.345 N 
ATOM      8  H   UNL     1       0.927   3.293  -2.697  1.00  0.00     0.345 HD
ATOM      9  H   UNL     1       0.851   1.736  -3.285  1.00  0.00     0.345 HD
ATOM     10  H   UNL     1       2.176   2.230  -2.405  1.00  0.00     0.345 HD
ENDBRANCH   6   7
BRANCH   6  11
ATOM     11  C   UNL     1       0.783   0.415  -0.866  1.00  0.00     0.147 C 
BRANCH  11  12
ATOM     12  S   UNL     1       2.538   0.040  -0.517  1.00  0.00    -0.141 SA
BRANCH  12  13
ATOM     13  C   UNL     1       3.118  -0.311  -2.204  1.00  0.00     0.146 C 
ATOM     14  C   UNL     1       3.407  -1.776  -2.440  1.00  0.00     0.125 C 
ATOM     15  C   UNL     1       4.430   0.381  -2.468  1.00  0.00     0.247 C 
ATOM     16  C   UNL     1       4.669  -1.748  -3.252  1.00  0.00     0.235 C 
ATOM     17  N   UNL     1       5.255  -0.510  -3.114  1.00  0.00    -0.250 N 
ATOM     18  O   UNL     1       4.619   1.573  -2.251  1.00  0.00    -0.273 OA
ATOM     19  O   UNL     1       5.092  -2.732  -3.840  1.00  0.00    -0.274 OA
BRANCH  17  20
ATOM     20  C   UNL     1       6.533  -0.167  -3.618  1.00  0.00     0.052 A 
ATOM     21  C   UNL     1       7.001  -0.705  -4.820  1.00  0.00     0.027 A 
ATOM     22  C   UNL     1       7.360   0.721  -2.912  1.00  0.00     0.035 A 
ATOM     23  C   UNL     1       8.251  -0.336  -5.327  1.00  0.00     0.011 A 
ATOM     24  C   UNL     1       8.642   1.056  -3.379  1.00  0.00    -0.016 A 
ATOM     25  C   UNL     1       9.085   0.536  -4.614  1.00  0.00    -0.018 A 
ATOM     26  C   UNL     1       9.496   1.888  -2.638  1.00  0.00     0.009 A 
ATOM     27  C   UNL     1      10.353   0.894  -5.096  1.00  0.00     0.009 A 
ATOM     28  C   UNL     1      10.765   2.215  -3.117  1.00  0.00     0.001 A 
ATOM     29  C   UNL     1      11.189   1.727  -4.350  1.00  0.00     0.001 A 
ENDBRANCH  17  20
ENDBRANCH  12  13
ENDBRANCH  11  12
ENDBRANCH   6  11
ENDBRANCH   4   6
ENDBRANCH   3   4
ENDBRANCH   2   3
ENDBRANCH   1   2
BRANCH   1  30
ATOM     30  O   UNL     1      -3.451   1.520   0.953  1.00  0.00    -0.374 OA
BRANCH  30  31
ATOM     31  C   UNL     1      -2.233   1.153   1.599  1.00  0.00     0.202 C 
BRANCH  31  32
ATOM     32  C   UNL     1      -2.257  -0.119   2.456  1.00  0.00     0.261 C 
BRANCH  32  33
ATOM     33  O   UNL     1      -2.398  -1.309   1.659  1.00  0.00    -0.460 OA
BRANCH  33  34
ATOM     34  C   UNL     1      -3.604  -1.919   1.762  1.00  0.00     0.338 C 
ATOM     35  O   UNL     1      -4.536  -1.591   2.484  1.00  0.00    -0.246 OA
BRANCH  34  36
ATOM     36  C   UNL     1      -3.736  -2.957   0.724  1.00  0.00     0.060 A 
ATOM     37  C   UNL     1      -4.880  -2.927  -0.085  1.00  0.00     0.016 A 
ATOM     38  C   UNL     1      -2.802  -3.987   0.597  1.00  0.00     0.016 A 
ATOM     39  C   UNL     1      -5.127  -3.959  -0.988  1.00  0.00     0.010 A 
ATOM     40  C   UNL     1      -3.056  -5.027  -0.302  1.00  0.00     0.010 A 
ATOM     41  C   UNL     1      -4.238  -5.037  -1.067  1.00  0.00    -0.014 A 
BRANCH  41  42
ATOM     42  C   UNL     1      -4.620  -6.266  -1.800  1.00  0.00     0.031 A 
ATOM     43  C   UNL     1      -5.151  -7.434  -1.015  1.00  0.00     0.074 A 
ATOM     44  C   UNL     1      -4.479  -6.353  -3.134  1.00  0.00     0.049 A 
ATOM     45  N   UNL     1      -5.423  -8.647  -1.416  1.00  0.00    -0.248 NA
ATOM     46  C   UNL     1      -5.397  -7.199   0.417  1.00  0.00     0.031 C 
ATOM     47  C   UNL     1      -4.030  -5.273  -4.009  1.00  0.00     0.029 A 
ATOM     48  N   UNL     1      -4.679  -7.415  -3.979  1.00  0.00    -0.354 N 
ATOM     49  C   UNL     1      -5.846  -9.331  -0.281  1.00  0.00     0.074 A 
ATOM     50  C   UNL     1      -5.779  -8.400   0.824  1.00  0.00     0.031 C 
ATOM     51  C   UNL     1      -3.961  -5.736  -5.269  1.00  0.00     0.029 A 
ATOM     52  C   UNL     1      -4.321  -7.154  -5.279  1.00  0.00     0.049 A 
ATOM     53  H   UNL     1      -5.044  -8.280  -3.683  1.00  0.00     0.167 HD
ATOM     54  C   UNL     1      -6.247 -10.619  -0.169  1.00  0.00     0.031 A 
ATOM     55  C   UNL     1      -4.253  -7.974  -6.347  1.00  0.00     0.031 A 
ATOM     56  C   UNL     1      -6.294 -11.543  -1.271  1.00  0.00     0.049 A 
ATOM     57  C   UNL     1      -4.640  -9.420  -6.195  1.00  0.00     0.074 A 
ATOM     58  C   UNL     1      -6.696 -12.866  -1.268  1.00  0.00     0.029 A 
ATOM     59  N   UNL     1      -5.915 -11.240  -2.571  1.00  0.00    -0.354 N 
ATOM     60  N   UNL     1      -5.046 -10.054  -5.119  1.00  0.00    -0.248 NA
ATOM     61  C   UNL     1      -4.568 -10.261  -7.398  1.00  0.00     0.031 C 
ATOM     62  C   UNL     1      -6.509 -13.379  -2.556  1.00  0.00     0.029 A 
ATOM     63  C   UNL     1      -6.051 -12.358  -3.375  1.00  0.00     0.049 A 
ATOM     64  H   UNL     1      -5.597 -10.360  -2.876  1.00  0.00     0.167 HD
ATOM     65  C   UNL     1      -5.307 -11.359  -5.522  1.00  0.00     0.074 A 
ATOM     66  C   UNL     1      -5.013 -11.425  -6.940  1.00  0.00     0.031 C 
ATOM     67  C   UNL     1      -5.759 -12.405  -4.787  1.00  0.00     0.031 A 
BRANCH  54  68
ATOM     68  C   UNL     1      -6.605 -11.111   1.208  1.00  0.00    -0.014 A 
ATOM     69  C   UNL     1      -7.765 -10.666   1.869  1.00  0.00     0.010 A 
ATOM     70  C   UNL     1      -5.758 -12.028   1.856  1.00  0.00     0.010 A 
ATOM     71  C   UNL     1      -8.036 -11.082   3.176  1.00  0.00     0.020 A 
ATOM     72  C   UNL     1      -6.041 -12.469   3.151  1.00  0.00     0.020 A 
ATOM     73  C   UNL     1      -7.166 -11.972   3.813  1.00  0.00     0.054 A 
BRANCH  73  74
ATOM     74  S   UNL     1      -7.527 -12.479   5.516  1.00  0.00     0.124 S 
ATOM     75  O   UNL     1      -7.160 -11.282   6.269  1.00  0.00    -0.237 OA
ATOM     76  O   UNL     1      -8.956 -12.776   5.468  1.00  0.00    -0.237 OA
ATOM     77  O   UNL     1      -6.660 -13.636   5.725  1.00  0.00    -0.744 OA
ENDBRANCH  73  74
ENDBRANCH  54  68
BRANCH  55  78
ATOM     78  C   UNL     1      -3.775  -7.434  -7.648  1.00  0.00    -0.014 A 
ATOM     79  C   UNL     1      -4.671  -7.215  -8.707  1.00  0.00     0.010 A 
ATOM     80  C   UNL     1      -2.421  -7.082  -7.812  1.00  0.00     0.010 A 
ATOM     81  C   UNL     1      -4.226  -6.642  -9.903  1.00  0.00     0.020 A 
ATOM     82  C   UNL     1      -1.978  -6.487  -8.996  1.00  0.00     0.020 A 
ATOM     83  C   UNL     1      -2.885  -6.271 -10.035  1.00  0.00     0.054 A 
BRANCH  83  84
ATOM     84  S   UNL     1      -2.353  -5.432 -11.554  1.00  0.00     0.124 S 
ATOM     85  O   UNL     1      -2.345  -6.526 -12.519  1.00  0.00    -0.237 OA
ATOM     86  O   UNL     1      -3.399  -4.429 -11.740  1.00  0.00    -0.237 OA
ATOM     87  O   UNL     1      -1.041  -4.893 -11.204  1.00  0.00    -0.744 OA
ENDBRANCH  83  84
ENDBRANCH  55  78
BRANCH  67  88
ATOM     88  C   UNL     1      -6.016 -13.707  -5.499  1.00  0.00    -0.014 A 
ATOM     89  C   UNL     1      -4.961 -14.542  -5.904  1.00  0.00     0.010 A 
ATOM     90  C   UNL     1      -7.343 -14.140  -5.678  1.00  0.00     0.010 A 
ATOM     91  C   UNL     1      -5.231 -15.784  -6.488  1.00  0.00     0.020 A 
ATOM     92  C   UNL     1      -7.616 -15.390  -6.237  1.00  0.00     0.020 A 
ATOM     93  C   UNL     1      -6.556 -16.202  -6.646  1.00  0.00     0.054 A 
BRANCH  93  94
ATOM     94  S   UNL     1      -6.878 -17.848  -7.338  1.00  0.00     0.124 S 
ATOM     95  O   UNL     1      -6.570 -17.650  -8.751  1.00  0.00    -0.237 OA
ATOM     96  O   UNL     1      -5.941 -18.694  -6.602  1.00  0.00    -0.237 OA
ATOM     97  O   UNL     1      -8.289 -18.082  -7.034  1.00  0.00    -0.744 OA
ENDBRANCH  93  94
ENDBRANCH  67  88
ENDBRANCH  41  42
ENDBRANCH  34  36
ENDBRANCH  33  34
ENDBRANCH  32  33
ENDBRANCH  31  32
ENDBRANCH  30  31
ENDBRANCH   1  30
TORSDOF 22
