REMARK SMILES CC(=O)Nc1cnc(N2CC=C(c3ccccc3C)CC2)c(C(=O)OCCOCCOC(=O)c2ccc(-c3c4nc(c(-c5ccc(S(=O)(=O)[O-])cc5)c5ccc([nH]5)c(-c5ccc(S(=O)(=O)[O-])cc5)c5nc(c(-c6ccc(S(=O)(=O)[O-])cc6)c6ccc3[nH]6)C=C5)C=C4)cc2)c1
REMARK SMILES IDX 29 1 28 2 27 3 26 4 25 5 23 6 24 7 22 8 5 9 6 10 94 11 7 12
REMARK SMILES IDX 8 13 4 14 1 15 2 16 3 17 9 19 10 20 21 21 11 22 20 23 12 24
REMARK SMILES IDX 13 25 14 26 18 27 15 28 17 29 19 30 16 31 30 32 31 33 32 34
REMARK SMILES IDX 33 35 34 36 35 37 93 38 36 39 92 40 37 41 38 42 39 43 86 44
REMARK SMILES IDX 40 45 91 46 85 47 87 48 41 49 90 50 84 51 83 52 42 54 72 55
REMARK SMILES IDX 53 56 71 57 54 58 57 59 70 60 88 61 55 62 56 63 69 65 89 66
REMARK SMILES IDX 58 67 43 68 44 69 52 70 45 71 51 72 46 73 47 74 48 75 49 76
REMARK SMILES IDX 50 77 73 78 74 79 82 80 75 81 81 82 76 83 77 84 78 85 79 86
REMARK SMILES IDX 80 87 59 88 60 89 68 90 61 91 67 92 62 93 63 94 64 95 65 96
REMARK SMILES IDX 66 97
REMARK H PARENT 4 18 87 53 57 64
REMARK Flexibility Score: inf
ROOT
ATOM      1  C   UNL     1       7.367   3.405  -1.885  1.00  0.00     0.202 C 
ENDROOT
BRANCH   1   2
ATOM      2  O   UNL     1       6.668   2.627  -0.942  1.00  0.00    -0.374 OA
BRANCH   2   3
ATOM      3  C   UNL     1       6.385   1.293  -1.357  1.00  0.00     0.202 C 
BRANCH   3   4
ATOM      4  C   UNL     1       5.526   0.722  -0.279  1.00  0.00     0.261 C 
BRANCH   4   5
ATOM      5  O   UNL     1       4.301   1.478  -0.184  1.00  0.00    -0.460 OA
BRANCH   5   6
ATOM      6  C   UNL     1       4.199   2.666   0.482  1.00  0.00     0.342 C 
ATOM      7  O   UNL     1       4.909   3.091   1.360  1.00  0.00    -0.246 OA
BRANCH   6   8
ATOM      8  C   UNL     1       3.032   3.371  -0.089  1.00  0.00     0.104 A 
ATOM      9  C   UNL     1       0.975   3.048  -1.345  1.00  0.00     0.060 A 
ATOM     10  C   UNL     1       0.883   4.427  -1.369  1.00  0.00     0.139 A 
ATOM     11  C   UNL     1       2.076   2.546  -0.700  1.00  0.00     0.047 A 
ATOM     12  N   UNL     1       1.759   5.268  -0.746  1.00  0.00    -0.236 NA
ATOM     13  C   UNL     1       2.851   4.756  -0.104  1.00  0.00     0.143 A 
BRANCH   9  14
ATOM     14  N   UNL     1       0.077   2.203  -2.019  1.00  0.00    -0.325 N 
ATOM     15  C   UNL     1       0.285   0.133  -0.602  1.00  0.00     0.114 C 
ATOM     16  C   UNL     1      -0.150   0.856  -1.861  1.00  0.00     0.221 C 
ATOM     17  O   UNL     1      -0.771   0.253  -2.740  1.00  0.00    -0.275 OA
ATOM     18  H   UNL     1      -0.472   2.641  -2.709  1.00  0.00     0.169 HD
ENDBRANCH   9  14
BRANCH  13  19
ATOM     19  N   UNL     1       3.741   5.699   0.367  1.00  0.00    -0.352 N 
ATOM     20  C   UNL     1       3.459   6.338   1.650  1.00  0.00     0.146 C 
ATOM     21  C   UNL     1       5.145   5.642  -0.018  1.00  0.00     0.123 C 
ATOM     22  C   UNL     1       4.274   7.610   1.787  1.00  0.00    -0.002 C 
ATOM     23  C   UNL     1       5.693   7.063  -0.173  1.00  0.00     0.057 C 
ATOM     24  C   UNL     1       5.272   7.975   0.954  1.00  0.00    -0.041 C 
BRANCH  24  25
ATOM     25  C   UNL     1       5.987   9.267   1.100  1.00  0.00    -0.020 A 
ATOM     26  C   UNL     1       6.665   9.533   2.304  1.00  0.00     0.008 A 
ATOM     27  C   UNL     1       6.029  10.239   0.075  1.00  0.00    -0.044 A 
ATOM     28  C   UNL     1       7.382  10.720   2.485  1.00  0.00     0.001 A 
ATOM     29  C   UNL     1       6.771  11.421   0.267  1.00  0.00     0.004 A 
ATOM     30  C   UNL     1       5.324  10.067  -1.243  1.00  0.00     0.045 C 
ATOM     31  C   UNL     1       7.439  11.662   1.464  1.00  0.00     0.000 A 
ENDBRANCH  24  25
ENDBRANCH  13  19
ENDBRANCH   6   8
ENDBRANCH   5   6
ENDBRANCH   4   5
ENDBRANCH   3   4
ENDBRANCH   2   3
ENDBRANCH   1   2
BRANCH   1  32
ATOM     32  C   UNL     1       8.707   2.794  -2.293  1.00  0.00     0.261 C 
BRANCH  32  33
ATOM     33  O   UNL     1       9.655   2.902  -1.208  1.00  0.00    -0.460 OA
BRANCH  33  34
ATOM     34  C   UNL     1       9.973   1.738  -0.566  1.00  0.00     0.338 C 
ATOM     35  O   UNL     1      10.826   0.964  -0.962  1.00  0.00    -0.246 OA
BRANCH  34  36
ATOM     36  C   UNL     1       9.226   1.615   0.720  1.00  0.00     0.060 A 
ATOM     37  C   UNL     1       9.027   0.371   1.344  1.00  0.00     0.016 A 
ATOM     38  C   UNL     1       8.600   2.742   1.237  1.00  0.00     0.016 A 
ATOM     39  C   UNL     1       8.088   0.233   2.388  1.00  0.00     0.010 A 
ATOM     40  C   UNL     1       7.636   2.590   2.213  1.00  0.00     0.010 A 
ATOM     41  C   UNL     1       7.335   1.336   2.778  1.00  0.00    -0.014 A 
BRANCH  41  42
ATOM     42  C   UNL     1       6.174   1.346   3.690  1.00  0.00     0.031 A 
ATOM     43  C   UNL     1       6.254   2.211   4.895  1.00  0.00     0.074 A 
ATOM     44  C   UNL     1       4.955   0.881   3.304  1.00  0.00     0.049 A 
ATOM     45  N   UNL     1       5.361   2.248   5.821  1.00  0.00    -0.248 NA
ATOM     46  C   UNL     1       7.374   3.110   5.178  1.00  0.00     0.031 C 
ATOM     47  C   UNL     1       3.630   1.319   3.760  1.00  0.00     0.029 A 
ATOM     48  N   UNL     1       4.622  -0.091   2.357  1.00  0.00    -0.354 N 
ATOM     49  C   UNL     1       5.563   3.401   6.543  1.00  0.00     0.074 A 
ATOM     50  C   UNL     1       6.897   3.822   6.202  1.00  0.00     0.031 C 
ATOM     51  C   UNL     1       2.691   0.448   3.343  1.00  0.00     0.029 A 
ATOM     52  C   UNL     1       3.389  -0.656   2.707  1.00  0.00     0.049 A 
ATOM     53  H   UNL     1       5.164  -0.338   1.573  1.00  0.00     0.167 HD
ATOM     54  C   UNL     1       4.505   3.938   7.214  1.00  0.00     0.031 A 
ATOM     55  C   UNL     1       3.290  -1.983   2.991  1.00  0.00     0.031 A 
ATOM     56  C   UNL     1       3.340   3.041   7.158  1.00  0.00     0.049 A 
ATOM     57  C   UNL     1       2.911  -2.107   4.437  1.00  0.00     0.074 A 
ATOM     58  C   UNL     1       2.122   3.102   6.503  1.00  0.00     0.029 A 
ATOM     59  N   UNL     1       3.481   1.725   7.600  1.00  0.00    -0.354 N 
ATOM     60  N   UNL     1       3.185  -1.170   5.305  1.00  0.00    -0.248 NA
ATOM     61  C   UNL     1       2.090  -3.173   4.998  1.00  0.00     0.031 C 
ATOM     62  C   UNL     1       1.587   1.780   6.461  1.00  0.00     0.029 A 
ATOM     63  C   UNL     1       2.463   0.926   7.115  1.00  0.00     0.049 A 
ATOM     64  H   UNL     1       4.210   1.407   8.181  1.00  0.00     0.167 HD
ATOM     65  C   UNL     1       2.488  -1.400   6.445  1.00  0.00     0.074 A 
ATOM     66  C   UNL     1       1.875  -2.704   6.242  1.00  0.00     0.031 C 
ATOM     67  C   UNL     1       2.404  -0.492   7.455  1.00  0.00     0.031 A 
BRANCH  54  68
ATOM     68  C   UNL     1       4.434   5.364   7.730  1.00  0.00    -0.014 A 
ATOM     69  C   UNL     1       3.199   5.872   8.186  1.00  0.00     0.010 A 
ATOM     70  C   UNL     1       5.511   6.274   7.754  1.00  0.00     0.010 A 
ATOM     71  C   UNL     1       3.046   7.200   8.619  1.00  0.00     0.020 A 
ATOM     72  C   UNL     1       5.377   7.603   8.188  1.00  0.00     0.020 A 
ATOM     73  C   UNL     1       4.140   8.060   8.619  1.00  0.00     0.054 A 
BRANCH  73  74
ATOM     74  S   UNL     1       3.934   9.761   9.205  1.00  0.00     0.124 S 
ATOM     75  O   UNL     1       2.951  10.298   8.269  1.00  0.00    -0.237 OA
ATOM     76  O   UNL     1       3.463   9.566  10.573  1.00  0.00    -0.237 OA
ATOM     77  O   UNL     1       5.274  10.334   9.088  1.00  0.00    -0.744 OA
ENDBRANCH  73  74
ENDBRANCH  54  68
BRANCH  55  78
ATOM     78  C   UNL     1       4.224  -2.819   2.169  1.00  0.00    -0.014 A 
ATOM     79  C   UNL     1       3.873  -3.001   0.808  1.00  0.00     0.010 A 
ATOM     80  C   UNL     1       5.580  -2.950   2.524  1.00  0.00     0.010 A 
ATOM     81  C   UNL     1       4.856  -3.133  -0.183  1.00  0.00     0.020 A 
ATOM     82  C   UNL     1       6.569  -3.075   1.528  1.00  0.00     0.020 A 
ATOM     83  C   UNL     1       6.203  -3.108   0.178  1.00  0.00     0.054 A 
BRANCH  83  84
ATOM     84  S   UNL     1       7.443  -2.837  -1.134  1.00  0.00     0.124 S 
ATOM     85  O   UNL     1       7.558  -4.161  -1.735  1.00  0.00    -0.237 OA
ATOM     86  O   UNL     1       6.802  -1.820  -1.970  1.00  0.00    -0.237 OA
ATOM     87  O   UNL     1       8.615  -2.369  -0.403  1.00  0.00    -0.744 OA
ENDBRANCH  83  84
ENDBRANCH  55  78
BRANCH  67  88
ATOM     88  C   UNL     1       2.166  -0.901   8.874  1.00  0.00    -0.014 A 
ATOM     89  C   UNL     1       2.390  -2.212   9.323  1.00  0.00     0.010 A 
ATOM     90  C   UNL     1       1.883   0.086   9.842  1.00  0.00     0.010 A 
ATOM     91  C   UNL     1       2.232  -2.549  10.664  1.00  0.00     0.020 A 
ATOM     92  C   UNL     1       1.784  -0.229  11.195  1.00  0.00     0.020 A 
ATOM     93  C   UNL     1       1.919  -1.555  11.589  1.00  0.00     0.054 A 
BRANCH  93  94
ATOM     94  S   UNL     1       1.715  -2.018  13.320  1.00  0.00     0.124 S 
ATOM     95  O   UNL     1       0.364  -2.573  13.317  1.00  0.00    -0.237 OA
ATOM     96  O   UNL     1       2.791  -2.985  13.524  1.00  0.00    -0.237 OA
ATOM     97  O   UNL     1       1.874  -0.755  14.036  1.00  0.00    -0.744 OA
ENDBRANCH  93  94
ENDBRANCH  67  88
ENDBRANCH  41  42
ENDBRANCH  34  36
ENDBRANCH  33  34
ENDBRANCH  32  33
ENDBRANCH   1  32
TORSDOF 20
