REMARK SMILES Cc1ccc(-c2cc3cccnc3n2CCC(=O)OCCOCCOC(=O)c2ccc(-c3c4nc(c(-c5ccc(S(=O)(=O)[O-])cc5)c5ccc([nH]5)c(-c5ccc(S(=O)(=O)[O-])cc5)c5nc(c(-c6ccc(S(=O)(=O)[O-])cc6)c6ccc3[nH]6)C=C5)C=C4)cc2)cn1
REMARK SMILES IDX 22 1 21 2 20 3 19 4 17 5 18 6 16 7 15 8 14 9 6 10 7 11 8 12
REMARK SMILES IDX 13 13 9 14 12 15 10 16 11 17 5 18 1 19 2 20 3 21 89 22 4 23
REMARK SMILES IDX 88 24 23 25 24 26 25 27 26 28 27 29 28 30 29 31 87 32 30 33
REMARK SMILES IDX 86 34 31 35 32 36 33 37 80 38 34 39 85 40 79 41 81 42 35 43
REMARK SMILES IDX 84 44 78 45 77 46 36 48 66 49 47 50 65 51 48 52 51 53 64 54
REMARK SMILES IDX 82 55 49 56 50 57 63 59 83 60 52 61 37 62 38 63 46 64 39 65
REMARK SMILES IDX 45 66 40 67 41 68 42 69 43 70 44 71 67 72 68 73 76 74 69 75
REMARK SMILES IDX 75 76 70 77 71 78 72 79 73 80 74 81 53 82 54 83 62 84 55 85
REMARK SMILES IDX 61 86 56 87 57 88 58 89 59 90 60 91
REMARK H PARENT 81 47 51 58
REMARK Flexibility Score: inf
ROOT
ATOM      1  O   UNL     1       0.762  -0.241   1.540  1.00  0.00    -0.374 OA
ENDROOT
BRANCH   1   2
ATOM      2  C   UNL     1       0.012  -0.076   0.102  1.00  0.00     0.202 C 
BRANCH   2   3
ATOM      3  C   UNL     1      -0.771  -1.614  -1.233  1.00  0.00     0.261 C 
BRANCH   3   4
ATOM      4  O   UNL     1      -2.326  -2.339  -1.082  1.00  0.00    -0.463 OA
BRANCH   4   5
ATOM      5  C   UNL     1      -2.637  -3.389  -0.271  1.00  0.00     0.307 C 
ATOM      6  O   UNL     1      -2.021  -4.451  -0.310  1.00  0.00    -0.252 OA
BRANCH   5   7
ATOM      7  C   UNL     1      -3.781  -3.159   0.772  1.00  0.00     0.144 C 
BRANCH   7   8
ATOM      8  C   UNL     1      -4.082  -1.831   1.509  1.00  0.00     0.136 C 
BRANCH   8   9
ATOM      9  N   UNL     1      -4.404  -0.720   0.651  1.00  0.00    -0.325 N 
ATOM     10  C   UNL     1      -3.481  -0.052  -0.109  1.00  0.00     0.052 A 
ATOM     11  C   UNL     1      -4.211   0.742  -0.987  1.00  0.00     0.039 A 
ATOM     12  C   UNL     1      -5.577   0.651  -0.655  1.00  0.00     0.020 A 
ATOM     13  C   UNL     1      -5.664  -0.214   0.429  1.00  0.00     0.140 A 
ATOM     14  C   UNL     1      -6.757   1.201  -1.173  1.00  0.00     0.013 A 
ATOM     15  N   UNL     1      -6.787  -0.543   1.098  1.00  0.00    -0.238 NA
ATOM     16  C   UNL     1      -7.941   0.901  -0.509  1.00  0.00     0.021 A 
ATOM     17  C   UNL     1      -7.892   0.070   0.604  1.00  0.00     0.113 A 
BRANCH  10  18
ATOM     18  C   UNL     1      -2.048  -0.350  -0.165  1.00  0.00     0.017 A 
ATOM     19  C   UNL     1       2.790  -0.974  -1.112  1.00  0.00     0.066 C 
ATOM     20  C   UNL     1       1.302  -1.211  -1.086  1.00  0.00     0.037 A 
ATOM     21  C   UNL     1       0.575  -2.081   0.284  1.00  0.00     0.024 A 
ATOM     22  N   UNL     1       0.405  -0.020  -1.983  1.00  0.00    -0.261 NA
ATOM     23  C   UNL     1      -1.113  -1.622   0.773  1.00  0.00     0.014 A 
ATOM     24  C   UNL     1      -1.210   0.416  -1.528  1.00  0.00     0.121 A 
ENDBRANCH  10  18
ENDBRANCH   8   9
ENDBRANCH   7   8
ENDBRANCH   5   7
ENDBRANCH   4   5
ENDBRANCH   3   4
ENDBRANCH   2   3
ENDBRANCH   1   2
BRANCH   1  25
ATOM     25  C   UNL     1       0.029  -0.088   2.777  1.00  0.00     0.202 C 
BRANCH  25  26
ATOM     26  C   UNL     1      -0.157   1.312   3.337  1.00  0.00     0.261 C 
BRANCH  26  27
ATOM     27  O   UNL     1      -0.737   2.139   2.357  1.00  0.00    -0.460 OA
BRANCH  27  28
ATOM     28  C   UNL     1       0.141   2.648   1.458  1.00  0.00     0.338 C 
ATOM     29  O   UNL     1       1.355   2.641   1.518  1.00  0.00    -0.246 OA
BRANCH  28  30
ATOM     30  C   UNL     1      -0.676   3.264   0.391  1.00  0.00     0.060 A 
ATOM     31  C   UNL     1      -0.035   4.294  -0.277  1.00  0.00     0.016 A 
ATOM     32  C   UNL     1      -2.072   3.220   0.552  1.00  0.00     0.016 A 
ATOM     33  C   UNL     1      -0.691   5.494  -0.257  1.00  0.00     0.010 A 
ATOM     34  C   UNL     1      -2.722   4.412   0.590  1.00  0.00     0.010 A 
ATOM     35  C   UNL     1      -1.955   5.537   0.347  1.00  0.00    -0.014 A 
BRANCH  35  36
ATOM     36  C   UNL     1      -2.516   6.811   0.690  1.00  0.00     0.031 A 
ATOM     37  C   UNL     1      -3.120   7.416  -0.501  1.00  0.00     0.074 A 
ATOM     38  C   UNL     1      -2.482   7.314   1.937  1.00  0.00     0.049 A 
ATOM     39  N   UNL     1      -2.513   8.211  -1.312  1.00  0.00    -0.248 NA
ATOM     40  C   UNL     1      -4.368   6.840  -1.030  1.00  0.00     0.031 C 
ATOM     41  C   UNL     1      -2.092   6.699   3.209  1.00  0.00     0.029 A 
ATOM     42  N   UNL     1      -2.851   8.559   2.320  1.00  0.00    -0.354 N 
ATOM     43  C   UNL     1      -3.430   8.463  -2.312  1.00  0.00     0.074 A 
ATOM     44  C   UNL     1      -4.413   7.412  -2.235  1.00  0.00     0.031 C 
ATOM     45  C   UNL     1      -2.466   7.507   4.236  1.00  0.00     0.029 A 
ATOM     46  C   UNL     1      -2.972   8.756   3.691  1.00  0.00     0.049 A 
ATOM     47  H   UNL     1      -3.022   9.278   1.670  1.00  0.00     0.167 HD
ATOM     48  C   UNL     1      -3.494   9.694  -2.881  1.00  0.00     0.031 A 
ATOM     49  C   UNL     1      -3.481   9.873   4.283  1.00  0.00     0.031 A 
ATOM     50  C   UNL     1      -2.319  10.477  -2.584  1.00  0.00     0.049 A 
ATOM     51  C   UNL     1      -3.333  10.966   3.277  1.00  0.00     0.074 A 
ATOM     52  C   UNL     1      -0.972  10.325  -2.846  1.00  0.00     0.029 A 
ATOM     53  N   UNL     1      -2.408  11.340  -1.512  1.00  0.00    -0.354 N 
ATOM     54  N   UNL     1      -2.167  11.403   2.880  1.00  0.00    -0.248 NA
ATOM     55  C   UNL     1      -4.431  11.179   2.344  1.00  0.00     0.031 C 
ATOM     56  C   UNL     1      -0.312  10.733  -1.649  1.00  0.00     0.029 A 
ATOM     57  C   UNL     1      -1.273  11.200  -0.751  1.00  0.00     0.049 A 
ATOM     58  H   UNL     1      -3.157  11.951  -1.325  1.00  0.00     0.167 HD
ATOM     59  C   UNL     1      -2.291  11.553   1.505  1.00  0.00     0.074 A 
ATOM     60  C   UNL     1      -3.728  11.448   1.239  1.00  0.00     0.031 C 
ATOM     61  C   UNL     1      -1.210  11.440   0.677  1.00  0.00     0.031 A 
BRANCH  48  62
ATOM     62  C   UNL     1      -4.801  10.303  -3.291  1.00  0.00    -0.014 A 
ATOM     63  C   UNL     1      -4.794  11.493  -4.034  1.00  0.00     0.010 A 
ATOM     64  C   UNL     1      -6.035   9.880  -2.749  1.00  0.00     0.010 A 
ATOM     65  C   UNL     1      -5.969  12.235  -4.205  1.00  0.00     0.020 A 
ATOM     66  C   UNL     1      -7.216  10.586  -2.950  1.00  0.00     0.020 A 
ATOM     67  C   UNL     1      -7.171  11.774  -3.662  1.00  0.00     0.054 A 
BRANCH  67  68
ATOM     68  S   UNL     1      -8.661  12.782  -3.823  1.00  0.00     0.124 S 
ATOM     69  O   UNL     1      -8.241  14.046  -3.227  1.00  0.00    -0.237 OA
ATOM     70  O   UNL     1      -8.859  12.796  -5.270  1.00  0.00    -0.237 OA
ATOM     71  O   UNL     1      -9.664  12.037  -3.067  1.00  0.00    -0.744 OA
ENDBRANCH  67  68
ENDBRANCH  48  62
BRANCH  49  72
ATOM     72  C   UNL     1      -4.495   9.941   5.379  1.00  0.00    -0.014 A 
ATOM     73  C   UNL     1      -4.953  11.188   5.861  1.00  0.00     0.010 A 
ATOM     74  C   UNL     1      -5.240   8.801   5.741  1.00  0.00     0.010 A 
ATOM     75  C   UNL     1      -6.155  11.298   6.587  1.00  0.00     0.020 A 
ATOM     76  C   UNL     1      -6.437   8.902   6.468  1.00  0.00     0.020 A 
ATOM     77  C   UNL     1      -6.909  10.154   6.856  1.00  0.00     0.054 A 
BRANCH  77  78
ATOM     78  S   UNL     1      -8.554  10.319   7.620  1.00  0.00     0.124 S 
ATOM     79  O   UNL     1      -8.252  10.983   8.885  1.00  0.00    -0.237 OA
ATOM     80  O   UNL     1      -9.273  11.126   6.638  1.00  0.00    -0.237 OA
ATOM     81  O   UNL     1      -9.017   8.938   7.742  1.00  0.00    -0.744 OA
ENDBRANCH  77  78
ENDBRANCH  49  72
BRANCH  61  82
ATOM     82  C   UNL     1       0.172  11.392   1.294  1.00  0.00    -0.014 A 
ATOM     83  C   UNL     1       0.688  10.296   2.018  1.00  0.00     0.010 A 
ATOM     84  C   UNL     1       1.047  12.435   0.948  1.00  0.00     0.010 A 
ATOM     85  C   UNL     1       2.048  10.254   2.382  1.00  0.00     0.020 A 
ATOM     86  C   UNL     1       2.398  12.392   1.292  1.00  0.00     0.020 A 
ATOM     87  C   UNL     1       2.896  11.302   2.007  1.00  0.00     0.054 A 
BRANCH  87  88
ATOM     88  S   UNL     1       4.662  11.239   2.433  1.00  0.00     0.124 S 
ATOM     89  O   UNL     1       4.639  11.115   3.888  1.00  0.00    -0.237 OA
ATOM     90  O   UNL     1       5.124  10.058   1.708  1.00  0.00    -0.237 OA
ATOM     91  O   UNL     1       5.188  12.509   1.933  1.00  0.00    -0.744 OA
ENDBRANCH  87  88
ENDBRANCH  61  82
ENDBRANCH  35  36
ENDBRANCH  28  30
ENDBRANCH  27  28
ENDBRANCH  26  27
ENDBRANCH  25  26
ENDBRANCH   1  25
TORSDOF 20
