REMARK SMILES Cc1cccc(C)c1Nc1ccccc1CC(=O)OCCOCCOC(=O)c1ccc(-c2c3nc(c(-c4ccc(S(=O)(=O)[O-])cc4)c4ccc([nH]4)c(-c4ccc(S(=O)(=O)[O-])cc4)c4nc(c(-c5ccc(S(=O)(=O)[O-])cc5)c5ccc2[nH]5)C=C4)C=C3)cc1
REMARK SMILES IDX 22 1 21 2 20 3 19 4 17 5 18 6 16 7 15 8 10 9 11 10 12 11
REMARK SMILES IDX 14 12 13 13 9 14 8 16 1 17 2 18 3 19 4 20 6 21 5 22 7 23
REMARK SMILES IDX 23 24 24 25 25 26 26 27 27 28 28 29 29 30 87 31 30 32 86 33
REMARK SMILES IDX 31 34 32 35 33 36 80 37 34 38 85 39 79 40 81 41 35 42 84 43
REMARK SMILES IDX 78 44 77 45 36 47 66 48 47 49 65 50 48 51 51 52 64 53 82 54
REMARK SMILES IDX 49 55 50 56 63 58 83 59 52 60 37 61 38 62 46 63 39 64 45 65
REMARK SMILES IDX 40 66 41 67 42 68 43 69 44 70 67 71 68 72 76 73 69 74 75 75
REMARK SMILES IDX 70 76 71 77 72 78 73 79 74 80 53 81 54 82 62 83 55 84 61 85
REMARK SMILES IDX 56 86 57 87 58 88 59 89 60 90
REMARK H PARENT 9 15 81 46 51 57
REMARK Flexibility Score: inf
ROOT
ATOM      1  O   UNL     1      -2.900   4.113   5.772  1.00  0.00    -0.374 OA
ENDROOT
BRANCH   1   2
ATOM      2  C   UNL     1      -1.526   4.495   5.727  1.00  0.00     0.202 C 
BRANCH   2   3
ATOM      3  C   UNL     1      -0.539   3.539   5.044  1.00  0.00     0.261 C 
BRANCH   3   4
ATOM      4  O   UNL     1      -0.877   3.244   3.675  1.00  0.00    -0.463 OA
BRANCH   4   5
ATOM      5  C   UNL     1      -1.330   1.983   3.460  1.00  0.00     0.310 C 
ATOM      6  O   UNL     1      -1.423   1.124   4.335  1.00  0.00    -0.252 OA
BRANCH   5   7
ATOM      7  C   UNL     1      -1.723   1.667   2.040  1.00  0.00     0.160 C 
BRANCH   7   8
ATOM      8  C   UNL     1      -1.930   2.779   1.025  1.00  0.00    -0.013 A 
ATOM      9  C   UNL     1      -1.036   3.032  -0.036  1.00  0.00     0.042 A 
ATOM     10  C   UNL     1      -1.275   4.132  -0.886  1.00  0.00     0.026 A 
ATOM     11  C   UNL     1      -2.419   4.917  -0.759  1.00  0.00     0.002 A 
ATOM     12  C   UNL     1      -3.110   3.546   1.093  1.00  0.00     0.006 A 
ATOM     13  C   UNL     1      -3.353   4.605   0.216  1.00  0.00     0.000 A 
BRANCH   9  14
ATOM     14  N   UNL     1       0.003   2.161  -0.421  1.00  0.00    -0.355 N 
ATOM     15  H   UNL     1       0.831   2.620  -0.689  1.00  0.00     0.167 HD
BRANCH  14  16
ATOM     16  C   UNL     1       0.077   0.749  -0.492  1.00  0.00     0.044 A 
ATOM     17  C   UNL     1       2.576   0.955  -0.004  1.00  0.00     0.046 C 
ATOM     18  C   UNL     1       1.325   0.138  -0.204  1.00  0.00    -0.027 A 
ATOM     19  C   UNL     1       1.407  -1.254  -0.046  1.00  0.00     0.005 A 
ATOM     20  C   UNL     1       0.276  -2.051  -0.175  1.00  0.00     0.001 A 
ATOM     21  C   UNL     1      -1.053  -0.082  -0.708  1.00  0.00    -0.027 A 
ATOM     22  C   UNL     1      -0.941  -1.471  -0.512  1.00  0.00     0.005 A 
ATOM     23  C   UNL     1      -2.408   0.428  -1.126  1.00  0.00     0.046 C 
ENDBRANCH  14  16
ENDBRANCH   9  14
ENDBRANCH   7   8
ENDBRANCH   5   7
ENDBRANCH   4   5
ENDBRANCH   3   4
ENDBRANCH   2   3
ENDBRANCH   1   2
BRANCH   1  24
ATOM     24  C   UNL     1      -3.639   4.209   4.557  1.00  0.00     0.202 C 
BRANCH  24  25
ATOM     25  C   UNL     1      -3.982   5.616   4.051  1.00  0.00     0.261 C 
BRANCH  25  26
ATOM     26  O   UNL     1      -2.811   6.348   3.648  1.00  0.00    -0.460 OA
BRANCH  26  27
ATOM     27  C   UNL     1      -2.601   7.493   4.337  1.00  0.00     0.338 C 
ATOM     28  O   UNL     1      -3.355   8.009   5.153  1.00  0.00    -0.246 OA
BRANCH  27  29
ATOM     29  C   UNL     1      -1.222   7.973   4.137  1.00  0.00     0.060 A 
ATOM     30  C   UNL     1      -0.445   8.168   5.287  1.00  0.00     0.016 A 
ATOM     31  C   UNL     1      -0.729   8.319   2.878  1.00  0.00     0.016 A 
ATOM     32  C   UNL     1       0.802   8.777   5.190  1.00  0.00     0.010 A 
ATOM     33  C   UNL     1       0.523   8.942   2.784  1.00  0.00     0.010 A 
ATOM     34  C   UNL     1       1.271   9.214   3.945  1.00  0.00    -0.014 A 
BRANCH  34  35
ATOM     35  C   UNL     1       2.457  10.103   3.902  1.00  0.00     0.031 A 
ATOM     36  C   UNL     1       2.245  11.592   3.816  1.00  0.00     0.074 A 
ATOM     37  C   UNL     1       3.700   9.601   4.014  1.00  0.00     0.049 A 
ATOM     38  N   UNL     1       3.130  12.555   3.807  1.00  0.00    -0.248 NA
ATOM     39  C   UNL     1       0.850  12.056   3.735  1.00  0.00     0.031 C 
ATOM     40  C   UNL     1       4.028   8.183   4.154  1.00  0.00     0.029 A 
ATOM     41  N   UNL     1       4.917  10.233   4.035  1.00  0.00    -0.354 N 
ATOM     42  C   UNL     1       2.402  13.736   3.715  1.00  0.00     0.074 A 
ATOM     43  C   UNL     1       1.005  13.369   3.641  1.00  0.00     0.031 C 
ATOM     44  C   UNL     1       5.363   8.053   4.247  1.00  0.00     0.029 A 
ATOM     45  C   UNL     1       5.983   9.373   4.146  1.00  0.00     0.049 A 
ATOM     46  H   UNL     1       5.018  11.211   3.977  1.00  0.00     0.167 HD
ATOM     47  C   UNL     1       2.855  15.013   3.700  1.00  0.00     0.031 A 
ATOM     48  C   UNL     1       7.308   9.621   4.151  1.00  0.00     0.031 A 
ATOM     49  C   UNL     1       4.246  15.375   3.761  1.00  0.00     0.049 A 
ATOM     50  C   UNL     1       7.791  11.044   4.063  1.00  0.00     0.074 A 
ATOM     51  C   UNL     1       4.807  16.640   3.763  1.00  0.00     0.029 A 
ATOM     52  N   UNL     1       5.296  14.472   3.824  1.00  0.00    -0.354 N 
ATOM     53  N   UNL     1       7.089  12.151   3.999  1.00  0.00    -0.248 NA
ATOM     54  C   UNL     1       9.246  11.253   4.057  1.00  0.00     0.031 C 
ATOM     55  C   UNL     1       6.199  16.500   3.771  1.00  0.00     0.029 A 
ATOM     56  C   UNL     1       6.503  15.149   3.835  1.00  0.00     0.049 A 
ATOM     57  H   UNL     1       5.198  13.492   3.855  1.00  0.00     0.167 HD
ATOM     58  C   UNL     1       8.016  13.188   3.970  1.00  0.00     0.074 A 
ATOM     59  C   UNL     1       9.328  12.577   4.037  1.00  0.00     0.031 C 
ATOM     60  C   UNL     1       7.801  14.525   3.897  1.00  0.00     0.031 A 
BRANCH  47  61
ATOM     61  C   UNL     1       1.833  16.111   3.575  1.00  0.00    -0.014 A 
ATOM     62  C   UNL     1       0.979  16.440   4.643  1.00  0.00     0.010 A 
ATOM     63  C   UNL     1       1.747  16.847   2.379  1.00  0.00     0.010 A 
ATOM     64  C   UNL     1       0.032  17.459   4.504  1.00  0.00     0.020 A 
ATOM     65  C   UNL     1       0.819  17.884   2.244  1.00  0.00     0.020 A 
ATOM     66  C   UNL     1      -0.045  18.172   3.303  1.00  0.00     0.054 A 
BRANCH  66  67
ATOM     67  S   UNL     1      -1.272  19.500   3.153  1.00  0.00     0.124 S 
ATOM     68  O   UNL     1      -2.518  18.747   3.033  1.00  0.00    -0.237 OA
ATOM     69  O   UNL     1      -1.102  20.237   4.403  1.00  0.00    -0.237 OA
ATOM     70  O   UNL     1      -0.861  20.218   1.950  1.00  0.00    -0.744 OA
ENDBRANCH  66  67
ENDBRANCH  47  61
BRANCH  48  71
ATOM     71  C   UNL     1       8.273   8.489   4.223  1.00  0.00    -0.014 A 
ATOM     72  C   UNL     1       9.050   8.275   5.374  1.00  0.00     0.010 A 
ATOM     73  C   UNL     1       8.411   7.612   3.132  1.00  0.00     0.010 A 
ATOM     74  C   UNL     1       9.956   7.211   5.428  1.00  0.00     0.020 A 
ATOM     75  C   UNL     1       9.296   6.532   3.192  1.00  0.00     0.020 A 
ATOM     76  C   UNL     1      10.071   6.344   4.337  1.00  0.00     0.054 A 
BRANCH  76  77
ATOM     77  S   UNL     1      11.209   4.935   4.450  1.00  0.00     0.124 S 
ATOM     78  O   UNL     1      12.508   5.582   4.301  1.00  0.00    -0.237 OA
ATOM     79  O   UNL     1      10.916   4.398   5.776  1.00  0.00    -0.237 OA
ATOM     80  O   UNL     1      10.803   4.079   3.337  1.00  0.00    -0.744 OA
ENDBRANCH  76  77
ENDBRANCH  48  71
BRANCH  60  81
ATOM     81  C   UNL     1       9.008  15.424   3.912  1.00  0.00    -0.014 A 
ATOM     82  C   UNL     1       9.854  15.527   2.794  1.00  0.00     0.010 A 
ATOM     83  C   UNL     1       9.266  16.221   5.043  1.00  0.00     0.010 A 
ATOM     84  C   UNL     1      10.955  16.389   2.818  1.00  0.00     0.020 A 
ATOM     85  C   UNL     1      10.350  17.103   5.061  1.00  0.00     0.020 A 
ATOM     86  C   UNL     1      11.196  17.171   3.952  1.00  0.00     0.054 A 
BRANCH  86  87
ATOM     87  S   UNL     1      12.606  18.312   3.944  1.00  0.00     0.124 S 
ATOM     88  O   UNL     1      13.735  17.401   4.110  1.00  0.00    -0.237 OA
ATOM     89  O   UNL     1      12.498  18.947   2.632  1.00  0.00    -0.237 OA
ATOM     90  O   UNL     1      12.344  19.195   5.079  1.00  0.00    -0.744 OA
ENDBRANCH  86  87
ENDBRANCH  60  81
ENDBRANCH  34  35
ENDBRANCH  27  29
ENDBRANCH  26  27
ENDBRANCH  25  26
ENDBRANCH  24  25
ENDBRANCH   1  24
TORSDOF 20
