REMARK SMILES COC(=O)c1c(NC(=O)[C@@H]2[C@H]3CC[C@H](CC3)[C@H]2C(=O)OCCOCCOC(=O)c2ccc(-c3c4nc(c(-c5ccc(S(=O)(=O)[O-])cc5)c5ccc([nH]5)c(-c5ccc(S(=O)(=O)[O-])cc5)c5nc(c(-c6ccc(S(=O)(=O)[O-])cc6)c6ccc3[nH]6)C=C5)C=C4)cc2)sc(C)c1-c1ccc(C)cc1
REMARK SMILES IDX 22 1 21 2 20 3 18 4 19 5 17 6 10 7 11 8 12 9 16 10 14 11
REMARK SMILES IDX 13 12 15 13 8 14 7 15 9 17 6 18 5 19 92 20 89 21 90 22 91 23
REMARK SMILES IDX 3 24 4 25 2 26 1 27 93 28 94 29 99 30 95 31 98 32 96 33
REMARK SMILES IDX 97 34 23 35 24 36 25 37 26 38 27 39 28 40 29 41 30 42 88 43
REMARK SMILES IDX 31 44 87 45 32 46 33 47 34 48 81 49 35 50 86 51 80 52 82 53
REMARK SMILES IDX 36 54 85 55 79 56 78 57 37 59 67 60 48 61 66 62 49 63 52 64
REMARK SMILES IDX 65 65 83 66 50 67 51 68 64 70 84 71 53 72 38 73 39 74 47 75
REMARK SMILES IDX 40 76 46 77 41 78 42 79 43 80 44 81 45 82 68 83 69 84 77 85
REMARK SMILES IDX 70 86 76 87 71 88 72 89 73 90 74 91 75 92 54 93 55 94 63 95
REMARK SMILES IDX 56 96 62 97 57 98 58 99 59 100 60 101 61 102
REMARK H PARENT 7 16 82 58 52 69
REMARK Flexibility Score: inf
ROOT
ATOM      1  C   UNL     1       4.883   2.198   4.801  1.00  0.00     0.202 C 
ENDROOT
BRANCH   1   2
ATOM      2  C   UNL     1       5.259   1.700   6.204  1.00  0.00     0.261 C 
BRANCH   2   3
ATOM      3  O   UNL     1       4.489   0.583   6.682  1.00  0.00    -0.463 OA
BRANCH   3   4
ATOM      4  C   UNL     1       3.551   0.897   7.613  1.00  0.00     0.310 C 
ATOM      5  O   UNL     1       3.312   2.037   8.000  1.00  0.00    -0.252 OA
BRANCH   4   6
ATOM      6  C   UNL     1       2.839  -0.306   8.211  1.00  0.00     0.115 C 
ATOM      7  C   UNL     1       2.718  -1.616   7.353  1.00  0.00     0.096 C 
ATOM      8  C   UNL     1       3.253  -2.800   8.214  1.00  0.00     0.002 C 
ATOM      9  C   UNL     1       4.739  -2.535   8.522  1.00  0.00     0.005 C 
ATOM     10  C   UNL     1       2.509  -2.891   9.570  1.00  0.00     0.005 C 
ATOM     11  C   UNL     1       3.514  -0.597   9.575  1.00  0.00     0.004 C 
ATOM     12  C   UNL     1       4.888  -1.260   9.361  1.00  0.00     0.005 C 
ATOM     13  C   UNL     1       2.615  -1.572  10.342  1.00  0.00     0.005 C 
BRANCH   7  14
ATOM     14  C   UNL     1       1.258  -1.899   6.945  1.00  0.00     0.229 C 
ATOM     15  N   UNL     1       0.836  -2.570   5.835  1.00  0.00    -0.317 N 
ATOM     16  H   UNL     1      -0.145  -2.645   5.808  1.00  0.00     0.170 HD
ATOM     17  O   UNL     1       0.339  -1.498   7.676  1.00  0.00    -0.274 OA
BRANCH  15  18
ATOM     18  C   UNL     1       1.424  -3.175   4.734  1.00  0.00     0.111 A 
ATOM     19  C   UNL     1       0.763  -3.637   3.595  1.00  0.00     0.102 A 
ATOM     20  C   UNL     1       1.706  -4.003   2.551  1.00  0.00     0.012 A 
ATOM     21  S   UNL     1       3.074  -3.507   4.658  1.00  0.00    -0.122 S 
ATOM     22  C   UNL     1       3.014  -3.929   3.000  1.00  0.00     0.012 A 
ATOM     23  C   UNL     1       4.290  -4.136   2.242  1.00  0.00     0.057 C 
BRANCH  19  24
ATOM     24  C   UNL     1      -0.694  -3.674   3.474  1.00  0.00     0.341 C 
ATOM     25  O   UNL     1      -1.442  -3.008   4.190  1.00  0.00    -0.246 OA
BRANCH  24  26
ATOM     26  O   UNL     1      -1.119  -4.551   2.528  1.00  0.00    -0.465 OA
ATOM     27  C   UNL     1      -2.529  -4.630   2.325  1.00  0.00     0.282 C 
ENDBRANCH  24  26
ENDBRANCH  19  24
BRANCH  20  28
ATOM     28  C   UNL     1       1.422  -4.334   1.152  1.00  0.00    -0.016 A 
ATOM     29  C   UNL     1       0.820  -3.395   0.305  1.00  0.00     0.009 A 
ATOM     30  C   UNL     1       1.799  -5.577   0.628  1.00  0.00     0.009 A 
ATOM     31  C   UNL     1       0.624  -3.689  -1.049  1.00  0.00     0.004 A 
ATOM     32  C   UNL     1       1.629  -5.858  -0.729  1.00  0.00     0.004 A 
ATOM     33  C   UNL     1       1.050  -4.912  -1.581  1.00  0.00    -0.051 A 
ATOM     34  C   UNL     1       0.870  -5.211  -3.041  1.00  0.00     0.044 C 
ENDBRANCH  20  28
ENDBRANCH  15  18
ENDBRANCH   7  14
ENDBRANCH   4   6
ENDBRANCH   3   4
ENDBRANCH   2   3
ENDBRANCH   1   2
BRANCH   1  35
ATOM     35  O   UNL     1       3.512   2.435   4.509  1.00  0.00    -0.374 OA
BRANCH  35  36
ATOM     36  C   UNL     1       2.613   1.331   4.506  1.00  0.00     0.202 C 
BRANCH  36  37
ATOM     37  C   UNL     1       2.932   0.136   3.603  1.00  0.00     0.261 C 
BRANCH  37  38
ATOM     38  O   UNL     1       4.199  -0.491   3.892  1.00  0.00    -0.460 OA
BRANCH  38  39
ATOM     39  C   UNL     1       5.034  -0.550   2.825  1.00  0.00     0.338 C 
ATOM     40  O   UNL     1       4.782  -0.166   1.692  1.00  0.00    -0.246 OA
BRANCH  39  41
ATOM     41  C   UNL     1       6.385  -1.050   3.160  1.00  0.00     0.060 A 
ATOM     42  C   UNL     1       7.462  -0.352   2.603  1.00  0.00     0.016 A 
ATOM     43  C   UNL     1       6.602  -2.275   3.794  1.00  0.00     0.016 A 
ATOM     44  C   UNL     1       8.729  -0.928   2.576  1.00  0.00     0.010 A 
ATOM     45  C   UNL     1       7.864  -2.875   3.727  1.00  0.00     0.010 A 
ATOM     46  C   UNL     1       8.920  -2.220   3.079  1.00  0.00    -0.014 A 
BRANCH  46  47
ATOM     47  C   UNL     1      10.237  -2.872   2.922  1.00  0.00     0.031 A 
ATOM     48  C   UNL     1      10.539  -3.708   1.709  1.00  0.00     0.074 A 
ATOM     49  C   UNL     1      11.165  -2.682   3.876  1.00  0.00     0.049 A 
ATOM     50  N   UNL     1      11.661  -4.292   1.373  1.00  0.00    -0.248 NA
ATOM     51  C   UNL     1       9.443  -3.916   0.748  1.00  0.00     0.031 C 
ATOM     52  C   UNL     1      10.969  -1.885   5.088  1.00  0.00     0.029 A 
ATOM     53  N   UNL     1      12.448  -3.145   3.978  1.00  0.00    -0.354 N 
ATOM     54  C   UNL     1      11.415  -4.927   0.161  1.00  0.00     0.074 A 
ATOM     55  C   UNL     1      10.027  -4.678  -0.170  1.00  0.00     0.031 C 
ATOM     56  C   UNL     1      12.092  -1.928   5.822  1.00  0.00     0.029 A 
ATOM     57  C   UNL     1      13.075  -2.763   5.138  1.00  0.00     0.049 A 
ATOM     58  H   UNL     1      12.880  -3.698   3.287  1.00  0.00     0.167 HD
ATOM     59  C   UNL     1      12.274  -5.646  -0.603  1.00  0.00     0.031 A 
ATOM     60  C   UNL     1      14.302  -3.064   5.602  1.00  0.00     0.031 A 
ATOM     61  C   UNL     1      13.647  -5.902  -0.245  1.00  0.00     0.049 A 
ATOM     62  C   UNL     1      15.218  -3.901   4.753  1.00  0.00     0.074 A 
ATOM     63  C   UNL     1      14.614  -6.575  -0.973  1.00  0.00     0.029 A 
ATOM     64  N   UNL     1      14.244  -5.513   0.945  1.00  0.00    -0.354 N 
ATOM     65  N   UNL     1      14.998  -4.417   3.567  1.00  0.00    -0.248 NA
ATOM     66  C   UNL     1      16.554  -4.177   5.295  1.00  0.00     0.031 C 
ATOM     67  C   UNL     1      15.774  -6.650  -0.196  1.00  0.00     0.029 A 
ATOM     68  C   UNL     1      15.553  -5.965   0.988  1.00  0.00     0.049 A 
ATOM     69  H   UNL     1      13.803  -4.993   1.655  1.00  0.00     0.167 HD
ATOM     70  C   UNL     1      16.180  -5.053   3.208  1.00  0.00     0.074 A 
ATOM     71  C   UNL     1      17.115  -4.842   4.294  1.00  0.00     0.031 C 
ATOM     72  C   UNL     1      16.469  -5.747   2.079  1.00  0.00     0.031 A 
BRANCH  59  73
ATOM     73  C   UNL     1      11.769  -6.230  -1.898  1.00  0.00    -0.014 A 
ATOM     74  C   UNL     1      11.534  -5.416  -3.020  1.00  0.00     0.010 A 
ATOM     75  C   UNL     1      11.643  -7.626  -2.030  1.00  0.00     0.010 A 
ATOM     76  C   UNL     1      11.172  -5.985  -4.246  1.00  0.00     0.020 A 
ATOM     77  C   UNL     1      11.302  -8.201  -3.259  1.00  0.00     0.020 A 
ATOM     78  C   UNL     1      11.062  -7.375  -4.358  1.00  0.00     0.054 A 
BRANCH  78  79
ATOM     79  S   UNL     1      10.653  -8.089  -5.977  1.00  0.00     0.124 S 
ATOM     80  O   UNL     1       9.249  -7.712  -6.126  1.00  0.00    -0.237 OA
ATOM     81  O   UNL     1      11.585  -7.407  -6.872  1.00  0.00    -0.237 OA
ATOM     82  O   UNL     1      10.897  -9.518  -5.798  1.00  0.00    -0.744 OA
ENDBRANCH  78  79
ENDBRANCH  59  73
BRANCH  60  83
ATOM     83  C   UNL     1      14.724  -2.579   6.942  1.00  0.00    -0.014 A 
ATOM     84  C   UNL     1      15.732  -1.609   7.073  1.00  0.00     0.010 A 
ATOM     85  C   UNL     1      14.115  -3.098   8.099  1.00  0.00     0.010 A 
ATOM     86  C   UNL     1      16.149  -1.193   8.341  1.00  0.00     0.020 A 
ATOM     87  C   UNL     1      14.508  -2.663   9.366  1.00  0.00     0.020 A 
ATOM     88  C   UNL     1      15.537  -1.727   9.479  1.00  0.00     0.054 A 
BRANCH  88  89
ATOM     89  S   UNL     1      16.083  -1.163  11.114  1.00  0.00     0.124 S 
ATOM     90  O   UNL     1      17.365  -1.846  11.255  1.00  0.00    -0.237 OA
ATOM     91  O   UNL     1      16.151   0.286  10.942  1.00  0.00    -0.237 OA
ATOM     92  O   UNL     1      15.023  -1.628  12.006  1.00  0.00    -0.744 OA
ENDBRANCH  88  89
ENDBRANCH  60  83
BRANCH  72  93
ATOM     93  C   UNL     1      17.863  -6.300   1.948  1.00  0.00    -0.014 A 
ATOM     94  C   UNL     1      18.294  -7.387   2.728  1.00  0.00     0.010 A 
ATOM     95  C   UNL     1      18.742  -5.745   0.999  1.00  0.00     0.010 A 
ATOM     96  C   UNL     1      19.592  -7.886   2.587  1.00  0.00     0.020 A 
ATOM     97  C   UNL     1      20.030  -6.261   0.834  1.00  0.00     0.020 A 
ATOM     98  C   UNL     1      20.452  -7.318   1.642  1.00  0.00     0.054 A 
BRANCH  98  99
ATOM     99  S   UNL     1      22.119  -8.007   1.454  1.00  0.00     0.124 S 
ATOM    100  O   UNL     1      22.789  -7.512   2.653  1.00  0.00    -0.237 OA
ATOM    101  O   UNL     1      21.870  -9.446   1.422  1.00  0.00    -0.237 OA
ATOM    102  O   UNL     1      22.590  -7.435   0.195  1.00  0.00    -0.744 OA
ENDBRANCH  98  99
ENDBRANCH  72  93
ENDBRANCH  46  47
ENDBRANCH  39  41
ENDBRANCH  38  39
ENDBRANCH  37  38
ENDBRANCH  36  37
ENDBRANCH  35  36
ENDBRANCH   1  35
TORSDOF 22
