REMARK SMILES N#C[C@H]1CN(C(=O)[C@H]([NH3+])CC(=O)OCCOCCOC(=O)c2ccc(-c3c4nc(c(-c5ccc(S(=O)(=O)[O-])cc5)c5ccc([nH]5)c(-c5ccc(S(=O)(=O)[O-])cc5)c5nc(c(-c6ccc(S(=O)(=O)[O-])cc6)c6ccc3[nH]6)C=C5)C=C4)cc2)CCO1
REMARK SMILES IDX 15 1 14 2 13 3 11 4 12 5 10 6 8 7 6 8 7 9 5 10 3 11 4 12
REMARK SMILES IDX 84 13 83 14 82 15 2 16 1 17 9 18 16 22 17 23 18 24 19 25
REMARK SMILES IDX 20 26 21 27 22 28 23 29 81 30 24 31 80 32 25 33 26 34 27 35
REMARK SMILES IDX 74 36 28 37 79 38 73 39 75 40 29 41 78 42 72 43 71 44 30 46
REMARK SMILES IDX 60 47 41 48 59 49 42 50 45 51 58 52 76 53 43 54 44 55 57 57
REMARK SMILES IDX 77 58 46 59 31 60 32 61 40 62 33 63 39 64 34 65 35 66 36 67
REMARK SMILES IDX 37 68 38 69 61 70 62 71 70 72 63 73 69 74 64 75 65 76 66 77
REMARK SMILES IDX 67 78 68 79 47 80 48 81 56 82 49 83 55 84 50 85 51 86 52 87
REMARK SMILES IDX 53 88 54 89
REMARK H PARENT 9 19 9 20 9 21 75 45 45 56
REMARK Flexibility Score: inf
ROOT
ATOM      1  C   UNL     1       5.678   3.813  -6.251  1.00  0.00     0.202 C 
ENDROOT
BRANCH   1   2
ATOM      2  C   UNL     1       6.360   3.418  -4.938  1.00  0.00     0.261 C 
BRANCH   2   3
ATOM      3  O   UNL     1       5.400   3.113  -3.918  1.00  0.00    -0.463 OA
BRANCH   3   4
ATOM      4  C   UNL     1       5.200   4.092  -3.008  1.00  0.00     0.312 C 
ATOM      5  O   UNL     1       5.897   5.091  -2.878  1.00  0.00    -0.252 OA
BRANCH   4   6
ATOM      6  C   UNL     1       4.025   3.840  -2.103  1.00  0.00     0.198 C 
BRANCH   6   7
ATOM      7  C   UNL     1       2.899   2.873  -2.507  1.00  0.00     0.282 C 
BRANCH   7   8
ATOM      8  C   UNL     1       1.942   2.715  -1.300  1.00  0.00     0.281 C 
ATOM      9  O   UNL     1       0.832   3.255  -1.338  1.00  0.00    -0.268 OA
BRANCH   8  10
ATOM     10  N   UNL     1       2.361   2.017  -0.176  1.00  0.00    -0.332 N 
ATOM     11  C   UNL     1       4.343   2.290   1.250  1.00  0.00     0.240 C 
ATOM     12  C   UNL     1       3.706   1.479   0.100  1.00  0.00     0.167 C 
ATOM     13  O   UNL     1       3.500   2.213   2.424  1.00  0.00    -0.360 OA
ATOM     14  C   UNL     1       2.190   2.749   2.153  1.00  0.00     0.183 C 
ATOM     15  C   UNL     1       1.500   1.990   1.010  1.00  0.00     0.148 C 
BRANCH  11  16
ATOM     16  C   UNL     1       5.702   1.802   1.525  1.00  0.00     0.096 C 
ATOM     17  N   UNL     1       6.796   1.446   1.690  1.00  0.00    -0.195 NA
ENDBRANCH  11  16
ENDBRANCH   8  10
ENDBRANCH   7   8
BRANCH   7  18
ATOM     18  N   UNL     1       3.225   1.560  -3.072  1.00  0.00    -0.347 N 
ATOM     19  H   UNL     1       3.659   0.980  -2.354  1.00  0.00     0.345 HD
ATOM     20  H   UNL     1       3.871   1.676  -3.852  1.00  0.00     0.345 HD
ATOM     21  H   UNL     1       2.371   1.111  -3.402  1.00  0.00     0.345 HD
ENDBRANCH   7  18
ENDBRANCH   6   7
ENDBRANCH   4   6
ENDBRANCH   3   4
ENDBRANCH   2   3
ENDBRANCH   1   2
BRANCH   1  22
ATOM     22  O   UNL     1       4.802   4.938  -6.245  1.00  0.00    -0.374 OA
BRANCH  22  23
ATOM     23  C   UNL     1       3.492   4.770  -5.707  1.00  0.00     0.202 C 
BRANCH  23  24
ATOM     24  C   UNL     1       2.463   3.932  -6.479  1.00  0.00     0.261 C 
BRANCH  24  25
ATOM     25  O   UNL     1       2.857   2.562  -6.658  1.00  0.00    -0.460 OA
BRANCH  25  26
ATOM     26  C   UNL     1       3.234   2.249  -7.923  1.00  0.00     0.338 C 
ATOM     27  O   UNL     1       3.220   2.985  -8.896  1.00  0.00    -0.246 OA
BRANCH  26  28
ATOM     28  C   UNL     1       3.886   0.926  -7.945  1.00  0.00     0.060 A 
ATOM     29  C   UNL     1       5.196   0.864  -8.439  1.00  0.00     0.016 A 
ATOM     30  C   UNL     1       3.215  -0.236  -7.567  1.00  0.00     0.016 A 
ATOM     31  C   UNL     1       5.827  -0.367  -8.596  1.00  0.00     0.010 A 
ATOM     32  C   UNL     1       3.847  -1.474  -7.736  1.00  0.00     0.010 A 
ATOM     33  C   UNL     1       5.144  -1.548  -8.277  1.00  0.00    -0.014 A 
BRANCH  33  34
ATOM     34  C   UNL     1       5.762  -2.860  -8.592  1.00  0.00     0.031 A 
ATOM     35  C   UNL     1       5.263  -3.656  -9.768  1.00  0.00     0.074 A 
ATOM     36  C   UNL     1       6.780  -3.325  -7.844  1.00  0.00     0.049 A 
ATOM     37  N   UNL     1       5.641  -4.837 -10.186  1.00  0.00    -0.248 NA
ATOM     38  C   UNL     1       4.200  -3.042 -10.579  1.00  0.00     0.031 C 
ATOM     39  C   UNL     1       7.384  -2.624  -6.711  1.00  0.00     0.029 A 
ATOM     40  N   UNL     1       7.484  -4.500  -7.926  1.00  0.00    -0.354 N 
ATOM     41  C   UNL     1       4.855  -5.115 -11.299  1.00  0.00     0.074 A 
ATOM     42  C   UNL     1       3.960  -3.991 -11.473  1.00  0.00     0.031 C 
ATOM     43  C   UNL     1       8.366  -3.385  -6.201  1.00  0.00     0.029 A 
ATOM     44  C   UNL     1       8.430  -4.644  -6.939  1.00  0.00     0.049 A 
ATOM     45  H   UNL     1       7.328  -5.175  -8.625  1.00  0.00     0.167 HD
ATOM     46  C   UNL     1       4.879  -6.206 -12.102  1.00  0.00     0.031 A 
ATOM     47  C   UNL     1       9.235  -5.684  -6.642  1.00  0.00     0.031 A 
ATOM     48  C   UNL     1       5.763  -7.328 -11.911  1.00  0.00     0.049 A 
ATOM     49  C   UNL     1       9.180  -6.923  -7.496  1.00  0.00     0.074 A 
ATOM     50  C   UNL     1       5.877  -8.473 -12.682  1.00  0.00     0.029 A 
ATOM     51  N   UNL     1       6.673  -7.457 -10.872  1.00  0.00    -0.354 N 
ATOM     52  N   UNL     1       8.453  -7.158  -8.563  1.00  0.00    -0.248 NA
ATOM     53  C   UNL     1      10.061  -8.034  -7.111  1.00  0.00     0.031 C 
ATOM     54  C   UNL     1       6.798  -9.326 -12.066  1.00  0.00     0.029 A 
ATOM     55  C   UNL     1       7.321  -8.679 -10.958  1.00  0.00     0.049 A 
ATOM     56  H   UNL     1       6.834  -6.780 -10.175  1.00  0.00     0.167 HD
ATOM     57  C   UNL     1       8.810  -8.433  -8.991  1.00  0.00     0.074 A 
ATOM     58  C   UNL     1       9.832  -8.907  -8.081  1.00  0.00     0.031 C 
ATOM     59  C   UNL     1       8.334  -9.146 -10.042  1.00  0.00     0.031 A 
BRANCH  46  60
ATOM     60  C   UNL     1       3.890  -6.265 -13.240  1.00  0.00    -0.014 A 
ATOM     61  C   UNL     1       3.995  -5.409 -14.351  1.00  0.00     0.010 A 
ATOM     62  C   UNL     1       2.871  -7.236 -13.223  1.00  0.00     0.010 A 
ATOM     63  C   UNL     1       3.079  -5.499 -15.404  1.00  0.00     0.020 A 
ATOM     64  C   UNL     1       1.974  -7.352 -14.288  1.00  0.00     0.020 A 
ATOM     65  C   UNL     1       2.075  -6.472 -15.366  1.00  0.00     0.054 A 
BRANCH  65  66
ATOM     66  S   UNL     1       0.921  -6.585 -16.761  1.00  0.00     0.124 S 
ATOM     67  O   UNL     1       0.152  -5.350 -16.617  1.00  0.00    -0.237 OA
ATOM     68  O   UNL     1       1.818  -6.635 -17.913  1.00  0.00    -0.237 OA
ATOM     69  O   UNL     1       0.176  -7.814 -16.499  1.00  0.00    -0.744 OA
ENDBRANCH  65  66
ENDBRANCH  46  60
BRANCH  47  70
ATOM     70  C   UNL     1      10.141  -5.609  -5.463  1.00  0.00    -0.014 A 
ATOM     71  C   UNL     1      11.537  -5.597  -5.626  1.00  0.00     0.010 A 
ATOM     72  C   UNL     1       9.606  -5.551  -4.162  1.00  0.00     0.010 A 
ATOM     73  C   UNL     1      12.380  -5.547  -4.511  1.00  0.00     0.020 A 
ATOM     74  C   UNL     1      10.443  -5.464  -3.047  1.00  0.00     0.020 A 
ATOM     75  C   UNL     1      11.827  -5.474  -3.229  1.00  0.00     0.054 A 
BRANCH  75  76
ATOM     76  S   UNL     1      12.941  -5.359  -1.803  1.00  0.00     0.124 S 
ATOM     77  O   UNL     1      13.543  -6.689  -1.779  1.00  0.00    -0.237 OA
ATOM     78  O   UNL     1      13.831  -4.267  -2.191  1.00  0.00    -0.237 OA
ATOM     79  O   UNL     1      12.043  -5.058  -0.691  1.00  0.00    -0.744 OA
ENDBRANCH  75  76
ENDBRANCH  47  70
BRANCH  59  80
ATOM     80  C   UNL     1       8.935 -10.507 -10.290  1.00  0.00    -0.014 A 
ATOM     81  C   UNL     1       8.708 -11.582  -9.412  1.00  0.00     0.010 A 
ATOM     82  C   UNL     1       9.701 -10.726 -11.451  1.00  0.00     0.010 A 
ATOM     83  C   UNL     1       9.266 -12.838  -9.669  1.00  0.00     0.020 A 
ATOM     84  C   UNL     1      10.230 -11.989 -11.731  1.00  0.00     0.020 A 
ATOM     85  C   UNL     1      10.020 -13.034 -10.830  1.00  0.00     0.054 A 
BRANCH  85  86
ATOM     86  S   UNL     1      10.695 -14.685 -11.161  1.00  0.00     0.124 S 
ATOM     87  O   UNL     1      11.724 -14.806 -10.132  1.00  0.00    -0.237 OA
ATOM     88  O   UNL     1       9.528 -15.546 -10.986  1.00  0.00    -0.237 OA
ATOM     89  O   UNL     1      11.193 -14.589 -12.531  1.00  0.00    -0.744 OA
ENDBRANCH  85  86
ENDBRANCH  59  80
ENDBRANCH  33  34
ENDBRANCH  26  28
ENDBRANCH  25  26
ENDBRANCH  24  25
ENDBRANCH  23  24
ENDBRANCH  22  23
ENDBRANCH   1  22
TORSDOF 22
