REMARK SMILES COc1ncccc1C(=O)N[C@@](C)(C(=O)OCCOCCOC(=O)c1ccc(-c2c3nc(c(-c4ccc(S(=O)(=O)[O-])cc4)c4ccc([nH]4)c(-c4ccc(S(=O)(=O)[O-])cc4)c4nc(c(-c5ccc(S(=O)(=O)[O-])cc5)c5ccc2[nH]5)C=C4)C=C3)cc1)C(F)(F)F
REMARK SMILES IDX 19 1 18 2 17 3 16 4 14 5 15 6 12 7 13 8 11 9 9 10 10 11 8 13
REMARK SMILES IDX 3 14 4 15 5 16 7 17 6 18 2 19 1 20 85 21 86 22 87 23 88 24
REMARK SMILES IDX 20 25 21 26 22 27 23 28 24 29 25 30 26 31 84 32 27 33 83 34
REMARK SMILES IDX 28 35 29 36 30 37 77 38 31 39 82 40 76 41 78 42 32 43 81 44
REMARK SMILES IDX 75 45 74 46 33 48 63 49 44 50 62 51 45 52 48 53 61 54 79 55
REMARK SMILES IDX 46 56 47 57 60 59 80 60 49 61 34 62 35 63 43 64 36 65 42 66
REMARK SMILES IDX 37 67 38 68 39 69 40 70 41 71 64 72 65 73 73 74 66 75 72 76
REMARK SMILES IDX 67 77 68 78 69 79 70 80 71 81 50 82 51 83 59 84 52 85 58 86
REMARK SMILES IDX 53 87 54 88 55 89 56 90 57 91
REMARK H PARENT 11 12 78 47 48 58
REMARK Flexibility Score: inf
ROOT
ATOM      1  O   UNL     1       6.462   4.678  -3.448  1.00  0.00    -0.374 OA
ENDROOT
BRANCH   1   2
ATOM      2  C   UNL     1       7.757   4.269  -3.021  1.00  0.00     0.202 C 
BRANCH   2   3
ATOM      3  C   UNL     1       8.037   4.225  -1.511  1.00  0.00     0.261 C 
BRANCH   3   4
ATOM      4  O   UNL     1       6.949   3.678  -0.750  1.00  0.00    -0.461 OA
BRANCH   4   5
ATOM      5  C   UNL     1       6.523   4.425   0.316  1.00  0.00     0.341 C 
ATOM      6  O   UNL     1       7.137   5.388   0.756  1.00  0.00    -0.249 OA
BRANCH   5   7
ATOM      7  C   UNL     1       5.226   3.865   0.937  1.00  0.00     0.231 C 
ATOM      8  C   UNL     1       5.629   3.150   2.235  1.00  0.00     0.058 C 
BRANCH   7   9
ATOM      9  N   UNL     1       4.655   2.804   0.014  1.00  0.00    -0.329 N 
ATOM     10  C   UNL     1       3.511   2.269  -0.508  1.00  0.00     0.257 C 
ATOM     11  O   UNL     1       3.705   1.208  -1.107  1.00  0.00    -0.269 OA
ATOM     12  H   UNL     1       5.413   2.299  -0.359  1.00  0.00     0.165 HD
BRANCH  10  13
ATOM     13  C   UNL     1       2.139   2.834  -0.498  1.00  0.00     0.101 A 
ATOM     14  C   UNL     1       1.019   1.996  -0.591  1.00  0.00     0.226 A 
ATOM     15  N   UNL     1      -0.271   2.429  -0.643  1.00  0.00    -0.221 NA
ATOM     16  C   UNL     1      -0.472   3.759  -0.632  1.00  0.00     0.115 A 
ATOM     17  C   UNL     1       1.874   4.198  -0.578  1.00  0.00     0.021 A 
ATOM     18  C   UNL     1       0.560   4.675  -0.611  1.00  0.00     0.021 A 
BRANCH  14  19
ATOM     19  O   UNL     1       1.167   0.659  -0.857  1.00  0.00    -0.480 OA
ATOM     20  C   UNL     1       0.697  -0.141   0.216  1.00  0.00     0.280 C 
ENDBRANCH  14  19
ENDBRANCH  10  13
ENDBRANCH   7   9
BRANCH   7  21
ATOM     21  C   UNL     1       4.418   5.115   1.282  1.00  0.00     0.422 C 
ATOM     22  F   UNL     1       4.224   5.916   0.209  1.00  0.00    -0.168 F 
ATOM     23  F   UNL     1       3.197   4.782   1.769  1.00  0.00    -0.168 F 
ATOM     24  F   UNL     1       4.996   5.874   2.241  1.00  0.00    -0.168 F 
ENDBRANCH   7  21
ENDBRANCH   5   7
ENDBRANCH   4   5
ENDBRANCH   3   4
ENDBRANCH   2   3
ENDBRANCH   1   2
BRANCH   1  25
ATOM     25  C   UNL     1       5.372   3.782  -3.226  1.00  0.00     0.202 C 
BRANCH  25  26
ATOM     26  C   UNL     1       5.399   2.401  -3.897  1.00  0.00     0.261 C 
BRANCH  26  27
ATOM     27  O   UNL     1       6.501   1.580  -3.468  1.00  0.00    -0.460 OA
BRANCH  27  28
ATOM     28  C   UNL     1       7.314   1.166  -4.474  1.00  0.00     0.338 C 
ATOM     29  O   UNL     1       7.189   1.393  -5.665  1.00  0.00    -0.246 OA
BRANCH  28  30
ATOM     30  C   UNL     1       8.533   0.546  -3.925  1.00  0.00     0.060 A 
ATOM     31  C   UNL     1       9.759   1.160  -4.216  1.00  0.00     0.016 A 
ATOM     32  C   UNL     1       8.492  -0.673  -3.247  1.00  0.00     0.016 A 
ATOM     33  C   UNL     1      10.953   0.535  -3.866  1.00  0.00     0.010 A 
ATOM     34  C   UNL     1       9.694  -1.305  -2.908  1.00  0.00     0.010 A 
ATOM     35  C   UNL     1      10.930  -0.721  -3.246  1.00  0.00    -0.014 A 
BRANCH  35  36
ATOM     36  C   UNL     1      12.196  -1.478  -3.088  1.00  0.00     0.031 A 
ATOM     37  C   UNL     1      12.539  -2.547  -4.092  1.00  0.00     0.074 A 
ATOM     38  C   UNL     1      13.046  -1.194  -2.083  1.00  0.00     0.049 A 
ATOM     39  N   UNL     1      13.579  -3.338  -4.133  1.00  0.00    -0.248 NA
ATOM     40  C   UNL     1      11.585  -2.750  -5.197  1.00  0.00     0.031 C 
ATOM     41  C   UNL     1      12.847  -0.154  -1.074  1.00  0.00     0.029 A 
ATOM     42  N   UNL     1      14.249  -1.763  -1.746  1.00  0.00    -0.354 N 
ATOM     43  C   UNL     1      13.400  -4.141  -5.254  1.00  0.00     0.074 A 
ATOM     44  C   UNL     1      12.145  -3.753  -5.859  1.00  0.00     0.031 C 
ATOM     45  C   UNL     1      13.887  -0.167  -0.222  1.00  0.00     0.029 A 
ATOM     46  C   UNL     1      14.808  -1.235  -0.606  1.00  0.00     0.049 A 
ATOM     47  H   UNL     1      14.672  -2.481  -2.270  1.00  0.00     0.167 HD
ATOM     48  C   UNL     1      14.210  -5.114  -5.736  1.00  0.00     0.031 A 
ATOM     49  C   UNL     1      15.923  -1.589   0.065  1.00  0.00     0.031 A 
ATOM     50  C   UNL     1      15.461  -5.495  -5.137  1.00  0.00     0.049 A 
ATOM     51  C   UNL     1      16.775  -2.715  -0.463  1.00  0.00     0.074 A 
ATOM     52  C   UNL     1      16.367  -6.446  -5.574  1.00  0.00     0.029 A 
ATOM     53  N   UNL     1      15.979  -4.953  -3.972  1.00  0.00    -0.354 N 
ATOM     54  N   UNL     1      16.611  -3.435  -1.548  1.00  0.00    -0.248 NA
ATOM     55  C   UNL     1      17.967  -3.072   0.320  1.00  0.00     0.031 C 
ATOM     56  C   UNL     1      17.406  -6.519  -4.641  1.00  0.00     0.029 A 
ATOM     57  C   UNL     1      17.177  -5.571  -3.658  1.00  0.00     0.049 A 
ATOM     58  H   UNL     1      15.559  -4.235  -3.446  1.00  0.00     0.167 HD
ATOM     59  C   UNL     1      17.696  -4.306  -1.592  1.00  0.00     0.074 A 
ATOM     60  C   UNL     1      18.515  -4.014  -0.435  1.00  0.00     0.031 C 
ATOM     61  C   UNL     1      17.988  -5.261  -2.509  1.00  0.00     0.031 A 
BRANCH  48  62
ATOM     62  C   UNL     1      13.763  -5.865  -6.961  1.00  0.00    -0.014 A 
ATOM     63  C   UNL     1      13.822  -5.280  -8.238  1.00  0.00     0.010 A 
ATOM     64  C   UNL     1      13.366  -7.209  -6.840  1.00  0.00     0.010 A 
ATOM     65  C   UNL     1      13.481  -6.025  -9.371  1.00  0.00     0.020 A 
ATOM     66  C   UNL     1      13.046  -7.963  -7.972  1.00  0.00     0.020 A 
ATOM     67  C   UNL     1      13.100  -7.363  -9.231  1.00  0.00     0.054 A 
BRANCH  67  68
ATOM     68  S   UNL     1      12.731  -8.325 -10.724  1.00  0.00     0.124 S 
ATOM     69  O   UNL     1      11.446  -7.765 -11.135  1.00  0.00    -0.237 OA
ATOM     70  O   UNL     1      13.861  -8.010 -11.595  1.00  0.00    -0.237 OA
ATOM     71  O   UNL     1      12.684  -9.705 -10.246  1.00  0.00    -0.744 OA
ENDBRANCH  67  68
ENDBRANCH  48  62
BRANCH  49  72
ATOM     72  C   UNL     1      16.287  -0.904   1.336  1.00  0.00    -0.014 A 
ATOM     73  C   UNL     1      17.442  -0.107   1.424  1.00  0.00     0.010 A 
ATOM     74  C   UNL     1      15.497  -1.088   2.486  1.00  0.00     0.010 A 
ATOM     75  C   UNL     1      17.821   0.460   2.645  1.00  0.00     0.020 A 
ATOM     76  C   UNL     1      15.855  -0.498   3.701  1.00  0.00     0.020 A 
ATOM     77  C   UNL     1      17.027   0.256   3.777  1.00  0.00     0.054 A 
BRANCH  77  78
ATOM     78  S   UNL     1      17.529   1.006   5.352  1.00  0.00     0.124 S 
ATOM     79  O   UNL     1      18.624   0.135   5.766  1.00  0.00    -0.237 OA
ATOM     80  O   UNL     1      17.910   2.358   4.951  1.00  0.00    -0.237 OA
ATOM     81  O   UNL     1      16.319   0.924   6.167  1.00  0.00    -0.744 OA
ENDBRANCH  77  78
ENDBRANCH  49  72
BRANCH  61  82
ATOM     82  C   UNL     1      19.269  -6.031  -2.329  1.00  0.00    -0.014 A 
ATOM     83  C   UNL     1      19.406  -6.998  -1.318  1.00  0.00     0.010 A 
ATOM     84  C   UNL     1      20.332  -5.824  -3.228  1.00  0.00     0.010 A 
ATOM     85  C   UNL     1      20.595  -7.721  -1.189  1.00  0.00     0.020 A 
ATOM     86  C   UNL     1      21.512  -6.565  -3.119  1.00  0.00     0.020 A 
ATOM     87  C   UNL     1      21.641  -7.499  -2.090  1.00  0.00     0.054 A 
BRANCH  87  88
ATOM     88  S   UNL     1      23.158  -8.479  -1.928  1.00  0.00     0.124 S 
ATOM     89  O   UNL     1      23.792  -7.869  -0.763  1.00  0.00    -0.237 OA
ATOM     90  O   UNL     1      22.647  -9.833  -1.728  1.00  0.00    -0.237 OA
ATOM     91  O   UNL     1      23.849  -8.262  -3.198  1.00  0.00    -0.744 OA
ENDBRANCH  87  88
ENDBRANCH  61  82
ENDBRANCH  35  36
ENDBRANCH  28  30
ENDBRANCH  27  28
ENDBRANCH  26  27
ENDBRANCH  25  26
ENDBRANCH   1  25
TORSDOF 21
