REMARK SMILES O=C(OCCOCCOC(=O)c1cccc(OS(=O)(=O)c2cccc([N+](=O)[O-])c2)c1)c1ccc(-c2c3nc(c(-c4ccc(S(=O)(=O)[O-])cc4)c4ccc([nH]4)c(-c4ccc(S(=O)(=O)[O-])cc4)c4nc(c(-c5ccc(S(=O)(=O)[O-])cc5)c5ccc2[nH]5)C=C4)C=C3)cc1
REMARK SMILES IDX 7 1 6 2 5 3 4 4 3 5 2 6 1 7 31 8 32 9 90 10 33 11 89 12
REMARK SMILES IDX 34 13 35 14 36 15 83 16 37 17 88 18 82 19 84 20 38 21 87 22
REMARK SMILES IDX 81 23 80 24 39 26 69 27 50 28 68 29 51 30 54 31 67 32 85 33
REMARK SMILES IDX 52 34 53 35 66 37 86 38 55 39 40 40 41 41 49 42 42 43 48 44
REMARK SMILES IDX 43 45 44 46 45 47 46 48 47 49 70 50 71 51 79 52 72 53 78 54
REMARK SMILES IDX 73 55 74 56 75 57 76 58 77 59 56 60 57 61 65 62 58 63 64 64
REMARK SMILES IDX 59 65 60 66 61 67 62 68 63 69 8 70 9 71 10 72 11 73 12 74
REMARK SMILES IDX 13 75 30 76 14 77 16 78 15 79 17 80 18 81 19 82 20 83 21 84
REMARK SMILES IDX 22 85 29 86 23 87 25 88 24 89 26 90 27 91 28 92
REMARK H PARENT 84 25 54 36
REMARK Flexibility Score: inf
ROOT
ATOM      1  C   UNL     1       2.746  -0.877   1.917  1.00  0.00     0.202 C 
ENDROOT
BRANCH   1   2
ATOM      2  O   UNL     1       4.068  -0.484   1.549  1.00  0.00    -0.374 OA
BRANCH   2   3
ATOM      3  C   UNL     1       4.359   0.903   1.457  1.00  0.00     0.202 C 
BRANCH   3   4
ATOM      4  C   UNL     1       4.116   1.486   0.067  1.00  0.00     0.261 C 
BRANCH   4   5
ATOM      5  O   UNL     1       2.739   1.316  -0.303  1.00  0.00    -0.460 OA
BRANCH   5   6
ATOM      6  C   UNL     1       2.223   0.397  -1.152  1.00  0.00     0.338 C 
ATOM      7  O   UNL     1       1.013   0.412  -1.371  1.00  0.00    -0.246 OA
BRANCH   6   8
ATOM      8  C   UNL     1       3.045  -0.646  -1.838  1.00  0.00     0.060 A 
ATOM      9  C   UNL     1       4.184  -1.241  -1.293  1.00  0.00     0.016 A 
ATOM     10  C   UNL     1       2.562  -1.146  -3.056  1.00  0.00     0.016 A 
ATOM     11  C   UNL     1       4.829  -2.294  -1.909  1.00  0.00     0.010 A 
ATOM     12  C   UNL     1       3.190  -2.229  -3.679  1.00  0.00     0.010 A 
ATOM     13  C   UNL     1       4.314  -2.813  -3.085  1.00  0.00    -0.014 A 
BRANCH  13  14
ATOM     14  C   UNL     1       5.028  -3.950  -3.672  1.00  0.00     0.031 A 
ATOM     15  C   UNL     1       5.928  -3.693  -4.832  1.00  0.00     0.074 A 
ATOM     16  C   UNL     1       4.954  -5.147  -3.060  1.00  0.00     0.049 A 
ATOM     17  N   UNL     1       6.599  -4.547  -5.549  1.00  0.00    -0.248 NA
ATOM     18  C   UNL     1       6.112  -2.285  -5.231  1.00  0.00     0.031 C 
ATOM     19  C   UNL     1       4.213  -5.418  -1.821  1.00  0.00     0.029 A 
ATOM     20  N   UNL     1       5.524  -6.349  -3.372  1.00  0.00    -0.354 N 
ATOM     21  C   UNL     1       7.244  -3.790  -6.516  1.00  0.00     0.074 A 
ATOM     22  C   UNL     1       6.909  -2.405  -6.283  1.00  0.00     0.031 C 
ATOM     23  C   UNL     1       4.377  -6.707  -1.482  1.00  0.00     0.029 A 
ATOM     24  C   UNL     1       5.158  -7.365  -2.520  1.00  0.00     0.049 A 
ATOM     25  H   UNL     1       6.136  -6.476  -4.132  1.00  0.00     0.167 HD
ATOM     26  C   UNL     1       8.023  -4.239  -7.522  1.00  0.00     0.031 A 
ATOM     27  C   UNL     1       5.381  -8.689  -2.617  1.00  0.00     0.031 A 
ATOM     28  C   UNL     1       8.323  -5.631  -7.710  1.00  0.00     0.049 A 
ATOM     29  C   UNL     1       6.157  -9.167  -3.816  1.00  0.00     0.074 A 
ATOM     30  C   UNL     1       9.072  -6.222  -8.709  1.00  0.00     0.029 A 
ATOM     31  N   UNL     1       7.875  -6.649  -6.878  1.00  0.00    -0.354 N 
ATOM     32  N   UNL     1       6.741  -8.454  -4.753  1.00  0.00    -0.248 NA
ATOM     33  C   UNL     1       6.287 -10.617  -3.990  1.00  0.00     0.031 C 
ATOM     34  C   UNL     1       9.014  -7.606  -8.521  1.00  0.00     0.029 A 
ATOM     35  C   UNL     1       8.291  -7.872  -7.367  1.00  0.00     0.049 A 
ATOM     36  H   UNL     1       7.341  -6.518  -6.062  1.00  0.00     0.167 HD
ATOM     37  C   UNL     1       7.314  -9.370  -5.624  1.00  0.00     0.074 A 
ATOM     38  C   UNL     1       7.037 -10.686  -5.081  1.00  0.00     0.031 C 
ATOM     39  C   UNL     1       7.993  -9.154  -6.778  1.00  0.00     0.031 A 
BRANCH  26  40
ATOM     40  C   UNL     1       8.502  -3.242  -8.536  1.00  0.00    -0.014 A 
ATOM     41  C   UNL     1       9.527  -2.324  -8.251  1.00  0.00     0.010 A 
ATOM     42  C   UNL     1       7.928  -3.257  -9.820  1.00  0.00     0.010 A 
ATOM     43  C   UNL     1       9.967  -1.435  -9.237  1.00  0.00     0.020 A 
ATOM     44  C   UNL     1       8.381  -2.387 -10.814  1.00  0.00     0.020 A 
ATOM     45  C   UNL     1       9.397  -1.479 -10.514  1.00  0.00     0.054 A 
BRANCH  45  46
ATOM     46  S   UNL     1      10.041  -0.366 -11.793  1.00  0.00     0.124 S 
ATOM     47  O   UNL     1       9.570   0.936 -11.328  1.00  0.00    -0.237 OA
ATOM     48  O   UNL     1      11.483  -0.581 -11.704  1.00  0.00    -0.237 OA
ATOM     49  O   UNL     1       9.416  -0.850 -13.022  1.00  0.00    -0.744 OA
ENDBRANCH  45  46
ENDBRANCH  26  40
BRANCH  27  50
ATOM     50  C   UNL     1       4.768  -9.646  -1.650  1.00  0.00    -0.014 A 
ATOM     51  C   UNL     1       5.560 -10.505  -0.870  1.00  0.00     0.010 A 
ATOM     52  C   UNL     1       3.366  -9.739  -1.546  1.00  0.00     0.010 A 
ATOM     53  C   UNL     1       4.964 -11.467  -0.045  1.00  0.00     0.020 A 
ATOM     54  C   UNL     1       2.766 -10.672  -0.696  1.00  0.00     0.020 A 
ATOM     55  C   UNL     1       3.571 -11.550   0.029  1.00  0.00     0.054 A 
BRANCH  55  56
ATOM     56  S   UNL     1       2.818 -12.821   1.083  1.00  0.00     0.124 S 
ATOM     57  O   UNL     1       3.099 -14.041   0.332  1.00  0.00    -0.237 OA
ATOM     58  O   UNL     1       3.551 -12.667   2.337  1.00  0.00    -0.237 OA
ATOM     59  O   UNL     1       1.411 -12.431   1.139  1.00  0.00    -0.744 OA
ENDBRANCH  55  56
ENDBRANCH  27  50
BRANCH  39  60
ATOM     60  C   UNL     1       8.493 -10.366  -7.508  1.00  0.00    -0.014 A 
ATOM     61  C   UNL     1       7.606 -11.202  -8.207  1.00  0.00     0.010 A 
ATOM     62  C   UNL     1       9.876 -10.614  -7.569  1.00  0.00     0.010 A 
ATOM     63  C   UNL     1       8.095 -12.280  -8.944  1.00  0.00     0.020 A 
ATOM     64  C   UNL     1      10.370 -11.670  -8.333  1.00  0.00     0.020 A 
ATOM     65  C   UNL     1       9.474 -12.501  -9.010  1.00  0.00     0.054 A 
BRANCH  65  66
ATOM     66  S   UNL     1      10.086 -13.859 -10.040  1.00  0.00     0.124 S 
ATOM     67  O   UNL     1       9.688 -15.031  -9.265  1.00  0.00    -0.237 OA
ATOM     68  O   UNL     1       9.363 -13.659 -11.294  1.00  0.00    -0.237 OA
ATOM     69  O   UNL     1      11.525 -13.619 -10.113  1.00  0.00    -0.744 OA
ENDBRANCH  65  66
ENDBRANCH  39  60
ENDBRANCH  13  14
ENDBRANCH   6   8
ENDBRANCH   5   6
ENDBRANCH   4   5
ENDBRANCH   3   4
ENDBRANCH   2   3
ENDBRANCH   1   2
BRANCH   1  70
ATOM     70  C   UNL     1       2.867  -2.064   2.880  1.00  0.00     0.261 C 
BRANCH  70  71
ATOM     71  O   UNL     1       3.554  -1.612   4.054  1.00  0.00    -0.460 OA
BRANCH  71  72
ATOM     72  C   UNL     1       4.892  -1.393   3.917  1.00  0.00     0.338 C 
ATOM     73  O   UNL     1       5.676  -2.021   3.238  1.00  0.00    -0.246 OA
BRANCH  72  74
ATOM     74  C   UNL     1       5.229  -0.151   4.666  1.00  0.00     0.063 A 
ATOM     75  C   UNL     1       6.463   0.479   4.523  1.00  0.00     0.016 A 
ATOM     76  C   UNL     1       4.298   0.381   5.551  1.00  0.00     0.064 A 
ATOM     77  C   UNL     1       6.770   1.578   5.334  1.00  0.00     0.005 A 
ATOM     78  C   UNL     1       4.663   1.329   6.495  1.00  0.00     0.143 A 
ATOM     79  C   UNL     1       5.890   1.974   6.354  1.00  0.00     0.048 A 
BRANCH  78  80
ATOM     80  O   UNL     1       3.891   1.568   7.615  1.00  0.00    -0.379 OA
BRANCH  80  81
ATOM     81  S   UNL     1       2.661   0.530   7.975  1.00  0.00     0.339 S 
ATOM     82  O   UNL     1       1.444   1.039   7.373  1.00  0.00    -0.181 OA
ATOM     83  O   UNL     1       3.098  -0.835   7.744  1.00  0.00    -0.181 OA
BRANCH  81  84
ATOM     84  C   UNL     1       2.411   0.611   9.722  1.00  0.00     0.112 A 
ATOM     85  C   UNL     1       2.322   1.842  10.366  1.00  0.00     0.024 A 
ATOM     86  C   UNL     1       2.240  -0.597  10.416  1.00  0.00     0.109 A 
ATOM     87  C   UNL     1       2.049   1.866  11.734  1.00  0.00     0.009 A 
ATOM     88  C   UNL     1       1.968  -0.559  11.781  1.00  0.00     0.270 A 
ATOM     89  C   UNL     1       1.870   0.671  12.444  1.00  0.00     0.086 A 
BRANCH  88  90
ATOM     90  N   UNL     1       1.768  -1.815  12.516  1.00  0.00     0.062 N 
ATOM     91  O   UNL     1       1.542  -1.737  13.731  1.00  0.00    -0.258 OA
ATOM     92  O   UNL     1       1.838  -2.875  11.879  1.00  0.00    -0.258 OA
ENDBRANCH  88  90
ENDBRANCH  81  84
ENDBRANCH  80  81
ENDBRANCH  78  80
ENDBRANCH  72  74
ENDBRANCH  71  72
ENDBRANCH  70  71
ENDBRANCH   1  70
TORSDOF 21
