REMARK SMILES CC1(C)[C@@]2(C(=O)OCCOCCOC(=O)c3ccc(-c4c5nc(c(-c6ccc(S(=O)(=O)[O-])cc6)c6ccc([nH]6)c(-c6ccc(S(=O)(=O)[O-])cc6)c6nc(c(-c7ccc(S(=O)(=O)[O-])cc7)c7ccc4[nH]7)C=C6)C=C5)cc3)CC[C@]1(C)/C(=N/NC(=O)c1ccc(Cl)cc1)C2
REMARK SMILES IDX 11 1 10 2 9 3 8 4 7 5 5 6 6 7 4 8 1 9 2 10 3 11 78 12 76 13
REMARK SMILES IDX 92 14 77 15 79 16 80 17 81 18 82 19 83 20 84 22 85 23 86 24
REMARK SMILES IDX 91 25 87 26 90 27 88 28 89 29 12 30 13 31 14 32 15 33 16 34
REMARK SMILES IDX 17 35 75 36 18 37 74 38 19 39 20 40 21 41 68 42 22 43 73 44
REMARK SMILES IDX 67 45 69 46 23 47 72 48 66 49 65 50 24 52 54 53 35 54 53 55
REMARK SMILES IDX 36 56 39 57 52 58 70 59 37 60 38 61 51 63 71 64 40 65 25 66
REMARK SMILES IDX 26 67 34 68 27 69 33 70 28 71 29 72 30 73 31 74 32 75 55 76
REMARK SMILES IDX 56 77 64 78 57 79 63 80 58 81 59 82 60 83 61 84 62 85 41 86
REMARK SMILES IDX 42 87 50 88 43 89 49 90 44 91 45 92 46 93 47 94 48 95
REMARK H PARENT 82 21 69 51 39 62
REMARK Flexibility Score: inf
ROOT
ATOM      1  C   UNL     1       1.924   4.120  -3.209  1.00  0.00     0.202 C 
ENDROOT
BRANCH   1   2
ATOM      2  O   UNL     1       2.167   3.368  -4.394  1.00  0.00    -0.374 OA
BRANCH   2   3
ATOM      3  C   UNL     1       1.035   2.701  -4.957  1.00  0.00     0.202 C 
BRANCH   3   4
ATOM      4  C   UNL     1       0.638   1.380  -4.279  1.00  0.00     0.261 C 
BRANCH   4   5
ATOM      5  O   UNL     1       0.073   1.557  -2.956  1.00  0.00    -0.463 OA
BRANCH   5   6
ATOM      6  C   UNL     1       0.530   0.700  -2.003  1.00  0.00     0.313 C 
ATOM      7  O   UNL     1       1.410  -0.132  -2.192  1.00  0.00    -0.252 OA
BRANCH   6   8
ATOM      8  C   UNL     1      -0.194   0.833  -0.665  1.00  0.00     0.079 C 
ATOM      9  C   UNL     1       1.605  -0.534   0.675  1.00  0.00     0.013 C 
ATOM     10  C   UNL     1       0.763   0.765   0.566  1.00  0.00    -0.008 C 
ATOM     11  C   UNL     1       1.741   1.949   0.668  1.00  0.00     0.013 C 
ATOM     12  C   UNL     1      -0.417   0.812   1.577  1.00  0.00     0.014 C 
ATOM     13  C   UNL     1      -1.171  -0.361  -0.393  1.00  0.00     0.021 C 
ATOM     14  C   UNL     1      -1.010   2.142  -0.418  1.00  0.00     0.073 C 
ATOM     15  C   UNL     1      -1.290  -0.389   1.152  1.00  0.00     0.014 C 
ATOM     16  C   UNL     1      -0.053   0.871   3.048  1.00  0.00     0.018 C 
ATOM     17  C   UNL     1      -1.237   2.026   1.067  1.00  0.00     0.046 C 
ATOM     18  N   UNL     1      -1.952   2.649   1.942  1.00  0.00    -0.181 NA
BRANCH  18  19
ATOM     19  N   UNL     1      -2.832   3.669   1.960  1.00  0.00    -0.243 N 
ATOM     20  C   UNL     1      -3.628   4.397   1.114  1.00  0.00     0.271 C 
ATOM     21  H   UNL     1      -2.937   4.000   2.882  1.00  0.00     0.194 HD
ATOM     22  O   UNL     1      -4.332   5.299   1.573  1.00  0.00    -0.267 OA
BRANCH  20  23
ATOM     23  C   UNL     1      -3.640   4.208  -0.324  1.00  0.00     0.041 A 
ATOM     24  C   UNL     1      -3.167   5.271  -1.094  1.00  0.00     0.015 A 
ATOM     25  C   UNL     1      -4.080   3.023  -0.910  1.00  0.00     0.015 A 
ATOM     26  C   UNL     1      -2.890   5.049  -2.435  1.00  0.00     0.021 A 
ATOM     27  C   UNL     1      -3.832   2.822  -2.265  1.00  0.00     0.021 A 
ATOM     28  C   UNL     1      -3.165   3.802  -2.996  1.00  0.00     0.041 A 
ATOM     29  Cl  UNL     1      -2.574   3.355  -4.538  1.00  0.00    -0.084 Cl
ENDBRANCH  20  23
ENDBRANCH  18  19
ENDBRANCH   6   8
ENDBRANCH   5   6
ENDBRANCH   4   5
ENDBRANCH   3   4
ENDBRANCH   2   3
ENDBRANCH   1   2
BRANCH   1  30
ATOM     30  C   UNL     1       1.410   5.559  -3.397  1.00  0.00     0.261 C 
BRANCH  30  31
ATOM     31  O   UNL     1       0.172   5.649  -4.120  1.00  0.00    -0.460 OA
BRANCH  31  32
ATOM     32  C   UNL     1       0.279   6.070  -5.407  1.00  0.00     0.338 C 
ATOM     33  O   UNL     1       1.304   6.389  -5.993  1.00  0.00    -0.246 OA
BRANCH  32  34
ATOM     34  C   UNL     1      -1.030   5.949  -6.076  1.00  0.00     0.060 A 
ATOM     35  C   UNL     1      -1.098   5.211  -7.260  1.00  0.00     0.016 A 
ATOM     36  C   UNL     1      -2.189   6.519  -5.541  1.00  0.00     0.016 A 
ATOM     37  C   UNL     1      -2.323   5.047  -7.912  1.00  0.00     0.010 A 
ATOM     38  C   UNL     1      -3.428   6.283  -6.150  1.00  0.00     0.010 A 
ATOM     39  C   UNL     1      -3.499   5.594  -7.374  1.00  0.00    -0.014 A 
BRANCH  39  40
ATOM     40  C   UNL     1      -4.739   5.632  -8.202  1.00  0.00     0.031 A 
ATOM     41  C   UNL     1      -5.205   6.969  -8.730  1.00  0.00     0.074 A 
ATOM     42  C   UNL     1      -5.393   4.510  -8.569  1.00  0.00     0.049 A 
ATOM     43  N   UNL     1      -6.196   7.242  -9.540  1.00  0.00    -0.248 NA
ATOM     44  C   UNL     1      -4.454   8.157  -8.287  1.00  0.00     0.031 C 
ATOM     45  C   UNL     1      -5.048   3.148  -8.159  1.00  0.00     0.029 A 
ATOM     46  N   UNL     1      -6.477   4.340  -9.400  1.00  0.00    -0.354 N 
ATOM     47  C   UNL     1      -6.181   8.624  -9.698  1.00  0.00     0.074 A 
ATOM     48  C   UNL     1      -5.136   9.141  -8.848  1.00  0.00     0.031 C 
ATOM     49  C   UNL     1      -5.878   2.283  -8.770  1.00  0.00     0.029 A 
ATOM     50  C   UNL     1      -6.835   3.025  -9.589  1.00  0.00     0.049 A 
ATOM     51  H   UNL     1      -6.953   5.092  -9.820  1.00  0.00     0.167 HD
ATOM     52  C   UNL     1      -6.940   9.403 -10.503  1.00  0.00     0.031 A 
ATOM     53  C   UNL     1      -7.816   2.479 -10.339  1.00  0.00     0.031 A 
ATOM     54  C   UNL     1      -7.980   8.906 -11.359  1.00  0.00     0.049 A 
ATOM     55  C   UNL     1      -8.706   3.373 -11.169  1.00  0.00     0.074 A 
ATOM     56  C   UNL     1      -8.797   9.620 -12.217  1.00  0.00     0.029 A 
ATOM     57  N   UNL     1      -8.349   7.575 -11.464  1.00  0.00    -0.354 N 
ATOM     58  N   UNL     1      -8.654   4.675 -11.325  1.00  0.00    -0.248 NA
ATOM     59  C   UNL     1      -9.780   2.720 -11.933  1.00  0.00     0.031 C 
ATOM     60  C   UNL     1      -9.703   8.727 -12.796  1.00  0.00     0.029 A 
ATOM     61  C   UNL     1      -9.402   7.449 -12.354  1.00  0.00     0.049 A 
ATOM     62  H   UNL     1      -7.925   6.830 -10.980  1.00  0.00     0.167 HD
ATOM     63  C   UNL     1      -9.667   4.990 -12.228  1.00  0.00     0.074 A 
ATOM     64  C   UNL     1     -10.305   3.744 -12.593  1.00  0.00     0.031 C 
ATOM     65  C   UNL     1     -10.031   6.203 -12.713  1.00  0.00     0.031 A 
BRANCH  52  66
ATOM     66  C   UNL     1      -6.674  10.885 -10.479  1.00  0.00    -0.014 A 
ATOM     67  C   UNL     1      -5.490  11.420 -11.020  1.00  0.00     0.010 A 
ATOM     68  C   UNL     1      -7.631  11.755  -9.930  1.00  0.00     0.010 A 
ATOM     69  C   UNL     1      -5.251  12.796 -10.975  1.00  0.00     0.020 A 
ATOM     70  C   UNL     1      -7.411  13.134  -9.913  1.00  0.00     0.020 A 
ATOM     71  C   UNL     1      -6.215  13.644 -10.421  1.00  0.00     0.054 A 
BRANCH  71  72
ATOM     72  S   UNL     1      -5.891  15.428 -10.403  1.00  0.00     0.124 S 
ATOM     73  O   UNL     1      -4.842  15.533  -9.392  1.00  0.00    -0.237 OA
ATOM     74  O   UNL     1      -5.469  15.690 -11.776  1.00  0.00    -0.237 OA
ATOM     75  O   UNL     1      -7.177  16.010 -10.027  1.00  0.00    -0.744 OA
ENDBRANCH  71  72
ENDBRANCH  52  66
BRANCH  53  76
ATOM     76  C   UNL     1      -8.019   1.000 -10.349  1.00  0.00    -0.014 A 
ATOM     77  C   UNL     1      -7.765   0.242 -11.507  1.00  0.00     0.010 A 
ATOM     78  C   UNL     1      -8.485   0.342  -9.196  1.00  0.00     0.010 A 
ATOM     79  C   UNL     1      -7.984  -1.140 -11.514  1.00  0.00     0.020 A 
ATOM     80  C   UNL     1      -8.677  -1.043  -9.190  1.00  0.00     0.020 A 
ATOM     81  C   UNL     1      -8.433  -1.775 -10.353  1.00  0.00     0.054 A 
BRANCH  81  82
ATOM     82  S   UNL     1      -8.651  -3.577 -10.366  1.00  0.00     0.124 S 
ATOM     83  O   UNL     1      -9.835  -3.736 -11.203  1.00  0.00    -0.237 OA
ATOM     84  O   UNL     1      -7.395  -4.040 -10.949  1.00  0.00    -0.237 OA
ATOM     85  O   UNL     1      -8.833  -3.909  -8.954  1.00  0.00    -0.744 OA
ENDBRANCH  81  82
ENDBRANCH  53  76
BRANCH  65  86
ATOM     86  C   UNL     1     -11.148   6.254 -13.723  1.00  0.00    -0.014 A 
ATOM     87  C   UNL     1     -12.482   6.008 -13.355  1.00  0.00     0.010 A 
ATOM     88  C   UNL     1     -10.864   6.630 -15.050  1.00  0.00     0.010 A 
ATOM     89  C   UNL     1     -13.507   6.107 -14.301  1.00  0.00     0.020 A 
ATOM     90  C   UNL     1     -11.889   6.760 -15.991  1.00  0.00     0.020 A 
ATOM     91  C   UNL     1     -13.204   6.484 -15.613  1.00  0.00     0.054 A 
BRANCH  91  92
ATOM     92  S   UNL     1     -14.558   6.650 -16.809  1.00  0.00     0.124 S 
ATOM     93  O   UNL     1     -14.933   5.257 -17.039  1.00  0.00    -0.237 OA
ATOM     94  O   UNL     1     -15.535   7.451 -16.076  1.00  0.00    -0.237 OA
ATOM     95  O   UNL     1     -13.937   7.323 -17.947  1.00  0.00    -0.744 OA
ENDBRANCH  91  92
ENDBRANCH  65  86
ENDBRANCH  39  40
ENDBRANCH  32  34
ENDBRANCH  31  32
ENDBRANCH  30  31
ENDBRANCH   1  30
TORSDOF 19
