REMARK SMILES C[C@@H](Nc1cccc(C(=O)OCCOCCOC(=O)c2ccc(-c3c4nc(c(-c5ccc(S(=O)(=O)[O-])cc5)c5ccc([nH]5)c(-c5ccc(S(=O)(=O)[O-])cc5)c5nc(c(-c6ccc(S(=O)(=O)[O-])cc6)c6ccc3[nH]6)C=C5)C=C4)cc2)c1)C1CC[NH+](C)CC1
REMARK SMILES IDX 14 1 13 2 12 3 11 4 9 5 10 6 8 7 4 8 5 9 80 10 6 11 7 12
REMARK SMILES IDX 3 13 2 15 1 16 81 17 82 18 87 19 83 20 86 21 84 22 85 23
REMARK SMILES IDX 15 25 16 26 17 27 18 28 19 29 20 30 21 31 79 32 22 33 78 34
REMARK SMILES IDX 23 35 24 36 25 37 72 38 26 39 77 40 71 41 73 42 27 43 76 44
REMARK SMILES IDX 70 45 69 46 28 48 58 49 39 50 57 51 40 52 43 53 56 54 74 55
REMARK SMILES IDX 41 56 42 57 55 59 75 60 44 61 29 62 30 63 38 64 31 65 37 66
REMARK SMILES IDX 32 67 33 68 34 69 35 70 36 71 59 72 60 73 68 74 61 75 67 76
REMARK SMILES IDX 62 77 63 78 64 79 65 80 66 81 45 82 46 83 54 84 47 85 53 86
REMARK SMILES IDX 48 87 49 88 50 89 51 90 52 91
REMARK H PARENT 3 14 84 24 73 47 43 58
REMARK Flexibility Score: inf
ROOT
ATOM      1  O   UNL     1      -4.111   0.720   8.595  1.00  0.00    -0.374 OA
ENDROOT
BRANCH   1   2
ATOM      2  C   UNL     1      -4.608  -0.303   7.737  1.00  0.00     0.202 C 
BRANCH   2   3
ATOM      3  C   UNL     1      -4.718  -0.012   6.242  1.00  0.00     0.261 C 
BRANCH   3   4
ATOM      4  O   UNL     1      -3.455   0.361   5.682  1.00  0.00    -0.460 OA
BRANCH   4   5
ATOM      5  C   UNL     1      -3.361   1.673   5.380  1.00  0.00     0.338 C 
ATOM      6  O   UNL     1      -4.220   2.530   5.523  1.00  0.00    -0.246 OA
BRANCH   5   7
ATOM      7  C   UNL     1      -2.049   1.982   4.808  1.00  0.00     0.062 A 
ATOM      8  C   UNL     1       0.641   1.153   3.377  1.00  0.00     0.035 A 
ATOM      9  C   UNL     1       0.687   2.775   2.547  1.00  0.00     0.026 A 
ATOM     10  C   UNL     1      -0.641   0.793   4.628  1.00  0.00     0.041 A 
ATOM     11  C   UNL     1      -0.634   3.987   2.839  1.00  0.00     0.003 A 
ATOM     12  C   UNL     1      -2.033   3.556   3.908  1.00  0.00     0.016 A 
BRANCH   8  13
ATOM     13  N   UNL     1       1.274   0.085   2.727  1.00  0.00    -0.382 N 
ATOM     14  H   UNL     1       1.995  -0.414   3.175  1.00  0.00     0.160 HD
BRANCH  13  15
ATOM     15  C   UNL     1       0.842  -0.287   1.349  1.00  0.00     0.079 C 
ATOM     16  C   UNL     1       1.835   0.266   0.318  1.00  0.00     0.031 C 
BRANCH  15  17
ATOM     17  C   UNL     1      -0.620  -0.095   0.825  1.00  0.00     0.022 C 
ATOM     18  C   UNL     1      -1.090   1.263   0.317  1.00  0.00     0.067 C 
ATOM     19  C   UNL     1      -1.732  -0.578   1.711  1.00  0.00     0.067 C 
ATOM     20  C   UNL     1      -1.491   2.280   1.395  1.00  0.00     0.262 C 
ATOM     21  C   UNL     1      -2.060   0.411   2.829  1.00  0.00     0.262 C 
ATOM     22  N   UNL     1      -1.242   1.865   2.885  1.00  0.00    -0.337 N 
ATOM     23  C   UNL     1      -0.170   2.758   4.436  1.00  0.00     0.332 C 
ATOM     24  H   UNL     1      -0.825   2.419   3.633  1.00  0.00     0.347 HD
ENDBRANCH  15  17
ENDBRANCH  13  15
ENDBRANCH   8  13
ENDBRANCH   5   7
ENDBRANCH   4   5
ENDBRANCH   3   4
ENDBRANCH   2   3
ENDBRANCH   1   2
BRANCH   1  25
ATOM     25  C   UNL     1      -2.749   1.125   8.489  1.00  0.00     0.202 C 
BRANCH  25  26
ATOM     26  C   UNL     1      -1.633   0.139   8.855  1.00  0.00     0.261 C 
BRANCH  26  27
ATOM     27  O   UNL     1      -1.644  -1.077   8.093  1.00  0.00    -0.460 OA
BRANCH  27  28
ATOM     28  C   UNL     1      -2.056  -2.160   8.798  1.00  0.00     0.338 C 
ATOM     29  O   UNL     1      -2.402  -2.189   9.967  1.00  0.00    -0.246 OA
BRANCH  28  30
ATOM     30  C   UNL     1      -2.216  -3.323   7.909  1.00  0.00     0.060 A 
ATOM     31  C   UNL     1      -3.478  -3.929   7.858  1.00  0.00     0.016 A 
ATOM     32  C   UNL     1      -1.121  -3.891   7.257  1.00  0.00     0.016 A 
ATOM     33  C   UNL     1      -3.639  -5.144   7.202  1.00  0.00     0.010 A 
ATOM     34  C   UNL     1      -1.282  -5.120   6.612  1.00  0.00     0.010 A 
ATOM     35  C   UNL     1      -2.529  -5.771   6.624  1.00  0.00    -0.014 A 
BRANCH  35  36
ATOM     36  C   UNL     1      -2.641  -7.186   6.203  1.00  0.00     0.031 A 
ATOM     37  C   UNL     1      -2.135  -8.258   7.130  1.00  0.00     0.074 A 
ATOM     38  C   UNL     1      -3.227  -7.511   5.038  1.00  0.00     0.049 A 
ATOM     39  N   UNL     1      -2.106  -9.554   6.961  1.00  0.00    -0.248 NA
ATOM     40  C   UNL     1      -1.590  -7.806   8.422  1.00  0.00     0.031 C 
ATOM     41  C   UNL     1      -3.812  -6.562   4.093  1.00  0.00     0.029 A 
ATOM     42  N   UNL     1      -3.425  -8.736   4.455  1.00  0.00    -0.354 N 
ATOM     43  C   UNL     1      -1.529 -10.072   8.115  1.00  0.00     0.074 A 
ATOM     44  C   UNL     1      -1.197  -8.949   8.965  1.00  0.00     0.031 C 
ATOM     45  C   UNL     1      -4.301  -7.242   3.042  1.00  0.00     0.029 A 
ATOM     46  C   UNL     1      -4.028  -8.666   3.224  1.00  0.00     0.049 A 
ATOM     47  H   UNL     1      -3.160  -9.585   4.879  1.00  0.00     0.167 HD
ATOM     48  C   UNL     1      -1.298 -11.367   8.439  1.00  0.00     0.031 A 
ATOM     49  C   UNL     1      -4.307  -9.639   2.335  1.00  0.00     0.031 A 
ATOM     50  C   UNL     1      -1.615 -12.476   7.579  1.00  0.00     0.049 A 
ATOM     51  C   UNL     1      -3.963 -11.065   2.677  1.00  0.00     0.074 A 
ATOM     52  C   UNL     1      -1.429 -13.827   7.810  1.00  0.00     0.029 A 
ATOM     53  N   UNL     1      -2.179 -12.360   6.316  1.00  0.00    -0.354 N 
ATOM     54  N   UNL     1      -3.423 -11.542   3.774  1.00  0.00    -0.248 NA
ATOM     55  C   UNL     1      -4.272 -12.083   1.664  1.00  0.00     0.031 C 
ATOM     56  C   UNL     1      -1.822 -14.524   6.662  1.00  0.00     0.029 A 
ATOM     57  C   UNL     1      -2.319 -13.613   5.743  1.00  0.00     0.049 A 
ATOM     58  H   UNL     1      -2.440 -11.512   5.890  1.00  0.00     0.167 HD
ATOM     59  C   UNL     1      -3.355 -12.920   3.595  1.00  0.00     0.074 A 
ATOM     60  C   UNL     1      -3.918 -13.198   2.289  1.00  0.00     0.031 C 
ATOM     61  C   UNL     1      -2.876 -13.870   4.438  1.00  0.00     0.031 A 
BRANCH  48  62
ATOM     62  C   UNL     1      -0.624 -11.642   9.758  1.00  0.00    -0.014 A 
ATOM     63  C   UNL     1      -1.286 -11.426  10.981  1.00  0.00     0.010 A 
ATOM     64  C   UNL     1       0.693 -12.136   9.774  1.00  0.00     0.010 A 
ATOM     65  C   UNL     1      -0.626 -11.651  12.193  1.00  0.00     0.020 A 
ATOM     66  C   UNL     1       1.347 -12.390  10.983  1.00  0.00     0.020 A 
ATOM     67  C   UNL     1       0.689 -12.125  12.186  1.00  0.00     0.054 A 
BRANCH  67  68
ATOM     68  S   UNL     1       1.523 -12.408  13.772  1.00  0.00     0.124 S 
ATOM     69  O   UNL     1       1.771 -11.043  14.229  1.00  0.00    -0.237 OA
ATOM     70  O   UNL     1       0.522 -13.152  14.533  1.00  0.00    -0.237 OA
ATOM     71  O   UNL     1       2.716 -13.168  13.407  1.00  0.00    -0.744 OA
ENDBRANCH  67  68
ENDBRANCH  48  62
BRANCH  49  72
ATOM     72  C   UNL     1      -4.933  -9.289   1.032  1.00  0.00    -0.014 A 
ATOM     73  C   UNL     1      -6.262  -9.652   0.753  1.00  0.00     0.010 A 
ATOM     74  C   UNL     1      -4.207  -8.563   0.069  1.00  0.00     0.010 A 
ATOM     75  C   UNL     1      -6.852  -9.299  -0.464  1.00  0.00     0.020 A 
ATOM     76  C   UNL     1      -4.801  -8.184  -1.137  1.00  0.00     0.020 A 
ATOM     77  C   UNL     1      -6.119  -8.561  -1.399  1.00  0.00     0.054 A 
BRANCH  77  78
ATOM     78  S   UNL     1      -6.929  -8.051  -2.940  1.00  0.00     0.124 S 
ATOM     79  O   UNL     1      -7.021  -9.313  -3.667  1.00  0.00    -0.237 OA
ATOM     80  O   UNL     1      -8.196  -7.502  -2.462  1.00  0.00    -0.237 OA
ATOM     81  O   UNL     1      -6.006  -7.068  -3.503  1.00  0.00    -0.744 OA
ENDBRANCH  77  78
ENDBRANCH  49  72
BRANCH  61  82
ATOM     82  C   UNL     1      -2.972 -15.306   3.991  1.00  0.00    -0.014 A 
ATOM     83  C   UNL     1      -2.147 -15.812   2.971  1.00  0.00     0.010 A 
ATOM     84  C   UNL     1      -3.863 -16.175   4.647  1.00  0.00     0.010 A 
ATOM     85  C   UNL     1      -2.236 -17.155   2.594  1.00  0.00     0.020 A 
ATOM     86  C   UNL     1      -3.933 -17.525   4.293  1.00  0.00     0.020 A 
ATOM     87  C   UNL     1      -3.128 -18.003   3.259  1.00  0.00     0.054 A 
BRANCH  87  88
ATOM     88  S   UNL     1      -3.192 -19.752   2.780  1.00  0.00     0.124 S 
ATOM     89  O   UNL     1      -3.873 -19.689   1.490  1.00  0.00    -0.237 OA
ATOM     90  O   UNL     1      -1.779 -20.121   2.728  1.00  0.00    -0.237 OA
ATOM     91  O   UNL     1      -3.954 -20.379   3.858  1.00  0.00    -0.744 OA
ENDBRANCH  87  88
ENDBRANCH  61  82
ENDBRANCH  35  36
ENDBRANCH  28  30
ENDBRANCH  27  28
ENDBRANCH  26  27
ENDBRANCH  25  26
ENDBRANCH   1  25
TORSDOF 20
