REMARK SMILES O=C(OCCOCCOC(=O)c1cc(Br)cc2c1N[C@H](c1cccc([N+](=O)[O-])c1)[C@H]1CC=C[C@H]21)c1ccc(-c2c3nc(c(-c4ccc(S(=O)(=O)[O-])cc4)c4ccc([nH]4)c(-c4ccc(S(=O)(=O)[O-])cc4)c4nc(c(-c5ccc(S(=O)(=O)[O-])cc5)c5ccc2[nH]5)C=C4)C=C3)cc1
REMARK SMILES IDX 5 1 4 2 3 3 2 4 1 5 35 6 36 7 94 8 37 9 93 10 38 11 39 12
REMARK SMILES IDX 40 13 87 14 41 15 92 16 86 17 88 18 42 19 91 20 85 21 84 22
REMARK SMILES IDX 43 24 73 25 54 26 72 27 55 28 58 29 71 30 89 31 56 32 57 33
REMARK SMILES IDX 70 35 90 36 59 37 44 38 45 39 53 40 46 41 52 42 47 43 48 44
REMARK SMILES IDX 49 45 50 46 51 47 74 48 75 49 83 50 76 51 82 52 77 53 78 54
REMARK SMILES IDX 79 55 80 56 81 57 60 58 61 59 69 60 62 61 68 62 63 63 64 64
REMARK SMILES IDX 65 65 66 66 67 67 6 68 7 69 8 70 9 71 10 72 11 73 12 74
REMARK SMILES IDX 13 75 18 76 14 77 17 78 19 79 15 80 16 81 34 82 20 83 30 85
REMARK SMILES IDX 33 86 31 87 32 88 21 89 22 90 29 91 23 92 25 93 24 94 26 95
REMARK SMILES IDX 27 96 28 97
REMARK H PARENT 88 23 58 34 19 84
REMARK Flexibility Score: inf
ROOT
ATOM      1  C   UNL     1       4.299   0.874  -1.276  1.00  0.00     0.202 C 
ENDROOT
BRANCH   1   2
ATOM      2  C   UNL     1       4.100  -0.630  -1.467  1.00  0.00     0.261 C 
BRANCH   2   3
ATOM      3  O   UNL     1       2.752  -1.017  -1.168  1.00  0.00    -0.460 OA
BRANCH   3   4
ATOM      4  C   UNL     1       2.200  -1.362   0.017  1.00  0.00     0.338 C 
ATOM      5  O   UNL     1       0.987  -1.584   0.022  1.00  0.00    -0.246 OA
BRANCH   4   6
ATOM      6  C   UNL     1       2.926  -1.462   1.331  1.00  0.00     0.060 A 
ATOM      7  C   UNL     1       2.176  -1.970   2.411  1.00  0.00     0.016 A 
ATOM      8  C   UNL     1       4.228  -1.032   1.607  1.00  0.00     0.016 A 
ATOM      9  C   UNL     1       2.695  -2.006   3.709  1.00  0.00     0.010 A 
ATOM     10  C   UNL     1       4.750  -1.050   2.896  1.00  0.00     0.010 A 
ATOM     11  C   UNL     1       3.986  -1.534   3.952  1.00  0.00    -0.014 A 
BRANCH  11  12
ATOM     12  C   UNL     1       4.637  -1.679   5.262  1.00  0.00     0.031 A 
ATOM     13  C   UNL     1       4.808  -0.509   6.175  1.00  0.00     0.074 A 
ATOM     14  C   UNL     1       5.184  -2.877   5.530  1.00  0.00     0.049 A 
ATOM     15  N   UNL     1       5.321  -0.482   7.375  1.00  0.00    -0.248 NA
ATOM     16  C   UNL     1       4.365   0.804   5.676  1.00  0.00     0.031 C 
ATOM     17  C   UNL     1       5.143  -4.029   4.623  1.00  0.00     0.029 A 
ATOM     18  N   UNL     1       5.889  -3.324   6.611  1.00  0.00    -0.354 N 
ATOM     19  C   UNL     1       5.233   0.840   7.794  1.00  0.00     0.074 A 
ATOM     20  C   UNL     1       4.679   1.598   6.693  1.00  0.00     0.031 C 
ATOM     21  C   UNL     1       5.780  -5.058   5.196  1.00  0.00     0.029 A 
ATOM     22  C   UNL     1       6.276  -4.638   6.501  1.00  0.00     0.049 A 
ATOM     23  H   UNL     1       6.099  -2.761   7.391  1.00  0.00     0.167 HD
ATOM     24  C   UNL     1       5.564   1.349   9.004  1.00  0.00     0.031 A 
ATOM     25  C   UNL     1       6.931  -5.425   7.373  1.00  0.00     0.031 A 
ATOM     26  C   UNL     1       6.159   0.554  10.050  1.00  0.00     0.049 A 
ATOM     27  C   UNL     1       7.265  -4.852   8.716  1.00  0.00     0.074 A 
ATOM     28  C   UNL     1       6.499   0.934  11.335  1.00  0.00     0.029 A 
ATOM     29  N   UNL     1       6.511  -0.786   9.923  1.00  0.00    -0.354 N 
ATOM     30  N   UNL     1       7.071  -3.628   9.151  1.00  0.00    -0.248 NA
ATOM     31  C   UNL     1       7.865  -5.759   9.698  1.00  0.00     0.031 C 
ATOM     32  C   UNL     1       7.112  -0.155  11.961  1.00  0.00     0.029 A 
ATOM     33  C   UNL     1       7.084  -1.241  11.097  1.00  0.00     0.049 A 
ATOM     34  H   UNL     1       6.371  -1.332   9.115  1.00  0.00     0.167 HD
ATOM     35  C   UNL     1       7.514  -3.617  10.465  1.00  0.00     0.074 A 
ATOM     36  C   UNL     1       7.964  -4.966  10.759  1.00  0.00     0.031 C 
ATOM     37  C   UNL     1       7.547  -2.587  11.347  1.00  0.00     0.031 A 
BRANCH  24  38
ATOM     38  C   UNL     1       5.257   2.801   9.285  1.00  0.00    -0.014 A 
ATOM     39  C   UNL     1       6.288   3.707   9.598  1.00  0.00     0.010 A 
ATOM     40  C   UNL     1       3.923   3.246   9.363  1.00  0.00     0.010 A 
ATOM     41  C   UNL     1       5.993   5.011  10.014  1.00  0.00     0.020 A 
ATOM     42  C   UNL     1       3.624   4.556   9.749  1.00  0.00     0.020 A 
ATOM     43  C   UNL     1       4.661   5.424  10.098  1.00  0.00     0.054 A 
BRANCH  43  44
ATOM     44  S   UNL     1       4.292   7.104  10.676  1.00  0.00     0.124 S 
ATOM     45  O   UNL     1       4.570   7.008  12.105  1.00  0.00    -0.237 OA
ATOM     46  O   UNL     1       5.226   7.921   9.904  1.00  0.00    -0.237 OA
ATOM     47  O   UNL     1       2.885   7.287  10.324  1.00  0.00    -0.744 OA
ENDBRANCH  43  44
ENDBRANCH  24  38
BRANCH  25  48
ATOM     48  C   UNL     1       7.157  -6.847   7.001  1.00  0.00    -0.014 A 
ATOM     49  C   UNL     1       8.055  -7.180   5.968  1.00  0.00     0.010 A 
ATOM     50  C   UNL     1       6.323  -7.846   7.531  1.00  0.00     0.010 A 
ATOM     51  C   UNL     1       8.056  -8.466   5.419  1.00  0.00     0.020 A 
ATOM     52  C   UNL     1       6.341  -9.140   7.002  1.00  0.00     0.020 A 
ATOM     53  C   UNL     1       7.180  -9.430   5.924  1.00  0.00     0.054 A 
BRANCH  53  54
ATOM     54  S   UNL     1       7.107 -11.052   5.113  1.00  0.00     0.124 S 
ATOM     55  O   UNL     1       6.402 -10.735   3.873  1.00  0.00    -0.237 OA
ATOM     56  O   UNL     1       8.518 -11.398   4.964  1.00  0.00    -0.237 OA
ATOM     57  O   UNL     1       6.362 -11.876   6.062  1.00  0.00    -0.744 OA
ENDBRANCH  53  54
ENDBRANCH  25  48
BRANCH  37  58
ATOM     58  C   UNL     1       8.121  -2.863  12.710  1.00  0.00    -0.014 A 
ATOM     59  C   UNL     1       7.289  -2.809  13.844  1.00  0.00     0.010 A 
ATOM     60  C   UNL     1       9.504  -3.051  12.878  1.00  0.00     0.010 A 
ATOM     61  C   UNL     1       7.835  -2.902  15.124  1.00  0.00     0.020 A 
ATOM     62  C   UNL     1      10.050  -3.176  14.156  1.00  0.00     0.020 A 
ATOM     63  C   UNL     1       9.214  -3.075  15.272  1.00  0.00     0.054 A 
BRANCH  63  64
ATOM     64  S   UNL     1       9.910  -3.160  16.944  1.00  0.00     0.124 S 
ATOM     65  O   UNL     1       9.878  -1.762  17.361  1.00  0.00    -0.237 OA
ATOM     66  O   UNL     1       8.977  -4.046  17.635  1.00  0.00    -0.237 OA
ATOM     67  O   UNL     1      11.244  -3.718  16.731  1.00  0.00    -0.744 OA
ENDBRANCH  63  64
ENDBRANCH  37  58
ENDBRANCH  11  12
ENDBRANCH   4   6
ENDBRANCH   3   4
ENDBRANCH   2   3
ENDBRANCH   1   2
BRANCH   1  68
ATOM     68  O   UNL     1       4.028   1.314   0.052  1.00  0.00    -0.374 OA
BRANCH  68  69
ATOM     69  C   UNL     1       2.742   1.899   0.273  1.00  0.00     0.202 C 
BRANCH  69  70
ATOM     70  C   UNL     1       2.916   3.354   0.704  1.00  0.00     0.261 C 
BRANCH  70  71
ATOM     71  O   UNL     1       3.456   4.085  -0.406  1.00  0.00    -0.460 OA
BRANCH  71  72
ATOM     72  C   UNL     1       4.811   4.087  -0.510  1.00  0.00     0.340 C 
ATOM     73  O   UNL     1       5.617   3.812   0.363  1.00  0.00    -0.246 OA
BRANCH  72  74
ATOM     74  C   UNL     1       5.179   4.292  -1.934  1.00  0.00     0.084 A 
ATOM     75  C   UNL     1       6.303   3.588  -2.393  1.00  0.00     0.033 A 
ATOM     76  C   UNL     1       4.436   5.113  -2.806  1.00  0.00     0.053 A 
ATOM     77  C   UNL     1       6.679   3.682  -3.726  1.00  0.00     0.019 A 
ATOM     78  C   UNL     1       4.911   5.283  -4.126  1.00  0.00    -0.016 A 
ATOM     79  N   UNL     1       3.301   5.793  -2.381  1.00  0.00    -0.377 N 
ATOM     80  Br  UNL     1       8.125   2.646  -4.365  1.00  0.00    -0.051 Br
ATOM     81  C   UNL     1       6.007   4.543  -4.590  1.00  0.00     0.022 A 
ATOM     82  C   UNL     1       4.272   6.393  -4.903  1.00  0.00     0.049 C 
ATOM     83  C   UNL     1       2.450   6.650  -3.210  1.00  0.00     0.114 C 
ATOM     84  H   UNL     1       3.045   5.689  -1.436  1.00  0.00     0.161 HD
ATOM     85  C   UNL     1       2.753   6.364  -4.684  1.00  0.00     0.031 C 
ATOM     86  C   UNL     1       4.331   6.469  -6.395  1.00  0.00    -0.023 C 
ATOM     87  C   UNL     1       2.253   7.353  -5.740  1.00  0.00     0.034 C 
ATOM     88  C   UNL     1       3.217   7.060  -6.857  1.00  0.00    -0.030 C 
BRANCH  83  89
ATOM     89  C   UNL     1       0.999   6.466  -2.750  1.00  0.00    -0.019 A 
ATOM     90  C   UNL     1       0.673   6.715  -1.398  1.00  0.00     0.006 A 
ATOM     91  C   UNL     1      -0.044   6.066  -3.600  1.00  0.00     0.091 A 
ATOM     92  C   UNL     1      -0.628   6.553  -0.910  1.00  0.00     0.007 A 
ATOM     93  C   UNL     1      -1.361   5.947  -3.117  1.00  0.00     0.269 A 
ATOM     94  C   UNL     1      -1.655   6.178  -1.770  1.00  0.00     0.085 A 
BRANCH  93  95
ATOM     95  N   UNL     1      -2.446   5.608  -4.048  1.00  0.00     0.062 N 
ATOM     96  O   UNL     1      -3.585   5.460  -3.583  1.00  0.00    -0.258 OA
ATOM     97  O   UNL     1      -2.164   5.513  -5.252  1.00  0.00    -0.258 OA
ENDBRANCH  93  95
ENDBRANCH  83  89
ENDBRANCH  72  74
ENDBRANCH  71  72
ENDBRANCH  70  71
ENDBRANCH  69  70
ENDBRANCH  68  69
ENDBRANCH   1  68
TORSDOF 19
