REMARK SMILES O=C(COc1ccccc1/C=C1\C(=O)Nc2ccccc21)OCCOCCOC(=O)c1ccc(-c2c3nc(c(-c4ccc(S(=O)(=O)[O-])cc4)c4ccc([nH]4)c(-c4ccc(S(=O)(=O)[O-])cc4)c4nc(c(-c5ccc(S(=O)(=O)[O-])cc5)c5ccc2[nH]5)C=C4)C=C3)cc1
REMARK SMILES IDX 25 1 24 2 23 3 22 4 2 5 1 6 3 7 4 8 5 9 6 10 10 11 7 12 9 13
REMARK SMILES IDX 8 14 11 15 12 16 13 17 21 18 14 19 15 20 16 21 20 22 17 24
REMARK SMILES IDX 19 25 18 26 26 27 27 28 28 29 29 30 30 31 31 32 32 33 90 34
REMARK SMILES IDX 33 35 89 36 34 37 35 38 36 39 83 40 37 41 88 42 82 43 84 44
REMARK SMILES IDX 38 45 87 46 81 47 80 48 39 50 69 51 50 52 68 53 51 54 54 55
REMARK SMILES IDX 67 56 85 57 52 58 53 59 66 61 86 62 55 63 40 64 41 65 49 66
REMARK SMILES IDX 42 67 48 68 43 69 44 70 45 71 46 72 47 73 70 74 71 75 79 76
REMARK SMILES IDX 72 77 78 78 73 79 74 80 75 81 76 82 77 83 56 84 57 85 65 86
REMARK SMILES IDX 58 87 64 88 59 89 60 90 61 91 62 92 63 93
REMARK H PARENT 15 23 84 49 54 60
REMARK Flexibility Score: inf
ROOT
ATOM      1  O   UNL     1       4.445  -2.047  -0.445  1.00  0.00    -0.374 OA
ENDROOT
BRANCH   1   2
ATOM      2  C   UNL     1       4.993  -1.025   0.368  1.00  0.00     0.202 C 
BRANCH   2   3
ATOM      3  C   UNL     1       4.122   0.143   0.851  1.00  0.00     0.261 C 
BRANCH   3   4
ATOM      4  O   UNL     1       2.706  -0.092   0.920  1.00  0.00    -0.461 OA
BRANCH   4   5
ATOM      5  C   UNL     1       1.831   0.008  -0.109  1.00  0.00     0.344 C 
ATOM      6  O   UNL     1       0.640  -0.236   0.088  1.00  0.00    -0.248 OA
BRANCH   5   7
ATOM      7  C   UNL     1       2.341   0.291  -1.514  1.00  0.00     0.351 C 
BRANCH   7   8
ATOM      8  O   UNL     1       3.389   1.231  -1.603  1.00  0.00    -0.481 OA
BRANCH   8   9
ATOM      9  C   UNL     1       3.024   2.425  -2.150  1.00  0.00     0.127 A 
ATOM     10  C   UNL     1       3.578   2.672  -3.413  1.00  0.00     0.047 A 
ATOM     11  C   UNL     1       2.278   3.405  -1.473  1.00  0.00     0.017 A 
ATOM     12  C   UNL     1       3.405   3.906  -4.025  1.00  0.00     0.004 A 
ATOM     13  C   UNL     1       2.207   4.673  -2.072  1.00  0.00     0.012 A 
ATOM     14  C   UNL     1       2.736   4.915  -3.344  1.00  0.00     0.001 A 
BRANCH  11  15
ATOM     15  C   UNL     1       1.618   3.192  -0.162  1.00  0.00     0.026 C 
ATOM     16  C   UNL     1       0.339   3.504   0.131  1.00  0.00     0.050 C 
ATOM     17  C   UNL     1      -0.675   4.119  -0.816  1.00  0.00     0.256 C 
ATOM     18  C   UNL     1      -0.337   3.407   1.442  1.00  0.00     0.011 A 
ATOM     19  O   UNL     1      -0.618   4.267  -2.020  1.00  0.00    -0.269 OA
ATOM     20  N   UNL     1      -1.744   4.482  -0.019  1.00  0.00    -0.321 N 
ATOM     21  C   UNL     1      -1.571   4.055   1.288  1.00  0.00     0.049 A 
ATOM     22  C   UNL     1      -0.025   2.827   2.659  1.00  0.00     0.011 A 
ATOM     23  H   UNL     1      -2.530   4.981  -0.340  1.00  0.00     0.170 HD
ATOM     24  C   UNL     1      -2.495   4.190   2.306  1.00  0.00     0.027 A 
ATOM     25  C   UNL     1      -0.959   2.929   3.705  1.00  0.00     0.001 A 
ATOM     26  C   UNL     1      -2.178   3.613   3.533  1.00  0.00     0.002 A 
ENDBRANCH  11  15
ENDBRANCH   8   9
ENDBRANCH   7   8
ENDBRANCH   5   7
ENDBRANCH   4   5
ENDBRANCH   3   4
ENDBRANCH   2   3
ENDBRANCH   1   2
BRANCH   1  27
ATOM     27  C   UNL     1       3.338  -2.828  -0.018  1.00  0.00     0.202 C 
BRANCH  27  28
ATOM     28  C   UNL     1       3.168  -3.373   1.407  1.00  0.00     0.261 C 
BRANCH  28  29
ATOM     29  O   UNL     1       3.558  -2.502   2.468  1.00  0.00    -0.460 OA
BRANCH  29  30
ATOM     30  C   UNL     1       4.731  -2.848   3.048  1.00  0.00     0.338 C 
ATOM     31  O   UNL     1       5.488  -3.741   2.705  1.00  0.00    -0.246 OA
BRANCH  30  32
ATOM     32  C   UNL     1       5.072  -1.883   4.101  1.00  0.00     0.060 A 
ATOM     33  C   UNL     1       6.324  -1.265   4.029  1.00  0.00     0.016 A 
ATOM     34  C   UNL     1       4.238  -1.704   5.206  1.00  0.00     0.016 A 
ATOM     35  C   UNL     1       6.787  -0.526   5.110  1.00  0.00     0.010 A 
ATOM     36  C   UNL     1       4.707  -0.965   6.293  1.00  0.00     0.010 A 
ATOM     37  C   UNL     1       6.005  -0.426   6.268  1.00  0.00    -0.014 A 
BRANCH  37  38
ATOM     38  C   UNL     1       6.636   0.066   7.511  1.00  0.00     0.031 A 
ATOM     39  C   UNL     1       7.111  -0.941   8.524  1.00  0.00     0.074 A 
ATOM     40  C   UNL     1       6.839   1.381   7.696  1.00  0.00     0.049 A 
ATOM     41  N   UNL     1       7.716  -0.744   9.666  1.00  0.00    -0.248 NA
ATOM     42  C   UNL     1       6.872  -2.360   8.208  1.00  0.00     0.031 C 
ATOM     43  C   UNL     1       6.467   2.433   6.750  1.00  0.00     0.029 A 
ATOM     44  N   UNL     1       7.420   2.052   8.739  1.00  0.00    -0.354 N 
ATOM     45  C   UNL     1       7.915  -2.009  10.211  1.00  0.00     0.074 A 
ATOM     46  C   UNL     1       7.340  -2.964   9.290  1.00  0.00     0.031 C 
ATOM     47  C   UNL     1       6.841   3.621   7.253  1.00  0.00     0.029 A 
ATOM     48  C   UNL     1       7.444   3.414   8.568  1.00  0.00     0.049 A 
ATOM     49  H   UNL     1       7.784   1.601   9.534  1.00  0.00     0.167 HD
ATOM     50  C   UNL     1       8.525  -2.343  11.373  1.00  0.00     0.031 A 
ATOM     51  C   UNL     1       7.896   4.382   9.387  1.00  0.00     0.031 A 
ATOM     52  C   UNL     1       9.085  -1.379  12.283  1.00  0.00     0.049 A 
ATOM     53  C   UNL     1       8.512   3.990  10.704  1.00  0.00     0.074 A 
ATOM     54  C   UNL     1       9.744  -1.605  13.478  1.00  0.00     0.029 A 
ATOM     55  N   UNL     1       9.043  -0.004  12.101  1.00  0.00    -0.354 N 
ATOM     56  N   UNL     1       8.714   2.790  11.197  1.00  0.00    -0.248 NA
ATOM     57  C   UNL     1       8.972   5.083  11.569  1.00  0.00     0.031 C 
ATOM     58  C   UNL     1      10.043  -0.363  14.050  1.00  0.00     0.029 A 
ATOM     59  C   UNL     1       9.636   0.634  13.176  1.00  0.00     0.049 A 
ATOM     60  H   UNL     1       8.650   0.451  11.321  1.00  0.00     0.167 HD
ATOM     61  C   UNL     1       9.356   2.983  12.415  1.00  0.00     0.074 A 
ATOM     62  C   UNL     1       9.518   4.415  12.576  1.00  0.00     0.031 C 
ATOM     63  C   UNL     1       9.781   2.062  13.317  1.00  0.00     0.031 A 
BRANCH  50  64
ATOM     64  C   UNL     1       8.568  -3.803  11.744  1.00  0.00    -0.014 A 
ATOM     65  C   UNL     1       9.357  -4.724  11.031  1.00  0.00     0.010 A 
ATOM     66  C   UNL     1       7.813  -4.259  12.841  1.00  0.00     0.010 A 
ATOM     67  C   UNL     1       9.354  -6.079  11.379  1.00  0.00     0.020 A 
ATOM     68  C   UNL     1       7.831  -5.606  13.212  1.00  0.00     0.020 A 
ATOM     69  C   UNL     1       8.587  -6.512  12.465  1.00  0.00     0.054 A 
BRANCH  69  70
ATOM     70  S   UNL     1       8.607  -8.273  12.901  1.00  0.00     0.124 S 
ATOM     71  O   UNL     1       7.837  -8.862  11.809  1.00  0.00    -0.237 OA
ATOM     72  O   UNL     1      10.034  -8.586  12.903  1.00  0.00    -0.237 OA
ATOM     73  O   UNL     1       7.961  -8.315  14.210  1.00  0.00    -0.744 OA
ENDBRANCH  69  70
ENDBRANCH  50  64
BRANCH  51  74
ATOM     74  C   UNL     1       7.786   5.810   8.983  1.00  0.00    -0.014 A 
ATOM     75  C   UNL     1       8.936   6.561   8.684  1.00  0.00     0.010 A 
ATOM     76  C   UNL     1       6.524   6.424   8.883  1.00  0.00     0.010 A 
ATOM     77  C   UNL     1       8.828   7.903   8.308  1.00  0.00     0.020 A 
ATOM     78  C   UNL     1       6.409   7.757   8.479  1.00  0.00     0.020 A 
ATOM     79  C   UNL     1       7.564   8.491   8.204  1.00  0.00     0.054 A 
BRANCH  79  80
ATOM     80  S   UNL     1       7.446  10.219   7.665  1.00  0.00     0.124 S 
ATOM     81  O   UNL     1       7.949  10.937   8.832  1.00  0.00    -0.237 OA
ATOM     82  O   UNL     1       8.310  10.240   6.487  1.00  0.00    -0.237 OA
ATOM     83  O   UNL     1       6.022  10.394   7.387  1.00  0.00    -0.744 OA
ENDBRANCH  79  80
ENDBRANCH  51  74
BRANCH  63  84
ATOM     84  C   UNL     1      10.501   2.575  14.537  1.00  0.00    -0.014 A 
ATOM     85  C   UNL     1       9.824   3.279  15.549  1.00  0.00     0.010 A 
ATOM     86  C   UNL     1      11.876   2.313  14.686  1.00  0.00     0.010 A 
ATOM     87  C   UNL     1      10.519   3.752  16.665  1.00  0.00     0.020 A 
ATOM     88  C   UNL     1      12.567   2.754  15.816  1.00  0.00     0.020 A 
ATOM     89  C   UNL     1      11.887   3.489  16.789  1.00  0.00     0.054 A 
BRANCH  89  90
ATOM     90  S   UNL     1      12.762   4.093  18.258  1.00  0.00     0.124 S 
ATOM     91  O   UNL     1      12.845   5.527  17.992  1.00  0.00    -0.237 OA
ATOM     92  O   UNL     1      11.868   3.706  19.346  1.00  0.00    -0.237 OA
ATOM     93  O   UNL     1      14.036   3.378  18.222  1.00  0.00    -0.744 OA
ENDBRANCH  89  90
ENDBRANCH  63  84
ENDBRANCH  37  38
ENDBRANCH  30  32
ENDBRANCH  29  30
ENDBRANCH  28  29
ENDBRANCH  27  28
ENDBRANCH   1  27
TORSDOF 20
