REMARK SMILES CS(=O)(=O)c1ccc(N2N=C(C(=O)OCCOCCOC(=O)c3ccc(-c4c5nc(c(-c6ccc(S(=O)(=O)[O-])cc6)c6ccc([nH]6)c(-c6ccc(S(=O)(=O)[O-])cc6)c6nc(c(-c7ccc(S(=O)(=O)[O-])cc7)c7ccc4[nH]7)C=C6)C=C5)cc3)C[C@H]2c2ccco2)cc1
REMARK SMILES IDX 18 1 17 2 16 3 15 4 14 5 12 6 13 7 11 8 9 9 10 10 84 11
REMARK SMILES IDX 83 12 8 13 5 14 6 15 91 16 7 17 90 18 2 19 1 20 3 21 4 22
REMARK SMILES IDX 85 23 86 24 89 25 87 26 88 27 19 28 20 29 21 30 22 31 23 32
REMARK SMILES IDX 24 33 82 34 25 35 81 36 26 37 27 38 28 39 75 40 29 41 80 42
REMARK SMILES IDX 74 43 76 44 30 45 79 46 73 47 72 48 31 50 61 51 42 52 60 53
REMARK SMILES IDX 43 54 46 55 59 56 77 57 44 58 45 59 58 61 78 62 47 63 32 64
REMARK SMILES IDX 33 65 41 66 34 67 40 68 35 69 36 70 37 71 38 72 39 73 62 74
REMARK SMILES IDX 63 75 71 76 64 77 70 78 65 79 66 80 67 81 68 82 69 83 48 84
REMARK SMILES IDX 49 85 57 86 50 87 56 88 51 89 52 90 53 91 54 92 55 93
REMARK H PARENT 76 49 46 60
REMARK Flexibility Score: inf
ROOT
ATOM      1  C   UNL     1       0.963  -6.141  -9.238  1.00  0.00     0.202 C 
ENDROOT
BRANCH   1   2
ATOM      2  O   UNL     1       0.211  -5.871 -10.425  1.00  0.00    -0.374 OA
BRANCH   2   3
ATOM      3  C   UNL     1       0.941  -5.273 -11.504  1.00  0.00     0.202 C 
BRANCH   3   4
ATOM      4  C   UNL     1       0.979  -3.747 -11.402  1.00  0.00     0.261 C 
BRANCH   4   5
ATOM      5  O   UNL     1       1.854  -3.402 -10.318  1.00  0.00    -0.459 OA
BRANCH   5   6
ATOM      6  C   UNL     1       1.465  -2.351  -9.574  1.00  0.00     0.354 C 
ATOM      7  O   UNL     1       0.641  -1.500  -9.841  1.00  0.00    -0.245 OA
BRANCH   6   8
ATOM      8  C   UNL     1       2.109  -2.495  -8.222  1.00  0.00     0.148 C 
ATOM      9  N   UNL     1       2.338  -2.656  -6.124  1.00  0.00    -0.254 N 
ATOM     10  N   UNL     1       1.429  -2.432  -7.118  1.00  0.00    -0.169 NA
ATOM     11  C   UNL     1       3.724  -2.504  -6.603  1.00  0.00     0.180 C 
ATOM     12  C   UNL     1       3.554  -2.863  -8.087  1.00  0.00     0.101 C 
BRANCH   9  13
ATOM     13  C   UNL     1       1.951  -2.396  -4.817  1.00  0.00     0.060 A 
ATOM     14  C   UNL     1       1.000  -1.921  -2.222  1.00  0.00     0.067 A 
ATOM     15  C   UNL     1       1.362  -3.215  -2.603  1.00  0.00     0.022 A 
ATOM     16  C   UNL     1       1.115  -0.859  -3.120  1.00  0.00     0.022 A 
ATOM     17  C   UNL     1       1.839  -3.445  -3.897  1.00  0.00     0.029 A 
ATOM     18  C   UNL     1       1.584  -1.105  -4.412  1.00  0.00     0.029 A 
BRANCH  14  19
ATOM     19  S   UNL     1       0.379  -1.648  -0.581  1.00  0.00     0.175 S 
ATOM     20  C   UNL     1       1.094  -0.117  -0.047  1.00  0.00     0.163 C 
ATOM     21  O   UNL     1       0.935  -2.685   0.269  1.00  0.00    -0.224 OA
ATOM     22  O   UNL     1      -1.054  -1.461  -0.693  1.00  0.00    -0.224 OA
ENDBRANCH  14  19
ENDBRANCH   9  13
BRANCH  11  23
ATOM     23  C   UNL     1       4.339  -1.142  -6.431  1.00  0.00     0.128 A 
ATOM     24  C   UNL     1       5.022  -0.540  -5.391  1.00  0.00     0.048 A 
ATOM     25  O   UNL     1       4.229  -0.262  -7.472  1.00  0.00    -0.467 OA
ATOM     26  C   UNL     1       5.348   0.768  -5.827  1.00  0.00     0.042 A 
ATOM     27  C   UNL     1       4.849   0.884  -7.102  1.00  0.00     0.195 A 
ENDBRANCH  11  23
ENDBRANCH   6   8
ENDBRANCH   5   6
ENDBRANCH   4   5
ENDBRANCH   3   4
ENDBRANCH   2   3
ENDBRANCH   1   2
BRANCH   1  28
ATOM     28  C   UNL     1       1.600  -7.533  -9.230  1.00  0.00     0.261 C 
BRANCH  28  29
ATOM     29  O   UNL     1       2.707  -7.583 -10.149  1.00  0.00    -0.460 OA
BRANCH  29  30
ATOM     30  C   UNL     1       2.482  -8.292 -11.283  1.00  0.00     0.338 C 
ATOM     31  O   UNL     1       1.501  -8.966 -11.541  1.00  0.00    -0.246 OA
BRANCH  30  32
ATOM     32  C   UNL     1       3.550  -8.015 -12.271  1.00  0.00     0.060 A 
ATOM     33  C   UNL     1       3.175  -7.936 -13.617  1.00  0.00     0.016 A 
ATOM     34  C   UNL     1       4.893  -7.860 -11.906  1.00  0.00     0.016 A 
ATOM     35  C   UNL     1       4.140  -7.744 -14.604  1.00  0.00     0.010 A 
ATOM     36  C   UNL     1       5.862  -7.675 -12.899  1.00  0.00     0.010 A 
ATOM     37  C   UNL     1       5.492  -7.644 -14.254  1.00  0.00    -0.014 A 
BRANCH  37  38
ATOM     38  C   UNL     1       6.519  -7.643 -15.322  1.00  0.00     0.031 A 
ATOM     39  C   UNL     1       7.125  -8.949 -15.754  1.00  0.00     0.074 A 
ATOM     40  C   UNL     1       6.880  -6.500 -15.932  1.00  0.00     0.049 A 
ATOM     41  N   UNL     1       8.002  -9.181 -16.696  1.00  0.00    -0.248 NA
ATOM     42  C   UNL     1       6.680 -10.152 -15.031  1.00  0.00     0.031 C 
ATOM     43  C   UNL     1       6.349  -5.171 -15.627  1.00  0.00     0.029 A 
ATOM     44  N   UNL     1       7.780  -6.279 -16.944  1.00  0.00    -0.354 N 
ATOM     45  C   UNL     1       8.208 -10.555 -16.688  1.00  0.00     0.074 A 
ATOM     46  C   UNL     1       7.385 -11.102 -15.630  1.00  0.00     0.031 C 
ATOM     47  C   UNL     1       6.939  -4.272 -16.434  1.00  0.00     0.029 A 
ATOM     48  C   UNL     1       7.894  -4.958 -17.302  1.00  0.00     0.049 A 
ATOM     49  H   UNL     1       8.296  -7.000 -17.373  1.00  0.00     0.167 HD
ATOM     50  C   UNL     1       9.003 -11.300 -17.492  1.00  0.00     0.031 A 
ATOM     51  C   UNL     1       8.685  -4.368 -18.220  1.00  0.00     0.031 A 
ATOM     52  C   UNL     1       9.840 -10.765 -18.530  1.00  0.00     0.049 A 
ATOM     53  C   UNL     1       9.607  -5.208 -19.061  1.00  0.00     0.074 A 
ATOM     54  C   UNL     1      10.676 -11.445 -19.399  1.00  0.00     0.029 A 
ATOM     55  N   UNL     1       9.955  -9.419 -18.835  1.00  0.00    -0.354 N 
ATOM     56  N   UNL     1       9.766  -6.510 -19.058  1.00  0.00    -0.248 NA
ATOM     57  C   UNL     1      10.451  -4.497 -20.033  1.00  0.00     0.031 C 
ATOM     58  C   UNL     1      11.324 -10.503 -20.208  1.00  0.00     0.029 A 
ATOM     59  C   UNL     1      10.864  -9.242 -19.863  1.00  0.00     0.049 A 
ATOM     60  H   UNL     1       9.463  -8.694 -18.386  1.00  0.00     0.167 HD
ATOM     61  C   UNL     1      10.717  -6.775 -20.038  1.00  0.00     0.074 A 
ATOM     62  C   UNL     1      11.091  -5.502 -20.618  1.00  0.00     0.031 C 
ATOM     63  C   UNL     1      11.230  -7.969 -20.425  1.00  0.00     0.031 A 
BRANCH  50  64
ATOM     64  C   UNL     1       9.016 -12.782 -17.252  1.00  0.00    -0.014 A 
ATOM     65  C   UNL     1       7.958 -13.591 -17.702  1.00  0.00     0.010 A 
ATOM     66  C   UNL     1      10.097 -13.371 -16.575  1.00  0.00     0.010 A 
ATOM     67  C   UNL     1       7.963 -14.964 -17.444  1.00  0.00     0.020 A 
ATOM     68  C   UNL     1      10.113 -14.746 -16.329  1.00  0.00     0.020 A 
ATOM     69  C   UNL     1       9.035 -15.531 -16.748  1.00  0.00     0.054 A 
BRANCH  69  70
ATOM     70  S   UNL     1       9.024 -17.315 -16.419  1.00  0.00     0.124 S 
ATOM     71  O   UNL     1       8.135 -17.400 -15.263  1.00  0.00    -0.237 OA
ATOM     72  O   UNL     1       8.495 -17.872 -17.661  1.00  0.00    -0.237 OA
ATOM     73  O   UNL     1      10.427 -17.623 -16.151  1.00  0.00    -0.744 OA
ENDBRANCH  69  70
ENDBRANCH  50  64
BRANCH  51  74
ATOM     74  C   UNL     1       8.648  -2.893 -18.383  1.00  0.00    -0.014 A 
ATOM     75  C   UNL     1       7.999  -2.310 -19.485  1.00  0.00     0.010 A 
ATOM     76  C   UNL     1       9.260  -2.064 -17.426  1.00  0.00     0.010 A 
ATOM     77  C   UNL     1       7.967  -0.920 -19.630  1.00  0.00     0.020 A 
ATOM     78  C   UNL     1       9.216  -0.674 -17.560  1.00  0.00     0.020 A 
ATOM     79  C   UNL     1       8.576  -0.111 -18.666  1.00  0.00     0.054 A 
BRANCH  79  80
ATOM     80  S   UNL     1       8.472   1.694 -18.829  1.00  0.00     0.124 S 
ATOM     81  O   UNL     1       9.558   1.977 -19.761  1.00  0.00    -0.237 OA
ATOM     82  O   UNL     1       7.121   1.892 -19.350  1.00  0.00    -0.237 OA
ATOM     83  O   UNL     1       8.676   2.166 -17.461  1.00  0.00    -0.744 OA
ENDBRANCH  79  80
ENDBRANCH  51  74
BRANCH  63  84
ATOM     84  C   UNL     1      12.242  -7.958 -21.536  1.00  0.00    -0.014 A 
ATOM     85  C   UNL     1      13.578  -7.595 -21.291  1.00  0.00     0.010 A 
ATOM     86  C   UNL     1      11.865  -8.369 -22.827  1.00  0.00     0.010 A 
ATOM     87  C   UNL     1      14.517  -7.623 -22.325  1.00  0.00     0.020 A 
ATOM     88  C   UNL     1      12.805  -8.413 -23.860  1.00  0.00     0.020 A 
ATOM     89  C   UNL     1      14.124  -8.028 -23.605  1.00  0.00     0.054 A 
BRANCH  89  90
ATOM     90  S   UNL     1      15.366  -8.106 -24.925  1.00  0.00     0.124 S 
ATOM     91  O   UNL     1      15.438  -6.713 -25.356  1.00  0.00    -0.237 OA
ATOM     92  O   UNL     1      16.549  -8.612 -24.232  1.00  0.00    -0.237 OA
ATOM     93  O   UNL     1      14.778  -9.030 -25.893  1.00  0.00    -0.744 OA
ENDBRANCH  89  90
ENDBRANCH  63  84
ENDBRANCH  37  38
ENDBRANCH  30  32
ENDBRANCH  29  30
ENDBRANCH  28  29
ENDBRANCH   1  28
TORSDOF 20
