REMARK SMILES C[NH+](C)[C@@H]1CC[N@@H+](Cc2ccc(C(=O)OCCOCCOC(=O)c3ccc(-c4c5nc(c(-c6ccc(S(=O)(=O)[O-])cc6)c6ccc([nH]6)c(-c6ccc(S(=O)(=O)[O-])cc6)c6nc(c(-c7ccc(S(=O)(=O)[O-])cc7)c7ccc4[nH]7)C=C6)C=C5)cc3)cn2)C1
REMARK SMILES IDX 18 1 17 2 16 3 15 4 13 5 14 6 12 7 9 8 10 9 85 10 11 11
REMARK SMILES IDX 84 12 8 13 7 14 4 15 5 16 86 17 6 18 2 20 1 21 3 22 19 24
REMARK SMILES IDX 20 25 21 26 22 27 23 28 24 29 25 30 83 31 26 32 82 33 27 34
REMARK SMILES IDX 28 35 29 36 76 37 30 38 81 39 75 40 77 41 31 42 80 43 74 44
REMARK SMILES IDX 73 45 32 47 62 48 43 49 61 50 44 51 47 52 60 53 78 54 45 55
REMARK SMILES IDX 46 56 59 58 79 59 48 60 33 61 34 62 42 63 35 64 41 65 36 66
REMARK SMILES IDX 37 67 38 68 39 69 40 70 63 71 64 72 72 73 65 74 71 75 66 76
REMARK SMILES IDX 67 77 68 78 69 79 70 80 49 81 50 82 58 83 51 84 57 85 52 86
REMARK SMILES IDX 53 87 54 88 55 89 56 90
REMARK H PARENT 7 19 2 23 77 46 47 57
REMARK Flexibility Score: inf
ROOT
ATOM      1  O   UNL     1       4.799  -1.781   9.675  1.00  0.00    -0.374 OA
ENDROOT
BRANCH   1   2
ATOM      2  C   UNL     1       3.817  -0.781   9.952  1.00  0.00     0.202 C 
BRANCH   2   3
ATOM      3  C   UNL     1       3.577   0.292   8.887  1.00  0.00     0.261 C 
BRANCH   3   4
ATOM      4  O   UNL     1       3.077  -0.296   7.680  1.00  0.00    -0.460 OA
BRANCH   4   5
ATOM      5  C   UNL     1       3.948  -0.301   6.646  1.00  0.00     0.339 C 
ATOM      6  O   UNL     1       5.015   0.290   6.577  1.00  0.00    -0.246 OA
BRANCH   5   7
ATOM      7  C   UNL     1       3.519  -1.291   5.645  1.00  0.00     0.078 A 
ATOM      8  C   UNL     1       2.942  -3.038   3.615  1.00  0.00     0.095 A 
ATOM      9  C   UNL     1       1.920  -2.657   4.485  1.00  0.00     0.031 A 
ATOM     10  N   UNL     1       4.239  -2.684   3.814  1.00  0.00    -0.254 NA
ATOM     11  C   UNL     1       2.212  -1.759   5.509  1.00  0.00     0.019 A 
ATOM     12  C   UNL     1       4.498  -1.819   4.817  1.00  0.00     0.127 A 
BRANCH   8  13
ATOM     13  C   UNL     1       2.619  -3.666   2.273  1.00  0.00     0.319 C 
BRANCH  13  14
ATOM     14  N   UNL     1       2.240  -2.734   1.188  1.00  0.00    -0.325 N 
ATOM     15  C   UNL     1       1.148  -0.623   1.781  1.00  0.00     0.245 C 
ATOM     16  C   UNL     1       2.667  -0.430   1.741  1.00  0.00     0.132 C 
ATOM     17  C   UNL     1       0.927  -2.096   1.348  1.00  0.00     0.328 C 
ATOM     18  C   UNL     1       3.194  -1.635   0.975  1.00  0.00     0.269 C 
ATOM     19  H   UNL     1       2.229  -3.366   0.387  1.00  0.00     0.348 HD
BRANCH  15  20
ATOM     20  N   UNL     1       0.410   0.423   1.048  1.00  0.00    -0.333 N 
ATOM     21  C   UNL     1       0.715   0.487  -0.380  1.00  0.00     0.332 C 
ATOM     22  C   UNL     1      -1.033   0.322   1.265  1.00  0.00     0.332 C 
ATOM     23  H   UNL     1       0.742   1.302   1.445  1.00  0.00     0.348 HD
ENDBRANCH  15  20
ENDBRANCH  13  14
ENDBRANCH   8  13
ENDBRANCH   5   7
ENDBRANCH   4   5
ENDBRANCH   3   4
ENDBRANCH   2   3
ENDBRANCH   1   2
BRANCH   1  24
ATOM     24  C   UNL     1       4.451  -2.842   8.787  1.00  0.00     0.202 C 
BRANCH  24  25
ATOM     25  C   UNL     1       3.509  -3.944   9.289  1.00  0.00     0.261 C 
BRANCH  25  26
ATOM     26  O   UNL     1       2.214  -3.454   9.669  1.00  0.00    -0.460 OA
BRANCH  26  27
ATOM     27  C   UNL     1       2.017  -3.395  11.010  1.00  0.00     0.338 C 
ATOM     28  O   UNL     1       2.790  -3.749  11.884  1.00  0.00    -0.246 OA
BRANCH  27  29
ATOM     29  C   UNL     1       0.778  -2.651  11.303  1.00  0.00     0.060 A 
ATOM     30  C   UNL     1       0.878  -1.541  12.151  1.00  0.00     0.016 A 
ATOM     31  C   UNL     1      -0.462  -3.074  10.824  1.00  0.00     0.016 A 
ATOM     32  C   UNL     1      -0.273  -0.876  12.565  1.00  0.00     0.010 A 
ATOM     33  C   UNL     1      -1.617  -2.408  11.247  1.00  0.00     0.010 A 
ATOM     34  C   UNL     1      -1.530  -1.330  12.147  1.00  0.00    -0.014 A 
BRANCH  34  35
ATOM     35  C   UNL     1      -2.753  -0.754  12.756  1.00  0.00     0.031 A 
ATOM     36  C   UNL     1      -3.491  -1.538  13.807  1.00  0.00     0.074 A 
ATOM     37  C   UNL     1      -3.184   0.469  12.398  1.00  0.00     0.049 A 
ATOM     38  N   UNL     1      -4.590  -1.233  14.448  1.00  0.00    -0.248 NA
ATOM     39  C   UNL     1      -2.914  -2.839  14.183  1.00  0.00     0.031 C 
ATOM     40  C   UNL     1      -2.535   1.339  11.419  1.00  0.00     0.029 A 
ATOM     41  N   UNL     1      -4.276   1.187  12.817  1.00  0.00    -0.354 N 
ATOM     42  C   UNL     1      -4.840  -2.304  15.299  1.00  0.00     0.074 A 
ATOM     43  C   UNL     1      -3.801  -3.283  15.061  1.00  0.00     0.031 C 
ATOM     44  C   UNL     1      -3.248   2.472  11.304  1.00  0.00     0.029 A 
ATOM     45  C   UNL     1      -4.420   2.391  12.172  1.00  0.00     0.049 A 
ATOM     46  H   UNL     1      -4.896   0.869  13.512  1.00  0.00     0.167 HD
ATOM     47  C   UNL     1      -5.837  -2.454  16.204  1.00  0.00     0.031 A 
ATOM     48  C   UNL     1      -5.400   3.313  12.252  1.00  0.00     0.031 A 
ATOM     49  C   UNL     1      -6.882  -1.487  16.419  1.00  0.00     0.049 A 
ATOM     50  C   UNL     1      -6.541   3.094  13.209  1.00  0.00     0.074 A 
ATOM     51  C   UNL     1      -7.936  -1.542  17.314  1.00  0.00     0.029 A 
ATOM     52  N   UNL     1      -7.011  -0.292  15.724  1.00  0.00    -0.354 N 
ATOM     53  N   UNL     1      -6.753   2.087  14.023  1.00  0.00    -0.248 NA
ATOM     54  C   UNL     1      -7.569   4.143  13.268  1.00  0.00     0.031 C 
ATOM     55  C   UNL     1      -8.737  -0.412  17.116  1.00  0.00     0.029 A 
ATOM     56  C   UNL     1      -8.143   0.384  16.150  1.00  0.00     0.049 A 
ATOM     57  H   UNL     1      -6.390   0.027  15.030  1.00  0.00     0.167 HD
ATOM     58  C   UNL     1      -7.925   2.391  14.708  1.00  0.00     0.074 A 
ATOM     59  C   UNL     1      -8.365   3.685  14.225  1.00  0.00     0.031 C 
ATOM     60  C   UNL     1      -8.577   1.667  15.652  1.00  0.00     0.031 A 
BRANCH  47  61
ATOM     61  C   UNL     1      -5.861  -3.733  17.002  1.00  0.00    -0.014 A 
ATOM     62  C   UNL     1      -4.874  -4.012  17.966  1.00  0.00     0.010 A 
ATOM     63  C   UNL     1      -6.896  -4.664  16.799  1.00  0.00     0.010 A 
ATOM     64  C   UNL     1      -4.893  -5.218  18.672  1.00  0.00     0.020 A 
ATOM     65  C   UNL     1      -6.938  -5.857  17.527  1.00  0.00     0.020 A 
ATOM     66  C   UNL     1      -5.923  -6.135  18.445  1.00  0.00     0.054 A 
BRANCH  66  67
ATOM     67  S   UNL     1      -5.923  -7.691  19.377  1.00  0.00     0.124 S 
ATOM     68  O   UNL     1      -4.800  -8.404  18.773  1.00  0.00    -0.237 OA
ATOM     69  O   UNL     1      -5.715  -7.241  20.751  1.00  0.00    -0.237 OA
ATOM     70  O   UNL     1      -7.241  -8.260  19.103  1.00  0.00    -0.744 OA
ENDBRANCH  66  67
ENDBRANCH  47  61
BRANCH  48  71
ATOM     71  C   UNL     1      -5.349   4.516  11.376  1.00  0.00    -0.014 A 
ATOM     72  C   UNL     1      -5.113   5.793  11.911  1.00  0.00     0.010 A 
ATOM     73  C   UNL     1      -5.511   4.377   9.984  1.00  0.00     0.010 A 
ATOM     74  C   UNL     1      -5.046   6.910  11.072  1.00  0.00     0.020 A 
ATOM     75  C   UNL     1      -5.414   5.485   9.140  1.00  0.00     0.020 A 
ATOM     76  C   UNL     1      -5.189   6.747   9.691  1.00  0.00     0.054 A 
BRANCH  76  77
ATOM     77  S   UNL     1      -5.024   8.199   8.616  1.00  0.00     0.124 S 
ATOM     78  O   UNL     1      -6.253   8.932   8.903  1.00  0.00    -0.237 OA
ATOM     79  O   UNL     1      -3.792   8.812   9.105  1.00  0.00    -0.237 OA
ATOM     80  O   UNL     1      -4.936   7.624   7.276  1.00  0.00    -0.744 OA
ENDBRANCH  76  77
ENDBRANCH  48  71
BRANCH  60  81
ATOM     81  C   UNL     1      -9.824   2.268  16.252  1.00  0.00    -0.014 A 
ATOM     82  C   UNL     1     -11.009   2.396  15.505  1.00  0.00     0.010 A 
ATOM     83  C   UNL     1      -9.820   2.669  17.601  1.00  0.00     0.010 A 
ATOM     84  C   UNL     1     -12.155   2.948  16.086  1.00  0.00     0.020 A 
ATOM     85  C   UNL     1     -10.973   3.191  18.194  1.00  0.00     0.020 A 
ATOM     86  C   UNL     1     -12.129   3.342  17.427  1.00  0.00     0.054 A 
BRANCH  86  87
ATOM     87  S   UNL     1     -13.639   4.023  18.166  1.00  0.00     0.124 S 
ATOM     88  O   UNL     1     -13.725   5.334  17.528  1.00  0.00    -0.237 OA
ATOM     89  O   UNL     1     -14.658   3.058  17.758  1.00  0.00    -0.237 OA
ATOM     90  O   UNL     1     -13.348   4.045  19.597  1.00  0.00    -0.744 OA
ENDBRANCH  86  87
ENDBRANCH  60  81
ENDBRANCH  34  35
ENDBRANCH  27  29
ENDBRANCH  26  27
ENDBRANCH  25  26
ENDBRANCH  24  25
ENDBRANCH   1  24
TORSDOF 20
