REMARK SMILES Cc1n[nH]c(CN(C)C(=O)N[C@](C)(C(=O)OCCOCCOC(=O)c2ccc(-c3c4nc(c(-c5ccc(S(=O)(=O)[O-])cc5)c5ccc([nH]5)c(-c5ccc(S(=O)(=O)[O-])cc5)c5nc(c(-c6ccc(S(=O)(=O)[O-])cc6)c6ccc3[nH]6)C=C5)C=C4)cc2)C(F)(F)F)n1
REMARK SMILES IDX 18 1 17 2 16 3 14 4 15 5 12 6 13 7 11 8 9 9 10 10 7 12 8 13
REMARK SMILES IDX 6 14 5 15 1 16 2 17 3 18 89 19 4 20 85 22 86 23 87 24 88 25
REMARK SMILES IDX 19 26 20 27 21 28 22 29 23 30 24 31 25 32 26 33 84 34 27 35
REMARK SMILES IDX 83 36 28 37 29 38 30 39 77 40 31 41 82 42 76 43 78 44 32 45
REMARK SMILES IDX 81 46 75 47 74 48 33 50 63 51 44 52 62 53 45 54 48 55 61 56
REMARK SMILES IDX 79 57 46 58 47 59 60 61 80 62 49 63 34 64 35 65 43 66 36 67
REMARK SMILES IDX 42 68 37 69 38 70 39 71 40 72 41 73 64 74 65 75 73 76 66 77
REMARK SMILES IDX 72 78 67 79 68 80 69 81 70 82 71 83 50 84 51 85 59 86 52 87
REMARK SMILES IDX 58 88 53 89 54 90 55 91 56 92 57 93
REMARK H PARENT 11 11 4 21 78 49 48 60
REMARK Flexibility Score: inf
ROOT
ATOM      1  C   UNL     1       4.775   5.447   3.676  1.00  0.00     0.202 C 
ENDROOT
BRANCH   1   2
ATOM      2  C   UNL     1       4.412   5.837   5.111  1.00  0.00     0.261 C 
BRANCH   2   3
ATOM      3  O   UNL     1       3.928   4.651   5.774  1.00  0.00    -0.461 OA
BRANCH   3   4
ATOM      4  C   UNL     1       2.690   4.662   6.338  1.00  0.00     0.341 C 
ATOM      5  O   UNL     1       2.105   5.691   6.649  1.00  0.00    -0.249 OA
BRANCH   4   6
ATOM      6  C   UNL     1       2.170   3.224   6.607  1.00  0.00     0.232 C 
ATOM      7  C   UNL     1       3.056   2.199   5.876  1.00  0.00     0.058 C 
BRANCH   6   8
ATOM      8  N   UNL     1       2.169   3.061   8.092  1.00  0.00    -0.315 N 
ATOM      9  C   UNL     1       2.159   2.088   9.012  1.00  0.00     0.318 C 
ATOM     10  O   UNL     1       2.108   2.495  10.181  1.00  0.00    -0.249 OA
ATOM     11  H   UNL     1       2.178   3.942   8.530  1.00  0.00     0.166 HD
BRANCH   9  12
ATOM     12  N   UNL     1       2.273   0.758   8.747  1.00  0.00    -0.320 N 
ATOM     13  C   UNL     1       1.969   0.013   7.542  1.00  0.00     0.149 C 
BRANCH  12  14
ATOM     14  C   UNL     1       2.676  -0.091   9.868  1.00  0.00     0.197 C 
BRANCH  14  15
ATOM     15  C   UNL     1       4.054   0.238  10.323  1.00  0.00     0.144 A 
ATOM     16  C   UNL     1       7.552   0.729  10.299  1.00  0.00     0.092 C 
ATOM     17  C   UNL     1       6.113   0.598  10.596  1.00  0.00     0.147 A 
ATOM     18  N   UNL     1       5.604   0.889  11.799  1.00  0.00    -0.159 NA
ATOM     19  N   UNL     1       5.193   0.188   9.662  1.00  0.00    -0.215 NA
ATOM     20  N   UNL     1       4.296   0.679  11.592  1.00  0.00    -0.262 N 
ATOM     21  H   UNL     1       3.597   0.825  12.270  1.00  0.00     0.192 HD
ENDBRANCH  14  15
ENDBRANCH  12  14
ENDBRANCH   9  12
ENDBRANCH   6   8
BRANCH   6  22
ATOM     22  C   UNL     1       0.730   3.248   6.041  1.00  0.00     0.422 C 
ATOM     23  F   UNL     1       0.707   3.379   4.695  1.00  0.00    -0.168 F 
ATOM     24  F   UNL     1       0.058   2.104   6.314  1.00  0.00    -0.168 F 
ATOM     25  F   UNL     1      -0.028   4.243   6.557  1.00  0.00    -0.168 F 
ENDBRANCH   6  22
ENDBRANCH   4   6
ENDBRANCH   3   4
ENDBRANCH   2   3
ENDBRANCH   1   2
BRANCH   1  26
ATOM     26  O   UNL     1       3.679   5.461   2.752  1.00  0.00    -0.374 OA
BRANCH  26  27
ATOM     27  C   UNL     1       2.748   4.385   2.805  1.00  0.00     0.202 C 
BRANCH  27  28
ATOM     28  C   UNL     1       3.122   3.110   2.055  1.00  0.00     0.261 C 
BRANCH  28  29
ATOM     29  O   UNL     1       4.257   2.481   2.636  1.00  0.00    -0.460 OA
BRANCH  29  30
ATOM     30  C   UNL     1       5.445   2.810   2.080  1.00  0.00     0.338 C 
ATOM     31  O   UNL     1       5.654   3.666   1.236  1.00  0.00    -0.246 OA
BRANCH  30  32
ATOM     32  C   UNL     1       6.449   1.863   2.577  1.00  0.00     0.060 A 
ATOM     33  C   UNL     1       7.612   1.758   1.815  1.00  0.00     0.016 A 
ATOM     34  C   UNL     1       6.113   0.918   3.561  1.00  0.00     0.016 A 
ATOM     35  C   UNL     1       8.291   0.564   1.842  1.00  0.00     0.010 A 
ATOM     36  C   UNL     1       6.784  -0.279   3.577  1.00  0.00     0.010 A 
ATOM     37  C   UNL     1       7.793  -0.470   2.640  1.00  0.00    -0.014 A 
BRANCH  37  38
ATOM     38  C   UNL     1       8.379  -1.779   2.480  1.00  0.00     0.031 A 
ATOM     39  C   UNL     1       9.680  -1.910   3.154  1.00  0.00     0.074 A 
ATOM     40  C   UNL     1       7.750  -2.772   1.827  1.00  0.00     0.049 A 
ATOM     41  N   UNL     1      10.847  -1.890   2.607  1.00  0.00    -0.248 NA
ATOM     42  C   UNL     1       9.690  -1.831   4.622  1.00  0.00     0.031 C 
ATOM     43  C   UNL     1       6.360  -2.816   1.364  1.00  0.00     0.029 A 
ATOM     44  N   UNL     1       8.213  -4.013   1.534  1.00  0.00    -0.354 N 
ATOM     45  C   UNL     1      11.741  -2.039   3.658  1.00  0.00     0.074 A 
ATOM     46  C   UNL     1      10.999  -1.751   4.859  1.00  0.00     0.031 C 
ATOM     47  C   UNL     1       6.035  -4.096   1.065  1.00  0.00     0.029 A 
ATOM     48  C   UNL     1       7.225  -4.923   1.186  1.00  0.00     0.049 A 
ATOM     49  H   UNL     1       9.169  -4.249   1.565  1.00  0.00     0.167 HD
ATOM     50  C   UNL     1      12.927  -2.683   3.486  1.00  0.00     0.031 A 
ATOM     51  C   UNL     1       7.373  -6.268   1.085  1.00  0.00     0.031 A 
ATOM     52  C   UNL     1      13.236  -2.860   2.089  1.00  0.00     0.049 A 
ATOM     53  C   UNL     1       8.823  -6.543   0.922  1.00  0.00     0.074 A 
ATOM     54  C   UNL     1      13.481  -2.018   1.025  1.00  0.00     0.029 A 
ATOM     55  N   UNL     1      12.938  -4.092   1.553  1.00  0.00    -0.354 N 
ATOM     56  N   UNL     1       9.500  -6.191  -0.136  1.00  0.00    -0.248 NA
ATOM     57  C   UNL     1       9.626  -6.794   2.110  1.00  0.00     0.031 C 
ATOM     58  C   UNL     1      12.925  -2.676  -0.111  1.00  0.00     0.029 A 
ATOM     59  C   UNL     1      12.412  -3.909   0.301  1.00  0.00     0.049 A 
ATOM     60  H   UNL     1      13.079  -4.960   1.995  1.00  0.00     0.167 HD
ATOM     61  C   UNL     1      10.726  -5.757   0.349  1.00  0.00     0.074 A 
ATOM     62  C   UNL     1      10.790  -6.265   1.717  1.00  0.00     0.031 C 
ATOM     63  C   UNL     1      11.437  -4.792  -0.308  1.00  0.00     0.031 A 
BRANCH  50  64
ATOM     64  C   UNL     1      13.550  -3.556   4.551  1.00  0.00    -0.014 A 
ATOM     65  C   UNL     1      14.762  -4.209   4.252  1.00  0.00     0.010 A 
ATOM     66  C   UNL     1      12.856  -3.993   5.699  1.00  0.00     0.010 A 
ATOM     67  C   UNL     1      15.193  -5.314   4.997  1.00  0.00     0.020 A 
ATOM     68  C   UNL     1      13.300  -5.062   6.475  1.00  0.00     0.020 A 
ATOM     69  C   UNL     1      14.442  -5.746   6.090  1.00  0.00     0.054 A 
BRANCH  69  70
ATOM     70  S   UNL     1      14.916  -7.261   6.952  1.00  0.00     0.124 S 
ATOM     71  O   UNL     1      14.679  -8.272   5.926  1.00  0.00    -0.237 OA
ATOM     72  O   UNL     1      16.314  -7.003   7.282  1.00  0.00    -0.237 OA
ATOM     73  O   UNL     1      14.006  -7.302   8.094  1.00  0.00    -0.744 OA
ENDBRANCH  69  70
ENDBRANCH  50  64
BRANCH  51  74
ATOM     74  C   UNL     1       6.382  -7.312   1.438  1.00  0.00    -0.014 A 
ATOM     75  C   UNL     1       6.519  -8.641   0.998  1.00  0.00     0.010 A 
ATOM     76  C   UNL     1       5.423  -7.049   2.439  1.00  0.00     0.010 A 
ATOM     77  C   UNL     1       5.753  -9.674   1.570  1.00  0.00     0.020 A 
ATOM     78  C   UNL     1       4.654  -8.069   3.009  1.00  0.00     0.020 A 
ATOM     79  C   UNL     1       4.835  -9.382   2.584  1.00  0.00     0.054 A 
BRANCH  79  80
ATOM     80  S   UNL     1       3.957 -10.736   3.422  1.00  0.00     0.124 S 
ATOM     81  O   UNL     1       3.050 -11.209   2.381  1.00  0.00    -0.237 OA
ATOM     82  O   UNL     1       5.040 -11.646   3.780  1.00  0.00    -0.237 OA
ATOM     83  O   UNL     1       3.308 -10.076   4.554  1.00  0.00    -0.744 OA
ENDBRANCH  79  80
ENDBRANCH  51  74
BRANCH  63  84
ATOM     84  C   UNL     1      11.029  -4.460  -1.725  1.00  0.00    -0.014 A 
ATOM     85  C   UNL     1       9.782  -3.902  -2.070  1.00  0.00     0.010 A 
ATOM     86  C   UNL     1      12.006  -4.592  -2.727  1.00  0.00     0.010 A 
ATOM     87  C   UNL     1       9.513  -3.514  -3.391  1.00  0.00     0.020 A 
ATOM     88  C   UNL     1      11.751  -4.190  -4.039  1.00  0.00     0.020 A 
ATOM     89  C   UNL     1      10.502  -3.663  -4.368  1.00  0.00     0.054 A 
BRANCH  89  90
ATOM     90  S   UNL     1      10.167  -3.121  -6.067  1.00  0.00     0.124 S 
ATOM     91  O   UNL     1       9.190  -4.103  -6.527  1.00  0.00    -0.237 OA
ATOM     92  O   UNL     1       9.656  -1.764  -5.882  1.00  0.00    -0.237 OA
ATOM     93  O   UNL     1      11.474  -3.196  -6.721  1.00  0.00    -0.744 OA
ENDBRANCH  89  90
ENDBRANCH  63  84
ENDBRANCH  37  38
ENDBRANCH  30  32
ENDBRANCH  29  30
ENDBRANCH  28  29
ENDBRANCH  27  28
ENDBRANCH  26  27
ENDBRANCH   1  26
TORSDOF 22
