REMARK SMILES CC(C)(O)C#Cc1ccc(C(=O)N[C@@H](CCC(N)=O)C(=O)OCCOCCOC(=O)c2ccc(-c3c4nc(c(-c5ccc(S(=O)(=O)[O-])cc5)c5ccc([nH]5)c(-c5ccc(S(=O)(=O)[O-])cc5)c5nc(c(-c6ccc(S(=O)(=O)[O-])cc6)c6ccc3[nH]6)C=C5)C=C4)cc2)s1
REMARK SMILES IDX 24 1 23 2 22 3 20 4 21 5 14 6 13 7 11 8 12 9 10 11 7 12 8 13
REMARK SMILES IDX 91 14 9 15 6 16 5 17 2 18 1 19 3 20 4 21 15 23 16 24 17 25
REMARK SMILES IDX 18 26 19 27 25 30 26 31 27 32 28 33 29 34 30 35 31 36 32 37
REMARK SMILES IDX 90 38 33 39 89 40 34 41 35 42 36 43 83 44 37 45 88 46 82 47
REMARK SMILES IDX 84 48 38 49 87 50 81 51 80 52 39 54 69 55 50 56 68 57 51 58
REMARK SMILES IDX 54 59 67 60 85 61 52 62 53 63 66 65 86 66 55 67 40 68 41 69
REMARK SMILES IDX 49 70 42 71 48 72 43 73 44 74 45 75 46 76 47 77 70 78 71 79
REMARK SMILES IDX 79 80 72 81 78 82 73 83 74 84 75 85 76 86 77 87 56 88 57 89
REMARK SMILES IDX 65 90 58 91 64 92 59 93 60 94 61 95 62 96 63 97
REMARK H PARENT 13 10 4 22 18 28 18 29 84 53 54 64
REMARK Flexibility Score: inf
ROOT
ATOM      1  C   UNL     1      -3.505  -6.703   3.866  1.00  0.00     0.202 C 
ENDROOT
BRANCH   1   2
ATOM      2  C   UNL     1      -2.439  -7.325   2.966  1.00  0.00     0.261 C 
BRANCH   2   3
ATOM      3  O   UNL     1      -1.099  -7.112   3.437  1.00  0.00    -0.462 OA
BRANCH   3   4
ATOM      4  C   UNL     1      -0.247  -6.570   2.529  1.00  0.00     0.328 C 
ATOM      5  O   UNL     1      -0.541  -6.293   1.368  1.00  0.00    -0.250 OA
BRANCH   4   6
ATOM      6  C   UNL     1       1.195  -6.446   3.046  1.00  0.00     0.193 C 
BRANCH   6   7
ATOM      7  N   UNL     1       1.427  -6.519   4.494  1.00  0.00    -0.338 N 
ATOM      8  C   UNL     1       1.843  -5.599   5.440  1.00  0.00     0.262 C 
ATOM      9  O   UNL     1       2.082  -6.077   6.553  1.00  0.00    -0.268 OA
ATOM     10  H   UNL     1       1.250  -7.411   4.871  1.00  0.00     0.164 HD
BRANCH   8  11
ATOM     11  C   UNL     1       1.986  -4.160   5.204  1.00  0.00     0.093 A 
ATOM     12  C   UNL     1       1.882  -1.824   4.353  1.00  0.00     0.078 A 
ATOM     13  C   UNL     1       2.463  -1.872   5.595  1.00  0.00     0.030 A 
ATOM     14  S   UNL     1       1.377  -3.355   3.839  1.00  0.00    -0.121 S 
ATOM     15  C   UNL     1       2.522  -3.223   6.086  1.00  0.00     0.027 A 
BRANCH  12  16
ATOM     16  C   UNL     1       1.618  -0.705   3.508  1.00  0.00    -0.053 C 
ATOM     17  C   UNL     1       1.247   0.004   2.628  1.00  0.00    -0.063 C 
BRANCH  17  18
ATOM     18  C   UNL     1       0.678   0.691   1.453  1.00  0.00     0.120 C 
ATOM     19  C   UNL     1       1.129  -0.003   0.165  1.00  0.00     0.056 C 
ATOM     20  C   UNL     1       1.068   2.162   1.457  1.00  0.00     0.056 C 
BRANCH  18  21
ATOM     21  O   UNL     1      -0.743   0.601   1.534  1.00  0.00    -0.378 OA
ATOM     22  H   UNL     1      -1.139   1.046   0.769  1.00  0.00     0.212 HD
ENDBRANCH  18  21
ENDBRANCH  17  18
ENDBRANCH  12  16
ENDBRANCH   8  11
ENDBRANCH   6   7
BRANCH   6  23
ATOM     23  C   UNL     1       2.115  -7.389   2.253  1.00  0.00     0.047 C 
BRANCH  23  24
ATOM     24  C   UNL     1       2.056  -8.871   2.606  1.00  0.00     0.102 C 
BRANCH  24  25
ATOM     25  C   UNL     1       0.686  -9.493   2.495  1.00  0.00     0.217 C 
ATOM     26  N   UNL     1       0.142  -9.525   1.249  1.00  0.00    -0.370 N 
ATOM     27  O   UNL     1       0.079  -9.936   3.462  1.00  0.00    -0.275 OA
ATOM     28  H   UNL     1       0.644  -9.165   0.483  1.00  0.00     0.159 HD
ATOM     29  H   UNL     1      -0.755  -9.908   1.113  1.00  0.00     0.159 HD
ENDBRANCH  24  25
ENDBRANCH  23  24
ENDBRANCH   6  23
ENDBRANCH   4   6
ENDBRANCH   3   4
ENDBRANCH   2   3
ENDBRANCH   1   2
BRANCH   1  30
ATOM     30  O   UNL     1      -3.376  -5.329   4.223  1.00  0.00    -0.374 OA
BRANCH  30  31
ATOM     31  C   UNL     1      -2.203  -4.875   4.891  1.00  0.00     0.202 C 
BRANCH  31  32
ATOM     32  C   UNL     1      -1.876  -5.426   6.275  1.00  0.00     0.261 C 
BRANCH  32  33
ATOM     33  O   UNL     1      -1.769  -6.841   6.307  1.00  0.00    -0.460 OA
BRANCH  33  34
ATOM     34  C   UNL     1      -2.851  -7.439   6.856  1.00  0.00     0.338 C 
ATOM     35  O   UNL     1      -3.964  -6.955   6.993  1.00  0.00    -0.246 OA
BRANCH  34  36
ATOM     36  C   UNL     1      -2.460  -8.713   7.460  1.00  0.00     0.060 A 
ATOM     37  C   UNL     1      -3.491  -9.407   8.099  1.00  0.00     0.016 A 
ATOM     38  C   UNL     1      -1.111  -8.913   7.774  1.00  0.00     0.016 A 
ATOM     39  C   UNL     1      -3.189 -10.077   9.258  1.00  0.00     0.010 A 
ATOM     40  C   UNL     1      -0.816  -9.563   8.944  1.00  0.00     0.010 A 
ATOM     41  C   UNL     1      -1.869 -10.045   9.719  1.00  0.00    -0.014 A 
BRANCH  41  42
ATOM     42  C   UNL     1      -1.573 -10.690  10.977  1.00  0.00     0.031 A 
ATOM     43  C   UNL     1      -1.533 -12.155  10.802  1.00  0.00     0.074 A 
ATOM     44  C   UNL     1      -1.259 -10.012  12.097  1.00  0.00     0.049 A 
ATOM     45  N   UNL     1      -2.465 -13.000  11.098  1.00  0.00    -0.248 NA
ATOM     46  C   UNL     1      -0.474 -12.706   9.933  1.00  0.00     0.031 C 
ATOM     47  C   UNL     1      -1.027  -8.574  12.255  1.00  0.00     0.029 A 
ATOM     48  N   UNL     1      -0.968 -10.495  13.332  1.00  0.00    -0.354 N 
ATOM     49  C   UNL     1      -1.950 -14.230  10.715  1.00  0.00     0.074 A 
ATOM     50  C   UNL     1      -0.924 -13.947   9.746  1.00  0.00     0.031 C 
ATOM     51  C   UNL     1      -0.385  -8.354  13.427  1.00  0.00     0.029 A 
ATOM     52  C   UNL     1      -0.273  -9.610  14.151  1.00  0.00     0.049 A 
ATOM     53  H   UNL     1      -1.228 -11.399  13.625  1.00  0.00     0.167 HD
ATOM     54  C   UNL     1      -2.095 -15.317  11.521  1.00  0.00     0.031 A 
ATOM     55  C   UNL     1       0.407  -9.925  15.289  1.00  0.00     0.031 A 
ATOM     56  C   UNL     1      -3.130 -15.107  12.505  1.00  0.00     0.049 A 
ATOM     57  C   UNL     1      -0.095 -11.250  15.740  1.00  0.00     0.074 A 
ATOM     58  C   UNL     1      -4.470 -14.773  12.461  1.00  0.00     0.029 A 
ATOM     59  N   UNL     1      -2.708 -14.830  13.785  1.00  0.00    -0.354 N 
ATOM     60  N   UNL     1      -1.311 -11.444  16.169  1.00  0.00    -0.248 NA
ATOM     61  C   UNL     1       0.588 -12.437  15.247  1.00  0.00     0.031 C 
ATOM     62  C   UNL     1      -4.675 -13.907  13.575  1.00  0.00     0.029 A 
ATOM     63  C   UNL     1      -3.478 -13.819  14.290  1.00  0.00     0.049 A 
ATOM     64  H   UNL     1      -1.974 -15.284  14.258  1.00  0.00     0.167 HD
ATOM     65  C   UNL     1      -1.703 -12.642  15.588  1.00  0.00     0.074 A 
ATOM     66  C   UNL     1      -0.463 -13.252  15.104  1.00  0.00     0.031 C 
ATOM     67  C   UNL     1      -3.015 -12.880  15.289  1.00  0.00     0.031 A 
BRANCH  54  68
ATOM     68  C   UNL     1      -0.968 -16.304  11.753  1.00  0.00    -0.014 A 
ATOM     69  C   UNL     1      -1.200 -17.384  12.625  1.00  0.00     0.010 A 
ATOM     70  C   UNL     1       0.376 -16.053  11.398  1.00  0.00     0.010 A 
ATOM     71  C   UNL     1      -0.138 -18.107  13.181  1.00  0.00     0.020 A 
ATOM     72  C   UNL     1       1.438 -16.795  11.908  1.00  0.00     0.020 A 
ATOM     73  C   UNL     1       1.175 -17.797  12.826  1.00  0.00     0.054 A 
BRANCH  73  74
ATOM     74  S   UNL     1       2.542 -18.678  13.609  1.00  0.00     0.124 S 
ATOM     75  O   UNL     1       2.424 -18.240  14.995  1.00  0.00    -0.237 OA
ATOM     76  O   UNL     1       2.193 -20.072  13.349  1.00  0.00    -0.237 OA
ATOM     77  O   UNL     1       3.718 -18.191  12.892  1.00  0.00    -0.744 OA
ENDBRANCH  73  74
ENDBRANCH  54  68
BRANCH  55  78
ATOM     78  C   UNL     1       1.690  -9.353  15.790  1.00  0.00    -0.014 A 
ATOM     79  C   UNL     1       2.188  -9.681  17.069  1.00  0.00     0.010 A 
ATOM     80  C   UNL     1       2.575  -8.713  14.900  1.00  0.00     0.010 A 
ATOM     81  C   UNL     1       3.532  -9.439  17.415  1.00  0.00     0.020 A 
ATOM     82  C   UNL     1       3.912  -8.462  15.239  1.00  0.00     0.020 A 
ATOM     83  C   UNL     1       4.393  -8.849  16.487  1.00  0.00     0.054 A 
BRANCH  83  84
ATOM     84  S   UNL     1       6.168  -8.702  16.864  1.00  0.00     0.124 S 
ATOM     85  O   UNL     1       6.186  -7.667  17.893  1.00  0.00    -0.237 OA
ATOM     86  O   UNL     1       6.513 -10.047  17.315  1.00  0.00    -0.237 OA
ATOM     87  O   UNL     1       6.761  -8.312  15.585  1.00  0.00    -0.744 OA
ENDBRANCH  83  84
ENDBRANCH  55  78
BRANCH  67  88
ATOM     88  C   UNL     1      -4.067 -11.984  15.900  1.00  0.00    -0.014 A 
ATOM     89  C   UNL     1      -4.175 -10.599  15.664  1.00  0.00     0.010 A 
ATOM     90  C   UNL     1      -5.076 -12.619  16.644  1.00  0.00     0.010 A 
ATOM     91  C   UNL     1      -5.253  -9.868  16.191  1.00  0.00     0.020 A 
ATOM     92  C   UNL     1      -6.158 -11.903  17.154  1.00  0.00     0.020 A 
ATOM     93  C   UNL     1      -6.237 -10.528  16.937  1.00  0.00     0.054 A 
BRANCH  93  94
ATOM     94  S   UNL     1      -7.640  -9.592  17.607  1.00  0.00     0.124 S 
ATOM     95  O   UNL     1      -7.005  -8.741  18.610  1.00  0.00    -0.237 OA
ATOM     96  O   UNL     1      -8.161  -8.900  16.431  1.00  0.00    -0.237 OA
ATOM     97  O   UNL     1      -8.523 -10.627  18.147  1.00  0.00    -0.744 OA
ENDBRANCH  93  94
ENDBRANCH  67  88
ENDBRANCH  41  42
ENDBRANCH  34  36
ENDBRANCH  33  34
ENDBRANCH  32  33
ENDBRANCH  31  32
ENDBRANCH  30  31
ENDBRANCH   1  30
TORSDOF 25
