REMARK SMILES CCSc1ccc(-c2cc(Cl)cc3c2O[C@@H](C(F)(F)F)C(C(=O)OCCOCCOC(=O)c2ccc(-c4c5nc(c(-c6ccc(S(=O)(=O)[O-])cc6)c6ccc([nH]6)c(-c6ccc(S(=O)(=O)[O-])cc6)c6nc(c(-c7ccc(S(=O)(=O)[O-])cc7)c7ccc4[nH]7)C=C6)C=C5)cc2)=C3)cc1
REMARK SMILES IDX 27 1 26 2 25 3 24 4 22 5 23 6 21 7 8 8 9 9 14 10 10 11 13 12
REMARK SMILES IDX 15 13 11 14 12 15 93 16 16 17 7 18 4 19 5 20 95 21 6 22
REMARK SMILES IDX 94 23 3 24 2 25 1 26 17 27 18 28 19 29 20 30 28 31 29 32
REMARK SMILES IDX 30 33 31 34 32 35 33 36 34 37 92 38 35 39 91 40 36 41 37 42
REMARK SMILES IDX 38 43 85 44 39 45 90 46 84 47 86 48 40 49 89 50 83 51 82 52
REMARK SMILES IDX 41 54 71 55 52 56 70 57 53 58 56 59 69 60 87 61 54 62 55 63
REMARK SMILES IDX 68 65 88 66 57 67 42 68 43 69 51 70 44 71 50 72 45 73 46 74
REMARK SMILES IDX 47 75 48 76 49 77 72 78 73 79 81 80 74 81 80 82 75 83 76 84
REMARK SMILES IDX 77 85 78 86 79 87 58 88 59 89 67 90 60 91 66 92 61 93 62 94
REMARK SMILES IDX 63 95 64 96 65 97
REMARK H PARENT 86 53 56 64
REMARK Flexibility Score: inf
ROOT
ATOM      1  O   UNL     1      12.070  -3.738  -1.711  1.00  0.00    -0.374 OA
ENDROOT
BRANCH   1   2
ATOM      2  C   UNL     1      13.407  -3.270  -1.832  1.00  0.00     0.202 C 
BRANCH   2   3
ATOM      3  C   UNL     1      13.694  -1.782  -1.575  1.00  0.00     0.261 C 
BRANCH   3   4
ATOM      4  O   UNL     1      12.671  -1.130  -0.806  1.00  0.00    -0.460 OA
BRANCH   4   5
ATOM      5  C   UNL     1      12.362   0.124  -1.187  1.00  0.00     0.338 C 
ATOM      6  O   UNL     1      12.959   0.774  -2.035  1.00  0.00    -0.246 OA
BRANCH   5   7
ATOM      7  C   UNL     1      11.088   0.603  -0.600  1.00  0.00     0.087 C 
ATOM      8  C   UNL     1       7.847  -1.964  -0.978  1.00  0.00     0.026 A 
ATOM      9  C   UNL     1       8.170  -2.790  -2.079  1.00  0.00     0.033 A 
ATOM     10  C   UNL     1       8.767  -0.926  -0.722  1.00  0.00     0.135 A 
ATOM     11  C   UNL     1       9.087  -2.375  -3.044  1.00  0.00     0.042 A 
ATOM     12  C   UNL     1       9.479  -0.375  -1.799  1.00  0.00     0.019 A 
ATOM     13  O   UNL     1       9.340  -0.802   0.559  1.00  0.00    -0.475 OA
ATOM     14  Cl  UNL     1       9.403  -3.375  -4.404  1.00  0.00    -0.084 Cl
ATOM     15  C   UNL     1       9.665  -1.117  -2.959  1.00  0.00     0.032 A 
ATOM     16  C   UNL     1      10.217   0.887  -1.583  1.00  0.00     0.027 C 
ATOM     17  C   UNL     1      10.443   0.191   0.707  1.00  0.00     0.316 C 
BRANCH   8  18
ATOM     18  C   UNL     1       6.354  -1.835  -0.767  1.00  0.00    -0.015 A 
ATOM     19  C   UNL     1       3.531  -1.701  -1.316  1.00  0.00     0.007 A 
ATOM     20  C   UNL     1       4.154  -2.912  -0.998  1.00  0.00     0.015 A 
ATOM     21  C   UNL     1       4.308  -0.544  -1.290  1.00  0.00     0.015 A 
ATOM     22  C   UNL     1       5.530  -2.976  -0.707  1.00  0.00     0.010 A 
ATOM     23  C   UNL     1       5.693  -0.609  -1.009  1.00  0.00     0.010 A 
BRANCH  19  24
ATOM     24  S   UNL     1       1.833  -1.791  -1.875  1.00  0.00    -0.126 SA
BRANCH  24  25
ATOM     25  C   UNL     1       1.071  -0.226  -1.328  1.00  0.00     0.071 C 
ATOM     26  C   UNL     1       1.085  -0.070   0.180  1.00  0.00     0.016 C 
ENDBRANCH  24  25
ENDBRANCH  19  24
ENDBRANCH   8  18
BRANCH  17  27
ATOM     27  C   UNL     1      11.419  -0.023   1.886  1.00  0.00     0.430 C 
ATOM     28  F   UNL     1      11.933   1.183   2.259  1.00  0.00    -0.167 F 
ATOM     29  F   UNL     1      10.788  -0.520   2.975  1.00  0.00    -0.167 F 
ATOM     30  F   UNL     1      12.464  -0.828   1.629  1.00  0.00    -0.167 F 
ENDBRANCH  17  27
ENDBRANCH   5   7
ENDBRANCH   4   5
ENDBRANCH   3   4
ENDBRANCH   2   3
ENDBRANCH   1   2
BRANCH   1  31
ATOM     31  C   UNL     1      11.462  -3.711  -0.422  1.00  0.00     0.202 C 
BRANCH  31  32
ATOM     32  C   UNL     1      12.021  -4.615   0.681  1.00  0.00     0.261 C 
BRANCH  32  33
ATOM     33  O   UNL     1      13.391  -4.345   1.012  1.00  0.00    -0.460 OA
BRANCH  33  34
ATOM     34  C   UNL     1      14.250  -5.347   0.707  1.00  0.00     0.338 C 
ATOM     35  O   UNL     1      13.981  -6.422   0.183  1.00  0.00    -0.246 OA
BRANCH  34  36
ATOM     36  C   UNL     1      15.632  -4.911   0.947  1.00  0.00     0.060 A 
ATOM     37  C   UNL     1      16.515  -4.889  -0.139  1.00  0.00     0.016 A 
ATOM     38  C   UNL     1      16.077  -4.627   2.239  1.00  0.00     0.016 A 
ATOM     39  C   UNL     1      17.864  -4.618   0.070  1.00  0.00     0.010 A 
ATOM     40  C   UNL     1      17.433  -4.362   2.446  1.00  0.00     0.010 A 
ATOM     41  C   UNL     1      18.337  -4.389   1.369  1.00  0.00    -0.014 A 
BRANCH  41  42
ATOM     42  C   UNL     1      19.794  -4.308   1.618  1.00  0.00     0.031 A 
ATOM     43  C   UNL     1      20.503  -5.500   2.200  1.00  0.00     0.074 A 
ATOM     44  C   UNL     1      20.476  -3.189   1.315  1.00  0.00     0.049 A 
ATOM     45  N   UNL     1      21.757  -5.628   2.548  1.00  0.00    -0.248 NA
ATOM     46  C   UNL     1      19.689  -6.706   2.424  1.00  0.00     0.031 C 
ATOM     47  C   UNL     1      19.901  -1.988   0.710  1.00  0.00     0.029 A 
ATOM     48  N   UNL     1      21.801  -2.880   1.486  1.00  0.00    -0.354 N 
ATOM     49  C   UNL     1      21.881  -6.923   3.041  1.00  0.00     0.074 A 
ATOM     50  C   UNL     1      20.569  -7.527   2.978  1.00  0.00     0.031 C 
ATOM     51  C   UNL     1      20.868  -1.066   0.569  1.00  0.00     0.029 A 
ATOM     52  C   UNL     1      22.118  -1.597   1.110  1.00  0.00     0.049 A 
ATOM     53  H   UNL     1      22.462  -3.516   1.843  1.00  0.00     0.167 HD
ATOM     54  C   UNL     1      22.991  -7.551   3.498  1.00  0.00     0.031 A 
ATOM     55  C   UNL     1      23.277  -0.918   1.216  1.00  0.00     0.031 A 
ATOM     56  C   UNL     1      24.289  -6.932   3.574  1.00  0.00     0.049 A 
ATOM     57  C   UNL     1      24.481  -1.612   1.798  1.00  0.00     0.074 A 
ATOM     58  C   UNL     1      25.480  -7.483   4.012  1.00  0.00     0.029 A 
ATOM     59  N   UNL     1      24.564  -5.622   3.209  1.00  0.00    -0.354 N 
ATOM     60  N   UNL     1      24.590  -2.843   2.240  1.00  0.00    -0.248 NA
ATOM     61  C   UNL     1      25.721  -0.829   1.885  1.00  0.00     0.031 C 
ATOM     62  C   UNL     1      26.461  -6.487   3.972  1.00  0.00     0.029 A 
ATOM     63  C   UNL     1      25.899  -5.337   3.439  1.00  0.00     0.049 A 
ATOM     64  H   UNL     1      23.906  -4.989   2.841  1.00  0.00     0.167 HD
ATOM     65  C   UNL     1      25.917  -2.990   2.631  1.00  0.00     0.074 A 
ATOM     66  C   UNL     1      26.573  -1.728   2.358  1.00  0.00     0.031 C 
ATOM     67  C   UNL     1      26.537  -4.073   3.164  1.00  0.00     0.031 A 
BRANCH  54  68
ATOM     68  C   UNL     1      22.838  -8.969   3.986  1.00  0.00    -0.014 A 
ATOM     69  C   UNL     1      22.565 -10.024   3.097  1.00  0.00     0.010 A 
ATOM     70  C   UNL     1      23.001  -9.255   5.354  1.00  0.00     0.010 A 
ATOM     71  C   UNL     1      22.417 -11.331   3.571  1.00  0.00     0.020 A 
ATOM     72  C   UNL     1      22.885 -10.565   5.829  1.00  0.00     0.020 A 
ATOM     73  C   UNL     1      22.576 -11.592   4.935  1.00  0.00     0.054 A 
BRANCH  73  74
ATOM     74  S   UNL     1      22.396 -13.300   5.519  1.00  0.00     0.124 S 
ATOM     75  O   UNL     1      20.959 -13.519   5.374  1.00  0.00    -0.237 OA
ATOM     76  O   UNL     1      23.242 -14.046   4.591  1.00  0.00    -0.237 OA
ATOM     77  O   UNL     1      22.881 -13.250   6.896  1.00  0.00    -0.744 OA
ENDBRANCH  73  74
ENDBRANCH  54  68
BRANCH  55  78
ATOM     78  C   UNL     1      23.345   0.504   0.781  1.00  0.00    -0.014 A 
ATOM     79  C   UNL     1      24.100   0.881  -0.343  1.00  0.00     0.010 A 
ATOM     80  C   UNL     1      22.638   1.494   1.491  1.00  0.00     0.010 A 
ATOM     81  C   UNL     1      24.159   2.220  -0.741  1.00  0.00     0.020 A 
ATOM     82  C   UNL     1      22.669   2.829   1.078  1.00  0.00     0.020 A 
ATOM     83  C   UNL     1      23.438   3.185  -0.030  1.00  0.00     0.054 A 
BRANCH  83  84
ATOM     84  S   UNL     1      23.486   4.907  -0.599  1.00  0.00     0.124 S 
ATOM     85  O   UNL     1      24.845   5.306  -0.247  1.00  0.00    -0.237 OA
ATOM     86  O   UNL     1      23.215   4.773  -2.028  1.00  0.00    -0.237 OA
ATOM     87  O   UNL     1      22.424   5.552   0.171  1.00  0.00    -0.744 OA
ENDBRANCH  83  84
ENDBRANCH  55  78
BRANCH  67  88
ATOM     88  C   UNL     1      28.012  -3.957   3.454  1.00  0.00    -0.014 A 
ATOM     89  C   UNL     1      28.493  -3.158   4.506  1.00  0.00     0.010 A 
ATOM     90  C   UNL     1      28.926  -4.709   2.692  1.00  0.00     0.010 A 
ATOM     91  C   UNL     1      29.864  -3.088   4.769  1.00  0.00     0.020 A 
ATOM     92  C   UNL     1      30.294  -4.667   2.973  1.00  0.00     0.020 A 
ATOM     93  C   UNL     1      30.756  -3.844   4.002  1.00  0.00     0.054 A 
BRANCH  93  94
ATOM     94  S   UNL     1      32.525  -3.769   4.393  1.00  0.00     0.124 S 
ATOM     95  O   UNL     1      32.883  -2.432   3.927  1.00  0.00    -0.237 OA
ATOM     96  O   UNL     1      32.540  -3.955   5.841  1.00  0.00    -0.237 OA
ATOM     97  O   UNL     1      33.099  -4.870   3.622  1.00  0.00    -0.744 OA
ENDBRANCH  93  94
ENDBRANCH  67  88
ENDBRANCH  41  42
ENDBRANCH  34  36
ENDBRANCH  33  34
ENDBRANCH  32  33
ENDBRANCH  31  32
ENDBRANCH   1  31
TORSDOF 21
