REMARK SMILES Cc1c(NC(=O)[C@@H]2CC=CC[C@@H]2C(=O)OCCOCCOC(=O)c2ccc(-c3c4nc(c(-c5ccc(S(=O)(=O)[O-])cc5)c5ccc([nH]5)c(-c5ccc(S(=O)(=O)[O-])cc5)c5nc(c(-c6ccc(S(=O)(=O)[O-])cc6)c6ccc3[nH]6)C=C5)C=C4)cc2)cccc1C(=O)N1CCOCC1
REMARK SMILES IDX 18 1 17 2 16 3 15 4 13 5 14 6 12 7 7 8 8 9 9 10 11 11 10 12
REMARK SMILES IDX 5 13 4 14 6 16 3 17 1 18 2 19 87 20 84 21 86 22 85 23 88 24
REMARK SMILES IDX 89 25 90 26 91 27 95 28 92 29 94 30 93 31 19 32 20 33 21 34
REMARK SMILES IDX 22 35 23 36 24 37 25 38 83 39 26 40 82 41 27 42 28 43 29 44
REMARK SMILES IDX 76 45 30 46 81 47 75 48 77 49 31 50 80 51 74 52 73 53 32 55
REMARK SMILES IDX 62 56 43 57 61 58 44 59 47 60 60 61 78 62 45 63 46 64 59 66
REMARK SMILES IDX 79 67 48 68 33 69 34 70 42 71 35 72 41 73 36 74 37 75 38 76
REMARK SMILES IDX 39 77 40 78 63 79 64 80 72 81 65 82 71 83 66 84 67 85 68 86
REMARK SMILES IDX 69 87 70 88 49 89 50 90 58 91 51 92 57 93 52 94 53 95 54 96
REMARK SMILES IDX 55 97 56 98
REMARK H PARENT 4 15 77 54 47 65
REMARK Flexibility Score: inf
ROOT
ATOM      1  O   UNL     1      -4.393   0.786   0.004  1.00  0.00    -0.374 OA
ENDROOT
BRANCH   1   2
ATOM      2  C   UNL     1      -4.902  -0.053  -1.005  1.00  0.00     0.202 C 
BRANCH   2   3
ATOM      3  C   UNL     1      -4.382  -1.475  -1.078  1.00  0.00     0.261 C 
BRANCH   3   4
ATOM      4  O   UNL     1      -3.021  -1.667  -0.696  1.00  0.00    -0.463 OA
BRANCH   4   5
ATOM      5  C   UNL     1      -2.116  -1.774  -1.697  1.00  0.00     0.310 C 
ATOM      6  O   UNL     1      -2.386  -1.651  -2.887  1.00  0.00    -0.252 OA
BRANCH   5   7
ATOM      7  C   UNL     1      -0.688  -1.843  -1.180  1.00  0.00     0.116 C 
ATOM      8  C   UNL     1      -0.306  -2.892  -0.102  1.00  0.00     0.097 C 
ATOM      9  C   UNL     1      -1.044  -2.656   1.217  1.00  0.00     0.041 C 
ATOM     10  C   UNL     1      -0.853  -1.228   1.648  1.00  0.00    -0.030 C 
ATOM     11  C   UNL     1      -0.321  -0.434  -0.682  1.00  0.00     0.043 C 
ATOM     12  C   UNL     1      -0.503  -0.243   0.803  1.00  0.00    -0.030 C 
BRANCH   8  13
ATOM     13  C   UNL     1      -0.339  -4.319  -0.596  1.00  0.00     0.228 C 
ATOM     14  N   UNL     1       0.001  -5.413   0.146  1.00  0.00    -0.326 N 
ATOM     15  H   UNL     1      -0.532  -6.210  -0.074  1.00  0.00     0.169 HD
ATOM     16  O   UNL     1      -0.591  -4.548  -1.782  1.00  0.00    -0.274 OA
BRANCH  14  17
ATOM     17  C   UNL     1       0.957  -5.648   1.168  1.00  0.00     0.044 A 
ATOM     18  C   UNL     1       0.227  -8.066   1.205  1.00  0.00     0.047 C 
ATOM     19  C   UNL     1       1.218  -6.999   1.560  1.00  0.00    -0.015 A 
ATOM     20  C   UNL     1       2.389  -7.306   2.299  1.00  0.00     0.045 A 
ATOM     21  C   UNL     1       1.746  -4.632   1.701  1.00  0.00     0.026 A 
ATOM     22  C   UNL     1       3.186  -6.241   2.754  1.00  0.00     0.014 A 
ATOM     23  C   UNL     1       2.846  -4.920   2.497  1.00  0.00     0.003 A 
BRANCH  20  24
ATOM     24  C   UNL     1       2.831  -8.663   2.794  1.00  0.00     0.254 C 
ATOM     25  O   UNL     1       3.646  -8.713   3.719  1.00  0.00    -0.269 OA
ATOM     26  N   UNL     1       2.250  -9.832   2.327  1.00  0.00    -0.334 N 
ATOM     27  C   UNL     1       2.325 -10.310   0.942  1.00  0.00     0.148 C 
ATOM     28  C   UNL     1       2.015 -10.891   3.302  1.00  0.00     0.148 C 
ATOM     29  C   UNL     1       1.145 -11.248   0.605  1.00  0.00     0.181 C 
ATOM     30  C   UNL     1       0.776 -11.689   2.904  1.00  0.00     0.181 C 
ATOM     31  O   UNL     1       0.962 -12.270   1.602  1.00  0.00    -0.378 OA
ENDBRANCH  20  24
ENDBRANCH  14  17
ENDBRANCH   8  13
ENDBRANCH   5   7
ENDBRANCH   4   5
ENDBRANCH   3   4
ENDBRANCH   2   3
ENDBRANCH   1   2
BRANCH   1  32
ATOM     32  C   UNL     1      -4.266   0.269   1.326  1.00  0.00     0.202 C 
BRANCH  32  33
ATOM     33  C   UNL     1      -5.248  -0.785   1.908  1.00  0.00     0.261 C 
BRANCH  33  34
ATOM     34  O   UNL     1      -6.617  -0.580   1.491  1.00  0.00    -0.460 OA
BRANCH  34  35
ATOM     35  C   UNL     1      -7.491  -1.609   1.710  1.00  0.00     0.338 C 
ATOM     36  O   UNL     1      -8.175  -1.767   2.728  1.00  0.00    -0.246 OA
BRANCH  35  37
ATOM     37  C   UNL     1      -7.782  -2.311   0.441  1.00  0.00     0.060 A 
ATOM     38  C   UNL     1      -7.738  -3.696   0.309  1.00  0.00     0.016 A 
ATOM     39  C   UNL     1      -7.958  -1.543  -0.699  1.00  0.00     0.016 A 
ATOM     40  C   UNL     1      -7.420  -4.246  -0.933  1.00  0.00     0.010 A 
ATOM     41  C   UNL     1      -7.643  -2.092  -1.927  1.00  0.00     0.010 A 
ATOM     42  C   UNL     1      -7.131  -3.388  -1.984  1.00  0.00    -0.014 A 
BRANCH  42  43
ATOM     43  C   UNL     1      -6.073  -3.701  -2.969  1.00  0.00     0.031 A 
ATOM     44  C   UNL     1      -6.253  -3.248  -4.341  1.00  0.00     0.074 A 
ATOM     45  C   UNL     1      -4.866  -4.190  -2.614  1.00  0.00     0.049 A 
ATOM     46  N   UNL     1      -6.785  -3.925  -5.306  1.00  0.00    -0.248 NA
ATOM     47  C   UNL     1      -6.015  -1.826  -4.619  1.00  0.00     0.031 C 
ATOM     48  C   UNL     1      -3.724  -4.491  -3.466  1.00  0.00     0.029 A 
ATOM     49  N   UNL     1      -4.488  -4.654  -1.357  1.00  0.00    -0.354 N 
ATOM     50  C   UNL     1      -6.667  -3.070  -6.383  1.00  0.00     0.074 A 
ATOM     51  C   UNL     1      -6.648  -1.747  -5.784  1.00  0.00     0.031 C 
ATOM     52  C   UNL     1      -2.971  -5.406  -2.831  1.00  0.00     0.029 A 
ATOM     53  C   UNL     1      -3.584  -5.698  -1.540  1.00  0.00     0.049 A 
ATOM     54  H   UNL     1      -4.803  -4.306  -0.491  1.00  0.00     0.167 HD
ATOM     55  C   UNL     1      -5.885  -3.373  -7.469  1.00  0.00     0.031 A 
ATOM     56  C   UNL     1      -3.993  -6.916  -1.097  1.00  0.00     0.031 A 
ATOM     57  C   UNL     1      -4.998  -4.529  -7.213  1.00  0.00     0.049 A 
ATOM     58  C   UNL     1      -4.412  -7.743  -2.287  1.00  0.00     0.074 A 
ATOM     59  C   UNL     1      -3.619  -4.674  -7.185  1.00  0.00     0.029 A 
ATOM     60  N   UNL     1      -5.497  -5.695  -6.621  1.00  0.00    -0.354 N 
ATOM     61  N   UNL     1      -4.693  -7.228  -3.461  1.00  0.00    -0.248 NA
ATOM     62  C   UNL     1      -4.397  -9.193  -2.318  1.00  0.00     0.031 C 
ATOM     63  C   UNL     1      -3.306  -5.929  -6.572  1.00  0.00     0.029 A 
ATOM     64  C   UNL     1      -4.491  -6.566  -6.232  1.00  0.00     0.049 A 
ATOM     65  H   UNL     1      -6.456  -5.877  -6.495  1.00  0.00     0.167 HD
ATOM     66  C   UNL     1      -4.735  -8.204  -4.417  1.00  0.00     0.074 A 
ATOM     67  C   UNL     1      -4.621  -9.426  -3.626  1.00  0.00     0.031 C 
ATOM     68  C   UNL     1      -4.810  -7.928  -5.763  1.00  0.00     0.031 A 
BRANCH  55  69
ATOM     69  C   UNL     1      -5.704  -2.340  -8.591  1.00  0.00    -0.014 A 
ATOM     70  C   UNL     1      -4.778  -2.523  -9.633  1.00  0.00     0.010 A 
ATOM     71  C   UNL     1      -6.503  -1.173  -8.701  1.00  0.00     0.010 A 
ATOM     72  C   UNL     1      -4.622  -1.571 -10.668  1.00  0.00     0.020 A 
ATOM     73  C   UNL     1      -6.308  -0.181  -9.669  1.00  0.00     0.020 A 
ATOM     74  C   UNL     1      -5.376  -0.395 -10.668  1.00  0.00     0.054 A 
BRANCH  74  75
ATOM     75  S   UNL     1      -5.214   0.807 -12.017  1.00  0.00     0.124 S 
ATOM     76  O   UNL     1      -3.798   1.159 -11.964  1.00  0.00    -0.237 OA
ATOM     77  O   UNL     1      -5.631   0.029 -13.180  1.00  0.00    -0.237 OA
ATOM     78  O   UNL     1      -6.128   1.884 -11.637  1.00  0.00    -0.744 OA
ENDBRANCH  74  75
ENDBRANCH  55  69
BRANCH  56  79
ATOM     79  C   UNL     1      -4.356  -6.865   0.368  1.00  0.00    -0.014 A 
ATOM     80  C   UNL     1      -3.255  -6.594   1.208  1.00  0.00     0.010 A 
ATOM     81  C   UNL     1      -5.610  -6.543   0.900  1.00  0.00     0.010 A 
ATOM     82  C   UNL     1      -3.337  -5.887   2.412  1.00  0.00     0.020 A 
ATOM     83  C   UNL     1      -5.714  -5.803   2.113  1.00  0.00     0.020 A 
ATOM     84  C   UNL     1      -4.571  -5.422   2.820  1.00  0.00     0.054 A 
BRANCH  84  85
ATOM     85  S   UNL     1      -4.608  -4.128   4.103  1.00  0.00     0.124 S 
ATOM     86  O   UNL     1      -4.405  -4.895   5.325  1.00  0.00    -0.237 OA
ATOM     87  O   UNL     1      -3.501  -3.258   3.707  1.00  0.00    -0.237 OA
ATOM     88  O   UNL     1      -5.927  -3.530   3.931  1.00  0.00    -0.744 OA
ENDBRANCH  84  85
ENDBRANCH  56  79
BRANCH  68  89
ATOM     89  C   UNL     1      -5.215  -8.928  -6.833  1.00  0.00    -0.014 A 
ATOM     90  C   UNL     1      -5.210 -10.318  -6.690  1.00  0.00     0.010 A 
ATOM     91  C   UNL     1      -5.715  -8.435  -8.067  1.00  0.00     0.010 A 
ATOM     92  C   UNL     1      -5.799 -11.156  -7.644  1.00  0.00     0.020 A 
ATOM     93  C   UNL     1      -6.298  -9.255  -9.033  1.00  0.00     0.020 A 
ATOM     94  C   UNL     1      -6.369 -10.616  -8.794  1.00  0.00     0.054 A 
BRANCH  94  95
ATOM     95  S   UNL     1      -7.193 -11.720  -9.956  1.00  0.00     0.124 S 
ATOM     96  O   UNL     1      -6.150 -12.703 -10.241  1.00  0.00    -0.237 OA
ATOM     97  O   UNL     1      -8.317 -12.211  -9.162  1.00  0.00    -0.237 OA
ATOM     98  O   UNL     1      -7.551 -10.851 -11.074  1.00  0.00    -0.744 OA
ENDBRANCH  94  95
ENDBRANCH  68  89
ENDBRANCH  42  43
ENDBRANCH  35  37
ENDBRANCH  34  35
ENDBRANCH  33  34
ENDBRANCH  32  33
ENDBRANCH   1  32
TORSDOF 20
