REMARK SMILES COc1ccc(-c2cnc(N)c(C(=O)OCCOCCOC(=O)c3ccc(-c4c5nc(c(-c6ccc(S(=O)(=O)[O-])cc6)c6ccc([nH]6)c(-c6ccc(S(=O)(=O)[O-])cc6)c6nc(c(-c7ccc(S(=O)(=O)[O-])cc7)c7ccc4[nH]7)C=C6)C=C5)cc3)c2)c(C)c1
REMARK SMILES IDX 19 1 18 2 17 3 16 4 15 5 13 6 14 7 12 8 7 9 8 10 84 11 9 12
REMARK SMILES IDX 10 13 6 14 3 15 4 16 87 17 5 18 85 19 86 20 2 21 1 22 11 23
REMARK SMILES IDX 20 26 21 27 22 28 23 29 24 30 25 31 83 32 26 33 82 34 27 35
REMARK SMILES IDX 28 36 29 37 76 38 30 39 81 40 75 41 77 42 31 43 80 44 74 45
REMARK SMILES IDX 73 46 32 48 62 49 43 50 61 51 44 52 47 53 60 54 78 55 45 56
REMARK SMILES IDX 46 57 59 59 79 60 48 61 33 62 34 63 42 64 35 65 41 66 36 67
REMARK SMILES IDX 37 68 38 69 39 70 40 71 63 72 64 73 72 74 65 75 71 76 66 77
REMARK SMILES IDX 67 78 68 79 69 80 70 81 49 82 50 83 58 84 51 85 57 86 52 87
REMARK SMILES IDX 53 88 54 89 55 90 56 91
REMARK H PARENT 11 24 11 25 77 47 47 58
REMARK Flexibility Score: inf
ROOT
ATOM      1  C   UNL     1      -1.439   9.166   3.437  1.00  0.00     0.202 C 
ENDROOT
BRANCH   1   2
ATOM      2  O   UNL     1      -0.230   9.383   4.122  1.00  0.00    -0.374 OA
BRANCH   2   3
ATOM      3  C   UNL     1       0.417  10.625   3.864  1.00  0.00     0.202 C 
BRANCH   3   4
ATOM      4  C   UNL     1       1.708  10.561   4.612  1.00  0.00     0.261 C 
BRANCH   4   5
ATOM      5  O   UNL     1       2.593   9.582   4.038  1.00  0.00    -0.460 OA
BRANCH   5   6
ATOM      6  C   UNL     1       2.387   8.252   4.234  1.00  0.00     0.342 C 
ATOM      7  O   UNL     1       1.756   7.702   5.104  1.00  0.00    -0.246 OA
BRANCH   6   8
ATOM      8  C   UNL     1       2.887   7.555   3.039  1.00  0.00     0.102 A 
ATOM      9  C   UNL     1       2.454   5.779   1.485  1.00  0.00     0.001 A 
ATOM     10  C   UNL     1       3.324   6.444   0.622  1.00  0.00     0.122 A 
ATOM     11  C   UNL     1       2.258   6.346   2.735  1.00  0.00     0.030 A 
ATOM     12  N   UNL     1       4.009   7.572   0.921  1.00  0.00    -0.238 NA
ATOM     13  C   UNL     1       3.781   8.125   2.127  1.00  0.00     0.138 A 
BRANCH   9  14
ATOM     14  C   UNL     1       1.801   4.536   1.088  1.00  0.00    -0.014 A 
ATOM     15  C   UNL     1       0.756   2.091   0.163  1.00  0.00     0.119 A 
ATOM     16  C   UNL     1       2.102   2.188   0.497  1.00  0.00     0.047 A 
ATOM     17  C   UNL     1      -0.073   3.204   0.320  1.00  0.00     0.050 A 
ATOM     18  C   UNL     1       2.615   3.398   0.954  1.00  0.00     0.013 A 
ATOM     19  C   UNL     1       0.424   4.429   0.803  1.00  0.00    -0.040 A 
ATOM     20  C   UNL     1      -0.562   5.553   0.991  1.00  0.00     0.045 C 
BRANCH  15  21
ATOM     21  O   UNL     1       0.156   0.979  -0.361  1.00  0.00    -0.497 OA
ATOM     22  C   UNL     1       0.765  -0.261  -0.016  1.00  0.00     0.278 C 
ENDBRANCH  15  21
ENDBRANCH   9  14
BRANCH  13  23
ATOM     23  N   UNL     1       4.545   9.245   2.400  1.00  0.00    -0.383 N 
ATOM     24  H   UNL     1       5.158   9.601   1.718  1.00  0.00     0.158 HD
ATOM     25  H   UNL     1       4.475   9.686   3.278  1.00  0.00     0.158 HD
ENDBRANCH  13  23
ENDBRANCH   6   8
ENDBRANCH   5   6
ENDBRANCH   4   5
ENDBRANCH   3   4
ENDBRANCH   2   3
ENDBRANCH   1   2
BRANCH   1  26
ATOM     26  C   UNL     1      -2.462  10.291   3.628  1.00  0.00     0.261 C 
BRANCH  26  27
ATOM     27  O   UNL     1      -3.026  10.285   4.960  1.00  0.00    -0.460 OA
BRANCH  27  28
ATOM     28  C   UNL     1      -2.559  11.222   5.842  1.00  0.00     0.338 C 
ATOM     29  O   UNL     1      -2.993  12.358   5.911  1.00  0.00    -0.246 OA
BRANCH  28  30
ATOM     30  C   UNL     1      -1.545  10.626   6.762  1.00  0.00     0.060 A 
ATOM     31  C   UNL     1      -0.629  11.412   7.486  1.00  0.00     0.016 A 
ATOM     32  C   UNL     1      -1.403   9.245   6.753  1.00  0.00     0.016 A 
ATOM     33  C   UNL     1       0.508  10.821   8.075  1.00  0.00     0.010 A 
ATOM     34  C   UNL     1      -0.230   8.694   7.215  1.00  0.00     0.010 A 
ATOM     35  C   UNL     1       0.743   9.463   7.875  1.00  0.00    -0.014 A 
BRANCH  35  36
ATOM     36  C   UNL     1       1.940   8.696   8.245  1.00  0.00     0.031 A 
ATOM     37  C   UNL     1       1.756   7.581   9.203  1.00  0.00     0.074 A 
ATOM     38  C   UNL     1       3.093   8.771   7.531  1.00  0.00     0.049 A 
ATOM     39  N   UNL     1       2.724   6.988   9.810  1.00  0.00    -0.248 NA
ATOM     40  C   UNL     1       0.447   7.065   9.614  1.00  0.00     0.031 C 
ATOM     41  C   UNL     1       4.103   7.729   7.330  1.00  0.00     0.029 A 
ATOM     42  N   UNL     1       3.591   9.821   6.764  1.00  0.00    -0.354 N 
ATOM     43  C   UNL     1       2.216   5.819  10.328  1.00  0.00     0.074 A 
ATOM     44  C   UNL     1       0.789   5.996  10.335  1.00  0.00     0.031 C 
ATOM     45  C   UNL     1       5.182   8.251   6.713  1.00  0.00     0.029 A 
ATOM     46  C   UNL     1       4.973   9.686   6.601  1.00  0.00     0.049 A 
ATOM     47  H   UNL     1       3.049  10.553   6.390  1.00  0.00     0.167 HD
ATOM     48  C   UNL     1       3.059   4.765  10.507  1.00  0.00     0.031 A 
ATOM     49  C   UNL     1       5.803  10.696   6.983  1.00  0.00     0.031 A 
ATOM     50  C   UNL     1       4.438   5.138  10.161  1.00  0.00     0.049 A 
ATOM     51  C   UNL     1       6.566  10.211   8.182  1.00  0.00     0.074 A 
ATOM     52  C   UNL     1       5.251   4.827   9.084  1.00  0.00     0.029 A 
ATOM     53  N   UNL     1       5.035   6.223  10.800  1.00  0.00    -0.354 N 
ATOM     54  N   UNL     1       6.144   9.211   8.906  1.00  0.00    -0.248 NA
ATOM     55  C   UNL     1       7.863  10.709   8.621  1.00  0.00     0.031 C 
ATOM     56  C   UNL     1       6.301   5.788   9.039  1.00  0.00     0.029 A 
ATOM     57  C   UNL     1       6.145   6.663  10.104  1.00  0.00     0.049 A 
ATOM     58  H   UNL     1       4.709   6.623  11.639  1.00  0.00     0.167 HD
ATOM     59  C   UNL     1       7.093   8.863   9.806  1.00  0.00     0.074 A 
ATOM     60  C   UNL     1       8.134   9.862   9.633  1.00  0.00     0.031 C 
ATOM     61  C   UNL     1       6.949   7.773  10.608  1.00  0.00     0.031 A 
BRANCH  48  62
ATOM     62  C   UNL     1       2.615   3.332  10.731  1.00  0.00    -0.014 A 
ATOM     63  C   UNL     1       3.564   2.296  10.612  1.00  0.00     0.010 A 
ATOM     64  C   UNL     1       1.300   2.920  11.026  1.00  0.00     0.010 A 
ATOM     65  C   UNL     1       3.220   0.942  10.750  1.00  0.00     0.020 A 
ATOM     66  C   UNL     1       0.935   1.571  11.159  1.00  0.00     0.020 A 
ATOM     67  C   UNL     1       1.902   0.587  11.022  1.00  0.00     0.054 A 
BRANCH  67  68
ATOM     68  S   UNL     1       1.481  -1.160  11.230  1.00  0.00     0.124 S 
ATOM     69  O   UNL     1       1.844  -1.729   9.935  1.00  0.00    -0.237 OA
ATOM     70  O   UNL     1       2.328  -1.554  12.352  1.00  0.00    -0.237 OA
ATOM     71  O   UNL     1       0.047  -1.142  11.515  1.00  0.00    -0.744 OA
ENDBRANCH  67  68
ENDBRANCH  48  62
BRANCH  49  72
ATOM     72  C   UNL     1       5.207  12.053   6.736  1.00  0.00    -0.014 A 
ATOM     73  C   UNL     1       5.202  12.521   5.398  1.00  0.00     0.010 A 
ATOM     74  C   UNL     1       4.249  12.585   7.622  1.00  0.00     0.010 A 
ATOM     75  C   UNL     1       4.182  13.364   4.925  1.00  0.00     0.020 A 
ATOM     76  C   UNL     1       3.211  13.408   7.143  1.00  0.00     0.020 A 
ATOM     77  C   UNL     1       3.157  13.754   5.789  1.00  0.00     0.054 A 
BRANCH  77  78
ATOM     78  S   UNL     1       1.609  14.418   5.067  1.00  0.00     0.124 S 
ATOM     79  O   UNL     1       1.923  15.830   4.891  1.00  0.00    -0.237 OA
ATOM     80  O   UNL     1       1.467  13.648   3.829  1.00  0.00    -0.237 OA
ATOM     81  O   UNL     1       0.608  14.108   6.082  1.00  0.00    -0.744 OA
ENDBRANCH  77  78
ENDBRANCH  49  72
BRANCH  61  82
ATOM     82  C   UNL     1       7.644   7.640  11.925  1.00  0.00    -0.014 A 
ATOM     83  C   UNL     1       8.200   8.737  12.601  1.00  0.00     0.010 A 
ATOM     84  C   UNL     1       7.606   6.403  12.604  1.00  0.00     0.010 A 
ATOM     85  C   UNL     1       8.799   8.582  13.848  1.00  0.00     0.020 A 
ATOM     86  C   UNL     1       8.140   6.253  13.880  1.00  0.00     0.020 A 
ATOM     87  C   UNL     1       8.776   7.337  14.473  1.00  0.00     0.054 A 
BRANCH  87  88
ATOM     88  S   UNL     1       9.582   7.157  16.074  1.00  0.00     0.124 S 
ATOM     89  O   UNL     1      10.989   7.084  15.687  1.00  0.00    -0.237 OA
ATOM     90  O   UNL     1       9.186   8.377  16.773  1.00  0.00    -0.237 OA
ATOM     91  O   UNL     1       9.013   5.924  16.611  1.00  0.00    -0.744 OA
ENDBRANCH  87  88
ENDBRANCH  61  82
ENDBRANCH  35  36
ENDBRANCH  28  30
ENDBRANCH  27  28
ENDBRANCH  26  27
ENDBRANCH   1  26
TORSDOF 20
