REMARK SMILES NS(=O)(=O)c1ccc(-n2nc(C(=O)NCCCC(=O)OCCOCCOC(=O)c3ccc(-c4c5nc(c(-c6ccc(S(=O)(=O)[O-])cc6)c6ccc([nH]6)c(-c6ccc(S(=O)(=O)[O-])cc6)c6nc(c(-c7ccc(S(=O)(=O)[O-])cc7)c7ccc4[nH]7)C=C6)C=C5)cc3)cc2-c2ccccc2)cc1
REMARK SMILES IDX 21 1 20 2 18 3 19 4 17 5 16 6 15 7 14 8 12 9 13 10 11 12
REMARK SMILES IDX 9 13 10 14 90 15 89 16 8 17 5 18 6 19 98 20 7 21 97 22 2 23
REMARK SMILES IDX 3 24 4 25 1 26 91 29 92 30 96 31 93 32 95 33 94 34 22 35
REMARK SMILES IDX 23 36 24 37 25 38 26 39 27 40 28 41 29 42 30 43 88 44 31 45
REMARK SMILES IDX 87 46 32 47 33 48 34 49 81 50 35 51 86 52 80 53 82 54 36 55
REMARK SMILES IDX 85 56 79 57 78 58 37 60 67 61 48 62 66 63 49 64 52 65 65 66
REMARK SMILES IDX 83 67 50 68 51 69 64 71 84 72 53 73 38 74 39 75 47 76 40 77
REMARK SMILES IDX 46 78 41 79 42 80 43 81 44 82 45 83 68 84 69 85 77 86 70 87
REMARK SMILES IDX 76 88 71 89 72 90 73 91 74 92 75 93 54 94 55 95 63 96 56 97
REMARK SMILES IDX 62 98 57 99 58 100 59 101 60 102 61 103
REMARK H PARENT 14 11 1 27 1 28 82 59 52 70
REMARK Flexibility Score: inf
ROOT
ATOM      1  C   UNL     1       1.958  10.549  11.181  1.00  0.00     0.261 C 
ENDROOT
BRANCH   1   2
ATOM      2  O   UNL     1       2.017  10.656   9.747  1.00  0.00    -0.463 OA
BRANCH   2   3
ATOM      3  C   UNL     1       2.289  11.872   9.220  1.00  0.00     0.305 C 
ATOM      4  O   UNL     1       2.369  12.912   9.861  1.00  0.00    -0.252 OA
BRANCH   3   5
ATOM      5  C   UNL     1       2.472  11.817   7.715  1.00  0.00     0.124 C 
BRANCH   5   6
ATOM      6  C   UNL     1       3.078  10.542   7.106  1.00  0.00     0.033 C 
BRANCH   6   7
ATOM      7  C   UNL     1       2.217   9.280   7.196  1.00  0.00     0.117 C 
BRANCH   7   8
ATOM      8  N   UNL     1       0.984   9.420   6.449  1.00  0.00    -0.351 N 
ATOM      9  C   UNL     1       0.466   8.833   5.314  1.00  0.00     0.271 C 
ATOM     10  O   UNL     1      -0.676   9.201   5.020  1.00  0.00    -0.267 OA
ATOM     11  H   UNL     1       0.377  10.088   6.842  1.00  0.00     0.163 HD
BRANCH   9  12
ATOM     12  C   UNL     1       1.196   7.815   4.530  1.00  0.00     0.151 A 
ATOM     13  N   UNL     1       1.419   6.101   3.241  1.00  0.00    -0.232 N 
ATOM     14  N   UNL     1       0.555   7.088   3.581  1.00  0.00    -0.162 NA
ATOM     15  C   UNL     1       2.664   6.319   3.785  1.00  0.00     0.075 A 
ATOM     16  C   UNL     1       2.553   7.430   4.582  1.00  0.00     0.065 A 
BRANCH  13  17
ATOM     17  C   UNL     1       1.050   5.021   2.398  1.00  0.00     0.065 A 
ATOM     18  C   UNL     1       0.679   2.931   0.593  1.00  0.00     0.082 A 
ATOM     19  C   UNL     1       1.103   2.643   1.890  1.00  0.00     0.024 A 
ATOM     20  C   UNL     1       0.432   4.255   0.199  1.00  0.00     0.024 A 
ATOM     21  C   UNL     1       1.294   3.692   2.790  1.00  0.00     0.030 A 
ATOM     22  C   UNL     1       0.592   5.303   1.111  1.00  0.00     0.030 A 
BRANCH  18  23
ATOM     23  S   UNL     1       0.452   1.642  -0.602  1.00  0.00     0.238 S 
ATOM     24  O   UNL     1       1.185   2.005  -1.794  1.00  0.00    -0.207 OA
ATOM     25  O   UNL     1      -0.957   1.329  -0.637  1.00  0.00    -0.207 OA
BRANCH  23  26
ATOM     26  N   UNL     1       1.235   0.311   0.046  1.00  0.00    -0.225 NA
ATOM     27  H   UNL     1       1.147  -0.479  -0.592  1.00  0.00     0.137 HD
ATOM     28  H   UNL     1       0.813   0.073   0.944  1.00  0.00     0.137 HD
ENDBRANCH  23  26
ENDBRANCH  18  23
ENDBRANCH  13  17
BRANCH  15  29
ATOM     29  C   UNL     1       3.771   5.407   3.672  1.00  0.00     0.000 A 
ATOM     30  C   UNL     1       4.598   5.335   2.555  1.00  0.00     0.010 A 
ATOM     31  C   UNL     1       3.897   4.495   4.713  1.00  0.00     0.010 A 
ATOM     32  C   UNL     1       5.556   4.332   2.494  1.00  0.00     0.001 A 
ATOM     33  C   UNL     1       4.830   3.491   4.641  1.00  0.00     0.001 A 
ATOM     34  C   UNL     1       5.651   3.413   3.533  1.00  0.00     0.000 A 
ENDBRANCH  15  29
ENDBRANCH   9  12
ENDBRANCH   7   8
ENDBRANCH   6   7
ENDBRANCH   5   6
ENDBRANCH   3   5
ENDBRANCH   2   3
ENDBRANCH   1   2
BRANCH   1  35
ATOM     35  C   UNL     1       3.172   9.787  11.709  1.00  0.00     0.202 C 
BRANCH  35  36
ATOM     36  O   UNL     1       4.418  10.485  11.652  1.00  0.00    -0.374 OA
BRANCH  36  37
ATOM     37  C   UNL     1       5.107  10.535  10.408  1.00  0.00     0.202 C 
BRANCH  37  38
ATOM     38  C   UNL     1       5.854   9.278   9.982  1.00  0.00     0.261 C 
BRANCH  38  39
ATOM     39  O   UNL     1       4.967   8.188   9.758  1.00  0.00    -0.460 OA
BRANCH  39  40
ATOM     40  C   UNL     1       4.897   7.286  10.776  1.00  0.00     0.338 C 
ATOM     41  O   UNL     1       5.285   7.431  11.913  1.00  0.00    -0.246 OA
BRANCH  40  42
ATOM     42  C   UNL     1       4.414   6.014  10.213  1.00  0.00     0.060 A 
ATOM     43  C   UNL     1       4.544   4.868  11.004  1.00  0.00     0.016 A 
ATOM     44  C   UNL     1       4.188   5.931   8.843  1.00  0.00     0.016 A 
ATOM     45  C   UNL     1       4.729   3.648  10.375  1.00  0.00     0.010 A 
ATOM     46  C   UNL     1       4.436   4.733   8.233  1.00  0.00     0.010 A 
ATOM     47  C   UNL     1       4.802   3.623   8.983  1.00  0.00    -0.014 A 
BRANCH  47  48
ATOM     48  C   UNL     1       5.083   2.395   8.256  1.00  0.00     0.031 A 
ATOM     49  C   UNL     1       3.865   1.540   8.192  1.00  0.00     0.074 A 
ATOM     50  C   UNL     1       6.215   2.194   7.536  1.00  0.00     0.049 A 
ATOM     51  N   UNL     1       3.624   0.487   8.898  1.00  0.00    -0.248 NA
ATOM     52  C   UNL     1       2.675   2.046   7.476  1.00  0.00     0.031 C 
ATOM     53  C   UNL     1       7.315   3.123   7.253  1.00  0.00     0.029 A 
ATOM     54  N   UNL     1       6.556   1.126   6.762  1.00  0.00    -0.354 N 
ATOM     55  C   UNL     1       2.364   0.058   8.500  1.00  0.00     0.074 A 
ATOM     56  C   UNL     1       1.737   1.184   7.867  1.00  0.00     0.031 C 
ATOM     57  C   UNL     1       8.052   2.660   6.207  1.00  0.00     0.029 A 
ATOM     58  C   UNL     1       7.570   1.343   5.814  1.00  0.00     0.049 A 
ATOM     59  H   UNL     1       6.117   0.250   6.862  1.00  0.00     0.167 HD
ATOM     60  C   UNL     1       2.056  -1.265   8.422  1.00  0.00     0.031 A 
ATOM     61  C   UNL     1       7.895   0.509   4.774  1.00  0.00     0.031 A 
ATOM     62  C   UNL     1       3.059  -2.069   9.074  1.00  0.00     0.049 A 
ATOM     63  C   UNL     1       7.268  -0.802   5.118  1.00  0.00     0.074 A 
ATOM     64  C   UNL     1       3.576  -2.091  10.356  1.00  0.00     0.029 A 
ATOM     65  N   UNL     1       4.011  -2.650   8.265  1.00  0.00    -0.354 N 
ATOM     66  N   UNL     1       7.676  -1.536   6.114  1.00  0.00    -0.248 NA
ATOM     67  C   UNL     1       5.900  -1.059   4.677  1.00  0.00     0.031 C 
ATOM     68  C   UNL     1       4.984  -2.217  10.176  1.00  0.00     0.029 A 
ATOM     69  C   UNL     1       5.242  -2.385   8.815  1.00  0.00     0.049 A 
ATOM     70  H   UNL     1       3.840  -3.163   7.442  1.00  0.00     0.167 HD
ATOM     71  C   UNL     1       6.516  -2.015   6.705  1.00  0.00     0.074 A 
ATOM     72  C   UNL     1       5.457  -1.766   5.723  1.00  0.00     0.031 C 
ATOM     73  C   UNL     1       6.464  -2.259   8.048  1.00  0.00     0.031 A 
BRANCH  60  74
ATOM     74  C   UNL     1       1.097  -1.830   7.407  1.00  0.00    -0.014 A 
ATOM     75  C   UNL     1       0.746  -3.189   7.488  1.00  0.00     0.010 A 
ATOM     76  C   UNL     1       0.713  -1.139   6.237  1.00  0.00     0.010 A 
ATOM     77  C   UNL     1       0.080  -3.830   6.434  1.00  0.00     0.020 A 
ATOM     78  C   UNL     1       0.009  -1.753   5.202  1.00  0.00     0.020 A 
ATOM     79  C   UNL     1      -0.279  -3.105   5.296  1.00  0.00     0.054 A 
BRANCH  79  80
ATOM     80  S   UNL     1      -1.070  -3.956   3.911  1.00  0.00     0.124 S 
ATOM     81  O   UNL     1      -0.027  -4.888   3.496  1.00  0.00    -0.237 OA
ATOM     82  O   UNL     1      -2.241  -4.551   4.547  1.00  0.00    -0.237 OA
ATOM     83  O   UNL     1      -1.352  -2.877   2.966  1.00  0.00    -0.744 OA
ENDBRANCH  79  80
ENDBRANCH  60  74
BRANCH  61  84
ATOM     84  C   UNL     1       8.460   0.735   3.389  1.00  0.00    -0.014 A 
ATOM     85  C   UNL     1       8.558  -0.352   2.484  1.00  0.00     0.010 A 
ATOM     86  C   UNL     1       8.582   2.017   2.822  1.00  0.00     0.010 A 
ATOM     87  C   UNL     1       8.558  -0.166   1.085  1.00  0.00     0.020 A 
ATOM     88  C   UNL     1       8.540   2.214   1.425  1.00  0.00     0.020 A 
ATOM     89  C   UNL     1       8.480   1.121   0.563  1.00  0.00     0.054 A 
BRANCH  89  90
ATOM     90  S   UNL     1       8.098   1.376  -1.204  1.00  0.00     0.124 S 
ATOM     91  O   UNL     1       9.426   1.425  -1.807  1.00  0.00    -0.237 OA
ATOM     92  O   UNL     1       7.294   0.204  -1.541  1.00  0.00    -0.237 OA
ATOM     93  O   UNL     1       7.365   2.641  -1.200  1.00  0.00    -0.744 OA
ENDBRANCH  89  90
ENDBRANCH  61  84
BRANCH  73  94
ATOM     94  C   UNL     1       7.753  -2.176   8.845  1.00  0.00    -0.014 A 
ATOM     95  C   UNL     1       8.544  -1.011   8.961  1.00  0.00     0.010 A 
ATOM     96  C   UNL     1       8.088  -3.283   9.640  1.00  0.00     0.010 A 
ATOM     97  C   UNL     1       9.653  -0.973   9.822  1.00  0.00     0.020 A 
ATOM     98  C   UNL     1       9.177  -3.246  10.513  1.00  0.00     0.020 A 
ATOM     99  C   UNL     1       9.964  -2.097  10.591  1.00  0.00     0.054 A 
BRANCH  99 100
ATOM    100  S   UNL     1      11.386  -2.046  11.718  1.00  0.00     0.124 S 
ATOM    101  O   UNL     1      12.516  -1.975  10.796  1.00  0.00    -0.237 OA
ATOM    102  O   UNL     1      11.136  -0.840  12.502  1.00  0.00    -0.237 OA
ATOM    103  O   UNL     1      11.278  -3.297  12.468  1.00  0.00    -0.744 OA
ENDBRANCH  99 100
ENDBRANCH  73  94
ENDBRANCH  47  48
ENDBRANCH  40  42
ENDBRANCH  39  40
ENDBRANCH  38  39
ENDBRANCH  37  38
ENDBRANCH  36  37
ENDBRANCH  35  36
ENDBRANCH   1  35
TORSDOF 25
