REMARK SMILES C[C@@H]1CN([C@@H](CCS(C)(=O)=O)C(=O)OCCOCCOC(=O)c2ccc(-c3c4nc(c(-c5ccc(S(=O)(=O)[O-])cc5)c5ccc([nH]5)c(-c5ccc(S(=O)(=O)[O-])cc5)c5nc(c(-c6ccc(S(=O)(=O)[O-])cc6)c6ccc3[nH]6)C=C5)C=C4)cc2)S(=O)(=O)C1
REMARK SMILES IDX 17 1 16 2 15 3 14 4 12 5 13 6 5 7 4 8 1 9 2 10 3 11 86 12
REMARK SMILES IDX 83 13 84 14 85 15 6 16 7 17 8 18 9 19 10 20 11 21 18 22
REMARK SMILES IDX 19 23 20 24 21 25 22 26 23 27 24 28 82 29 25 30 81 31 26 32
REMARK SMILES IDX 27 33 28 34 75 35 29 36 80 37 74 38 76 39 30 40 79 41 73 42
REMARK SMILES IDX 72 43 31 45 61 46 42 47 60 48 43 49 46 50 59 51 77 52 44 53
REMARK SMILES IDX 45 54 58 56 78 57 47 58 32 59 33 60 41 61 34 62 40 63 35 64
REMARK SMILES IDX 36 65 37 66 38 67 39 68 62 69 63 70 71 71 64 72 70 73 65 74
REMARK SMILES IDX 66 75 67 76 68 77 69 78 48 79 49 80 57 81 50 82 56 83 51 84
REMARK SMILES IDX 52 85 53 86 54 87 55 88
REMARK H PARENT 76 44 46 55
REMARK Flexibility Score: inf
ROOT
ATOM      1  O   UNL     1       1.751   8.612   0.385  1.00  0.00    -0.374 OA
ENDROOT
BRANCH   1   2
ATOM      2  C   UNL     1       1.191   8.539   1.695  1.00  0.00     0.202 C 
BRANCH   2   3
ATOM      3  C   UNL     1      -0.109   7.756   1.833  1.00  0.00     0.261 C 
BRANCH   3   4
ATOM      4  O   UNL     1       0.046   6.358   1.513  1.00  0.00    -0.462 OA
BRANCH   4   5
ATOM      5  C   UNL     1      -0.764   5.907   0.538  1.00  0.00     0.324 C 
ATOM      6  O   UNL     1      -1.503   6.629  -0.135  1.00  0.00    -0.250 OA
BRANCH   5   7
ATOM      7  C   UNL     1      -0.806   4.413   0.346  1.00  0.00     0.183 C 
BRANCH   7   8
ATOM      8  N   UNL     1       0.322   3.471   0.457  1.00  0.00    -0.187 NA
ATOM      9  C   UNL     1       0.842  -0.143  -0.440  1.00  0.00     0.010 C 
ATOM     10  C   UNL     1       0.465   1.099   0.349  1.00  0.00     0.017 C 
ATOM     11  C   UNL     1       0.416   2.362  -0.515  1.00  0.00     0.107 C 
ATOM     12  C   UNL     1       1.467   1.406   1.458  1.00  0.00     0.159 C 
ATOM     13  S   UNL     1       1.234   3.137   1.835  1.00  0.00     0.215 S 
ATOM     14  O   UNL     1       2.528   3.763   1.691  1.00  0.00    -0.212 OA
ATOM     15  O   UNL     1       0.416   3.219   3.007  1.00  0.00    -0.212 OA
ENDBRANCH   7   8
BRANCH   7  16
ATOM     16  C   UNL     1      -2.175   3.868   0.807  1.00  0.00     0.048 C 
BRANCH  16  17
ATOM     17  C   UNL     1      -2.464   3.523   2.262  1.00  0.00     0.139 C 
BRANCH  17  18
ATOM     18  S   UNL     1      -2.486   4.804   3.513  1.00  0.00     0.147 S 
ATOM     19  C   UNL     1      -3.466   6.131   2.865  1.00  0.00     0.158 C 
ATOM     20  O   UNL     1      -3.223   4.266   4.641  1.00  0.00    -0.229 OA
ATOM     21  O   UNL     1      -1.160   5.349   3.699  1.00  0.00    -0.229 OA
ENDBRANCH  17  18
ENDBRANCH  16  17
ENDBRANCH   7  16
ENDBRANCH   5   7
ENDBRANCH   4   5
ENDBRANCH   3   4
ENDBRANCH   2   3
ENDBRANCH   1   2
BRANCH   1  22
ATOM     22  C   UNL     1       2.236   7.403  -0.197  1.00  0.00     0.202 C 
BRANCH  22  23
ATOM     23  C   UNL     1       3.470   6.755   0.439  1.00  0.00     0.261 C 
BRANCH  23  24
ATOM     24  O   UNL     1       3.268   6.359   1.802  1.00  0.00    -0.460 OA
BRANCH  24  25
ATOM     25  C   UNL     1       4.003   7.015   2.725  1.00  0.00     0.338 C 
ATOM     26  O   UNL     1       4.769   7.944   2.526  1.00  0.00    -0.246 OA
BRANCH  25  27
ATOM     27  C   UNL     1       3.652   6.556   4.083  1.00  0.00     0.060 A 
ATOM     28  C   UNL     1       3.158   7.503   4.986  1.00  0.00     0.016 A 
ATOM     29  C   UNL     1       3.954   5.261   4.508  1.00  0.00     0.016 A 
ATOM     30  C   UNL     1       3.041   7.181   6.337  1.00  0.00     0.010 A 
ATOM     31  C   UNL     1       3.832   4.939   5.866  1.00  0.00     0.010 A 
ATOM     32  C   UNL     1       3.428   5.913   6.797  1.00  0.00    -0.014 A 
BRANCH  32  33
ATOM     33  C   UNL     1       3.546   5.676   8.261  1.00  0.00     0.031 A 
ATOM     34  C   UNL     1       4.914   5.636   8.897  1.00  0.00     0.074 A 
ATOM     35  C   UNL     1       2.447   5.563   9.031  1.00  0.00     0.049 A 
ATOM     36  N   UNL     1       5.239   5.484  10.157  1.00  0.00    -0.248 NA
ATOM     37  C   UNL     1       6.068   5.786   7.996  1.00  0.00     0.031 C 
ATOM     38  C   UNL     1       1.069   5.615   8.547  1.00  0.00     0.029 A 
ATOM     39  N   UNL     1       2.322   5.389  10.388  1.00  0.00    -0.354 N 
ATOM     40  C   UNL     1       6.629   5.511  10.198  1.00  0.00     0.074 A 
ATOM     41  C   UNL     1       7.087   5.656   8.834  1.00  0.00     0.031 C 
ATOM     42  C   UNL     1       0.235   5.489   9.594  1.00  0.00     0.029 A 
ATOM     43  C   UNL     1       1.018   5.310  10.815  1.00  0.00     0.049 A 
ATOM     44  H   UNL     1       3.093   5.327  10.997  1.00  0.00     0.167 HD
ATOM     45  C   UNL     1       7.452   5.433  11.273  1.00  0.00     0.031 A 
ATOM     46  C   UNL     1       0.510   5.103  12.047  1.00  0.00     0.031 A 
ATOM     47  C   UNL     1       6.996   5.281  12.631  1.00  0.00     0.049 A 
ATOM     48  C   UNL     1       1.447   4.954  13.219  1.00  0.00     0.074 A 
ATOM     49  C   UNL     1       7.753   5.217  13.789  1.00  0.00     0.029 A 
ATOM     50  N   UNL     1       5.669   5.160  13.016  1.00  0.00    -0.354 N 
ATOM     51  N   UNL     1       2.758   5.018  13.245  1.00  0.00    -0.248 NA
ATOM     52  C   UNL     1       0.833   4.716  14.533  1.00  0.00     0.031 C 
ATOM     53  C   UNL     1       6.889   4.989  14.865  1.00  0.00     0.029 A 
ATOM     54  C   UNL     1       5.588   4.989  14.389  1.00  0.00     0.049 A 
ATOM     55  H   UNL     1       4.899   5.192  12.404  1.00  0.00     0.167 HD
ATOM     56  C   UNL     1       3.121   4.861  14.579  1.00  0.00     0.074 A 
ATOM     57  C   UNL     1       1.892   4.716  15.331  1.00  0.00     0.031 C 
ATOM     58  C   UNL     1       4.360   4.842  15.132  1.00  0.00     0.031 A 
BRANCH  45  59
ATOM     59  C   UNL     1       8.939   5.477  11.022  1.00  0.00    -0.014 A 
ATOM     60  C   UNL     1       9.576   6.654  10.587  1.00  0.00     0.010 A 
ATOM     61  C   UNL     1       9.721   4.334  11.275  1.00  0.00     0.010 A 
ATOM     62  C   UNL     1      10.958   6.674  10.372  1.00  0.00     0.020 A 
ATOM     63  C   UNL     1      11.107   4.360  11.093  1.00  0.00     0.020 A 
ATOM     64  C   UNL     1      11.715   5.526  10.626  1.00  0.00     0.054 A 
BRANCH  64  65
ATOM     65  S   UNL     1      13.509   5.590  10.364  1.00  0.00     0.124 S 
ATOM     66  O   UNL     1      13.600   5.657   8.908  1.00  0.00    -0.237 OA
ATOM     67  O   UNL     1      13.893   6.807  11.074  1.00  0.00    -0.237 OA
ATOM     68  O   UNL     1      13.993   4.346  10.960  1.00  0.00    -0.744 OA
ENDBRANCH  64  65
ENDBRANCH  45  59
BRANCH  46  69
ATOM     69  C   UNL     1      -0.966   5.011  12.237  1.00  0.00    -0.014 A 
ATOM     70  C   UNL     1      -1.663   5.995  12.960  1.00  0.00     0.010 A 
ATOM     71  C   UNL     1      -1.683   3.928  11.695  1.00  0.00     0.010 A 
ATOM     72  C   UNL     1      -3.044   5.887  13.155  1.00  0.00     0.020 A 
ATOM     73  C   UNL     1      -3.068   3.834  11.858  1.00  0.00     0.020 A 
ATOM     74  C   UNL     1      -3.738   4.808  12.599  1.00  0.00     0.054 A 
BRANCH  74  75
ATOM     75  S   UNL     1      -5.536   4.714  12.828  1.00  0.00     0.124 S 
ATOM     76  O   UNL     1      -5.646   4.395  14.248  1.00  0.00    -0.237 OA
ATOM     77  O   UNL     1      -5.973   6.055  12.447  1.00  0.00    -0.237 OA
ATOM     78  O   UNL     1      -5.945   3.649  11.915  1.00  0.00    -0.744 OA
ENDBRANCH  74  75
ENDBRANCH  46  69
BRANCH  58  79
ATOM     79  C   UNL     1       4.455   4.701  16.631  1.00  0.00    -0.014 A 
ATOM     80  C   UNL     1       4.118   3.500  17.282  1.00  0.00     0.010 A 
ATOM     81  C   UNL     1       4.933   5.780  17.399  1.00  0.00     0.010 A 
ATOM     82  C   UNL     1       4.215   3.397  18.674  1.00  0.00     0.020 A 
ATOM     83  C   UNL     1       5.064   5.669  18.786  1.00  0.00     0.020 A 
ATOM     84  C   UNL     1       4.687   4.483  19.417  1.00  0.00     0.054 A 
BRANCH  84  85
ATOM     85  S   UNL     1       4.830   4.313  21.218  1.00  0.00     0.124 S 
ATOM     86  O   UNL     1       3.432   4.319  21.637  1.00  0.00    -0.237 OA
ATOM     87  O   UNL     1       5.525   3.036  21.365  1.00  0.00    -0.237 OA
ATOM     88  O   UNL     1       5.605   5.486  21.618  1.00  0.00    -0.744 OA
ENDBRANCH  84  85
ENDBRANCH  58  79
ENDBRANCH  32  33
ENDBRANCH  25  27
ENDBRANCH  24  25
ENDBRANCH  23  24
ENDBRANCH  22  23
ENDBRANCH   1  22
TORSDOF 21
