REMARK SMILES CC(C)CN(CC(N)=O)C(=O)N1CC[C@H](C(=O)OCCOCCOC(=O)c2ccc(-c3c4nc(c(-c5ccc(S(=O)(=O)[O-])cc5)c5ccc([nH]5)c(-c5ccc(S(=O)(=O)[O-])cc5)c5nc(c(-c6ccc(S(=O)(=O)[O-])cc6)c6ccc3[nH]6)C=C5)C=C4)cc2)[C@@H]1C
REMARK SMILES IDX 20 1 19 2 18 3 16 4 17 5 15 6 12 7 13 8 87 9 14 10 88 11
REMARK SMILES IDX 10 12 11 13 5 14 4 15 2 16 1 17 3 18 6 19 7 20 8 21 9 22
REMARK SMILES IDX 21 25 22 26 23 27 24 28 25 29 26 30 27 31 28 32 86 33 29 34
REMARK SMILES IDX 85 35 30 36 31 37 32 38 79 39 33 40 84 41 78 42 80 43 34 44
REMARK SMILES IDX 83 45 77 46 76 47 35 49 65 50 46 51 64 52 47 53 50 54 63 55
REMARK SMILES IDX 81 56 48 57 49 58 62 60 82 61 51 62 36 63 37 64 45 65 38 66
REMARK SMILES IDX 44 67 39 68 40 69 41 70 42 71 43 72 66 73 67 74 75 75 68 76
REMARK SMILES IDX 74 77 69 78 70 79 71 80 72 81 73 82 52 83 53 84 61 85 54 86
REMARK SMILES IDX 60 87 55 88 56 89 57 90 58 91 59 92
REMARK H PARENT 8 23 8 24 80 48 50 59
REMARK Flexibility Score: inf
ROOT
ATOM      1  C   UNL     1      -5.137  -6.555  -1.613  1.00  0.00     0.202 C 
ENDROOT
BRANCH   1   2
ATOM      2  C   UNL     1      -5.684  -6.564  -0.182  1.00  0.00     0.261 C 
BRANCH   2   3
ATOM      3  O   UNL     1      -4.999  -5.569   0.602  1.00  0.00    -0.463 OA
BRANCH   3   4
ATOM      4  C   UNL     1      -4.021  -5.998   1.422  1.00  0.00     0.311 C 
ATOM      5  O   UNL     1      -3.841  -7.168   1.738  1.00  0.00    -0.252 OA
BRANCH   4   6
ATOM      6  C   UNL     1      -3.119  -4.882   1.912  1.00  0.00     0.123 C 
ATOM      7  N   UNL     1      -1.800  -3.026   1.215  1.00  0.00    -0.321 N 
ATOM      8  C   UNL     1      -0.977  -4.182   0.973  1.00  0.00     0.122 C 
ATOM      9  C   UNL     1      -3.200  -3.434   1.372  1.00  0.00     0.098 C 
ATOM     10  C   UNL     1      -1.637  -5.293   1.758  1.00  0.00     0.039 C 
ATOM     11  C   UNL     1      -4.020  -3.102   0.124  1.00  0.00     0.032 C 
BRANCH   7  12
ATOM     12  C   UNL     1      -1.411  -1.832   0.646  1.00  0.00     0.320 C 
ATOM     13  O   UNL     1      -0.826  -1.838  -0.437  1.00  0.00    -0.248 OA
BRANCH  12  14
ATOM     14  N   UNL     1      -1.613  -0.681   1.382  1.00  0.00    -0.315 N 
BRANCH  14  15
ATOM     15  C   UNL     1      -1.129   0.589   0.828  1.00  0.00     0.125 C 
BRANCH  15  16
ATOM     16  C   UNL     1       0.372   0.849   1.114  1.00  0.00     0.002 C 
ATOM     17  C   UNL     1       1.308   0.021   0.226  1.00  0.00     0.009 C 
ATOM     18  C   UNL     1       0.697   2.332   0.914  1.00  0.00     0.009 C 
ENDBRANCH  15  16
ENDBRANCH  14  15
BRANCH  14  19
ATOM     19  C   UNL     1      -2.246  -0.627   2.703  1.00  0.00     0.221 C 
BRANCH  19  20
ATOM     20  C   UNL     1      -3.767  -0.409   2.614  1.00  0.00     0.237 C 
ATOM     21  N   UNL     1      -4.516  -1.075   3.549  1.00  0.00    -0.368 N 
ATOM     22  O   UNL     1      -4.318   0.314   1.792  1.00  0.00    -0.273 OA
ATOM     23  H   UNL     1      -4.075  -1.657   4.210  1.00  0.00     0.159 HD
ATOM     24  H   UNL     1      -5.495  -0.972   3.559  1.00  0.00     0.159 HD
ENDBRANCH  19  20
ENDBRANCH  14  19
ENDBRANCH  12  14
ENDBRANCH   7  12
ENDBRANCH   4   6
ENDBRANCH   3   4
ENDBRANCH   2   3
ENDBRANCH   1   2
BRANCH   1  25
ATOM     25  O   UNL     1      -3.872  -7.207  -1.771  1.00  0.00    -0.374 OA
BRANCH  25  26
ATOM     26  C   UNL     1      -2.712  -6.406  -1.554  1.00  0.00     0.202 C 
BRANCH  26  27
ATOM     27  C   UNL     1      -2.189  -5.627  -2.765  1.00  0.00     0.261 C 
BRANCH  27  28
ATOM     28  O   UNL     1      -3.104  -4.587  -3.142  1.00  0.00    -0.460 OA
BRANCH  28  29
ATOM     29  C   UNL     1      -3.924  -4.916  -4.164  1.00  0.00     0.338 C 
ATOM     30  O   UNL     1      -3.883  -5.941  -4.832  1.00  0.00    -0.246 OA
BRANCH  29  31
ATOM     31  C   UNL     1      -5.028  -3.943  -4.274  1.00  0.00     0.060 A 
ATOM     32  C   UNL     1      -6.286  -4.462  -4.601  1.00  0.00     0.016 A 
ATOM     33  C   UNL     1      -4.844  -2.564  -4.138  1.00  0.00     0.016 A 
ATOM     34  C   UNL     1      -7.333  -3.604  -4.913  1.00  0.00     0.010 A 
ATOM     35  C   UNL     1      -5.903  -1.700  -4.444  1.00  0.00     0.010 A 
ATOM     36  C   UNL     1      -7.128  -2.219  -4.902  1.00  0.00    -0.014 A 
BRANCH  36  37
ATOM     37  C   UNL     1      -8.128  -1.358  -5.582  1.00  0.00     0.031 A 
ATOM     38  C   UNL     1      -7.824  -0.855  -6.971  1.00  0.00     0.074 A 
ATOM     39  C   UNL     1      -9.329  -1.123  -5.024  1.00  0.00     0.049 A 
ATOM     40  N   UNL     1      -8.582  -0.173  -7.790  1.00  0.00    -0.248 NA
ATOM     41  C   UNL     1      -6.488  -1.164  -7.510  1.00  0.00     0.031 C 
ATOM     42  C   UNL     1      -9.758  -1.595  -3.708  1.00  0.00     0.029 A 
ATOM     43  N   UNL     1     -10.418  -0.443  -5.509  1.00  0.00    -0.354 N 
ATOM     44  C   UNL     1      -7.817   0.030  -8.934  1.00  0.00     0.074 A 
ATOM     45  C   UNL     1      -6.521  -0.561  -8.688  1.00  0.00     0.031 C 
ATOM     46  C   UNL     1     -11.025  -1.201  -3.495  1.00  0.00     0.029 A 
ATOM     47  C   UNL     1     -11.487  -0.428  -4.647  1.00  0.00     0.049 A 
ATOM     48  H   UNL     1     -10.431  -0.007  -6.392  1.00  0.00     0.167 HD
ATOM     49  C   UNL     1      -8.163   0.642 -10.092  1.00  0.00     0.031 A 
ATOM     50  C   UNL     1     -12.700   0.146  -4.771  1.00  0.00     0.031 A 
ATOM     51  C   UNL     1      -9.450   1.238 -10.332  1.00  0.00     0.049 A 
ATOM     52  C   UNL     1     -13.042   0.871  -6.047  1.00  0.00     0.074 A 
ATOM     53  C   UNL     1      -9.904   1.875 -11.474  1.00  0.00     0.029 A 
ATOM     54  N   UNL     1     -10.489   1.275  -9.414  1.00  0.00    -0.354 N 
ATOM     55  N   UNL     1     -12.314   1.037  -7.126  1.00  0.00    -0.248 NA
ATOM     56  C   UNL     1     -14.382   1.468  -6.128  1.00  0.00     0.031 C 
ATOM     57  C   UNL     1     -11.196   2.350 -11.224  1.00  0.00     0.029 A 
ATOM     58  C   UNL     1     -11.575   1.943  -9.954  1.00  0.00     0.049 A 
ATOM     59  H   UNL     1     -10.458   0.883  -8.511  1.00  0.00     0.167 HD
ATOM     60  C   UNL     1     -13.121   1.724  -8.028  1.00  0.00     0.074 A 
ATOM     61  C   UNL     1     -14.397   1.926  -7.372  1.00  0.00     0.031 C 
ATOM     62  C   UNL     1     -12.837   2.143  -9.287  1.00  0.00     0.031 A 
BRANCH  49  63
ATOM     63  C   UNL     1      -7.117   0.726 -11.175  1.00  0.00    -0.014 A 
ATOM     64  C   UNL     1      -6.688  -0.419 -11.873  1.00  0.00     0.010 A 
ATOM     65  C   UNL     1      -6.574   1.977 -11.520  1.00  0.00     0.010 A 
ATOM     66  C   UNL     1      -5.709  -0.319 -12.866  1.00  0.00     0.020 A 
ATOM     67  C   UNL     1      -5.618   2.086 -12.535  1.00  0.00     0.020 A 
ATOM     68  C   UNL     1      -5.180   0.934 -13.190  1.00  0.00     0.054 A 
BRANCH  68  69
ATOM     69  S   UNL     1      -3.931   1.039 -14.501  1.00  0.00     0.124 S 
ATOM     70  O   UNL     1      -2.768   0.430 -13.860  1.00  0.00    -0.237 OA
ATOM     71  O   UNL     1      -4.533   0.260 -15.580  1.00  0.00    -0.237 OA
ATOM     72  O   UNL     1      -3.818   2.473 -14.760  1.00  0.00    -0.744 OA
ENDBRANCH  68  69
ENDBRANCH  49  63
BRANCH  50  73
ATOM     73  C   UNL     1     -13.683   0.059  -3.655  1.00  0.00    -0.014 A 
ATOM     74  C   UNL     1     -14.868  -0.685  -3.790  1.00  0.00     0.010 A 
ATOM     75  C   UNL     1     -13.435   0.733  -2.445  1.00  0.00     0.010 A 
ATOM     76  C   UNL     1     -15.796  -0.735  -2.745  1.00  0.00     0.020 A 
ATOM     77  C   UNL     1     -14.344   0.659  -1.387  1.00  0.00     0.020 A 
ATOM     78  C   UNL     1     -15.526  -0.065  -1.548  1.00  0.00     0.054 A 
BRANCH  78  79
ATOM     79  S   UNL     1     -16.721  -0.185  -0.188  1.00  0.00     0.124 S 
ATOM     80  O   UNL     1     -17.822   0.640  -0.676  1.00  0.00    -0.237 OA
ATOM     81  O   UNL     1     -16.983  -1.621  -0.126  1.00  0.00    -0.237 OA
ATOM     82  O   UNL     1     -15.992   0.357   0.956  1.00  0.00    -0.744 OA
ENDBRANCH  78  79
ENDBRANCH  50  73
BRANCH  62  83
ATOM     83  C   UNL     1     -13.946   2.815 -10.059  1.00  0.00    -0.014 A 
ATOM     84  C   UNL     1     -14.434   4.084  -9.700  1.00  0.00     0.010 A 
ATOM     85  C   UNL     1     -14.498   2.163 -11.178  1.00  0.00     0.010 A 
ATOM     86  C   UNL     1     -15.496   4.658 -10.404  1.00  0.00     0.020 A 
ATOM     87  C   UNL     1     -15.534   2.750 -11.907  1.00  0.00     0.020 A 
ATOM     88  C   UNL     1     -16.045   3.983 -11.499  1.00  0.00     0.054 A 
BRANCH  88  89
ATOM     89  S   UNL     1     -17.427   4.744 -12.394  1.00  0.00     0.124 S 
ATOM     90  O   UNL     1     -18.532   4.561 -11.457  1.00  0.00    -0.237 OA
ATOM     91  O   UNL     1     -16.975   6.121 -12.572  1.00  0.00    -0.237 OA
ATOM     92  O   UNL     1     -17.517   3.960 -13.624  1.00  0.00    -0.744 OA
ENDBRANCH  88  89
ENDBRANCH  62  83
ENDBRANCH  36  37
ENDBRANCH  29  31
ENDBRANCH  28  29
ENDBRANCH  27  28
ENDBRANCH  26  27
ENDBRANCH  25  26
ENDBRANCH   1  25
TORSDOF 23
