REMARK SMILES CC(C)(CC(=O)OCCOCCOC(=O)c1ccc(-c2c3nc(c(-c4ccc(S(=O)(=O)[O-])cc4)c4ccc([nH]4)c(-c4ccc(S(=O)(=O)[O-])cc4)c4nc(c(-c5ccc(S(=O)(=O)[O-])cc5)c5ccc2[nH]5)C=C4)C=C3)cc1)Cc1nc([C@@]2(C)CCCO2)no1
REMARK SMILES IDX 9 1 8 2 7 3 5 4 6 5 4 6 2 7 1 8 3 9 76 10 77 11 78 12 87 13
REMARK SMILES IDX 79 14 86 15 80 16 81 17 82 18 85 19 83 20 84 21 10 22 11 23
REMARK SMILES IDX 12 24 13 25 14 26 15 27 16 28 17 29 75 30 18 31 74 32 19 33
REMARK SMILES IDX 20 34 21 35 68 36 22 37 73 38 67 39 69 40 23 41 72 42 66 43
REMARK SMILES IDX 65 44 24 46 54 47 35 48 53 49 36 50 39 51 52 52 70 53 37 54
REMARK SMILES IDX 38 55 51 57 71 58 40 59 25 60 26 61 34 62 27 63 33 64 28 65
REMARK SMILES IDX 29 66 30 67 31 68 32 69 55 70 56 71 64 72 57 73 63 74 58 75
REMARK SMILES IDX 59 76 60 77 61 78 62 79 41 80 42 81 50 82 43 83 49 84 44 85
REMARK SMILES IDX 45 86 46 87 47 88 48 89
REMARK H PARENT 69 45 39 56
REMARK Flexibility Score: inf
ROOT
ATOM      1  C   UNL     1      -3.211   1.571   2.520  1.00  0.00     0.202 C 
ENDROOT
BRANCH   1   2
ATOM      2  C   UNL     1      -3.030   0.263   1.726  1.00  0.00     0.261 C 
BRANCH   2   3
ATOM      3  O   UNL     1      -1.934   0.248   0.809  1.00  0.00    -0.463 OA
BRANCH   3   4
ATOM      4  C   UNL     1      -2.255   0.596  -0.449  1.00  0.00     0.306 C 
ATOM      5  O   UNL     1      -3.393   0.805  -0.857  1.00  0.00    -0.252 OA
BRANCH   4   6
ATOM      6  C   UNL     1      -1.062   0.755  -1.356  1.00  0.00     0.129 C 
BRANCH   6   7
ATOM      7  C   UNL     1       0.420   0.740  -0.882  1.00  0.00    -0.016 C 
ATOM      8  C   UNL     1       0.828  -0.559  -0.178  1.00  0.00     0.012 C 
ATOM      9  C   UNL     1       1.214   0.786  -2.233  1.00  0.00     0.012 C 
BRANCH   7  10
ATOM     10  C   UNL     1       0.885   1.986  -0.088  1.00  0.00     0.107 C 
BRANCH  10  11
ATOM     11  C   UNL     1       0.580   2.177   1.363  1.00  0.00     0.227 A 
ATOM     12  N   UNL     1      -0.501   1.688   2.502  1.00  0.00    -0.193 NA
ATOM     13  O   UNL     1       1.474   3.649   2.085  1.00  0.00    -0.339 OA
ATOM     14  C   UNL     1      -0.426   2.734   4.057  1.00  0.00     0.203 A 
ATOM     15  N   UNL     1       0.759   3.958   3.880  1.00  0.00    -0.059 NA
BRANCH  14  16
ATOM     16  C   UNL     1      -1.165   2.534   5.375  1.00  0.00     0.128 C 
ATOM     17  C   UNL     1      -1.806   1.139   5.606  1.00  0.00     0.051 C 
ATOM     18  C   UNL     1      -0.247   2.900   6.555  1.00  0.00     0.046 C 
ATOM     19  O   UNL     1      -2.245   3.496   5.531  1.00  0.00    -0.367 OA
ATOM     20  C   UNL     1      -1.220   3.186   7.671  1.00  0.00     0.032 C 
ATOM     21  C   UNL     1      -2.434   3.728   6.940  1.00  0.00     0.161 C 
ENDBRANCH  14  16
ENDBRANCH  10  11
ENDBRANCH   7  10
ENDBRANCH   6   7
ENDBRANCH   4   6
ENDBRANCH   3   4
ENDBRANCH   2   3
ENDBRANCH   1   2
BRANCH   1  22
ATOM     22  O   UNL     1      -3.049   2.858   1.943  1.00  0.00    -0.374 OA
BRANCH  22  23
ATOM     23  C   UNL     1      -1.804   3.259   1.382  1.00  0.00     0.202 C 
BRANCH  23  24
ATOM     24  C   UNL     1      -0.395   3.671   2.279  1.00  0.00     0.261 C 
BRANCH  24  25
ATOM     25  O   UNL     1       1.033   2.360   3.088  1.00  0.00    -0.460 OA
BRANCH  25  26
ATOM     26  C   UNL     1       2.320   1.915   3.442  1.00  0.00     0.338 C 
ATOM     27  O   UNL     1       3.365   2.527   3.260  1.00  0.00    -0.246 OA
BRANCH  26  28
ATOM     28  C   UNL     1       2.343   0.559   4.086  1.00  0.00     0.060 A 
ATOM     29  C   UNL     1       1.241   0.063   4.760  1.00  0.00     0.016 A 
ATOM     30  C   UNL     1       3.527  -0.174   4.170  1.00  0.00     0.016 A 
ATOM     31  C   UNL     1       1.346  -0.944   5.711  1.00  0.00     0.010 A 
ATOM     32  C   UNL     1       3.610  -1.294   5.017  1.00  0.00     0.010 A 
ATOM     33  C   UNL     1       2.549  -1.622   5.878  1.00  0.00    -0.014 A 
BRANCH  33  34
ATOM     34  C   UNL     1       2.715  -2.565   7.020  1.00  0.00     0.031 A 
ATOM     35  C   UNL     1       3.787  -2.296   8.052  1.00  0.00     0.074 A 
ATOM     36  C   UNL     1       1.873  -3.606   7.188  1.00  0.00     0.049 A 
ATOM     37  N   UNL     1       4.178  -3.039   9.056  1.00  0.00    -0.248 NA
ATOM     38  C   UNL     1       4.522  -1.024   7.935  1.00  0.00     0.031 C 
ATOM     39  C   UNL     1       0.733  -3.927   6.323  1.00  0.00     0.029 A 
ATOM     40  N   UNL     1       1.836  -4.583   8.152  1.00  0.00    -0.354 N 
ATOM     41  C   UNL     1       5.236  -2.355   9.649  1.00  0.00     0.074 A 
ATOM     42  C   UNL     1       5.434  -1.143   8.888  1.00  0.00     0.031 C 
ATOM     43  C   UNL     1       0.097  -5.003   6.810  1.00  0.00     0.029 A 
ATOM     44  C   UNL     1       0.835  -5.508   7.960  1.00  0.00     0.049 A 
ATOM     45  H   UNL     1       2.465  -4.619   8.908  1.00  0.00     0.167 HD
ATOM     46  C   UNL     1       5.981  -2.710  10.725  1.00  0.00     0.031 A 
ATOM     47  C   UNL     1       0.567  -6.662   8.603  1.00  0.00     0.031 A 
ATOM     48  C   UNL     1       5.767  -3.917  11.481  1.00  0.00     0.049 A 
ATOM     49  C   UNL     1       1.451  -7.072   9.746  1.00  0.00     0.074 A 
ATOM     50  C   UNL     1       6.468  -4.382  12.580  1.00  0.00     0.029 A 
ATOM     51  N   UNL     1       4.772  -4.849  11.219  1.00  0.00    -0.354 N 
ATOM     52  N   UNL     1       2.481  -6.441  10.260  1.00  0.00    -0.248 NA
ATOM     53  C   UNL     1       1.136  -8.348  10.398  1.00  0.00     0.031 C 
ATOM     54  C   UNL     1       5.941  -5.628  12.939  1.00  0.00     0.029 A 
ATOM     55  C   UNL     1       4.859  -5.900  12.117  1.00  0.00     0.049 A 
ATOM     56  H   UNL     1       4.104  -4.774  10.500  1.00  0.00     0.167 HD
ATOM     57  C   UNL     1       2.922  -7.232  11.314  1.00  0.00     0.074 A 
ATOM     58  C   UNL     1       2.029  -8.373  11.377  1.00  0.00     0.031 C 
ATOM     59  C   UNL     1       3.967  -7.034  12.156  1.00  0.00     0.031 A 
BRANCH  46  60
ATOM     60  C   UNL     1       7.142  -1.819  11.099  1.00  0.00    -0.014 A 
ATOM     61  C   UNL     1       6.953  -0.531  11.634  1.00  0.00     0.010 A 
ATOM     62  C   UNL     1       8.456  -2.293  10.923  1.00  0.00     0.010 A 
ATOM     63  C   UNL     1       8.053   0.278  11.942  1.00  0.00     0.020 A 
ATOM     64  C   UNL     1       9.557  -1.501  11.259  1.00  0.00     0.020 A 
ATOM     65  C   UNL     1       9.349  -0.212  11.749  1.00  0.00     0.054 A 
BRANCH  65  66
ATOM     66  S   UNL     1      10.757   0.854  12.167  1.00  0.00     0.124 S 
ATOM     67  O   UNL     1      10.694   1.865  11.115  1.00  0.00    -0.237 OA
ATOM     68  O   UNL     1      10.417   1.321  13.508  1.00  0.00    -0.237 OA
ATOM     69  O   UNL     1      11.907  -0.045  12.096  1.00  0.00    -0.744 OA
ENDBRANCH  65  66
ENDBRANCH  46  60
BRANCH  47  70
ATOM     70  C   UNL     1      -0.554  -7.529   8.140  1.00  0.00    -0.014 A 
ATOM     71  C   UNL     1      -1.683  -7.747   8.949  1.00  0.00     0.010 A 
ATOM     72  C   UNL     1      -0.501  -8.137   6.871  1.00  0.00     0.010 A 
ATOM     73  C   UNL     1      -2.728  -8.564   8.504  1.00  0.00     0.020 A 
ATOM     74  C   UNL     1      -1.559  -8.923   6.407  1.00  0.00     0.020 A 
ATOM     75  C   UNL     1      -2.662  -9.141   7.233  1.00  0.00     0.054 A 
BRANCH  75  76
ATOM     76  S   UNL     1      -4.055 -10.149   6.655  1.00  0.00     0.124 S 
ATOM     77  O   UNL     1      -3.928 -11.345   7.481  1.00  0.00    -0.237 OA
ATOM     78  O   UNL     1      -5.203  -9.295   6.947  1.00  0.00    -0.237 OA
ATOM     79  O   UNL     1      -3.775 -10.337   5.233  1.00  0.00    -0.744 OA
ENDBRANCH  75  76
ENDBRANCH  47  70
BRANCH  59  80
ATOM     80  C   UNL     1       4.165  -8.052  13.249  1.00  0.00    -0.014 A 
ATOM     81  C   UNL     1       4.572  -9.369  12.967  1.00  0.00     0.010 A 
ATOM     82  C   UNL     1       3.940  -7.677  14.586  1.00  0.00     0.010 A 
ATOM     83  C   UNL     1       4.685 -10.307  13.996  1.00  0.00     0.020 A 
ATOM     84  C   UNL     1       4.090  -8.601  15.621  1.00  0.00     0.020 A 
ATOM     85  C   UNL     1       4.436  -9.918  15.316  1.00  0.00     0.054 A 
BRANCH  85  86
ATOM     86  S   UNL     1       4.582 -11.155  16.634  1.00  0.00     0.124 S 
ATOM     87  O   UNL     1       3.393 -11.973  16.413  1.00  0.00    -0.237 OA
ATOM     88  O   UNL     1       5.856 -11.801  16.327  1.00  0.00    -0.237 OA
ATOM     89  O   UNL     1       4.572 -10.359  17.859  1.00  0.00    -0.744 OA
ENDBRANCH  85  86
ENDBRANCH  59  80
ENDBRANCH  33  34
ENDBRANCH  26  28
ENDBRANCH  25  26
ENDBRANCH  24  25
ENDBRANCH  23  24
ENDBRANCH  22  23
ENDBRANCH   1  22
TORSDOF 21
