REMARK SMILES C[C@H]1[C@@H](C(=O)OCCOCCOC(=O)c2ccc(-c3c4nc(c(-c5ccc(S(=O)(=O)[O-])cc5)c5ccc([nH]5)c(-c5ccc(S(=O)(=O)[O-])cc5)c5nc(c(-c6ccc(S(=O)(=O)[O-])cc6)c6ccc3[nH]6)C=C5)C=C4)cc2)CCN1C(=O)c1cc2cc(F)ccc2s1
REMARK SMILES IDX 10 1 9 2 8 3 7 4 6 5 4 6 5 7 3 8 1 9 2 10 77 11 75 12 76 13
REMARK SMILES IDX 78 14 79 15 80 16 81 17 89 18 82 19 88 20 83 21 87 22 84 23
REMARK SMILES IDX 86 24 85 25 11 26 12 27 13 28 14 29 15 30 16 31 74 32 17 33
REMARK SMILES IDX 73 34 18 35 19 36 20 37 67 38 21 39 72 40 66 41 68 42 22 43
REMARK SMILES IDX 71 44 65 45 64 46 23 48 53 49 34 50 52 51 35 52 38 53 51 54
REMARK SMILES IDX 69 55 36 56 37 57 50 59 70 60 39 61 24 62 25 63 33 64 26 65
REMARK SMILES IDX 32 66 27 67 28 68 29 69 30 70 31 71 54 72 55 73 63 74 56 75
REMARK SMILES IDX 62 76 57 77 58 78 59 79 60 80 61 81 40 82 41 83 49 84 42 85
REMARK SMILES IDX 48 86 43 87 44 88 45 89 46 90 47 91
REMARK H PARENT 68 47 38 58
REMARK Flexibility Score: inf
ROOT
ATOM      1  C   UNL     1      -0.634   1.111  -3.321  1.00  0.00     0.202 C 
ENDROOT
BRANCH   1   2
ATOM      2  O   UNL     1      -0.066   2.215  -4.020  1.00  0.00    -0.374 OA
BRANCH   2   3
ATOM      3  C   UNL     1       1.292   2.550  -3.715  1.00  0.00     0.202 C 
BRANCH   3   4
ATOM      4  C   UNL     1       1.501   3.209  -2.350  1.00  0.00     0.261 C 
BRANCH   4   5
ATOM      5  O   UNL     1       1.350   2.223  -1.309  1.00  0.00    -0.463 OA
BRANCH   5   6
ATOM      6  C   UNL     1       0.667   2.611  -0.213  1.00  0.00     0.311 C 
ATOM      7  O   UNL     1       0.268   3.756  -0.019  1.00  0.00    -0.252 OA
BRANCH   6   8
ATOM      8  C   UNL     1       0.317   1.488   0.745  1.00  0.00     0.123 C 
ATOM      9  C   UNL     1       2.137  -0.169  -0.205  1.00  0.00     0.032 C 
ATOM     10  C   UNL     1       0.971   0.084   0.738  1.00  0.00     0.096 C 
ATOM     11  N   UNL     1      -0.144  -0.855   0.561  1.00  0.00    -0.334 N 
ATOM     12  C   UNL     1      -1.200   1.242   0.672  1.00  0.00     0.039 C 
ATOM     13  C   UNL     1      -1.363  -0.179   0.192  1.00  0.00     0.121 C 
BRANCH  11  14
ATOM     14  C   UNL     1      -0.246  -2.098   1.164  1.00  0.00     0.264 C 
ATOM     15  O   UNL     1      -1.296  -2.443   1.709  1.00  0.00    -0.268 OA
BRANCH  14  16
ATOM     16  C   UNL     1       0.843  -3.042   1.042  1.00  0.00     0.093 A 
ATOM     17  C   UNL     1       1.348  -3.838   2.054  1.00  0.00     0.034 A 
ATOM     18  S   UNL     1       1.028  -3.859  -0.461  1.00  0.00    -0.130 S 
ATOM     19  C   UNL     1       1.058  -5.214   1.724  1.00  0.00    -0.004 A 
ATOM     20  C   UNL     1       0.787  -5.364   0.358  1.00  0.00     0.035 A 
ATOM     21  C   UNL     1       0.882  -6.333   2.569  1.00  0.00     0.048 A 
ATOM     22  C   UNL     1       0.337  -6.580  -0.187  1.00  0.00     0.022 A 
ATOM     23  C   UNL     1       0.353  -7.508   2.040  1.00  0.00     0.123 A 
ATOM     24  C   UNL     1       0.076  -7.636   0.688  1.00  0.00     0.041 A 
ATOM     25  F   UNL     1       0.061  -8.521   2.869  1.00  0.00    -0.207 F 
ENDBRANCH  14  16
ENDBRANCH  11  14
ENDBRANCH   6   8
ENDBRANCH   5   6
ENDBRANCH   4   5
ENDBRANCH   3   4
ENDBRANCH   2   3
ENDBRANCH   1   2
BRANCH   1  26
ATOM     26  C   UNL     1      -0.320  -0.281  -3.881  1.00  0.00     0.261 C 
BRANCH  26  27
ATOM     27  O   UNL     1       1.085  -0.578  -3.852  1.00  0.00    -0.460 OA
BRANCH  27  28
ATOM     28  C   UNL     1       1.685  -0.526  -5.067  1.00  0.00     0.338 C 
ATOM     29  O   UNL     1       1.144  -0.329  -6.141  1.00  0.00    -0.246 OA
BRANCH  28  30
ATOM     30  C   UNL     1       3.154  -0.583  -4.924  1.00  0.00     0.060 A 
ATOM     31  C   UNL     1       3.895   0.321  -5.694  1.00  0.00     0.016 A 
ATOM     32  C   UNL     1       3.800  -1.544  -4.142  1.00  0.00     0.016 A 
ATOM     33  C   UNL     1       5.280   0.212  -5.754  1.00  0.00     0.010 A 
ATOM     34  C   UNL     1       5.196  -1.653  -4.204  1.00  0.00     0.010 A 
ATOM     35  C   UNL     1       5.934  -0.809  -5.053  1.00  0.00    -0.014 A 
BRANCH  35  36
ATOM     36  C   UNL     1       7.357  -1.082  -5.376  1.00  0.00     0.031 A 
ATOM     37  C   UNL     1       7.681  -2.182  -6.355  1.00  0.00     0.074 A 
ATOM     38  C   UNL     1       8.336  -0.299  -4.890  1.00  0.00     0.049 A 
ATOM     39  N   UNL     1       8.836  -2.515  -6.871  1.00  0.00    -0.248 NA
ATOM     40  C   UNL     1       6.554  -3.009  -6.816  1.00  0.00     0.031 C 
ATOM     41  C   UNL     1       8.145   0.817  -3.964  1.00  0.00     0.029 A 
ATOM     42  N   UNL     1       9.687  -0.313  -5.127  1.00  0.00    -0.354 N 
ATOM     43  C   UNL     1       8.575  -3.585  -7.721  1.00  0.00     0.074 A 
ATOM     44  C   UNL     1       7.160  -3.870  -7.620  1.00  0.00     0.031 C 
ATOM     45  C   UNL     1       9.338   1.389  -3.721  1.00  0.00     0.029 A 
ATOM     46  C   UNL     1      10.374   0.672  -4.461  1.00  0.00     0.049 A 
ATOM     47  H   UNL     1      10.123  -0.968  -5.720  1.00  0.00     0.167 HD
ATOM     48  C   UNL     1       9.430  -4.263  -8.523  1.00  0.00     0.031 A 
ATOM     49  C   UNL     1      11.690   0.966  -4.452  1.00  0.00     0.031 A 
ATOM     50  C   UNL     1      10.839  -3.989  -8.615  1.00  0.00     0.049 A 
ATOM     51  C   UNL     1      12.630   0.170  -5.317  1.00  0.00     0.074 A 
ATOM     52  C   UNL     1      11.789  -4.614  -9.403  1.00  0.00     0.029 A 
ATOM     53  N   UNL     1      11.502  -3.011  -7.889  1.00  0.00    -0.354 N 
ATOM     54  N   UNL     1      12.360  -0.819  -6.137  1.00  0.00    -0.248 NA
ATOM     55  C   UNL     1      14.051   0.543  -5.270  1.00  0.00     0.031 C 
ATOM     56  C   UNL     1      13.036  -4.044  -9.119  1.00  0.00     0.029 A 
ATOM     57  C   UNL     1      12.852  -3.028  -8.195  1.00  0.00     0.049 A 
ATOM     58  H   UNL     1      11.075  -2.395  -7.250  1.00  0.00     0.167 HD
ATOM     59  C   UNL     1      13.573  -1.168  -6.722  1.00  0.00     0.074 A 
ATOM     60  C   UNL     1      14.573  -0.275  -6.173  1.00  0.00     0.031 C 
ATOM     61  C   UNL     1      13.836  -2.138  -7.633  1.00  0.00     0.031 A 
BRANCH  48  62
ATOM     62  C   UNL     1       8.861  -5.388  -9.346  1.00  0.00    -0.014 A 
ATOM     63  C   UNL     1       8.037  -5.134 -10.457  1.00  0.00     0.010 A 
ATOM     64  C   UNL     1       9.173  -6.719  -9.015  1.00  0.00     0.010 A 
ATOM     65  C   UNL     1       7.502  -6.191 -11.198  1.00  0.00     0.020 A 
ATOM     66  C   UNL     1       8.660  -7.779  -9.769  1.00  0.00     0.020 A 
ATOM     67  C   UNL     1       7.812  -7.508 -10.845  1.00  0.00     0.054 A 
BRANCH  67  68
ATOM     68  S   UNL     1       7.115  -8.863 -11.829  1.00  0.00     0.124 S 
ATOM     69  O   UNL     1       5.723  -8.872 -11.385  1.00  0.00    -0.237 OA
ATOM     70  O   UNL     1       7.333  -8.410 -13.200  1.00  0.00    -0.237 OA
ATOM     71  O   UNL     1       7.904 -10.025 -11.427  1.00  0.00    -0.744 OA
ENDBRANCH  67  68
ENDBRANCH  48  62
BRANCH  49  72
ATOM     72  C   UNL     1      12.195   2.073  -3.595  1.00  0.00    -0.014 A 
ATOM     73  C   UNL     1      12.659   3.272  -4.164  1.00  0.00     0.010 A 
ATOM     74  C   UNL     1      12.210   1.929  -2.196  1.00  0.00     0.010 A 
ATOM     75  C   UNL     1      13.142   4.301  -3.349  1.00  0.00     0.020 A 
ATOM     76  C   UNL     1      12.668   2.964  -1.377  1.00  0.00     0.020 A 
ATOM     77  C   UNL     1      13.141   4.141  -1.960  1.00  0.00     0.054 A 
BRANCH  77  78
ATOM     78  S   UNL     1      13.715   5.510  -0.917  1.00  0.00     0.124 S 
ATOM     79  O   UNL     1      15.163   5.429  -1.079  1.00  0.00    -0.237 OA
ATOM     80  O   UNL     1      13.072   6.669  -1.532  1.00  0.00    -0.237 OA
ATOM     81  O   UNL     1      13.211   5.161   0.410  1.00  0.00    -0.744 OA
ENDBRANCH  77  78
ENDBRANCH  49  72
BRANCH  61  82
ATOM     82  C   UNL     1      15.256  -2.263  -8.117  1.00  0.00    -0.014 A 
ATOM     83  C   UNL     1      16.266  -2.785  -7.289  1.00  0.00     0.010 A 
ATOM     84  C   UNL     1      15.578  -1.880  -9.432  1.00  0.00     0.010 A 
ATOM     85  C   UNL     1      17.581  -2.878  -7.752  1.00  0.00     0.020 A 
ATOM     86  C   UNL     1      16.886  -1.997  -9.908  1.00  0.00     0.020 A 
ATOM     87  C   UNL     1      17.884  -2.477  -9.057  1.00  0.00     0.054 A 
BRANCH  87  88
ATOM     88  S   UNL     1      19.594  -2.622  -9.644  1.00  0.00     0.124 S 
ATOM     89  O   UNL     1      20.234  -1.481  -8.995  1.00  0.00    -0.237 OA
ATOM     90  O   UNL     1      19.997  -3.935  -9.147  1.00  0.00    -0.237 OA
ATOM     91  O   UNL     1      19.471  -2.524 -11.097  1.00  0.00    -0.744 OA
ENDBRANCH  87  88
ENDBRANCH  61  82
ENDBRANCH  35  36
ENDBRANCH  28  30
ENDBRANCH  27  28
ENDBRANCH  26  27
ENDBRANCH   1  26
TORSDOF 19
