REMARK SMILES O=C(OCCOCCOC(=O)c1nnn(-c2cccc(C(F)(F)F)c2)c1[C@@H]1COc2ccccc2O1)c1ccc(-c2c3nc(c(-c4ccc(S(=O)(=O)[O-])cc4)c4ccc([nH]4)c(-c4ccc(S(=O)(=O)[O-])cc4)c4nc(c(-c5ccc(S(=O)(=O)[O-])cc5)c5ccc2[nH]5)C=C4)C=C3)cc1
REMARK SMILES IDX 5 1 4 2 3 3 2 4 1 5 37 6 38 7 96 8 39 9 95 10 40 11 41 12
REMARK SMILES IDX 42 13 89 14 43 15 94 16 88 17 90 18 44 19 93 20 87 21 86 22
REMARK SMILES IDX 45 24 75 25 56 26 74 27 57 28 60 29 73 30 91 31 58 32 59 33
REMARK SMILES IDX 72 35 92 36 61 37 46 38 47 39 55 40 48 41 54 42 49 43 50 44
REMARK SMILES IDX 51 45 52 46 53 47 76 48 77 49 85 50 78 51 84 52 79 53 80 54
REMARK SMILES IDX 81 55 82 56 83 57 62 58 63 59 71 60 64 61 70 62 65 63 66 64
REMARK SMILES IDX 67 65 68 66 69 67 6 68 7 69 8 70 9 71 10 72 11 73 12 74
REMARK SMILES IDX 13 75 26 76 14 77 15 78 27 79 28 80 36 81 29 82 35 83 30 84
REMARK SMILES IDX 34 85 31 86 33 87 32 88 16 89 17 90 25 91 18 92 20 93 19 94
REMARK SMILES IDX 21 95 22 96 23 97 24 98
REMARK H PARENT 90 23 60 34
REMARK Flexibility Score: inf
ROOT
ATOM      1  C   UNL     1       4.722  -1.023   0.588  1.00  0.00     0.202 C 
ENDROOT
BRANCH   1   2
ATOM      2  C   UNL     1       4.500   0.330   1.256  1.00  0.00     0.261 C 
BRANCH   2   3
ATOM      3  O   UNL     1       3.126   0.639   1.576  1.00  0.00    -0.460 OA
BRANCH   3   4
ATOM      4  C   UNL     1       2.122   0.613   0.667  1.00  0.00     0.338 C 
ATOM      5  O   UNL     1       1.175  -0.159   0.788  1.00  0.00    -0.246 OA
BRANCH   4   6
ATOM      6  C   UNL     1       2.033   1.778  -0.249  1.00  0.00     0.060 A 
ATOM      7  C   UNL     1       3.140   2.494  -0.698  1.00  0.00     0.016 A 
ATOM      8  C   UNL     1       0.746   2.199  -0.630  1.00  0.00     0.016 A 
ATOM      9  C   UNL     1       2.967   3.683  -1.385  1.00  0.00     0.010 A 
ATOM     10  C   UNL     1       0.570   3.376  -1.354  1.00  0.00     0.010 A 
ATOM     11  C   UNL     1       1.682   4.144  -1.682  1.00  0.00    -0.014 A 
BRANCH  11  12
ATOM     12  C   UNL     1       1.604   5.418  -2.384  1.00  0.00     0.031 A 
ATOM     13  C   UNL     1       2.295   5.474  -3.699  1.00  0.00     0.074 A 
ATOM     14  C   UNL     1       0.960   6.505  -1.924  1.00  0.00     0.049 A 
ATOM     15  N   UNL     1       3.376   6.116  -4.001  1.00  0.00    -0.248 NA
ATOM     16  C   UNL     1       1.768   4.631  -4.778  1.00  0.00     0.031 C 
ATOM     17  C   UNL     1       0.010   6.599  -0.817  1.00  0.00     0.029 A 
ATOM     18  N   UNL     1       0.973   7.766  -2.439  1.00  0.00    -0.354 N 
ATOM     19  C   UNL     1       3.577   5.908  -5.362  1.00  0.00     0.074 A 
ATOM     20  C   UNL     1       2.635   4.889  -5.758  1.00  0.00     0.031 C 
ATOM     21  C   UNL     1      -0.629   7.790  -0.888  1.00  0.00     0.029 A 
ATOM     22  C   UNL     1      -0.028   8.586  -1.947  1.00  0.00     0.049 A 
ATOM     23  H   UNL     1       1.636   8.068  -3.102  1.00  0.00     0.167 HD
ATOM     24  C   UNL     1       4.375   6.715  -6.114  1.00  0.00     0.031 A 
ATOM     25  C   UNL     1      -0.380   9.803  -2.425  1.00  0.00     0.031 A 
ATOM     26  C   UNL     1       5.224   7.554  -5.312  1.00  0.00     0.049 A 
ATOM     27  C   UNL     1       0.771  10.348  -3.185  1.00  0.00     0.074 A 
ATOM     28  C   UNL     1       6.213   7.333  -4.374  1.00  0.00     0.029 A 
ATOM     29  N   UNL     1       4.872   8.877  -5.186  1.00  0.00    -0.354 N 
ATOM     30  N   UNL     1       1.887  10.731  -2.632  1.00  0.00    -0.248 NA
ATOM     31  C   UNL     1       0.837  10.123  -4.621  1.00  0.00     0.031 C 
ATOM     32  C   UNL     1       6.071   8.392  -3.430  1.00  0.00     0.029 A 
ATOM     33  C   UNL     1       5.029   9.212  -3.866  1.00  0.00     0.049 A 
ATOM     34  H   UNL     1       4.565   9.472  -5.908  1.00  0.00     0.167 HD
ATOM     35  C   UNL     1       2.875  10.400  -3.548  1.00  0.00     0.074 A 
ATOM     36  C   UNL     1       2.161  10.139  -4.793  1.00  0.00     0.031 C 
ATOM     37  C   UNL     1       4.148  10.107  -3.145  1.00  0.00     0.031 A 
BRANCH  24  38
ATOM     38  C   UNL     1       4.135   6.997  -7.576  1.00  0.00    -0.014 A 
ATOM     39  C   UNL     1       5.088   7.745  -8.299  1.00  0.00     0.010 A 
ATOM     40  C   UNL     1       2.880   6.796  -8.186  1.00  0.00     0.010 A 
ATOM     41  C   UNL     1       4.772   8.321  -9.537  1.00  0.00     0.020 A 
ATOM     42  C   UNL     1       2.572   7.325  -9.440  1.00  0.00     0.020 A 
ATOM     43  C   UNL     1       3.507   8.120 -10.090  1.00  0.00     0.054 A 
BRANCH  43  44
ATOM     44  S   UNL     1       3.060   8.970 -11.624  1.00  0.00     0.124 S 
ATOM     45  O   UNL     1       2.996  10.361 -11.185  1.00  0.00    -0.237 OA
ATOM     46  O   UNL     1       4.176   8.633 -12.504  1.00  0.00    -0.237 OA
ATOM     47  O   UNL     1       1.781   8.366 -11.989  1.00  0.00    -0.744 OA
ENDBRANCH  43  44
ENDBRANCH  24  38
BRANCH  25  48
ATOM     48  C   UNL     1      -1.742  10.380  -2.501  1.00  0.00    -0.014 A 
ATOM     49  C   UNL     1      -1.935  11.737  -2.811  1.00  0.00     0.010 A 
ATOM     50  C   UNL     1      -2.866   9.528  -2.539  1.00  0.00     0.010 A 
ATOM     51  C   UNL     1      -3.195  12.211  -3.211  1.00  0.00     0.020 A 
ATOM     52  C   UNL     1      -4.126   9.996  -2.924  1.00  0.00     0.020 A 
ATOM     53  C   UNL     1      -4.278  11.331  -3.285  1.00  0.00     0.054 A 
BRANCH  53  54
ATOM     54  S   UNL     1      -5.851  11.905  -3.987  1.00  0.00     0.124 S 
ATOM     55  O   UNL     1      -6.359  12.781  -2.936  1.00  0.00    -0.237 OA
ATOM     56  O   UNL     1      -5.426  12.570  -5.216  1.00  0.00    -0.237 OA
ATOM     57  O   UNL     1      -6.609  10.670  -4.186  1.00  0.00    -0.744 OA
ENDBRANCH  53  54
ENDBRANCH  25  48
BRANCH  37  58
ATOM     58  C   UNL     1       4.575  10.494  -1.748  1.00  0.00    -0.014 A 
ATOM     59  C   UNL     1       3.917  10.061  -0.581  1.00  0.00     0.010 A 
ATOM     60  C   UNL     1       5.773  11.219  -1.609  1.00  0.00     0.010 A 
ATOM     61  C   UNL     1       4.422  10.378   0.688  1.00  0.00     0.020 A 
ATOM     62  C   UNL     1       6.294  11.520  -0.348  1.00  0.00     0.020 A 
ATOM     63  C   UNL     1       5.609  11.109   0.795  1.00  0.00     0.054 A 
BRANCH  63  64
ATOM     64  S   UNL     1       6.279  11.476   2.441  1.00  0.00     0.124 S 
ATOM     65  O   UNL     1       5.325  12.450   2.962  1.00  0.00    -0.237 OA
ATOM     66  O   UNL     1       6.266  10.170   3.096  1.00  0.00    -0.237 OA
ATOM     67  O   UNL     1       7.614  12.005   2.163  1.00  0.00    -0.744 OA
ENDBRANCH  63  64
ENDBRANCH  37  58
ENDBRANCH  11  12
ENDBRANCH   4   6
ENDBRANCH   3   4
ENDBRANCH   2   3
ENDBRANCH   1   2
BRANCH   1  68
ATOM     68  O   UNL     1       4.316  -1.066  -0.780  1.00  0.00    -0.374 OA
BRANCH  68  69
ATOM     69  C   UNL     1       3.165  -1.870  -1.056  1.00  0.00     0.202 C 
BRANCH  69  70
ATOM     70  C   UNL     1       3.414  -3.377  -1.157  1.00  0.00     0.261 C 
BRANCH  70  71
ATOM     71  O   UNL     1       3.737  -3.917   0.138  1.00  0.00    -0.458 OA
BRANCH  71  72
ATOM     72  C   UNL     1       5.054  -4.185   0.361  1.00  0.00     0.361 C 
ATOM     73  O   UNL     1       5.912  -4.180  -0.515  1.00  0.00    -0.244 OA
BRANCH  72  74
ATOM     74  C   UNL     1       5.362  -4.399   1.771  1.00  0.00     0.198 A 
ATOM     75  N   UNL     1       6.659  -4.273   2.210  1.00  0.00    -0.122 NA
ATOM     76  C   UNL     1       4.540  -4.627   2.874  1.00  0.00     0.123 A 
ATOM     77  N   UNL     1       6.676  -4.428   3.522  1.00  0.00    -0.061 NA
ATOM     78  N   UNL     1       5.449  -4.845   3.901  1.00  0.00    -0.213 N 
BRANCH  76  79
ATOM     79  C   UNL     1       3.050  -4.516   3.069  1.00  0.00     0.262 C 
ATOM     80  C   UNL     1       2.635  -3.258   3.848  1.00  0.00     0.281 C 
ATOM     81  O   UNL     1       2.515  -5.731   3.612  1.00  0.00    -0.477 OA
ATOM     82  O   UNL     1       2.918  -3.378   5.246  1.00  0.00    -0.485 OA
ATOM     83  C   UNL     1       2.128  -5.649   4.926  1.00  0.00     0.162 A 
ATOM     84  C   UNL     1       2.363  -4.533   5.732  1.00  0.00     0.161 A 
ATOM     85  C   UNL     1       1.557  -6.794   5.480  1.00  0.00     0.050 A 
ATOM     86  C   UNL     1       2.099  -4.583   7.100  1.00  0.00     0.050 A 
ATOM     87  C   UNL     1       1.266  -6.838   6.846  1.00  0.00     0.004 A 
ATOM     88  C   UNL     1       1.551  -5.739   7.657  1.00  0.00     0.004 A 
ENDBRANCH  76  79
BRANCH  78  89
ATOM     89  C   UNL     1       5.381  -5.759   4.968  1.00  0.00     0.067 A 
ATOM     90  C   UNL     1       5.669  -5.332   6.264  1.00  0.00     0.028 A 
ATOM     91  C   UNL     1       5.110  -7.104   4.690  1.00  0.00     0.041 A 
ATOM     92  C   UNL     1       5.593  -6.251   7.309  1.00  0.00     0.003 A 
ATOM     93  C   UNL     1       5.095  -8.041   5.730  1.00  0.00     0.058 A 
ATOM     94  C   UNL     1       5.306  -7.594   7.045  1.00  0.00     0.013 A 
BRANCH  93  95
ATOM     95  C   UNL     1       4.849  -9.500   5.446  1.00  0.00     0.416 C 
ATOM     96  F   UNL     1       5.731 -10.316   6.089  1.00  0.00    -0.166 F 
ATOM     97  F   UNL     1       3.610  -9.909   5.838  1.00  0.00    -0.166 F 
ATOM     98  F   UNL     1       4.947  -9.822   4.125  1.00  0.00    -0.166 F 
ENDBRANCH  93  95
ENDBRANCH  78  89
ENDBRANCH  72  74
ENDBRANCH  71  72
ENDBRANCH  70  71
ENDBRANCH  69  70
ENDBRANCH  68  69
ENDBRANCH   1  68
TORSDOF 20
