REMARK SMILES C[C@@H](Oc1ccc(I)cc1)C(=O)NCc1ccc(C(=O)OCCOCCOC(=O)c2ccc(-c3c4nc(c(-c5ccc(S(=O)(=O)[O-])cc5)c5ccc([nH]5)c(-c5ccc(S(=O)(=O)[O-])cc5)c5nc(c(-c6ccc(S(=O)(=O)[O-])cc6)c6ccc3[nH]6)C=C5)C=C4)cc2)cc1
REMARK SMILES IDX 23 1 22 2 21 3 19 4 20 5 18 6 15 7 16 8 91 9 17 10 90 11
REMARK SMILES IDX 14 12 13 13 11 14 12 15 2 17 1 18 3 19 4 20 5 21 10 22 6 23
REMARK SMILES IDX 9 24 7 25 8 26 24 27 25 28 26 29 27 30 28 31 29 32 30 33
REMARK SMILES IDX 31 34 89 35 32 36 88 37 33 38 34 39 35 40 82 41 36 42 87 43
REMARK SMILES IDX 81 44 83 45 37 46 86 47 80 48 79 49 38 51 68 52 49 53 67 54
REMARK SMILES IDX 50 55 53 56 66 57 84 58 51 59 52 60 65 62 85 63 54 64 39 65
REMARK SMILES IDX 40 66 48 67 41 68 47 69 42 70 43 71 44 72 45 73 46 74 69 75
REMARK SMILES IDX 70 76 78 77 71 78 77 79 72 80 73 81 74 82 75 83 76 84 55 85
REMARK SMILES IDX 56 86 64 87 57 88 63 89 58 90 59 91 60 92 61 93 62 94
REMARK H PARENT 13 16 83 50 53 61
REMARK Flexibility Score: inf
ROOT
ATOM      1  C   UNL     1      -2.040   7.013   5.106  1.00  0.00     0.202 C 
ENDROOT
BRANCH   1   2
ATOM      2  C   UNL     1      -3.345   6.270   4.808  1.00  0.00     0.261 C 
BRANCH   2   3
ATOM      3  O   UNL     1      -3.112   4.872   4.575  1.00  0.00    -0.460 OA
BRANCH   3   4
ATOM      4  C   UNL     1      -3.282   4.480   3.291  1.00  0.00     0.338 C 
ATOM      5  O   UNL     1      -3.719   5.156   2.371  1.00  0.00    -0.246 OA
BRANCH   4   6
ATOM      6  C   UNL     1      -2.720   3.128   3.076  1.00  0.00     0.060 A 
ATOM      7  C   UNL     1      -1.700   0.581   2.468  1.00  0.00    -0.029 A 
ATOM      8  C   UNL     1      -1.718   1.594   1.499  1.00  0.00     0.006 A 
ATOM      9  C   UNL     1      -2.148   0.879   3.765  1.00  0.00     0.006 A 
ATOM     10  C   UNL     1      -2.229   2.852   1.797  1.00  0.00     0.016 A 
ATOM     11  C   UNL     1      -2.658   2.148   4.072  1.00  0.00     0.016 A 
BRANCH   7  12
ATOM     12  C   UNL     1      -1.155  -0.786   2.133  1.00  0.00     0.151 C 
BRANCH  12  13
ATOM     13  N   UNL     1      -1.623  -1.243   0.835  1.00  0.00    -0.349 N 
ATOM     14  C   UNL     1      -0.924  -1.597  -0.282  1.00  0.00     0.261 C 
ATOM     15  O   UNL     1      -1.563  -1.935  -1.284  1.00  0.00    -0.271 OA
ATOM     16  H   UNL     1      -2.602  -1.307   0.747  1.00  0.00     0.163 HD
BRANCH  14  17
ATOM     17  C   UNL     1       0.611  -1.498  -0.331  1.00  0.00     0.258 C 
ATOM     18  C   UNL     1       0.999  -0.031  -0.511  1.00  0.00     0.064 C 
BRANCH  17  19
ATOM     19  O   UNL     1       1.138  -2.098   0.856  1.00  0.00    -0.481 OA
BRANCH  19  20
ATOM     20  C   UNL     1       2.469  -2.387   0.808  1.00  0.00     0.120 A 
ATOM     21  C   UNL     1       3.415  -1.402   1.086  1.00  0.00     0.047 A 
ATOM     22  C   UNL     1       2.856  -3.717   0.666  1.00  0.00     0.047 A 
ATOM     23  C   UNL     1       4.766  -1.738   1.171  1.00  0.00     0.018 A 
ATOM     24  C   UNL     1       4.206  -4.060   0.765  1.00  0.00     0.018 A 
ATOM     25  C   UNL     1       5.156  -3.067   1.014  1.00  0.00     0.013 A 
ATOM     26  I   UNL     1       7.162  -3.576   1.199  1.00  0.00    -0.044 I 
ENDBRANCH  19  20
ENDBRANCH  17  19
ENDBRANCH  14  17
ENDBRANCH  12  13
ENDBRANCH   7  12
ENDBRANCH   4   6
ENDBRANCH   3   4
ENDBRANCH   2   3
ENDBRANCH   1   2
BRANCH   1  27
ATOM     27  O   UNL     1      -1.049   6.981   4.079  1.00  0.00    -0.374 OA
BRANCH  27  28
ATOM     28  C   UNL     1      -0.207   5.827   4.030  1.00  0.00     0.202 C 
BRANCH  28  29
ATOM     29  C   UNL     1       0.930   5.773   5.059  1.00  0.00     0.261 C 
BRANCH  29  30
ATOM     30  O   UNL     1       0.435   5.554   6.393  1.00  0.00    -0.460 OA
BRANCH  30  31
ATOM     31  C   UNL     1       0.567   6.608   7.232  1.00  0.00     0.338 C 
ATOM     32  O   UNL     1       1.132   7.669   7.000  1.00  0.00    -0.246 OA
BRANCH  31  33
ATOM     33  C   UNL     1      -0.245   6.390   8.444  1.00  0.00     0.060 A 
ATOM     34  C   UNL     1      -1.138   7.404   8.816  1.00  0.00     0.016 A 
ATOM     35  C   UNL     1      -0.101   5.248   9.235  1.00  0.00     0.016 A 
ATOM     36  C   UNL     1      -1.854   7.303  10.007  1.00  0.00     0.010 A 
ATOM     37  C   UNL     1      -0.815   5.152  10.434  1.00  0.00     0.010 A 
ATOM     38  C   UNL     1      -1.667   6.194  10.842  1.00  0.00    -0.014 A 
BRANCH  38  39
ATOM     39  C   UNL     1      -2.255   6.196  12.204  1.00  0.00     0.031 A 
ATOM     40  C   UNL     1      -1.383   6.562  13.375  1.00  0.00     0.074 A 
ATOM     41  C   UNL     1      -3.553   5.900  12.394  1.00  0.00     0.049 A 
ATOM     42  N   UNL     1      -1.683   6.608  14.647  1.00  0.00    -0.248 NA
ATOM     43  C   UNL     1       0.011   6.924  13.070  1.00  0.00     0.031 C 
ATOM     44  C   UNL     1      -4.509   5.569  11.338  1.00  0.00     0.029 A 
ATOM     45  N   UNL     1      -4.290   5.828  13.550  1.00  0.00    -0.354 N 
ATOM     46  C   UNL     1      -0.515   6.994  15.296  1.00  0.00     0.074 A 
ATOM     47  C   UNL     1       0.504   7.144  14.280  1.00  0.00     0.031 C 
ATOM     48  C   UNL     1      -5.707   5.322  11.897  1.00  0.00     0.029 A 
ATOM     49  C   UNL     1      -5.594   5.446  13.349  1.00  0.00     0.049 A 
ATOM     50  H   UNL     1      -3.918   6.031  14.439  1.00  0.00     0.167 HD
ATOM     51  C   UNL     1      -0.311   7.210  16.617  1.00  0.00     0.031 A 
ATOM     52  C   UNL     1      -6.580   5.204  14.236  1.00  0.00     0.031 A 
ATOM     53  C   UNL     1      -1.323   7.048  17.628  1.00  0.00     0.049 A 
ATOM     54  C   UNL     1      -6.312   5.385  15.707  1.00  0.00     0.074 A 
ATOM     55  C   UNL     1      -1.218   7.260  18.991  1.00  0.00     0.029 A 
ATOM     56  N   UNL     1      -2.622   6.628  17.387  1.00  0.00    -0.354 N 
ATOM     57  N   UNL     1      -5.210   5.776  16.302  1.00  0.00    -0.248 NA
ATOM     58  C   UNL     1      -7.424   5.100  16.625  1.00  0.00     0.031 C 
ATOM     59  C   UNL     1      -2.438   6.914  19.582  1.00  0.00     0.029 A 
ATOM     60  C   UNL     1      -3.321   6.546  18.579  1.00  0.00     0.049 A 
ATOM     61  H   UNL     1      -2.992   6.419  16.499  1.00  0.00     0.167 HD
ATOM     62  C   UNL     1      -5.504   5.809  17.662  1.00  0.00     0.074 A 
ATOM     63  C   UNL     1      -6.889   5.410  17.799  1.00  0.00     0.031 C 
ATOM     64  C   UNL     1      -4.700   6.144  18.701  1.00  0.00     0.031 A 
BRANCH  51  65
ATOM     65  C   UNL     1       1.075   7.608  17.049  1.00  0.00    -0.014 A 
ATOM     66  C   UNL     1       1.588   8.887  16.767  1.00  0.00     0.010 A 
ATOM     67  C   UNL     1       1.866   6.699  17.775  1.00  0.00     0.010 A 
ATOM     68  C   UNL     1       2.882   9.234  17.168  1.00  0.00     0.020 A 
ATOM     69  C   UNL     1       3.150   7.051  18.200  1.00  0.00     0.020 A 
ATOM     70  C   UNL     1       3.656   8.311  17.877  1.00  0.00     0.054 A 
BRANCH  70  71
ATOM     71  S   UNL     1       5.326   8.791  18.397  1.00  0.00     0.124 S 
ATOM     72  O   UNL     1       6.057   8.752  17.133  1.00  0.00    -0.237 OA
ATOM     73  O   UNL     1       5.117  10.123  18.960  1.00  0.00    -0.237 OA
ATOM     74  O   UNL     1       5.699   7.761  19.364  1.00  0.00    -0.744 OA
ENDBRANCH  70  71
ENDBRANCH  51  65
BRANCH  52  75
ATOM     75  C   UNL     1      -7.912   4.745  13.755  1.00  0.00    -0.014 A 
ATOM     76  C   UNL     1      -9.033   5.589  13.830  1.00  0.00     0.010 A 
ATOM     77  C   UNL     1      -8.060   3.456  13.210  1.00  0.00     0.010 A 
ATOM     78  C   UNL     1     -10.281   5.148  13.379  1.00  0.00     0.020 A 
ATOM     79  C   UNL     1      -9.300   3.022  12.734  1.00  0.00     0.020 A 
ATOM     80  C   UNL     1     -10.405   3.868  12.830  1.00  0.00     0.054 A 
BRANCH  80  81
ATOM     81  S   UNL     1     -12.021   3.339  12.195  1.00  0.00     0.124 S 
ATOM     82  O   UNL     1     -12.762   3.084  13.425  1.00  0.00    -0.237 OA
ATOM     83  O   UNL     1     -12.453   4.502  11.424  1.00  0.00    -0.237 OA
ATOM     84  O   UNL     1     -11.702   2.157  11.397  1.00  0.00    -0.744 OA
ENDBRANCH  80  81
ENDBRANCH  52  75
BRANCH  64  85
ATOM     85  C   UNL     1      -5.303   6.126  20.081  1.00  0.00    -0.014 A 
ATOM     86  C   UNL     1      -5.596   4.916  20.735  1.00  0.00     0.010 A 
ATOM     87  C   UNL     1      -5.525   7.341  20.756  1.00  0.00     0.010 A 
ATOM     88  C   UNL     1      -6.129   4.923  22.027  1.00  0.00     0.020 A 
ATOM     89  C   UNL     1      -6.032   7.351  22.058  1.00  0.00     0.020 A 
ATOM     90  C   UNL     1      -6.344   6.140  22.681  1.00  0.00     0.054 A 
BRANCH  90  91
ATOM     91  S   UNL     1      -6.995   6.122  24.374  1.00  0.00     0.124 S 
ATOM     92  O   UNL     1      -8.398   5.781  24.156  1.00  0.00    -0.237 OA
ATOM     93  O   UNL     1      -6.189   5.087  25.017  1.00  0.00    -0.237 OA
ATOM     94  O   UNL     1      -6.751   7.480  24.854  1.00  0.00    -0.744 OA
ENDBRANCH  90  91
ENDBRANCH  64  85
ENDBRANCH  38  39
ENDBRANCH  31  33
ENDBRANCH  30  31
ENDBRANCH  29  30
ENDBRANCH  28  29
ENDBRANCH  27  28
ENDBRANCH   1  27
TORSDOF 22
