REMARK SMILES CCOc1cc(C=O)ccc1OCc1ccc(C(=O)OCCOCCOC(=O)c2ccc(-c3c4nc(c(-c5ccc(S(=O)(=O)[O-])cc5)c5ccc([nH]5)c(-c5ccc(S(=O)(=O)[O-])cc5)c5nc(c(-c6ccc(S(=O)(=O)[O-])cc6)c6ccc3[nH]6)C=C5)C=C4)cc2)cc1
REMARK SMILES IDX 22 1 21 2 20 3 18 4 19 5 17 6 14 7 15 8 90 9 16 10 89 11
REMARK SMILES IDX 13 12 12 13 11 14 4 15 5 16 6 17 10 18 9 19 3 20 2 21 1 22
REMARK SMILES IDX 7 23 8 24 23 25 24 26 25 27 26 28 27 29 28 30 29 31 30 32
REMARK SMILES IDX 88 33 31 34 87 35 32 36 33 37 34 38 81 39 35 40 86 41 80 42
REMARK SMILES IDX 82 43 36 44 85 45 79 46 78 47 37 49 67 50 48 51 66 52 49 53
REMARK SMILES IDX 52 54 65 55 83 56 50 57 51 58 64 60 84 61 53 62 38 63 39 64
REMARK SMILES IDX 47 65 40 66 46 67 41 68 42 69 43 70 44 71 45 72 68 73 69 74
REMARK SMILES IDX 77 75 70 76 76 77 71 78 72 79 73 80 74 81 75 82 54 83 55 84
REMARK SMILES IDX 63 85 56 86 62 87 57 88 58 89 59 90 60 91 61 92
REMARK H PARENT 82 48 52 59
REMARK Flexibility Score: inf
ROOT
ATOM      1  C   UNL     1      -0.517   3.499  -7.440  1.00  0.00     0.202 C 
ENDROOT
BRANCH   1   2
ATOM      2  C   UNL     1       0.739   2.626  -7.493  1.00  0.00     0.261 C 
BRANCH   2   3
ATOM      3  O   UNL     1       0.999   1.986  -6.238  1.00  0.00    -0.460 OA
BRANCH   3   4
ATOM      4  C   UNL     1       1.887   2.647  -5.454  1.00  0.00     0.338 C 
ATOM      5  O   UNL     1       2.536   3.634  -5.755  1.00  0.00    -0.246 OA
BRANCH   4   6
ATOM      6  C   UNL     1       1.908   2.066  -4.093  1.00  0.00     0.060 A 
ATOM      7  C   UNL     1       2.179   1.021  -1.482  1.00  0.00    -0.011 A 
ATOM      8  C   UNL     1       2.448   2.370  -1.743  1.00  0.00     0.008 A 
ATOM      9  C   UNL     1       1.705   0.237  -2.548  1.00  0.00     0.008 A 
ATOM     10  C   UNL     1       2.317   2.886  -3.035  1.00  0.00     0.016 A 
ATOM     11  C   UNL     1       1.562   0.744  -3.841  1.00  0.00     0.016 A 
BRANCH   7  12
ATOM     12  C   UNL     1       2.371   0.474  -0.072  1.00  0.00     0.265 C 
BRANCH  12  13
ATOM     13  O   UNL     1       3.501  -0.383   0.157  1.00  0.00    -0.485 OA
BRANCH  13  14
ATOM     14  C   UNL     1       3.530  -1.572  -0.524  1.00  0.00     0.161 A 
ATOM     15  C   UNL     1       2.426  -2.410  -0.765  1.00  0.00     0.161 A 
ATOM     16  C   UNL     1       2.551  -3.433  -1.709  1.00  0.00     0.062 A 
ATOM     17  C   UNL     1       3.803  -3.670  -2.309  1.00  0.00     0.018 A 
ATOM     18  C   UNL     1       4.792  -1.893  -1.035  1.00  0.00     0.051 A 
ATOM     19  C   UNL     1       4.936  -2.950  -1.924  1.00  0.00     0.015 A 
BRANCH  15  20
ATOM     20  O   UNL     1       1.320  -2.211   0.013  1.00  0.00    -0.490 OA
BRANCH  20  21
ATOM     21  C   UNL     1       0.015  -2.320  -0.559  1.00  0.00     0.226 C 
ATOM     22  C   UNL     1      -0.901  -1.423   0.272  1.00  0.00     0.049 C 
ENDBRANCH  20  21
ENDBRANCH  15  20
BRANCH  17  23
ATOM     23  C   UNL     1       3.959  -4.673  -3.381  1.00  0.00     0.260 C 
ATOM     24  O   UNL     1       2.991  -5.215  -3.896  1.00  0.00    -0.298 OA
ENDBRANCH  17  23
ENDBRANCH  13  14
ENDBRANCH  12  13
ENDBRANCH   7  12
ENDBRANCH   4   6
ENDBRANCH   3   4
ENDBRANCH   2   3
ENDBRANCH   1   2
BRANCH   1  25
ATOM     25  O   UNL     1      -0.588   4.464  -6.392  1.00  0.00    -0.374 OA
BRANCH  25  26
ATOM     26  C   UNL     1      -1.083   4.005  -5.130  1.00  0.00     0.202 C 
BRANCH  26  27
ATOM     27  C   UNL     1      -2.605   3.881  -4.996  1.00  0.00     0.261 C 
BRANCH  27  28
ATOM     28  O   UNL     1      -3.118   2.756  -5.730  1.00  0.00    -0.460 OA
BRANCH  28  29
ATOM     29  C   UNL     1      -3.734   3.067  -6.899  1.00  0.00     0.338 C 
ATOM     30  O   UNL     1      -3.940   4.175  -7.352  1.00  0.00    -0.246 OA
BRANCH  29  31
ATOM     31  C   UNL     1      -3.954   1.826  -7.666  1.00  0.00     0.060 A 
ATOM     32  C   UNL     1      -3.463   1.762  -8.978  1.00  0.00     0.016 A 
ATOM     33  C   UNL     1      -4.684   0.768  -7.125  1.00  0.00     0.016 A 
ATOM     34  C   UNL     1      -3.745   0.655  -9.776  1.00  0.00     0.010 A 
ATOM     35  C   UNL     1      -4.974  -0.334  -7.928  1.00  0.00     0.010 A 
ATOM     36  C   UNL     1      -4.540  -0.378  -9.267  1.00  0.00    -0.014 A 
BRANCH  36  37
ATOM     37  C   UNL     1      -5.085  -1.426 -10.159  1.00  0.00     0.031 A 
ATOM     38  C   UNL     1      -6.524  -1.318 -10.584  1.00  0.00     0.074 A 
ATOM     39  C   UNL     1      -4.334  -2.472 -10.543  1.00  0.00     0.049 A 
ATOM     40  N   UNL     1      -7.273  -2.193 -11.200  1.00  0.00    -0.248 NA
ATOM     41  C   UNL     1      -7.211  -0.058 -10.255  1.00  0.00     0.031 C 
ATOM     42  C   UNL     1      -2.914  -2.651 -10.244  1.00  0.00     0.029 A 
ATOM     43  N   UNL     1      -4.677  -3.598 -11.248  1.00  0.00    -0.354 N 
ATOM     44  C   UNL     1      -8.528  -1.604 -11.304  1.00  0.00     0.074 A 
ATOM     45  C   UNL     1      -8.444  -0.306 -10.672  1.00  0.00     0.031 C 
ATOM     46  C   UNL     1      -2.512  -3.834 -10.741  1.00  0.00     0.029 A 
ATOM     47  C   UNL     1      -3.657  -4.514 -11.345  1.00  0.00     0.049 A 
ATOM     48  H   UNL     1      -5.567  -3.737 -11.645  1.00  0.00     0.167 HD
ATOM     49  C   UNL     1      -9.650  -2.105 -11.871  1.00  0.00     0.031 A 
ATOM     50  C   UNL     1      -3.660  -5.773 -11.827  1.00  0.00     0.031 A 
ATOM     51  C   UNL     1      -9.721  -3.403 -12.487  1.00  0.00     0.049 A 
ATOM     52  C   UNL     1      -4.940  -6.343 -12.384  1.00  0.00     0.074 A 
ATOM     53  C   UNL     1     -10.804  -4.003 -13.104  1.00  0.00     0.029 A 
ATOM     54  N   UNL     1      -8.668  -4.303 -12.559  1.00  0.00    -0.354 N 
ATOM     55  N   UNL     1      -6.121  -5.778 -12.482  1.00  0.00    -0.248 NA
ATOM     56  C   UNL     1      -4.888  -7.718 -12.901  1.00  0.00     0.031 C 
ATOM     57  C   UNL     1     -10.424  -5.291 -13.492  1.00  0.00     0.029 A 
ATOM     58  C   UNL     1      -9.081  -5.463 -13.189  1.00  0.00     0.049 A 
ATOM     59  H   UNL     1      -7.761  -4.140 -12.212  1.00  0.00     0.167 HD
ATOM     60  C   UNL     1      -6.938  -6.711 -13.113  1.00  0.00     0.074 A 
ATOM     61  C   UNL     1      -6.119  -7.877 -13.371  1.00  0.00     0.031 C 
ATOM     62  C   UNL     1      -8.245  -6.606 -13.458  1.00  0.00     0.031 A 
BRANCH  49  63
ATOM     63  C   UNL     1     -10.901  -1.268 -11.811  1.00  0.00    -0.014 A 
ATOM     64  C   UNL     1     -11.025  -0.078 -12.550  1.00  0.00     0.010 A 
ATOM     65  C   UNL     1     -11.987  -1.703 -11.030  1.00  0.00     0.010 A 
ATOM     66  C   UNL     1     -12.196   0.681 -12.478  1.00  0.00     0.020 A 
ATOM     67  C   UNL     1     -13.173  -0.965 -10.980  1.00  0.00     0.020 A 
ATOM     68  C   UNL     1     -13.263   0.232 -11.693  1.00  0.00     0.054 A 
BRANCH  68  69
ATOM     69  S   UNL     1     -14.780   1.225 -11.638  1.00  0.00     0.124 S 
ATOM     70  O   UNL     1     -14.350   2.389 -10.867  1.00  0.00    -0.237 OA
ATOM     71  O   UNL     1     -15.050   1.473 -13.052  1.00  0.00    -0.237 OA
ATOM     72  O   UNL     1     -15.741   0.354 -10.966  1.00  0.00    -0.744 OA
ENDBRANCH  68  69
ENDBRANCH  49  63
BRANCH  50  73
ATOM     73  C   UNL     1      -2.414  -6.589 -11.786  1.00  0.00    -0.014 A 
ATOM     74  C   UNL     1      -1.751  -6.941 -12.974  1.00  0.00     0.010 A 
ATOM     75  C   UNL     1      -1.881  -7.016 -10.555  1.00  0.00     0.010 A 
ATOM     76  C   UNL     1      -0.591  -7.720 -12.934  1.00  0.00     0.020 A 
ATOM     77  C   UNL     1      -0.703  -7.768 -10.509  1.00  0.00     0.020 A 
ATOM     78  C   UNL     1      -0.072  -8.126 -11.701  1.00  0.00     0.054 A 
BRANCH  78  79
ATOM     79  S   UNL     1       1.459  -9.098 -11.679  1.00  0.00     0.124 S 
ATOM     80  O   UNL     1       1.014 -10.378 -12.220  1.00  0.00    -0.237 OA
ATOM     81  O   UNL     1       2.339  -8.316 -12.544  1.00  0.00    -0.237 OA
ATOM     82  O   UNL     1       1.836  -9.112 -10.267  1.00  0.00    -0.744 OA
ENDBRANCH  78  79
ENDBRANCH  50  73
BRANCH  62  83
ATOM     83  C   UNL     1      -8.869  -7.744 -14.224  1.00  0.00    -0.014 A 
ATOM     84  C   UNL     1      -9.183  -8.968 -13.608  1.00  0.00     0.010 A 
ATOM     85  C   UNL     1      -9.242  -7.537 -15.566  1.00  0.00     0.010 A 
ATOM     86  C   UNL     1      -9.849  -9.967 -14.325  1.00  0.00     0.020 A 
ATOM     87  C   UNL     1      -9.934  -8.520 -16.276  1.00  0.00     0.020 A 
ATOM     88  C   UNL     1     -10.227  -9.733 -15.652  1.00  0.00     0.054 A 
BRANCH  88  89
ATOM     89  S   UNL     1     -11.164 -11.013 -16.532  1.00  0.00     0.124 S 
ATOM     90  O   UNL     1     -10.150 -12.043 -16.742  1.00  0.00    -0.237 OA
ATOM     91  O   UNL     1     -12.216 -11.352 -15.577  1.00  0.00    -0.237 OA
ATOM     92  O   UNL     1     -11.624 -10.337 -17.743  1.00  0.00    -0.744 OA
ENDBRANCH  88  89
ENDBRANCH  62  83
ENDBRANCH  36  37
ENDBRANCH  29  31
ENDBRANCH  28  29
ENDBRANCH  27  28
ENDBRANCH  26  27
ENDBRANCH  25  26
ENDBRANCH   1  25
TORSDOF 23
