REMARK SMILES O=C(OCCOCCOC(=O)c1nnn(-c2ccc(C(F)(F)F)cc2)c1-c1cccc(Cl)c1)c1ccc(-c2c3nc(c(-c4ccc(S(=O)(=O)[O-])cc4)c4ccc([nH]4)c(-c4ccc(S(=O)(=O)[O-])cc4)c4nc(c(-c5ccc(S(=O)(=O)[O-])cc5)c5ccc2[nH]5)C=C4)C=C3)cc1
REMARK SMILES IDX 5 1 4 2 3 3 2 4 1 5 34 6 35 7 93 8 36 9 92 10 37 11 38 12
REMARK SMILES IDX 39 13 86 14 40 15 91 16 85 17 87 18 41 19 90 20 84 21 83 22
REMARK SMILES IDX 42 24 72 25 53 26 71 27 54 28 57 29 70 30 88 31 55 32 56 33
REMARK SMILES IDX 69 35 89 36 58 37 43 38 44 39 52 40 45 41 51 42 46 43 47 44
REMARK SMILES IDX 48 45 49 46 50 47 73 48 74 49 82 50 75 51 81 52 76 53 77 54
REMARK SMILES IDX 78 55 79 56 80 57 59 58 60 59 68 60 61 61 67 62 62 63 63 64
REMARK SMILES IDX 64 65 65 66 66 67 6 68 7 69 8 70 9 71 10 72 11 73 12 74
REMARK SMILES IDX 13 75 26 76 14 77 15 78 27 79 28 80 33 81 29 82 31 83 30 84
REMARK SMILES IDX 32 85 16 86 17 87 25 88 18 89 24 90 19 91 20 92 21 93 22 94
REMARK SMILES IDX 23 95
REMARK H PARENT 87 23 57 34
REMARK Flexibility Score: inf
ROOT
ATOM      1  C   UNL     1       4.906  -0.756  -0.284  1.00  0.00     0.202 C 
ENDROOT
BRANCH   1   2
ATOM      2  C   UNL     1       4.526  -0.821   1.192  1.00  0.00     0.261 C 
BRANCH   2   3
ATOM      3  O   UNL     1       3.125  -1.092   1.388  1.00  0.00    -0.460 OA
BRANCH   3   4
ATOM      4  C   UNL     1       2.112  -0.289   0.997  1.00  0.00     0.338 C 
ATOM      5  O   UNL     1       1.095  -0.773   0.504  1.00  0.00    -0.246 OA
BRANCH   4   6
ATOM      6  C   UNL     1       2.120   1.135   1.408  1.00  0.00     0.060 A 
ATOM      7  C   UNL     1       3.263   1.879   1.696  1.00  0.00     0.016 A 
ATOM      8  C   UNL     1       0.857   1.699   1.635  1.00  0.00     0.016 A 
ATOM      9  C   UNL     1       3.162   2.992   2.501  1.00  0.00     0.010 A 
ATOM     10  C   UNL     1       0.743   2.862   2.367  1.00  0.00     0.010 A 
ATOM     11  C   UNL     1       1.898   3.430   2.889  1.00  0.00    -0.014 A 
BRANCH  11  12
ATOM     12  C   UNL     1       1.828   4.630   3.697  1.00  0.00     0.031 A 
ATOM     13  C   UNL     1       2.374   5.807   2.978  1.00  0.00     0.074 A 
ATOM     14  C   UNL     1       1.238   4.651   4.907  1.00  0.00     0.049 A 
ATOM     15  N   UNL     1       3.475   6.438   3.221  1.00  0.00    -0.248 NA
ATOM     16  C   UNL     1       1.752   6.166   1.688  1.00  0.00     0.031 C 
ATOM     17  C   UNL     1       0.475   3.579   5.552  1.00  0.00     0.029 A 
ATOM     18  N   UNL     1       1.089   5.684   5.777  1.00  0.00    -0.354 N 
ATOM     19  C   UNL     1       3.522   7.458   2.279  1.00  0.00     0.074 A 
ATOM     20  C   UNL     1       2.605   7.084   1.234  1.00  0.00     0.031 C 
ATOM     21  C   UNL     1      -0.270   4.104   6.553  1.00  0.00     0.029 A 
ATOM     22  C   UNL     1       0.063   5.511   6.702  1.00  0.00     0.049 A 
ATOM     23  H   UNL     1       1.659   6.488   5.754  1.00  0.00     0.167 HD
ATOM     24  C   UNL     1       4.017   8.682   2.611  1.00  0.00     0.031 A 
ATOM     25  C   UNL     1      -0.517   6.476   7.466  1.00  0.00     0.031 A 
ATOM     26  C   UNL     1       4.852   8.610   3.785  1.00  0.00     0.049 A 
ATOM     27  C   UNL     1       0.415   7.633   7.486  1.00  0.00     0.074 A 
ATOM     28  C   UNL     1       5.974   7.883   4.134  1.00  0.00     0.029 A 
ATOM     29  N   UNL     1       4.304   9.056   4.965  1.00  0.00    -0.354 N 
ATOM     30  N   UNL     1       1.585   7.594   8.060  1.00  0.00    -0.248 NA
ATOM     31  C   UNL     1       0.262   8.645   6.452  1.00  0.00     0.031 C 
ATOM     32  C   UNL     1       5.776   7.535   5.502  1.00  0.00     0.029 A 
ATOM     33  C   UNL     1       4.599   8.144   5.943  1.00  0.00     0.049 A 
ATOM     34  H   UNL     1       3.789   9.886   5.086  1.00  0.00     0.167 HD
ATOM     35  C   UNL     1       2.434   8.237   7.171  1.00  0.00     0.074 A 
ATOM     36  C   UNL     1       1.548   8.939   6.241  1.00  0.00     0.031 C 
ATOM     37  C   UNL     1       3.757   7.901   7.094  1.00  0.00     0.031 A 
BRANCH  24  38
ATOM     38  C   UNL     1       3.326   9.964   2.192  1.00  0.00    -0.014 A 
ATOM     39  C   UNL     1       3.863  11.191   2.628  1.00  0.00     0.010 A 
ATOM     40  C   UNL     1       2.021   9.998   1.653  1.00  0.00     0.010 A 
ATOM     41  C   UNL     1       3.100  12.366   2.607  1.00  0.00     0.020 A 
ATOM     42  C   UNL     1       1.269  11.169   1.586  1.00  0.00     0.020 A 
ATOM     43  C   UNL     1       1.802  12.341   2.096  1.00  0.00     0.054 A 
BRANCH  43  44
ATOM     44  S   UNL     1       0.797  13.842   2.141  1.00  0.00     0.124 S 
ATOM     45  O   UNL     1       0.619  14.038   3.576  1.00  0.00    -0.237 OA
ATOM     46  O   UNL     1       1.662  14.807   1.469  1.00  0.00    -0.237 OA
ATOM     47  O   UNL     1      -0.406  13.469   1.402  1.00  0.00    -0.744 OA
ENDBRANCH  43  44
ENDBRANCH  24  38
BRANCH  25  48
ATOM     48  C   UNL     1      -1.947   6.599   7.866  1.00  0.00    -0.014 A 
ATOM     49  C   UNL     1      -2.365   7.572   8.796  1.00  0.00     0.010 A 
ATOM     50  C   UNL     1      -2.950   5.948   7.118  1.00  0.00     0.010 A 
ATOM     51  C   UNL     1      -3.723   7.927   8.922  1.00  0.00     0.020 A 
ATOM     52  C   UNL     1      -4.303   6.290   7.243  1.00  0.00     0.020 A 
ATOM     53  C   UNL     1      -4.682   7.297   8.126  1.00  0.00     0.054 A 
BRANCH  53  54
ATOM     54  S   UNL     1      -6.404   7.884   8.150  1.00  0.00     0.124 S 
ATOM     55  O   UNL     1      -6.866   7.445   9.464  1.00  0.00    -0.237 OA
ATOM     56  O   UNL     1      -6.254   9.326   7.982  1.00  0.00    -0.237 OA
ATOM     57  O   UNL     1      -7.019   7.193   7.017  1.00  0.00    -0.744 OA
ENDBRANCH  53  54
ENDBRANCH  25  48
BRANCH  37  58
ATOM     58  C   UNL     1       4.353   7.053   8.193  1.00  0.00    -0.014 A 
ATOM     59  C   UNL     1       3.923   5.753   8.526  1.00  0.00     0.010 A 
ATOM     60  C   UNL     1       5.497   7.563   8.831  1.00  0.00     0.010 A 
ATOM     61  C   UNL     1       4.601   5.004   9.503  1.00  0.00     0.020 A 
ATOM     62  C   UNL     1       6.186   6.818   9.787  1.00  0.00     0.020 A 
ATOM     63  C   UNL     1       5.727   5.548  10.131  1.00  0.00     0.054 A 
BRANCH  63  64
ATOM     64  S   UNL     1       6.607   4.584  11.392  1.00  0.00     0.124 S 
ATOM     65  O   UNL     1       5.634   4.517  12.478  1.00  0.00    -0.237 OA
ATOM     66  O   UNL     1       6.876   3.321  10.707  1.00  0.00    -0.237 OA
ATOM     67  O   UNL     1       7.796   5.388  11.677  1.00  0.00    -0.744 OA
ENDBRANCH  63  64
ENDBRANCH  37  58
ENDBRANCH  11  12
ENDBRANCH   4   6
ENDBRANCH   3   4
ENDBRANCH   2   3
ENDBRANCH   1   2
BRANCH   1  68
ATOM     68  O   UNL     1       4.441   0.340  -1.068  1.00  0.00    -0.374 OA
BRANCH  68  69
ATOM     69  C   UNL     1       3.286   0.152  -1.895  1.00  0.00     0.202 C 
BRANCH  69  70
ATOM     70  C   UNL     1       3.350  -0.811  -3.088  1.00  0.00     0.261 C 
BRANCH  70  71
ATOM     71  O   UNL     1       3.569  -2.168  -2.694  1.00  0.00    -0.458 OA
BRANCH  71  72
ATOM     72  C   UNL     1       4.874  -2.600  -2.717  1.00  0.00     0.361 C 
ATOM     73  O   UNL     1       5.812  -1.975  -3.135  1.00  0.00    -0.244 OA
BRANCH  72  74
ATOM     74  C   UNL     1       4.970  -3.917  -2.101  1.00  0.00     0.198 A 
ATOM     75  N   UNL     1       5.821  -4.239  -1.070  1.00  0.00    -0.122 NA
ATOM     76  C   UNL     1       4.197  -5.010  -2.420  1.00  0.00     0.109 A 
ATOM     77  N   UNL     1       5.607  -5.512  -0.744  1.00  0.00    -0.061 NA
ATOM     78  N   UNL     1       4.744  -6.018  -1.649  1.00  0.00    -0.212 N 
BRANCH  76  79
ATOM     79  C   UNL     1       3.122  -5.160  -3.396  1.00  0.00     0.004 A 
ATOM     80  C   UNL     1       1.897  -5.738  -3.040  1.00  0.00     0.010 A 
ATOM     81  C   UNL     1       3.307  -4.685  -4.700  1.00  0.00     0.031 A 
ATOM     82  C   UNL     1       0.870  -5.838  -3.981  1.00  0.00     0.002 A 
ATOM     83  C   UNL     1       2.274  -4.774  -5.627  1.00  0.00     0.041 A 
ATOM     84  C   UNL     1       1.058  -5.351  -5.274  1.00  0.00     0.020 A 
ATOM     85  Cl  UNL     1       2.511  -4.156  -7.214  1.00  0.00    -0.084 Cl
ENDBRANCH  76  79
BRANCH  78  86
ATOM     86  C   UNL     1       4.656  -7.393  -1.928  1.00  0.00     0.067 A 
ATOM     87  C   UNL     1       4.214  -8.290  -0.959  1.00  0.00     0.029 A 
ATOM     88  C   UNL     1       4.851  -7.789  -3.257  1.00  0.00     0.029 A 
ATOM     89  C   UNL     1       3.838  -9.572  -1.374  1.00  0.00     0.015 A 
ATOM     90  C   UNL     1       4.497  -9.067  -3.655  1.00  0.00     0.015 A 
ATOM     91  C   UNL     1       3.941  -9.957  -2.728  1.00  0.00     0.056 A 
BRANCH  91  92
ATOM     92  C   UNL     1       3.417 -11.291  -3.197  1.00  0.00     0.416 C 
ATOM     93  F   UNL     1       4.052 -12.343  -2.617  1.00  0.00    -0.166 F 
ATOM     94  F   UNL     1       2.092 -11.449  -2.926  1.00  0.00    -0.166 F 
ATOM     95  F   UNL     1       3.540 -11.476  -4.543  1.00  0.00    -0.166 F 
ENDBRANCH  91  92
ENDBRANCH  78  86
ENDBRANCH  72  74
ENDBRANCH  71  72
ENDBRANCH  70  71
ENDBRANCH  69  70
ENDBRANCH  68  69
ENDBRANCH   1  68
TORSDOF 20
