REMARK SMILES C[C@H]1OCC[C@@H]1C(=O)Nc1sc2c(c1C(=O)OCCOCCOC(=O)c1ccc(-c3c4nc(c(-c5ccc(S(=O)(=O)[O-])cc5)c5ccc([nH]5)c(-c5ccc(S(=O)(=O)[O-])cc5)c5nc(c(-c6ccc(S(=O)(=O)[O-])cc6)c6ccc3[nH]6)C=C5)C=C4)cc1)CCC2
REMARK SMILES IDX 21 1 20 2 19 3 18 4 17 5 15 6 16 7 14 8 10 9 11 10 12 11
REMARK SMILES IDX 13 12 88 13 86 14 87 15 9 16 7 17 8 18 6 20 1 21 2 22 3 23
REMARK SMILES IDX 4 24 5 25 22 26 23 27 24 28 25 29 26 30 27 31 85 32 28 33
REMARK SMILES IDX 84 34 29 35 30 36 31 37 78 38 32 39 83 40 77 41 79 42 33 43
REMARK SMILES IDX 82 44 76 45 75 46 34 48 64 49 45 50 63 51 46 52 49 53 62 54
REMARK SMILES IDX 80 55 47 56 48 57 61 59 81 60 50 61 35 62 36 63 44 64 37 65
REMARK SMILES IDX 43 66 38 67 39 68 40 69 41 70 42 71 65 72 66 73 74 74 67 75
REMARK SMILES IDX 73 76 68 77 69 78 70 79 71 80 72 81 51 82 52 83 60 84 53 85
REMARK SMILES IDX 59 86 54 87 55 88 56 89 57 90 58 91
REMARK H PARENT 9 19 79 47 49 58
REMARK Flexibility Score: inf
ROOT
ATOM      1  C   UNL     1      -2.246  -1.147  -2.326  1.00  0.00     0.202 C 
ENDROOT
BRANCH   1   2
ATOM      2  O   UNL     1      -3.613  -0.841  -2.575  1.00  0.00    -0.374 OA
BRANCH   2   3
ATOM      3  C   UNL     1      -4.182   0.108  -1.653  1.00  0.00     0.202 C 
BRANCH   3   4
ATOM      4  C   UNL     1      -4.478  -0.510  -0.276  1.00  0.00     0.261 C 
BRANCH   4   5
ATOM      5  O   UNL     1      -3.554  -0.024   0.733  1.00  0.00    -0.460 OA
BRANCH   5   6
ATOM      6  C   UNL     1      -3.398  -0.845   1.822  1.00  0.00     0.341 C 
ATOM      7  O   UNL     1      -3.970  -1.921   1.950  1.00  0.00    -0.246 OA
BRANCH   6   8
ATOM      8  C   UNL     1      -2.448  -0.341   2.815  1.00  0.00     0.098 A 
ATOM      9  C   UNL     1      -1.369  -1.073   3.307  1.00  0.00     0.110 A 
ATOM     10  S   UNL     1      -0.595  -0.361   4.663  1.00  0.00    -0.122 S 
ATOM     11  C   UNL     1      -1.474   1.032   4.425  1.00  0.00     0.011 A 
ATOM     12  C   UNL     1      -2.407   0.951   3.424  1.00  0.00    -0.017 A 
ATOM     13  C   UNL     1      -1.398   2.345   5.100  1.00  0.00     0.047 C 
ATOM     14  C   UNL     1      -3.115   2.251   3.282  1.00  0.00     0.038 C 
ATOM     15  C   UNL     1      -2.187   3.222   4.088  1.00  0.00     0.010 C 
BRANCH   9  16
ATOM     16  N   UNL     1      -0.866  -2.312   2.982  1.00  0.00    -0.317 N 
ATOM     17  C   UNL     1       0.333  -2.473   2.334  1.00  0.00     0.230 C 
ATOM     18  O   UNL     1       1.048  -3.414   2.705  1.00  0.00    -0.274 OA
ATOM     19  H   UNL     1      -1.386  -3.112   3.222  1.00  0.00     0.170 HD
BRANCH  17  20
ATOM     20  C   UNL     1       0.797  -1.619   1.155  1.00  0.00     0.110 C 
ATOM     21  C   UNL     1       2.757  -0.242   0.396  1.00  0.00     0.039 C 
ATOM     22  C   UNL     1       1.682  -0.428   1.475  1.00  0.00     0.127 C 
ATOM     23  O   UNL     1       0.830   0.727   1.432  1.00  0.00    -0.378 OA
ATOM     24  C   UNL     1      -0.217   0.469   0.499  1.00  0.00     0.161 C 
ATOM     25  C   UNL     1      -0.270  -1.032   0.283  1.00  0.00     0.044 C 
ENDBRANCH  17  20
ENDBRANCH   9  16
ENDBRANCH   6   8
ENDBRANCH   5   6
ENDBRANCH   4   5
ENDBRANCH   3   4
ENDBRANCH   2   3
ENDBRANCH   1   2
BRANCH   1  26
ATOM     26  C   UNL     1      -1.258  -0.442  -3.248  1.00  0.00     0.261 C 
BRANCH  26  27
ATOM     27  O   UNL     1      -1.236   0.946  -2.937  1.00  0.00    -0.460 OA
BRANCH  27  28
ATOM     28  C   UNL     1      -2.115   1.697  -3.635  1.00  0.00     0.338 C 
ATOM     29  O   UNL     1      -2.941   1.327  -4.452  1.00  0.00    -0.246 OA
BRANCH  28  30
ATOM     30  C   UNL     1      -1.774   3.089  -3.358  1.00  0.00     0.060 A 
ATOM     31  C   UNL     1      -1.861   3.952  -4.442  1.00  0.00     0.016 A 
ATOM     32  C   UNL     1      -1.211   3.481  -2.129  1.00  0.00     0.016 A 
ATOM     33  C   UNL     1      -1.237   5.170  -4.343  1.00  0.00     0.010 A 
ATOM     34  C   UNL     1      -0.596   4.714  -2.027  1.00  0.00     0.010 A 
ATOM     35  C   UNL     1      -0.569   5.522  -3.156  1.00  0.00    -0.014 A 
BRANCH  35  36
ATOM     36  C   UNL     1       0.035   6.837  -3.162  1.00  0.00     0.031 A 
ATOM     37  C   UNL     1      -0.956   7.923  -3.323  1.00  0.00     0.074 A 
ATOM     38  C   UNL     1       1.352   7.080  -3.104  1.00  0.00     0.049 A 
ATOM     39  N   UNL     1      -1.195   8.612  -4.388  1.00  0.00    -0.248 NA
ATOM     40  C   UNL     1      -1.918   8.120  -2.232  1.00  0.00     0.031 C 
ATOM     41  C   UNL     1       2.442   6.201  -2.688  1.00  0.00     0.029 A 
ATOM     42  N   UNL     1       1.974   8.258  -3.366  1.00  0.00    -0.354 N 
ATOM     43  C   UNL     1      -2.236   9.466  -4.054  1.00  0.00     0.074 A 
ATOM     44  C   UNL     1      -2.741   9.011  -2.781  1.00  0.00     0.031 C 
ATOM     45  C   UNL     1       3.561   6.946  -2.521  1.00  0.00     0.029 A 
ATOM     46  C   UNL     1       3.293   8.310  -2.955  1.00  0.00     0.049 A 
ATOM     47  H   UNL     1       1.524   9.012  -3.812  1.00  0.00     0.167 HD
ATOM     48  C   UNL     1      -2.475  10.612  -4.745  1.00  0.00     0.031 A 
ATOM     49  C   UNL     1       4.057   9.427  -2.905  1.00  0.00     0.031 A 
ATOM     50  C   UNL     1      -1.852  10.603  -6.043  1.00  0.00     0.049 A 
ATOM     51  C   UNL     1       3.450  10.431  -3.819  1.00  0.00     0.074 A 
ATOM     52  C   UNL     1      -1.972   9.811  -7.170  1.00  0.00     0.029 A 
ATOM     53  N   UNL     1      -0.670  11.291  -6.191  1.00  0.00    -0.354 N 
ATOM     54  N   UNL     1       3.444  10.316  -5.117  1.00  0.00    -0.248 NA
ATOM     55  C   UNL     1       2.482  11.373  -3.277  1.00  0.00     0.031 C 
ATOM     56  C   UNL     1      -0.654   9.720  -7.706  1.00  0.00     0.029 A 
ATOM     57  C   UNL     1       0.188  10.488  -6.900  1.00  0.00     0.049 A 
ATOM     58  H   UNL     1      -0.476  12.195  -5.851  1.00  0.00     0.167 HD
ATOM     59  C   UNL     1       2.227  10.844  -5.524  1.00  0.00     0.074 A 
ATOM     60  C   UNL     1       1.724  11.569  -4.360  1.00  0.00     0.031 C 
ATOM     61  C   UNL     1       1.618  10.426  -6.674  1.00  0.00     0.031 A 
BRANCH  48  62
ATOM     62  C   UNL     1      -2.942  11.874  -4.067  1.00  0.00    -0.014 A 
ATOM     63  C   UNL     1      -3.163  13.029  -4.841  1.00  0.00     0.010 A 
ATOM     64  C   UNL     1      -2.903  12.042  -2.666  1.00  0.00     0.010 A 
ATOM     65  C   UNL     1      -3.252  14.294  -4.244  1.00  0.00     0.020 A 
ATOM     66  C   UNL     1      -3.038  13.288  -2.058  1.00  0.00     0.020 A 
ATOM     67  C   UNL     1      -3.168  14.413  -2.856  1.00  0.00     0.054 A 
BRANCH  67  68
ATOM     68  S   UNL     1      -3.141  16.054  -2.099  1.00  0.00     0.124 S 
ATOM     69  O   UNL     1      -1.858  16.573  -2.561  1.00  0.00    -0.237 OA
ATOM     70  O   UNL     1      -4.327  16.680  -2.675  1.00  0.00    -0.237 OA
ATOM     71  O   UNL     1      -3.225  15.770  -0.667  1.00  0.00    -0.744 OA
ENDBRANCH  67  68
ENDBRANCH  48  62
BRANCH  49  72
ATOM     72  C   UNL     1       5.051   9.790  -1.868  1.00  0.00    -0.014 A 
ATOM     73  C   UNL     1       5.865  10.927  -2.029  1.00  0.00     0.010 A 
ATOM     74  C   UNL     1       4.995   9.195  -0.591  1.00  0.00     0.010 A 
ATOM     75  C   UNL     1       6.529  11.496  -0.932  1.00  0.00     0.020 A 
ATOM     76  C   UNL     1       5.666   9.749   0.503  1.00  0.00     0.020 A 
ATOM     77  C   UNL     1       6.404  10.917   0.333  1.00  0.00     0.054 A 
BRANCH  77  78
ATOM     78  S   UNL     1       7.086  11.776   1.780  1.00  0.00     0.124 S 
ATOM     79  O   UNL     1       8.523  11.591   1.601  1.00  0.00    -0.237 OA
ATOM     80  O   UNL     1       6.595  13.139   1.600  1.00  0.00    -0.237 OA
ATOM     81  O   UNL     1       6.504  11.057   2.913  1.00  0.00    -0.744 OA
ENDBRANCH  77  78
ENDBRANCH  49  72
BRANCH  61  82
ATOM     82  C   UNL     1       2.428   9.615  -7.661  1.00  0.00    -0.014 A 
ATOM     83  C   UNL     1       3.052   8.393  -7.340  1.00  0.00     0.010 A 
ATOM     84  C   UNL     1       2.455  10.046  -9.000  1.00  0.00     0.010 A 
ATOM     85  C   UNL     1       3.717   7.646  -8.323  1.00  0.00     0.020 A 
ATOM     86  C   UNL     1       3.099   9.295  -9.989  1.00  0.00     0.020 A 
ATOM     87  C   UNL     1       3.739   8.105  -9.643  1.00  0.00     0.054 A 
BRANCH  87  88
ATOM     88  S   UNL     1       4.570   7.114 -10.916  1.00  0.00     0.124 S 
ATOM     89  O   UNL     1       5.979   7.264 -10.565  1.00  0.00    -0.237 OA
ATOM     90  O   UNL     1       4.009   5.780 -10.708  1.00  0.00    -0.237 OA
ATOM     91  O   UNL     1       4.173   7.754 -12.170  1.00  0.00    -0.744 OA
ENDBRANCH  87  88
ENDBRANCH  61  82
ENDBRANCH  35  36
ENDBRANCH  28  30
ENDBRANCH  27  28
ENDBRANCH  26  27
ENDBRANCH   1  26
TORSDOF 19
