REMARK SMILES O=C(OCCOCCOC(=O)[C@@H]1CCCN(C(=O)Nc2ccccc2)C1)c1ccc(-c2c3nc(c(-c4ccc(S(=O)(=O)[O-])cc4)c4ccc([nH]4)c(-c4ccc(S(=O)(=O)[O-])cc4)c4nc(c(-c5ccc(S(=O)(=O)[O-])cc5)c5ccc2[nH]5)C=C4)C=C3)cc1
REMARK SMILES IDX 5 1 4 2 3 3 2 4 1 5 27 6 28 7 86 8 29 9 85 10 30 11 31 12
REMARK SMILES IDX 32 13 79 14 33 15 84 16 78 17 80 18 34 19 83 20 77 21 76 22
REMARK SMILES IDX 35 24 65 25 46 26 64 27 47 28 50 29 63 30 81 31 48 32 49 33
REMARK SMILES IDX 62 35 82 36 51 37 36 38 37 39 45 40 38 41 44 42 39 43 40 44
REMARK SMILES IDX 41 45 42 46 43 47 66 48 67 49 75 50 68 51 74 52 69 53 70 54
REMARK SMILES IDX 71 55 72 56 73 57 52 58 53 59 61 60 54 61 60 62 55 63 56 64
REMARK SMILES IDX 57 65 58 66 59 67 6 68 7 69 8 70 9 71 10 72 11 73 12 74
REMARK SMILES IDX 13 75 26 76 14 77 16 78 15 79 17 80 18 81 19 82 20 84 21 85
REMARK SMILES IDX 25 86 22 87 24 88 23 89
REMARK H PARENT 80 23 50 34 19 83
REMARK Flexibility Score: inf
ROOT
ATOM      1  C   UNL     1       4.034   1.296  -0.733  1.00  0.00     0.202 C 
ENDROOT
BRANCH   1   2
ATOM      2  C   UNL     1       3.957   0.038  -1.600  1.00  0.00     0.261 C 
BRANCH   2   3
ATOM      3  O   UNL     1       2.655  -0.560  -1.507  1.00  0.00    -0.460 OA
BRANCH   3   4
ATOM      4  C   UNL     1       2.195  -1.391  -0.541  1.00  0.00     0.338 C 
ATOM      5  O   UNL     1       0.982  -1.598  -0.484  1.00  0.00    -0.246 OA
BRANCH   4   6
ATOM      6  C   UNL     1       3.074  -2.120   0.428  1.00  0.00     0.060 A 
ATOM      7  C   UNL     1       4.327  -1.692   0.870  1.00  0.00     0.016 A 
ATOM      8  C   UNL     1       2.555  -3.302   0.988  1.00  0.00     0.016 A 
ATOM      9  C   UNL     1       5.053  -2.401   1.803  1.00  0.00     0.010 A 
ATOM     10  C   UNL     1       3.276  -4.026   1.944  1.00  0.00     0.010 A 
ATOM     11  C   UNL     1       4.535  -3.571   2.342  1.00  0.00    -0.014 A 
BRANCH  11  12
ATOM     12  C   UNL     1       5.446  -4.328   3.208  1.00  0.00     0.031 A 
ATOM     13  C   UNL     1       6.212  -5.457   2.593  1.00  0.00     0.074 A 
ATOM     14  C   UNL     1       5.747  -3.826   4.420  1.00  0.00     0.049 A 
ATOM     15  N   UNL     1       7.133  -6.210   3.123  1.00  0.00    -0.248 NA
ATOM     16  C   UNL     1       5.927  -5.754   1.176  1.00  0.00     0.031 C 
ATOM     17  C   UNL     1       5.154  -2.614   5.000  1.00  0.00     0.029 A 
ATOM     18  N   UNL     1       6.668  -4.222   5.349  1.00  0.00    -0.354 N 
ATOM     19  C   UNL     1       7.529  -7.077   2.113  1.00  0.00     0.074 A 
ATOM     20  C   UNL     1       6.749  -6.764   0.939  1.00  0.00     0.031 C 
ATOM     21  C   UNL     1       5.753  -2.351   6.173  1.00  0.00     0.029 A 
ATOM     22  C   UNL     1       6.715  -3.408   6.456  1.00  0.00     0.049 A 
ATOM     23  H   UNL     1       7.243  -5.013   5.236  1.00  0.00     0.167 HD
ATOM     24  C   UNL     1       8.463  -8.051   2.176  1.00  0.00     0.031 A 
ATOM     25  C   UNL     1       7.436  -3.536   7.586  1.00  0.00     0.031 A 
ATOM     26  C   UNL     1       9.198  -8.346   3.374  1.00  0.00     0.049 A 
ATOM     27  C   UNL     1       8.368  -4.714   7.676  1.00  0.00     0.074 A 
ATOM     28  C   UNL     1      10.077  -9.381   3.621  1.00  0.00     0.029 A 
ATOM     29  N   UNL     1       9.132  -7.583   4.534  1.00  0.00    -0.354 N 
ATOM     30  N   UNL     1       8.656  -5.606   6.754  1.00  0.00    -0.248 NA
ATOM     31  C   UNL     1       9.060  -4.915   8.953  1.00  0.00     0.031 C 
ATOM     32  C   UNL     1      10.509  -9.270   4.948  1.00  0.00     0.029 A 
ATOM     33  C   UNL     1       9.945  -8.131   5.507  1.00  0.00     0.049 A 
ATOM     34  H   UNL     1       8.586  -6.772   4.646  1.00  0.00     0.167 HD
ATOM     35  C   UNL     1       9.566  -6.476   7.340  1.00  0.00     0.074 A 
ATOM     36  C   UNL     1       9.808  -5.976   8.681  1.00  0.00     0.031 C 
ATOM     37  C   UNL     1      10.142  -7.593   6.830  1.00  0.00     0.031 A 
BRANCH  24  38
ATOM     38  C   UNL     1       8.655  -8.897   0.949  1.00  0.00    -0.014 A 
ATOM     39  C   UNL     1       9.320  -8.402  -0.188  1.00  0.00     0.010 A 
ATOM     40  C   UNL     1       8.134 -10.203   0.923  1.00  0.00     0.010 A 
ATOM     41  C   UNL     1       9.433  -9.189  -1.339  1.00  0.00     0.020 A 
ATOM     42  C   UNL     1       8.264 -11.000  -0.217  1.00  0.00     0.020 A 
ATOM     43  C   UNL     1       8.901 -10.482  -1.347  1.00  0.00     0.054 A 
BRANCH  43  44
ATOM     44  S   UNL     1       9.072 -11.487  -2.848  1.00  0.00     0.124 S 
ATOM     45  O   UNL     1       8.135 -10.833  -3.758  1.00  0.00    -0.237 OA
ATOM     46  O   UNL     1      10.485 -11.326  -3.180  1.00  0.00    -0.237 OA
ATOM     47  O   UNL     1       8.686 -12.828  -2.414  1.00  0.00    -0.744 OA
ENDBRANCH  43  44
ENDBRANCH  24  38
BRANCH  25  48
ATOM     48  C   UNL     1       7.226  -2.606   8.732  1.00  0.00    -0.014 A 
ATOM     49  C   UNL     1       8.261  -1.798   9.231  1.00  0.00     0.010 A 
ATOM     50  C   UNL     1       5.965  -2.553   9.361  1.00  0.00     0.010 A 
ATOM     51  C   UNL     1       8.051  -0.985  10.353  1.00  0.00     0.020 A 
ATOM     52  C   UNL     1       5.741  -1.718  10.458  1.00  0.00     0.020 A 
ATOM     53  C   UNL     1       6.793  -0.955  10.962  1.00  0.00     0.054 A 
BRANCH  53  54
ATOM     54  S   UNL     1       6.536   0.102  12.415  1.00  0.00     0.124 S 
ATOM     55  O   UNL     1       7.236  -0.640  13.457  1.00  0.00    -0.237 OA
ATOM     56  O   UNL     1       7.157   1.360  12.007  1.00  0.00    -0.237 OA
ATOM     57  O   UNL     1       5.082   0.151  12.550  1.00  0.00    -0.744 OA
ENDBRANCH  53  54
ENDBRANCH  25  48
BRANCH  37  58
ATOM     58  C   UNL     1      11.098  -8.322   7.730  1.00  0.00    -0.014 A 
ATOM     59  C   UNL     1      10.634  -9.064   8.830  1.00  0.00     0.010 A 
ATOM     60  C   UNL     1      12.474  -8.289   7.445  1.00  0.00     0.010 A 
ATOM     61  C   UNL     1      11.538  -9.728   9.658  1.00  0.00     0.020 A 
ATOM     62  C   UNL     1      13.378  -8.978   8.253  1.00  0.00     0.020 A 
ATOM     63  C   UNL     1      12.905  -9.678   9.365  1.00  0.00     0.054 A 
BRANCH  63  64
ATOM     64  S   UNL     1      14.059 -10.572  10.438  1.00  0.00     0.124 S 
ATOM     65  O   UNL     1      14.113  -9.705  11.612  1.00  0.00    -0.237 OA
ATOM     66  O   UNL     1      13.389 -11.855  10.633  1.00  0.00    -0.237 OA
ATOM     67  O   UNL     1      15.288 -10.631   9.650  1.00  0.00    -0.744 OA
ENDBRANCH  63  64
ENDBRANCH  37  58
ENDBRANCH  11  12
ENDBRANCH   4   6
ENDBRANCH   3   4
ENDBRANCH   2   3
ENDBRANCH   1   2
BRANCH   1  68
ATOM     68  O   UNL     1       3.722   1.048   0.638  1.00  0.00    -0.374 OA
BRANCH  68  69
ATOM     69  C   UNL     1       2.395   1.381   1.055  1.00  0.00     0.202 C 
BRANCH  69  70
ATOM     70  C   UNL     1       2.412   2.676   1.858  1.00  0.00     0.261 C 
BRANCH  70  71
ATOM     71  O   UNL     1       3.033   3.680   1.047  1.00  0.00    -0.463 OA
BRANCH  71  72
ATOM     72  C   UNL     1       4.385   3.770   1.183  1.00  0.00     0.310 C 
ATOM     73  O   UNL     1       5.045   3.213   2.052  1.00  0.00    -0.252 OA
BRANCH  72  74
ATOM     74  C   UNL     1       4.982   4.568   0.031  1.00  0.00     0.119 C 
ATOM     75  C   UNL     1       6.445   4.904   0.309  1.00  0.00     0.019 C 
ATOM     76  C   UNL     1       4.225   5.870  -0.190  1.00  0.00     0.136 C 
ATOM     77  C   UNL     1       6.569   5.811   1.524  1.00  0.00     0.023 C 
ATOM     78  N   UNL     1       4.167   6.609   1.064  1.00  0.00    -0.324 N 
ATOM     79  C   UNL     1       5.491   6.898   1.650  1.00  0.00     0.121 C 
BRANCH  78  80
ATOM     80  C   UNL     1       2.900   6.801   1.598  1.00  0.00     0.321 C 
ATOM     81  O   UNL     1       1.876   6.462   0.994  1.00  0.00    -0.248 OA
ATOM     82  N   UNL     1       2.722   7.209   2.879  1.00  0.00    -0.308 N 
ATOM     83  H   UNL     1       1.892   6.885   3.297  1.00  0.00     0.171 HD
BRANCH  82  84
ATOM     84  C   UNL     1       3.507   8.006   3.705  1.00  0.00     0.042 A 
ATOM     85  C   UNL     1       3.658   7.611   5.034  1.00  0.00     0.026 A 
ATOM     86  C   UNL     1       4.202   9.111   3.207  1.00  0.00     0.026 A 
ATOM     87  C   UNL     1       4.633   8.223   5.818  1.00  0.00     0.002 A 
ATOM     88  C   UNL     1       5.168   9.726   3.998  1.00  0.00     0.002 A 
ATOM     89  C   UNL     1       5.404   9.261   5.292  1.00  0.00     0.000 A 
ENDBRANCH  82  84
ENDBRANCH  78  80
ENDBRANCH  72  74
ENDBRANCH  71  72
ENDBRANCH  70  71
ENDBRANCH  69  70
ENDBRANCH  68  69
ENDBRANCH   1  68
TORSDOF 19
