REMARK SMILES CCOc1ccc2c(c1)=N[C@H](SCC(=O)OCCOCCOC(=O)c1ccc(-c3c4nc(c(-c5ccc(S(=O)(=O)[O-])cc5)c5ccc([nH]5)c(-c5ccc(S(=O)(=O)[O-])cc5)c5nc(c(-c6ccc(S(=O)(=O)[O-])cc6)c6ccc3[nH]6)C=C5)C=C4)cc1)N=2
REMARK SMILES IDX 18 1 17 2 16 3 14 4 15 5 13 6 12 7 11 8 4 9 5 10 9 11 6 12
REMARK SMILES IDX 8 13 7 14 10 15 85 16 3 17 2 18 1 19 19 20 20 21 21 22 22 23
REMARK SMILES IDX 23 24 24 25 25 26 26 27 84 28 27 29 83 30 28 31 29 32 30 33
REMARK SMILES IDX 77 34 31 35 82 36 76 37 78 38 32 39 81 40 75 41 74 42 33 44
REMARK SMILES IDX 63 45 44 46 62 47 45 48 48 49 61 50 79 51 46 52 47 53 60 55
REMARK SMILES IDX 80 56 49 57 34 58 35 59 43 60 36 61 42 62 37 63 38 64 39 65
REMARK SMILES IDX 40 66 41 67 64 68 65 69 73 70 66 71 72 72 67 73 68 74 69 75
REMARK SMILES IDX 70 76 71 77 50 78 51 79 59 80 52 81 58 82 53 83 54 84 55 85
REMARK SMILES IDX 56 86 57 87
REMARK H PARENT 78 43 48 54
REMARK Flexibility Score: inf
ROOT
ATOM      1  C   UNL     1       8.370   8.255  -3.764  1.00  0.00     0.202 C 
ENDROOT
BRANCH   1   2
ATOM      2  C   UNL     1       8.717   7.467  -5.035  1.00  0.00     0.261 C 
BRANCH   2   3
ATOM      3  O   UNL     1       8.167   6.134  -5.091  1.00  0.00    -0.463 OA
BRANCH   3   4
ATOM      4  C   UNL     1       9.074   5.124  -5.171  1.00  0.00     0.316 C 
ATOM      5  O   UNL     1      10.292   5.293  -5.117  1.00  0.00    -0.251 OA
BRANCH   4   6
ATOM      6  C   UNL     1       8.508   3.721  -5.286  1.00  0.00     0.196 C 
BRANCH   6   7
ATOM      7  S   UNL     1       6.713   3.546  -5.468  1.00  0.00    -0.100 SA
BRANCH   7   8
ATOM      8  C   UNL     1       6.245   3.223  -3.728  1.00  0.00     0.282 C 
ATOM      9  C   UNL     1       2.487   1.555  -1.851  1.00  0.00     0.121 A 
ATOM     10  C   UNL     1       3.366   0.410  -1.684  1.00  0.00     0.049 A 
ATOM     11  C   UNL     1       2.899   2.706  -2.402  1.00  0.00     0.076 A 
ATOM     12  C   UNL     1       4.640   0.387  -2.107  1.00  0.00     0.034 A 
ATOM     13  C   UNL     1       4.289   2.779  -2.863  1.00  0.00     0.090 A 
ATOM     14  C   UNL     1       5.160   1.592  -2.766  1.00  0.00     0.087 A 
ATOM     15  N   UNL     1       4.902   3.773  -3.397  1.00  0.00    -0.246 NA
ATOM     16  N   UNL     1       6.320   1.794  -3.290  1.00  0.00    -0.246 NA
BRANCH   9  17
ATOM     17  O   UNL     1       1.147   1.321  -1.637  1.00  0.00    -0.494 OA
BRANCH  17  18
ATOM     18  C   UNL     1       0.703   1.398  -0.279  1.00  0.00     0.226 C 
ATOM     19  C   UNL     1       0.668   0.017   0.355  1.00  0.00     0.049 C 
ENDBRANCH  17  18
ENDBRANCH   9  17
ENDBRANCH   7   8
ENDBRANCH   6   7
ENDBRANCH   4   6
ENDBRANCH   3   4
ENDBRANCH   2   3
ENDBRANCH   1   2
BRANCH   1  20
ATOM     20  O   UNL     1       8.688   7.686  -2.497  1.00  0.00    -0.374 OA
BRANCH  20  21
ATOM     21  C   UNL     1       8.058   6.463  -2.135  1.00  0.00     0.202 C 
BRANCH  21  22
ATOM     22  C   UNL     1       6.537   6.454  -1.926  1.00  0.00     0.261 C 
BRANCH  22  23
ATOM     23  O   UNL     1       5.788   6.983  -3.025  1.00  0.00    -0.460 OA
BRANCH  23  24
ATOM     24  C   UNL     1       5.083   8.107  -2.745  1.00  0.00     0.338 C 
ATOM     25  O   UNL     1       5.008   8.689  -1.674  1.00  0.00    -0.246 OA
BRANCH  24  26
ATOM     26  C   UNL     1       4.529   8.653  -3.994  1.00  0.00     0.060 A 
ATOM     27  C   UNL     1       3.591   7.935  -4.737  1.00  0.00     0.016 A 
ATOM     28  C   UNL     1       4.938   9.930  -4.398  1.00  0.00     0.016 A 
ATOM     29  C   UNL     1       3.056   8.505  -5.895  1.00  0.00     0.010 A 
ATOM     30  C   UNL     1       4.406  10.494  -5.556  1.00  0.00     0.010 A 
ATOM     31  C   UNL     1       3.455   9.789  -6.308  1.00  0.00    -0.014 A 
BRANCH  31  32
ATOM     32  C   UNL     1       2.817  10.445  -7.476  1.00  0.00     0.031 A 
ATOM     33  C   UNL     1       3.563  10.619  -8.765  1.00  0.00     0.074 A 
ATOM     34  C   UNL     1       1.568  10.930  -7.341  1.00  0.00     0.049 A 
ATOM     35  N   UNL     1       3.164  11.191  -9.871  1.00  0.00    -0.248 NA
ATOM     36  C   UNL     1       4.934  10.089  -8.820  1.00  0.00     0.031 C 
ATOM     37  C   UNL     1       0.758  10.819  -6.127  1.00  0.00     0.029 A 
ATOM     38  N   UNL     1       0.763  11.607  -8.221  1.00  0.00    -0.354 N 
ATOM     39  C   UNL     1       4.228  11.086 -10.758  1.00  0.00     0.074 A 
ATOM     40  C   UNL     1       5.307  10.435 -10.046  1.00  0.00     0.031 C 
ATOM     41  C   UNL     1      -0.437  11.386  -6.347  1.00  0.00     0.029 A 
ATOM     42  C   UNL     1      -0.463  11.944  -7.697  1.00  0.00     0.049 A 
ATOM     43  H   UNL     1       1.036  11.831  -9.140  1.00  0.00     0.167 HD
ATOM     44  C   UNL     1       4.286  11.484 -12.052  1.00  0.00     0.031 A 
ATOM     45  C   UNL     1      -1.492  12.632  -8.233  1.00  0.00     0.031 A 
ATOM     46  C   UNL     1       3.200  12.142 -12.738  1.00  0.00     0.049 A 
ATOM     47  C   UNL     1      -1.384  13.117  -9.652  1.00  0.00     0.074 A 
ATOM     48  C   UNL     1       3.147  12.547 -14.060  1.00  0.00     0.029 A 
ATOM     49  N   UNL     1       1.988  12.499 -12.163  1.00  0.00    -0.354 N 
ATOM     50  N   UNL     1      -0.397  12.951 -10.500  1.00  0.00    -0.248 NA
ATOM     51  C   UNL     1      -2.523  13.869 -10.192  1.00  0.00     0.031 C 
ATOM     52  C   UNL     1       1.944  13.225 -14.260  1.00  0.00     0.029 A 
ATOM     53  C   UNL     1       1.201  13.161 -13.092  1.00  0.00     0.049 A 
ATOM     54  H   UNL     1       1.726  12.309 -11.233  1.00  0.00     0.167 HD
ATOM     55  C   UNL     1      -0.800  13.565 -11.680  1.00  0.00     0.074 A 
ATOM     56  C   UNL     1      -2.131  14.087 -11.443  1.00  0.00     0.031 C 
ATOM     57  C   UNL     1      -0.124  13.685 -12.848  1.00  0.00     0.031 A 
BRANCH  44  58
ATOM     58  C   UNL     1       5.553  11.224 -12.830  1.00  0.00    -0.014 A 
ATOM     59  C   UNL     1       6.303  12.305 -13.331  1.00  0.00     0.010 A 
ATOM     60  C   UNL     1       5.935   9.915 -13.177  1.00  0.00     0.010 A 
ATOM     61  C   UNL     1       7.385  12.086 -14.189  1.00  0.00     0.020 A 
ATOM     62  C   UNL     1       7.038   9.690 -14.007  1.00  0.00     0.020 A 
ATOM     63  C   UNL     1       7.741  10.779 -14.528  1.00  0.00     0.054 A 
BRANCH  63  64
ATOM     64  S   UNL     1       9.129  10.517 -15.666  1.00  0.00     0.124 S 
ATOM     65  O   UNL     1       8.565  10.938 -16.945  1.00  0.00    -0.237 OA
ATOM     66  O   UNL     1      10.163  11.388 -15.113  1.00  0.00    -0.237 OA
ATOM     67  O   UNL     1       9.405   9.086 -15.547  1.00  0.00    -0.744 OA
ENDBRANCH  63  64
ENDBRANCH  44  58
BRANCH  45  68
ATOM     68  C   UNL     1      -2.719  12.841  -7.414  1.00  0.00    -0.014 A 
ATOM     69  C   UNL     1      -2.672  13.629  -6.247  1.00  0.00     0.010 A 
ATOM     70  C   UNL     1      -3.902  12.149  -7.721  1.00  0.00     0.010 A 
ATOM     71  C   UNL     1      -3.753  13.652  -5.362  1.00  0.00     0.020 A 
ATOM     72  C   UNL     1      -5.000  12.198  -6.855  1.00  0.00     0.020 A 
ATOM     73  C   UNL     1      -4.903  12.918  -5.662  1.00  0.00     0.054 A 
BRANCH  73  74
ATOM     74  S   UNL     1      -6.248  12.876  -4.446  1.00  0.00     0.124 S 
ATOM     75  O   UNL     1      -5.671  12.049  -3.389  1.00  0.00    -0.237 OA
ATOM     76  O   UNL     1      -6.423  14.288  -4.117  1.00  0.00    -0.237 OA
ATOM     77  O   UNL     1      -7.356  12.267  -5.179  1.00  0.00    -0.744 OA
ENDBRANCH  73  74
ENDBRANCH  45  68
BRANCH  57  78
ATOM     78  C   UNL     1      -0.784  14.425 -13.987  1.00  0.00    -0.014 A 
ATOM     79  C   UNL     1      -1.095  13.741 -15.178  1.00  0.00     0.010 A 
ATOM     80  C   UNL     1      -0.942  15.821 -13.941  1.00  0.00     0.010 A 
ATOM     81  C   UNL     1      -1.491  14.444 -16.319  1.00  0.00     0.020 A 
ATOM     82  C   UNL     1      -1.373  16.525 -15.070  1.00  0.00     0.020 A 
ATOM     83  C   UNL     1      -1.612  15.835 -16.261  1.00  0.00     0.054 A 
BRANCH  83  84
ATOM     84  S   UNL     1      -2.050  16.735 -17.773  1.00  0.00     0.124 S 
ATOM     85  O   UNL     1      -0.827  16.624 -18.563  1.00  0.00    -0.237 OA
ATOM     86  O   UNL     1      -3.195  15.979 -18.275  1.00  0.00    -0.237 OA
ATOM     87  O   UNL     1      -2.362  18.081 -17.295  1.00  0.00    -0.744 OA
ENDBRANCH  83  84
ENDBRANCH  57  78
ENDBRANCH  31  32
ENDBRANCH  24  26
ENDBRANCH  23  24
ENDBRANCH  22  23
ENDBRANCH  21  22
ENDBRANCH  20  21
ENDBRANCH   1  20
TORSDOF 21
