REMARK SMILES O=C(N[C@@H](Cc1c[nH]c2ccccc12)C(=O)N[C@@H](CS)C(=O)N[C@@H](CO)C(=O)OCCOCCOC(=O)c1ccc(-c2c3nc(c(-c4ccc(S(=O)(=O)[O-])cc4)c4ccc([nH]4)c(-c4ccc(S(=O)(=O)[O-])cc4)c4nc(c(-c5ccc(S(=O)(=O)[O-])cc5)c5ccc2[nH]5)C=C4)C=C3)cc1)c1ccc(F)cc1
REMARK SMILES IDX 30 1 29 2 27 3 28 4 24 5 23 6 21 7 22 8 18 10 17 11 15 12
REMARK SMILES IDX 16 13 4 15 3 16 1 17 2 18 98 20 99 21 104 22 100 23 103 24
REMARK SMILES IDX 101 25 102 26 5 27 6 28 7 29 14 30 8 31 9 32 13 33 10 35
REMARK SMILES IDX 12 36 11 37 19 38 20 39 25 41 26 42 31 44 32 45 33 46 34 47
REMARK SMILES IDX 35 48 36 49 37 50 38 51 39 52 97 53 40 54 96 55 41 56 42 57
REMARK SMILES IDX 43 58 90 59 44 60 95 61 89 62 91 63 45 64 94 65 88 66 87 67
REMARK SMILES IDX 46 69 76 70 57 71 75 72 58 73 61 74 74 75 92 76 59 77 60 78
REMARK SMILES IDX 73 80 93 81 62 82 47 83 48 84 56 85 49 86 55 87 50 88 51 89
REMARK SMILES IDX 52 90 53 91 54 92 77 93 78 94 86 95 79 96 85 97 80 98 81 99
REMARK SMILES IDX 82 100 83 101 84 102 63 103 64 104 72 105 65 106 71 107
REMARK SMILES IDX 66 108 67 109 68 110 69 111 70 112
REMARK H PARENT 23 9 17 14 3 19 8 34 20 40 26 43 91 68 61 79
REMARK Flexibility Score: inf
ROOT
ATOM      1  C   UNL     1       3.260 -10.254   1.555  1.00  0.00     0.261 C 
ENDROOT
BRANCH   1   2
ATOM      2  O   UNL     1       4.069  -9.069   1.519  1.00  0.00    -0.462 OA
BRANCH   2   3
ATOM      3  C   UNL     1       4.526  -8.700   0.291  1.00  0.00     0.331 C 
ATOM      4  O   UNL     1       4.502  -9.404  -0.710  1.00  0.00    -0.250 OA
BRANCH   3   5
ATOM      5  C   UNL     1       5.114  -7.284   0.319  1.00  0.00     0.218 C 
BRANCH   5   6
ATOM      6  N   UNL     1       4.715  -6.520   1.524  1.00  0.00    -0.339 N 
ATOM      7  C   UNL     1       5.017  -5.198   1.637  1.00  0.00     0.244 C 
ATOM      8  O   UNL     1       6.137  -4.925   2.075  1.00  0.00    -0.273 OA
ATOM      9  H   UNL     1       4.228  -6.973   2.250  1.00  0.00     0.164 HD
BRANCH   7  10
ATOM     10  C   UNL     1       4.023  -4.108   1.124  1.00  0.00     0.181 C 
BRANCH  10  11
ATOM     11  N   UNL     1       4.707  -3.320   0.098  1.00  0.00    -0.342 N 
ATOM     12  C   UNL     1       5.140  -2.027   0.126  1.00  0.00     0.243 C 
ATOM     13  O   UNL     1       6.102  -1.766  -0.609  1.00  0.00    -0.273 OA
ATOM     14  H   UNL     1       4.881  -3.798  -0.744  1.00  0.00     0.164 HD
BRANCH  12  15
ATOM     15  C   UNL     1       4.483  -0.888   0.952  1.00  0.00     0.176 C 
BRANCH  15  16
ATOM     16  N   UNL     1       3.027  -0.858   0.784  1.00  0.00    -0.340 N 
ATOM     17  O   UNL     1       1.050  -0.111  -0.011  1.00  0.00    -0.269 OA
ATOM     18  C   UNL     1       2.272  -0.002   0.013  1.00  0.00     0.251 C 
ATOM     19  H   UNL     1       2.524  -1.538   1.288  1.00  0.00     0.164 HD
BRANCH  18  20
ATOM     20  C   UNL     1       2.910   1.120  -0.720  1.00  0.00     0.040 A 
ATOM     21  C   UNL     1       3.898   0.913  -1.693  1.00  0.00     0.017 A 
ATOM     22  C   UNL     1       2.498   2.424  -0.408  1.00  0.00     0.017 A 
ATOM     23  C   UNL     1       4.526   2.011  -2.289  1.00  0.00     0.040 A 
ATOM     24  C   UNL     1       3.118   3.517  -1.018  1.00  0.00     0.040 A 
ATOM     25  C   UNL     1       4.136   3.301  -1.940  1.00  0.00     0.123 A 
ATOM     26  F   UNL     1       4.750   4.351  -2.502  1.00  0.00    -0.207 F 
ENDBRANCH  18  20
ENDBRANCH  15  16
BRANCH  15  27
ATOM     27  C   UNL     1       4.979  -0.583   2.375  1.00  0.00     0.072 C 
BRANCH  27  28
ATOM     28  C   UNL     1       4.753  -1.605   3.437  1.00  0.00    -0.020 A 
ATOM     29  C   UNL     1       5.651  -2.597   3.774  1.00  0.00     0.087 A 
ATOM     30  C   UNL     1       3.660  -1.721   4.358  1.00  0.00     0.003 A 
ATOM     31  N   UNL     1       5.079  -3.404   4.718  1.00  0.00    -0.361 N 
ATOM     32  C   UNL     1       3.864  -2.889   5.098  1.00  0.00     0.046 A 
ATOM     33  C   UNL     1       2.516  -0.947   4.642  1.00  0.00     0.010 A 
ATOM     34  H   UNL     1       5.479  -4.231   5.072  1.00  0.00     0.166 HD
ATOM     35  C   UNL     1       2.956  -3.356   6.055  1.00  0.00     0.026 A 
ATOM     36  C   UNL     1       1.626  -1.370   5.639  1.00  0.00     0.001 A 
ATOM     37  C   UNL     1       1.835  -2.567   6.320  1.00  0.00     0.002 A 
ENDBRANCH  27  28
ENDBRANCH  15  27
ENDBRANCH  12  15
ENDBRANCH  10  11
BRANCH  10  38
ATOM     38  C   UNL     1       2.591  -4.530   0.775  1.00  0.00     0.101 C 
BRANCH  38  39
ATOM     39  S   UNL     1       2.341  -5.441  -0.777  1.00  0.00    -0.177 SA
ATOM     40  H   UNL     1       2.669  -4.643  -1.829  1.00  0.00     0.102 HD
ENDBRANCH  38  39
ENDBRANCH  10  38
ENDBRANCH   7  10
ENDBRANCH   5   6
BRANCH   5  41
ATOM     41  C   UNL     1       6.642  -7.397   0.202  1.00  0.00     0.193 C 
BRANCH  41  42
ATOM     42  O   UNL     1       7.223  -7.714   1.468  1.00  0.00    -0.394 OA
ATOM     43  H   UNL     1       7.016  -7.011   2.104  1.00  0.00     0.210 HD
ENDBRANCH  41  42
ENDBRANCH   5  41
ENDBRANCH   3   5
ENDBRANCH   2   3
ENDBRANCH   1   2
BRANCH   1  44
ATOM     44  C   UNL     1       2.230 -10.134   2.682  1.00  0.00     0.202 C 
BRANCH  44  45
ATOM     45  O   UNL     1       1.211  -9.143   2.506  1.00  0.00    -0.374 OA
BRANCH  45  46
ATOM     46  C   UNL     1       1.604  -7.776   2.584  1.00  0.00     0.202 C 
BRANCH  46  47
ATOM     47  C   UNL     1       1.822  -7.184   3.985  1.00  0.00     0.261 C 
BRANCH  47  48
ATOM     48  O   UNL     1       2.726  -7.949   4.797  1.00  0.00    -0.460 OA
BRANCH  48  49
ATOM     49  C   UNL     1       2.120  -8.633   5.799  1.00  0.00     0.338 C 
ATOM     50  O   UNL     1       0.943  -8.568   6.132  1.00  0.00    -0.246 OA
BRANCH  49  51
ATOM     51  C   UNL     1       3.039  -9.630   6.367  1.00  0.00     0.060 A 
ATOM     52  C   UNL     1       2.667 -10.975   6.263  1.00  0.00     0.016 A 
ATOM     53  C   UNL     1       4.194  -9.261   7.062  1.00  0.00     0.016 A 
ATOM     54  C   UNL     1       3.432 -11.957   6.886  1.00  0.00     0.010 A 
ATOM     55  C   UNL     1       4.957 -10.251   7.694  1.00  0.00     0.010 A 
ATOM     56  C   UNL     1       4.561 -11.598   7.636  1.00  0.00    -0.014 A 
BRANCH  56  57
ATOM     57  C   UNL     1       5.234 -12.646   8.441  1.00  0.00     0.031 A 
ATOM     58  C   UNL     1       4.912 -12.775   9.904  1.00  0.00     0.074 A 
ATOM     59  C   UNL     1       6.053 -13.533   7.848  1.00  0.00     0.049 A 
ATOM     60  N   UNL     1       5.279 -13.700  10.754  1.00  0.00    -0.248 NA
ATOM     61  C   UNL     1       4.057 -11.728  10.485  1.00  0.00     0.031 C 
ATOM     62  C   UNL     1       6.416 -13.528   6.431  1.00  0.00     0.029 A 
ATOM     63  N   UNL     1       6.705 -14.626   8.360  1.00  0.00    -0.354 N 
ATOM     64  C   UNL     1       4.694 -13.354  11.967  1.00  0.00     0.074 A 
ATOM     65  C   UNL     1       3.984 -12.111  11.752  1.00  0.00     0.031 C 
ATOM     66  C   UNL     1       7.208 -14.585   6.181  1.00  0.00     0.029 A 
ATOM     67  C   UNL     1       7.422 -15.327   7.421  1.00  0.00     0.049 A 
ATOM     68  H   UNL     1       6.662 -14.883   9.309  1.00  0.00     0.167 HD
ATOM     69  C   UNL     1       4.734 -14.015  13.149  1.00  0.00     0.031 A 
ATOM     70  C   UNL     1       8.161 -16.447   7.545  1.00  0.00     0.031 A 
ATOM     71  C   UNL     1       5.467 -15.235  13.368  1.00  0.00     0.049 A 
ATOM     72  C   UNL     1       8.239 -17.133   8.882  1.00  0.00     0.074 A 
ATOM     73  C   UNL     1       5.568 -15.986  14.526  1.00  0.00     0.029 A 
ATOM     74  N   UNL     1       6.237 -15.878  12.409  1.00  0.00    -0.354 N 
ATOM     75  N   UNL     1       7.654 -16.809  10.011  1.00  0.00    -0.248 NA
ATOM     76  C   UNL     1       9.065 -18.345   8.954  1.00  0.00     0.031 C 
ATOM     77  C   UNL     1       6.444 -17.052  14.283  1.00  0.00     0.029 A 
ATOM     78  C   UNL     1       6.839 -17.000  12.956  1.00  0.00     0.049 A 
ATOM     79  H   UNL     1       6.341 -15.580  11.476  1.00  0.00     0.167 HD
ATOM     80  C   UNL     1       8.026 -17.791  10.925  1.00  0.00     0.074 A 
ATOM     81  C   UNL     1       8.866 -18.729  10.207  1.00  0.00     0.031 C 
ATOM     82  C   UNL     1       7.699 -17.908  12.237  1.00  0.00     0.031 A 
BRANCH  69  83
ATOM     83  C   UNL     1       3.990 -13.399  14.306  1.00  0.00    -0.014 A 
ATOM     84  C   UNL     1       2.583 -13.367  14.336  1.00  0.00     0.010 A 
ATOM     85  C   UNL     1       4.708 -12.842  15.380  1.00  0.00     0.010 A 
ATOM     86  C   UNL     1       1.911 -12.742  15.391  1.00  0.00     0.020 A 
ATOM     87  C   UNL     1       4.039 -12.240  16.450  1.00  0.00     0.020 A 
ATOM     88  C   UNL     1       2.644 -12.174  16.436  1.00  0.00     0.054 A 
BRANCH  88  89
ATOM     89  S   UNL     1       1.749 -11.356  17.786  1.00  0.00     0.124 S 
ATOM     90  O   UNL     1       1.307 -10.119  17.147  1.00  0.00    -0.237 OA
ATOM     91  O   UNL     1       0.692 -12.314  18.098  1.00  0.00    -0.237 OA
ATOM     92  O   UNL     1       2.763 -11.191  18.825  1.00  0.00    -0.744 OA
ENDBRANCH  88  89
ENDBRANCH  69  83
BRANCH  70  93
ATOM     93  C   UNL     1       8.869 -16.997   6.357  1.00  0.00    -0.014 A 
ATOM     94  C   UNL     1       8.438 -18.190   5.753  1.00  0.00     0.010 A 
ATOM     95  C   UNL     1       9.967 -16.309   5.808  1.00  0.00     0.010 A 
ATOM     96  C   UNL     1       9.093 -18.687   4.622  1.00  0.00     0.020 A 
ATOM     97  C   UNL     1      10.607 -16.789   4.663  1.00  0.00     0.020 A 
ATOM     98  C   UNL     1      10.169 -17.979   4.080  1.00  0.00     0.054 A 
BRANCH  98  99
ATOM     99  S   UNL     1      10.954 -18.601   2.566  1.00  0.00     0.124 S 
ATOM    100  O   UNL     1      11.702 -19.751   3.061  1.00  0.00    -0.237 OA
ATOM    101  O   UNL     1       9.803 -18.909   1.720  1.00  0.00    -0.237 OA
ATOM    102  O   UNL     1      11.764 -17.472   2.114  1.00  0.00    -0.744 OA
ENDBRANCH  98  99
ENDBRANCH  70  93
BRANCH  82 103
ATOM    103  C   UNL     1       8.246 -19.105  12.972  1.00  0.00    -0.014 A 
ATOM    104  C   UNL     1       9.617 -19.215  13.268  1.00  0.00     0.010 A 
ATOM    105  C   UNL     1       7.375 -20.135  13.373  1.00  0.00     0.010 A 
ATOM    106  C   UNL     1      10.115 -20.360  13.896  1.00  0.00     0.020 A 
ATOM    107  C   UNL     1       7.865 -21.267  14.028  1.00  0.00     0.020 A 
ATOM    108  C   UNL     1       9.237 -21.384  14.263  1.00  0.00     0.054 A 
BRANCH 108 109
ATOM    109  S   UNL     1       9.906 -22.866  15.067  1.00  0.00     0.124 S 
ATOM    110  O   UNL     1      10.514 -23.572  13.942  1.00  0.00    -0.237 OA
ATOM    111  O   UNL     1      10.842 -22.310  16.041  1.00  0.00    -0.237 OA
ATOM    112  O   UNL     1       8.727 -23.509  15.643  1.00  0.00    -0.744 OA
ENDBRANCH 108 109
ENDBRANCH  82 103
ENDBRANCH  56  57
ENDBRANCH  49  51
ENDBRANCH  48  49
ENDBRANCH  47  48
ENDBRANCH  46  47
ENDBRANCH  45  46
ENDBRANCH  44  45
ENDBRANCH   1  44
TORSDOF 29
