REMARK SMILES C[C@H]1[C@@H](C(=O)OCCOCCOC(=O)c2ccc(-c3c4nc(c(-c5ccc(S(=O)(=O)[O-])cc5)c5ccc([nH]5)c(-c5ccc(S(=O)(=O)[O-])cc5)c5nc(c(-c6ccc(S(=O)(=O)[O-])cc6)c6ccc3[nH]6)C=C5)C=C4)cc2)CC[N@@H+]1Cc1cc(F)c(F)c(F)c1
REMARK SMILES IDX 10 1 9 2 8 3 7 4 6 5 4 6 5 7 3 8 1 9 2 10 77 11 75 12 76 13
REMARK SMILES IDX 78 15 79 16 80 17 87 18 81 19 85 20 82 21 83 22 86 23 84 24
REMARK SMILES IDX 11 25 12 26 13 27 14 28 15 29 16 30 74 31 17 32 73 33 18 34
REMARK SMILES IDX 19 35 20 36 67 37 21 38 72 39 66 40 68 41 22 42 71 43 65 44
REMARK SMILES IDX 64 45 23 47 53 48 34 49 52 50 35 51 38 52 51 53 69 54 36 55
REMARK SMILES IDX 37 56 50 58 70 59 39 60 24 61 25 62 33 63 26 64 32 65 27 66
REMARK SMILES IDX 28 67 29 68 30 69 31 70 54 71 55 72 63 73 56 74 62 75 57 76
REMARK SMILES IDX 58 77 59 78 60 79 61 80 40 81 41 82 49 83 42 84 48 85 43 86
REMARK SMILES IDX 44 87 45 88 46 89 47 90
REMARK H PARENT 77 14 68 46 38 57
REMARK Flexibility Score: inf
ROOT
ATOM      1  C   UNL     1      -0.460   1.080  -3.387  1.00  0.00     0.202 C 
ENDROOT
BRANCH   1   2
ATOM      2  O   UNL     1       0.140   2.202  -4.030  1.00  0.00    -0.374 OA
BRANCH   2   3
ATOM      3  C   UNL     1       1.497   2.482  -3.663  1.00  0.00     0.202 C 
BRANCH   3   4
ATOM      4  C   UNL     1       1.661   3.223  -2.331  1.00  0.00     0.261 C 
BRANCH   4   5
ATOM      5  O   UNL     1       1.420   2.308  -1.241  1.00  0.00    -0.463 OA
BRANCH   5   6
ATOM      6  C   UNL     1       0.448   2.629  -0.362  1.00  0.00     0.315 C 
ATOM      7  O   UNL     1      -0.123   3.715  -0.332  1.00  0.00    -0.252 OA
BRANCH   6   8
ATOM      8  C   UNL     1      -0.006   1.474   0.520  1.00  0.00     0.162 C 
ATOM      9  C   UNL     1       1.970  -0.144  -0.189  1.00  0.00     0.076 C 
ATOM     10  C   UNL     1       0.799   0.176   0.738  1.00  0.00     0.195 C 
ATOM     11  N   UNL     1      -0.171  -0.932   0.612  1.00  0.00    -0.328 N 
ATOM     12  C   UNL     1      -1.399   1.024   0.065  1.00  0.00     0.083 C 
ATOM     13  C   UNL     1      -1.282  -0.465  -0.200  1.00  0.00     0.263 C 
ATOM     14  H   UNL     1       0.294  -1.701   0.130  1.00  0.00     0.348 HD
BRANCH  11  15
ATOM     15  C   UNL     1      -0.526  -1.650   1.836  1.00  0.00     0.299 C 
BRANCH  15  16
ATOM     16  C   UNL     1      -1.258  -0.864   2.902  1.00  0.00     0.012 A 
ATOM     17  C   UNL     1      -0.573  -0.389   4.031  1.00  0.00     0.052 A 
ATOM     18  C   UNL     1      -2.629  -0.581   2.784  1.00  0.00     0.052 A 
ATOM     19  C   UNL     1      -1.239   0.386   4.981  1.00  0.00     0.162 A 
ATOM     20  C   UNL     1      -3.269   0.223   3.723  1.00  0.00     0.162 A 
ATOM     21  F   UNL     1      -0.566   0.821   6.054  1.00  0.00    -0.204 F 
ATOM     22  C   UNL     1      -2.578   0.710   4.821  1.00  0.00     0.194 A 
ATOM     23  F   UNL     1      -4.561   0.533   3.544  1.00  0.00    -0.204 F 
ATOM     24  F   UNL     1      -3.201   1.484   5.721  1.00  0.00    -0.200 F 
ENDBRANCH  15  16
ENDBRANCH  11  15
ENDBRANCH   6   8
ENDBRANCH   5   6
ENDBRANCH   4   5
ENDBRANCH   3   4
ENDBRANCH   2   3
ENDBRANCH   1   2
BRANCH   1  25
ATOM     25  C   UNL     1      -0.287  -0.266  -4.095  1.00  0.00     0.261 C 
BRANCH  25  26
ATOM     26  O   UNL     1       1.088  -0.675  -4.074  1.00  0.00    -0.460 OA
BRANCH  26  27
ATOM     27  C   UNL     1       1.738  -0.454  -5.237  1.00  0.00     0.338 C 
ATOM     28  O   UNL     1       1.243  -0.089  -6.296  1.00  0.00    -0.246 OA
BRANCH  27  29
ATOM     29  C   UNL     1       3.195  -0.541  -5.036  1.00  0.00     0.060 A 
ATOM     30  C   UNL     1       3.971   0.409  -5.708  1.00  0.00     0.016 A 
ATOM     31  C   UNL     1       3.799  -1.548  -4.276  1.00  0.00     0.016 A 
ATOM     32  C   UNL     1       5.353   0.290  -5.719  1.00  0.00     0.010 A 
ATOM     33  C   UNL     1       5.193  -1.661  -4.281  1.00  0.00     0.010 A 
ATOM     34  C   UNL     1       5.967  -0.782  -5.058  1.00  0.00    -0.014 A 
BRANCH  34  35
ATOM     35  C   UNL     1       7.386  -1.071  -5.375  1.00  0.00     0.031 A 
ATOM     36  C   UNL     1       7.697  -2.167  -6.360  1.00  0.00     0.074 A 
ATOM     37  C   UNL     1       8.365  -0.288  -4.888  1.00  0.00     0.049 A 
ATOM     38  N   UNL     1       8.848  -2.514  -6.875  1.00  0.00    -0.248 NA
ATOM     39  C   UNL     1       6.561  -2.978  -6.831  1.00  0.00     0.031 C 
ATOM     40  C   UNL     1       8.172   0.829  -3.962  1.00  0.00     0.029 A 
ATOM     41  N   UNL     1       9.714  -0.299  -5.128  1.00  0.00    -0.354 N 
ATOM     42  C   UNL     1       8.575  -3.579  -7.727  1.00  0.00     0.074 A 
ATOM     43  C   UNL     1       7.159  -3.851  -7.627  1.00  0.00     0.031 C 
ATOM     44  C   UNL     1       9.361   1.409  -3.727  1.00  0.00     0.029 A 
ATOM     45  C   UNL     1      10.398   0.691  -4.464  1.00  0.00     0.049 A 
ATOM     46  H   UNL     1      10.152  -0.953  -5.719  1.00  0.00     0.167 HD
ATOM     47  C   UNL     1       9.424  -4.260  -8.533  1.00  0.00     0.031 A 
ATOM     48  C   UNL     1      11.713   0.983  -4.454  1.00  0.00     0.031 A 
ATOM     49  C   UNL     1      10.834  -3.988  -8.621  1.00  0.00     0.049 A 
ATOM     50  C   UNL     1      12.647   0.176  -5.317  1.00  0.00     0.074 A 
ATOM     51  C   UNL     1      11.784  -4.611  -9.411  1.00  0.00     0.029 A 
ATOM     52  N   UNL     1      11.497  -3.013  -7.891  1.00  0.00    -0.354 N 
ATOM     53  N   UNL     1      12.368  -0.812  -6.135  1.00  0.00    -0.248 NA
ATOM     54  C   UNL     1      14.069   0.538  -5.269  1.00  0.00     0.031 C 
ATOM     55  C   UNL     1      13.031  -4.053  -9.114  1.00  0.00     0.029 A 
ATOM     56  C   UNL     1      12.848  -3.034  -8.191  1.00  0.00     0.049 A 
ATOM     57  H   UNL     1      11.070  -2.397  -7.253  1.00  0.00     0.167 HD
ATOM     58  C   UNL     1      13.578  -1.171  -6.721  1.00  0.00     0.074 A 
ATOM     59  C   UNL     1      14.583  -0.280  -6.177  1.00  0.00     0.031 C 
ATOM     60  C   UNL     1      13.835  -2.146  -7.630  1.00  0.00     0.031 A 
BRANCH  47  61
ATOM     61  C   UNL     1       8.853  -5.389  -9.352  1.00  0.00    -0.014 A 
ATOM     62  C   UNL     1       7.989  -5.144 -10.436  1.00  0.00     0.010 A 
ATOM     63  C   UNL     1       9.208  -6.716  -9.049  1.00  0.00     0.010 A 
ATOM     64  C   UNL     1       7.462  -6.207 -11.176  1.00  0.00     0.020 A 
ATOM     65  C   UNL     1       8.707  -7.780  -9.805  1.00  0.00     0.020 A 
ATOM     66  C   UNL     1       7.823  -7.519 -10.853  1.00  0.00     0.054 A 
BRANCH  66  67
ATOM     67  S   UNL     1       7.141  -8.879 -11.842  1.00  0.00     0.124 S 
ATOM     68  O   UNL     1       5.746  -8.895 -11.410  1.00  0.00    -0.237 OA
ATOM     69  O   UNL     1       7.369  -8.424 -13.211  1.00  0.00    -0.237 OA
ATOM     70  O   UNL     1       7.933 -10.037 -11.434  1.00  0.00    -0.744 OA
ENDBRANCH  66  67
ENDBRANCH  47  61
BRANCH  48  71
ATOM     71  C   UNL     1      12.221   2.089  -3.596  1.00  0.00    -0.014 A 
ATOM     72  C   UNL     1      12.735   3.269  -4.162  1.00  0.00     0.010 A 
ATOM     73  C   UNL     1      12.185   1.963  -2.194  1.00  0.00     0.010 A 
ATOM     74  C   UNL     1      13.219   4.294  -3.343  1.00  0.00     0.020 A 
ATOM     75  C   UNL     1      12.640   2.997  -1.373  1.00  0.00     0.020 A 
ATOM     76  C   UNL     1      13.166   4.152  -1.953  1.00  0.00     0.054 A 
BRANCH  76  77
ATOM     77  S   UNL     1      13.753   5.515  -0.909  1.00  0.00     0.124 S 
ATOM     78  O   UNL     1      15.199   5.431  -1.084  1.00  0.00    -0.237 OA
ATOM     79  O   UNL     1      13.107   6.676  -1.516  1.00  0.00    -0.237 OA
ATOM     80  O   UNL     1      13.261   5.163   0.421  1.00  0.00    -0.744 OA
ENDBRANCH  76  77
ENDBRANCH  48  71
BRANCH  60  81
ATOM     81  C   UNL     1      15.255  -2.275  -8.116  1.00  0.00    -0.014 A 
ATOM     82  C   UNL     1      16.278  -2.750  -7.277  1.00  0.00     0.010 A 
ATOM     83  C   UNL     1      15.562  -1.941  -9.448  1.00  0.00     0.010 A 
ATOM     84  C   UNL     1      17.592  -2.837  -7.744  1.00  0.00     0.020 A 
ATOM     85  C   UNL     1      16.868  -2.058  -9.930  1.00  0.00     0.020 A 
ATOM     86  C   UNL     1      17.879  -2.485  -9.067  1.00  0.00     0.054 A 
BRANCH  86  87
ATOM     87  S   UNL     1      19.590  -2.615  -9.653  1.00  0.00     0.124 S 
ATOM     88  O   UNL     1      20.223  -1.474  -8.997  1.00  0.00    -0.237 OA
ATOM     89  O   UNL     1      19.998  -3.929  -9.162  1.00  0.00    -0.237 OA
ATOM     90  O   UNL     1      19.468  -2.509 -11.105  1.00  0.00    -0.744 OA
ENDBRANCH  86  87
ENDBRANCH  60  81
ENDBRANCH  34  35
ENDBRANCH  27  29
ENDBRANCH  26  27
ENDBRANCH  25  26
ENDBRANCH   1  25
TORSDOF 19
