REMARK SMILES O=C(NCCOCC(=O)OCCOCCOC(=O)c1ccc(-c2c3nc(c(-c4ccc(S(=O)(=O)[O-])cc4)c4ccc([nH]4)c(-c4ccc(S(=O)(=O)[O-])cc4)c4nc(c(-c5ccc(S(=O)(=O)[O-])cc5)c5ccc2[nH]5)C=C4)C=C3)cc1)Nc1cccc(F)c1
REMARK SMILES IDX 12 1 11 2 10 3 8 4 9 5 7 6 6 7 5 8 4 9 3 10 1 11 2 12 79 13
REMARK SMILES IDX 80 16 81 17 86 18 82 19 84 20 83 21 85 22 13 23 14 24 15 25
REMARK SMILES IDX 16 26 17 27 18 28 19 29 20 30 78 31 21 32 77 33 22 34 23 35
REMARK SMILES IDX 24 36 71 37 25 38 76 39 70 40 72 41 26 42 75 43 69 44 68 45
REMARK SMILES IDX 27 47 57 48 38 49 56 50 39 51 42 52 55 53 73 54 40 55 41 56
REMARK SMILES IDX 54 58 74 59 43 60 28 61 29 62 37 63 30 64 36 65 31 66 32 67
REMARK SMILES IDX 33 68 34 69 35 70 58 71 59 72 67 73 60 74 66 75 61 76 62 77
REMARK SMILES IDX 63 78 64 79 65 80 44 81 45 82 53 83 46 84 52 85 47 86 48 87
REMARK SMILES IDX 49 88 50 89 51 90
REMARK H PARENT 3 14 79 15 72 46 42 57
REMARK Flexibility Score: inf
ROOT
ATOM      1  C   UNL     1       2.403  -4.183   3.220  1.00  0.00     0.202 C 
ENDROOT
BRANCH   1   2
ATOM      2  C   UNL     1       1.756  -4.715   1.938  1.00  0.00     0.261 C 
BRANCH   2   3
ATOM      3  O   UNL     1       2.624  -4.551   0.791  1.00  0.00    -0.462 OA
BRANCH   3   4
ATOM      4  C   UNL     1       2.047  -4.002  -0.312  1.00  0.00     0.332 C 
ATOM      5  O   UNL     1       0.899  -3.578  -0.372  1.00  0.00    -0.250 OA
BRANCH   4   6
ATOM      6  C   UNL     1       2.969  -4.029  -1.545  1.00  0.00     0.282 C 
BRANCH   6   7
ATOM      7  O   UNL     1       4.331  -3.667  -1.604  1.00  0.00    -0.368 OA
BRANCH   7   8
ATOM      8  C   UNL     1       4.777  -2.607  -0.768  1.00  0.00     0.182 C 
BRANCH   8   9
ATOM      9  C   UNL     1       4.361  -1.183  -1.186  1.00  0.00     0.146 C 
BRANCH   9  10
ATOM     10  N   UNL     1       2.942  -0.901  -1.026  1.00  0.00    -0.336 N 
ATOM     11  O   UNL     1       1.034  -0.026  -0.347  1.00  0.00    -0.249 OA
ATOM     12  C   UNL     1       2.259   0.045  -0.335  1.00  0.00     0.319 C 
ATOM     13  N   UNL     1       2.984   1.015   0.297  1.00  0.00    -0.308 N 
ATOM     14  H   UNL     1       2.360  -1.523  -1.520  1.00  0.00     0.165 HD
ATOM     15  H   UNL     1       3.943   1.080   0.084  1.00  0.00     0.171 HD
BRANCH  13  16
ATOM     16  C   UNL     1       2.456   1.934   1.236  1.00  0.00     0.045 A 
ATOM     17  C   UNL     1       3.151   3.129   1.463  1.00  0.00     0.026 A 
ATOM     18  C   UNL     1       1.284   1.687   1.959  1.00  0.00     0.065 A 
ATOM     19  C   UNL     1       2.659   4.080   2.367  1.00  0.00     0.005 A 
ATOM     20  C   UNL     1       0.814   2.629   2.869  1.00  0.00     0.125 A 
ATOM     21  C   UNL     1       1.486   3.827   3.073  1.00  0.00     0.039 A 
ATOM     22  F   UNL     1      -0.304   2.378   3.563  1.00  0.00    -0.207 F 
ENDBRANCH  13  16
ENDBRANCH   9  10
ENDBRANCH   8   9
ENDBRANCH   7   8
ENDBRANCH   6   7
ENDBRANCH   4   6
ENDBRANCH   3   4
ENDBRANCH   2   3
ENDBRANCH   1   2
BRANCH   1  23
ATOM     23  O   UNL     1       2.330  -2.768   3.417  1.00  0.00    -0.374 OA
BRANCH  23  24
ATOM     24  C   UNL     1       3.124  -1.966   2.552  1.00  0.00     0.202 C 
BRANCH  24  25
ATOM     25  C   UNL     1       4.593  -1.801   2.968  1.00  0.00     0.261 C 
BRANCH  25  26
ATOM     26  O   UNL     1       5.240  -3.065   3.194  1.00  0.00    -0.460 OA
BRANCH  26  27
ATOM     27  C   UNL     1       5.562  -3.291   4.494  1.00  0.00     0.338 C 
ATOM     28  O   UNL     1       5.547  -2.479   5.404  1.00  0.00    -0.246 OA
BRANCH  27  29
ATOM     29  C   UNL     1       5.779  -4.730   4.736  1.00  0.00     0.060 A 
ATOM     30  C   UNL     1       4.992  -5.323   5.729  1.00  0.00     0.016 A 
ATOM     31  C   UNL     1       6.775  -5.464   4.088  1.00  0.00     0.016 A 
ATOM     32  C   UNL     1       5.243  -6.632   6.127  1.00  0.00     0.010 A 
ATOM     33  C   UNL     1       7.027  -6.784   4.491  1.00  0.00     0.010 A 
ATOM     34  C   UNL     1       6.291  -7.358   5.543  1.00  0.00    -0.014 A 
BRANCH  34  35
ATOM     35  C   UNL     1       6.670  -8.657   6.156  1.00  0.00     0.031 A 
ATOM     36  C   UNL     1       7.831  -8.713   7.113  1.00  0.00     0.074 A 
ATOM     37  C   UNL     1       5.918  -9.754   5.948  1.00  0.00     0.049 A 
ATOM     38  N   UNL     1       8.227  -9.700   7.876  1.00  0.00    -0.248 NA
ATOM     39  C   UNL     1       8.651  -7.497   7.231  1.00  0.00     0.031 C 
ATOM     40  C   UNL     1       4.757  -9.825   5.061  1.00  0.00     0.029 A 
ATOM     41  N   UNL     1       6.006 -11.012   6.490  1.00  0.00    -0.354 N 
ATOM     42  C   UNL     1       9.335  -9.224   8.568  1.00  0.00     0.074 A 
ATOM     43  C   UNL     1       9.572  -7.874   8.106  1.00  0.00     0.031 C 
ATOM     44  C   UNL     1       4.229 -11.059   5.133  1.00  0.00     0.029 A 
ATOM     45  C   UNL     1       5.020 -11.867   6.059  1.00  0.00     0.049 A 
ATOM     46  H   UNL     1       6.709 -11.277   7.126  1.00  0.00     0.167 HD
ATOM     47  C   UNL     1      10.083  -9.848   9.511  1.00  0.00     0.031 A 
ATOM     48  C   UNL     1       4.774 -13.153   6.380  1.00  0.00     0.031 A 
ATOM     49  C   UNL     1       9.858 -11.197   9.961  1.00  0.00     0.049 A 
ATOM     50  C   UNL     1       5.634 -13.835   7.410  1.00  0.00     0.074 A 
ATOM     51  C   UNL     1      10.548 -11.910  10.927  1.00  0.00     0.029 A 
ATOM     52  N   UNL     1       8.875 -12.043   9.469  1.00  0.00    -0.354 N 
ATOM     53  N   UNL     1       6.649 -13.354   8.088  1.00  0.00    -0.248 NA
ATOM     54  C   UNL     1       5.299 -15.229   7.733  1.00  0.00     0.031 C 
ATOM     55  C   UNL     1      10.016 -13.204  10.980  1.00  0.00     0.029 A 
ATOM     56  C   UNL     1       8.956 -13.278  10.091  1.00  0.00     0.049 A 
ATOM     57  H   UNL     1       8.216 -11.800   8.779  1.00  0.00     0.167 HD
ATOM     58  C   UNL     1       7.060 -14.379   8.934  1.00  0.00     0.074 A 
ATOM     59  C   UNL     1       6.171 -15.498   8.695  1.00  0.00     0.031 C 
ATOM     60  C   UNL     1       8.078 -14.391   9.831  1.00  0.00     0.031 A 
BRANCH  47  61
ATOM     61  C   UNL     1      11.241  -9.082  10.095  1.00  0.00    -0.014 A 
ATOM     62  C   UNL     1      11.036  -8.003  10.975  1.00  0.00     0.010 A 
ATOM     63  C   UNL     1      12.557  -9.463   9.777  1.00  0.00     0.010 A 
ATOM     64  C   UNL     1      12.124  -7.294  11.491  1.00  0.00     0.020 A 
ATOM     65  C   UNL     1      13.649  -8.773  10.311  1.00  0.00     0.020 A 
ATOM     66  C   UNL     1      13.424  -7.679  11.150  1.00  0.00     0.054 A 
BRANCH  66  67
ATOM     67  S   UNL     1      14.821  -6.747  11.838  1.00  0.00     0.124 S 
ATOM     68  O   UNL     1      14.769  -5.512  11.060  1.00  0.00    -0.237 OA
ATOM     69  O   UNL     1      14.458  -6.617  13.247  1.00  0.00    -0.237 OA
ATOM     70  O   UNL     1      15.974  -7.603  11.571  1.00  0.00    -0.744 OA
ENDBRANCH  66  67
ENDBRANCH  47  61
BRANCH  48  71
ATOM     71  C   UNL     1       3.653 -13.874   5.718  1.00  0.00    -0.014 A 
ATOM     72  C   UNL     1       2.487 -14.209   6.428  1.00  0.00     0.010 A 
ATOM     73  C   UNL     1       3.745 -14.210   4.355  1.00  0.00     0.010 A 
ATOM     74  C   UNL     1       1.435 -14.873   5.787  1.00  0.00     0.020 A 
ATOM     75  C   UNL     1       2.686 -14.850   3.705  1.00  0.00     0.020 A 
ATOM     76  C   UNL     1       1.540 -15.184   4.428  1.00  0.00     0.054 A 
BRANCH  76  77
ATOM     77  S   UNL     1       0.136 -15.978   3.597  1.00  0.00     0.124 S 
ATOM     78  O   UNL     1       0.232 -17.351   4.082  1.00  0.00    -0.237 OA
ATOM     79  O   UNL     1      -1.002 -15.208   4.094  1.00  0.00    -0.237 OA
ATOM     80  O   UNL     1       0.431 -15.791   2.178  1.00  0.00    -0.744 OA
ENDBRANCH  76  77
ENDBRANCH  48  71
BRANCH  60  81
ATOM     81  C   UNL     1       8.271 -15.651  10.635  1.00  0.00    -0.014 A 
ATOM     82  C   UNL     1       8.761 -16.828  10.042  1.00  0.00     0.010 A 
ATOM     83  C   UNL     1       7.970 -15.650  12.009  1.00  0.00     0.010 A 
ATOM     84  C   UNL     1       8.895 -17.997  10.797  1.00  0.00     0.020 A 
ATOM     85  C   UNL     1       8.130 -16.809  12.774  1.00  0.00     0.020 A 
ATOM     86  C   UNL     1       8.569 -17.982  12.157  1.00  0.00     0.054 A 
BRANCH  86  87
ATOM     87  S   UNL     1       8.750 -19.509  13.119  1.00  0.00     0.124 S 
ATOM     88  O   UNL     1       7.579 -20.273  12.695  1.00  0.00    -0.237 OA
ATOM     89  O   UNL     1      10.037 -20.029  12.663  1.00  0.00    -0.237 OA
ATOM     90  O   UNL     1       8.726 -19.050  14.505  1.00  0.00    -0.744 OA
ENDBRANCH  86  87
ENDBRANCH  60  81
ENDBRANCH  34  35
ENDBRANCH  27  29
ENDBRANCH  26  27
ENDBRANCH  25  26
ENDBRANCH  24  25
ENDBRANCH  23  24
ENDBRANCH   1  23
TORSDOF 22
