REMARK SMILES CS(=O)(=O)Nc1cc(C(=O)OCCOCCOC(=O)c2ccc(-c3c4nc(c(-c5ccc(S(=O)(=O)[O-])cc5)c5ccc([nH]5)c(-c5ccc(S(=O)(=O)[O-])cc5)c5nc(c(-c6ccc(S(=O)(=O)[O-])cc6)c6ccc3[nH]6)C=C5)C=C4)cc2)ccc1N1CC[NH+](CC(=O)N2CCCC2)CC1
REMARK SMILES IDX 14 1 13 2 12 3 11 4 9 5 10 6 8 7 6 8 7 9 82 10 81 11 80 12
REMARK SMILES IDX 5 13 2 15 1 16 3 17 4 18 83 19 84 20 96 21 85 22 95 23 86 24
REMARK SMILES IDX 87 26 88 27 89 28 90 29 91 30 94 31 92 32 93 33 15 34 16 35
REMARK SMILES IDX 17 36 18 37 19 38 20 39 21 40 79 41 22 42 78 43 23 44 24 45
REMARK SMILES IDX 25 46 72 47 26 48 77 49 71 50 73 51 27 52 76 53 70 54 69 55
REMARK SMILES IDX 28 57 58 58 39 59 57 60 40 61 43 62 56 63 74 64 41 65 42 66
REMARK SMILES IDX 55 68 75 69 44 70 29 71 30 72 38 73 31 74 37 75 32 76 33 77
REMARK SMILES IDX 34 78 35 79 36 80 59 81 60 82 68 83 61 84 67 85 62 86 63 87
REMARK SMILES IDX 64 88 65 89 66 90 45 91 46 92 54 93 47 94 53 95 48 96 49 97
REMARK SMILES IDX 50 98 51 99 52 100
REMARK H PARENT 5 14 86 25 73 56 43 67
REMARK Flexibility Score: inf
ROOT
ATOM      1  O   UNL     1       2.235  -7.553   3.817  1.00  0.00    -0.374 OA
ENDROOT
BRANCH   1   2
ATOM      2  C   UNL     1       2.801  -8.421   2.836  1.00  0.00     0.202 C 
BRANCH   2   3
ATOM      3  C   UNL     1       2.392  -8.202   1.377  1.00  0.00     0.261 C 
BRANCH   3   4
ATOM      4  O   UNL     1       2.648  -6.859   0.935  1.00  0.00    -0.460 OA
BRANCH   4   5
ATOM      5  C   UNL     1       1.528  -6.120   0.757  1.00  0.00     0.338 C 
ATOM      6  O   UNL     1       0.373  -6.511   0.832  1.00  0.00    -0.246 OA
BRANCH   5   7
ATOM      7  C   UNL     1       1.848  -4.683   0.626  1.00  0.00     0.062 A 
ATOM      8  C   UNL     1       1.134  -2.424   1.133  1.00  0.00     0.073 A 
ATOM      9  C   UNL     1       0.954  -3.802   1.229  1.00  0.00     0.044 A 
ATOM     10  C   UNL     1       2.233  -1.869   0.420  1.00  0.00     0.062 A 
ATOM     11  C   UNL     1       3.138  -2.792  -0.151  1.00  0.00     0.029 A 
ATOM     12  C   UNL     1       2.965  -4.184  -0.036  1.00  0.00     0.018 A 
BRANCH   8  13
ATOM     13  N   UNL     1       0.254  -1.675   1.963  1.00  0.00    -0.282 N 
ATOM     14  H   UNL     1       0.353  -1.774   2.938  1.00  0.00     0.180 HD
BRANCH  13  15
ATOM     15  S   UNL     1      -0.921  -0.651   1.415  1.00  0.00     0.229 S 
ATOM     16  C   UNL     1      -0.612  -0.286  -0.302  1.00  0.00     0.183 C 
ATOM     17  O   UNL     1      -0.745   0.567   2.185  1.00  0.00    -0.207 OA
ATOM     18  O   UNL     1      -2.172  -1.375   1.496  1.00  0.00    -0.207 OA
ENDBRANCH  13  15
ENDBRANCH   8  13
BRANCH  10  19
ATOM     19  N   UNL     1       2.438  -0.481   0.311  1.00  0.00    -0.359 N 
ATOM     20  C   UNL     1       3.378   0.071  -0.709  1.00  0.00     0.178 C 
ATOM     21  C   UNL     1       2.571   0.212   1.590  1.00  0.00     0.178 C 
ATOM     22  C   UNL     1       3.407   1.635  -0.713  1.00  0.00     0.284 C 
ATOM     23  C   UNL     1       2.375   1.721   1.458  1.00  0.00     0.284 C 
ATOM     24  N   UNL     1       3.379   2.330   0.591  1.00  0.00    -0.324 N 
ATOM     25  H   UNL     1       3.109   3.287   0.364  1.00  0.00     0.348 HD
BRANCH  24  26
ATOM     26  C   UNL     1       4.668   2.579   1.268  1.00  0.00     0.363 C 
BRANCH  26  27
ATOM     27  C   UNL     1       5.668   1.423   1.401  1.00  0.00     0.277 C 
ATOM     28  O   UNL     1       6.385   1.137   0.435  1.00  0.00    -0.268 OA
ATOM     29  N   UNL     1       5.831   0.775   2.619  1.00  0.00    -0.338 N 
ATOM     30  C   UNL     1       4.949   0.695   3.783  1.00  0.00     0.119 C 
ATOM     31  C   UNL     1       7.025  -0.027   2.839  1.00  0.00     0.119 C 
ATOM     32  C   UNL     1       5.801   0.111   4.895  1.00  0.00     0.023 C 
ATOM     33  C   UNL     1       6.775  -0.782   4.136  1.00  0.00     0.023 C 
ENDBRANCH  26  27
ENDBRANCH  24  26
ENDBRANCH  10  19
ENDBRANCH   5   7
ENDBRANCH   4   5
ENDBRANCH   3   4
ENDBRANCH   2   3
ENDBRANCH   1   2
BRANCH   1  34
ATOM     34  C   UNL     1       2.809  -6.253   3.953  1.00  0.00     0.202 C 
BRANCH  34  35
ATOM     35  C   UNL     1       4.167  -6.146   4.662  1.00  0.00     0.261 C 
BRANCH  35  36
ATOM     36  O   UNL     1       5.228  -6.796   3.940  1.00  0.00    -0.460 OA
BRANCH  36  37
ATOM     37  C   UNL     1       5.677  -7.946   4.500  1.00  0.00     0.338 C 
ATOM     38  O   UNL     1       5.326  -8.433   5.567  1.00  0.00    -0.246 OA
BRANCH  37  39
ATOM     39  C   UNL     1       6.533  -8.666   3.539  1.00  0.00     0.060 A 
ATOM     40  C   UNL     1       6.180  -9.981   3.206  1.00  0.00     0.016 A 
ATOM     41  C   UNL     1       7.684  -8.084   3.007  1.00  0.00     0.016 A 
ATOM     42  C   UNL     1       6.995 -10.730   2.359  1.00  0.00     0.010 A 
ATOM     43  C   UNL     1       8.505  -8.841   2.165  1.00  0.00     0.010 A 
ATOM     44  C   UNL     1       8.179 -10.175   1.856  1.00  0.00    -0.014 A 
BRANCH  44  45
ATOM     45  C   UNL     1       9.126 -11.016   1.085  1.00  0.00     0.031 A 
ATOM     46  C   UNL     1      10.376 -11.521   1.752  1.00  0.00     0.074 A 
ATOM     47  C   UNL     1       8.871 -11.329  -0.199  1.00  0.00     0.049 A 
ATOM     48  N   UNL     1      11.361 -12.216   1.245  1.00  0.00    -0.248 NA
ATOM     49  C   UNL     1      10.540 -11.195   3.178  1.00  0.00     0.031 C 
ATOM     50  C   UNL     1       7.675 -10.935  -0.943  1.00  0.00     0.029 A 
ATOM     51  N   UNL     1       9.611 -12.044  -1.107  1.00  0.00    -0.354 N 
ATOM     52  C   UNL     1      12.267 -12.402   2.283  1.00  0.00     0.074 A 
ATOM     53  C   UNL     1      11.727 -11.722   3.441  1.00  0.00     0.031 C 
ATOM     54  C   UNL     1       7.766 -11.409  -2.197  1.00  0.00     0.029 A 
ATOM     55  C   UNL     1       9.044 -12.100  -2.357  1.00  0.00     0.049 A 
ATOM     56  H   UNL     1      10.467 -12.476  -0.883  1.00  0.00     0.167 HD
ATOM     57  C   UNL     1      13.439 -13.081   2.273  1.00  0.00     0.031 A 
ATOM     58  C   UNL     1       9.513 -12.622  -3.508  1.00  0.00     0.031 A 
ATOM     59  C   UNL     1      13.977 -13.744   1.113  1.00  0.00     0.049 A 
ATOM     60  C   UNL     1      10.859 -13.298  -3.516  1.00  0.00     0.074 A 
ATOM     61  C   UNL     1      15.145 -14.478   1.007  1.00  0.00     0.029 A 
ATOM     62  N   UNL     1      13.392 -13.743  -0.145  1.00  0.00    -0.354 N 
ATOM     63  N   UNL     1      11.688 -13.496  -2.518  1.00  0.00    -0.248 NA
ATOM     64  C   UNL     1      11.331 -13.825  -4.804  1.00  0.00     0.031 C 
ATOM     65  C   UNL     1      15.302 -14.861  -0.329  1.00  0.00     0.029 A 
ATOM     66  C   UNL     1      14.195 -14.429  -1.041  1.00  0.00     0.049 A 
ATOM     67  H   UNL     1      12.533 -13.317  -0.368  1.00  0.00     0.167 HD
ATOM     68  C   UNL     1      12.768 -14.190  -3.055  1.00  0.00     0.074 A 
ATOM     69  C   UNL     1      12.477 -14.395  -4.459  1.00  0.00     0.031 C 
ATOM     70  C   UNL     1      13.898 -14.620  -2.440  1.00  0.00     0.031 A 
BRANCH  57  71
ATOM     71  C   UNL     1      14.243 -13.109   3.547  1.00  0.00    -0.014 A 
ATOM     72  C   UNL     1      13.810 -13.834   4.672  1.00  0.00     0.010 A 
ATOM     73  C   UNL     1      15.477 -12.435   3.604  1.00  0.00     0.010 A 
ATOM     74  C   UNL     1      14.576 -13.852   5.841  1.00  0.00     0.020 A 
ATOM     75  C   UNL     1      16.262 -12.476   4.760  1.00  0.00     0.020 A 
ATOM     76  C   UNL     1      15.797 -13.171   5.878  1.00  0.00     0.054 A 
BRANCH  76  77
ATOM     77  S   UNL     1      16.780 -13.231   7.401  1.00  0.00     0.124 S 
ATOM     78  O   UNL     1      15.982 -12.407   8.306  1.00  0.00    -0.237 OA
ATOM     79  O   UNL     1      16.806 -14.658   7.709  1.00  0.00    -0.237 OA
ATOM     80  O   UNL     1      18.065 -12.657   7.009  1.00  0.00    -0.744 OA
ENDBRANCH  76  77
ENDBRANCH  57  71
BRANCH  58  81
ATOM     81  C   UNL     1       8.713 -12.502  -4.758  1.00  0.00    -0.014 A 
ATOM     82  C   UNL     1       8.148 -13.637  -5.363  1.00  0.00     0.010 A 
ATOM     83  C   UNL     1       8.508 -11.240  -5.349  1.00  0.00     0.010 A 
ATOM     84  C   UNL     1       7.404 -13.517  -6.542  1.00  0.00     0.020 A 
ATOM     85  C   UNL     1       7.740 -11.111  -6.509  1.00  0.00     0.020 A 
ATOM     86  C   UNL     1       7.201 -12.253  -7.104  1.00  0.00     0.054 A 
BRANCH  86  87
ATOM     87  S   UNL     1       6.184 -12.115  -8.600  1.00  0.00     0.124 S 
ATOM     88  O   UNL     1       7.056 -12.699  -9.614  1.00  0.00    -0.237 OA
ATOM     89  O   UNL     1       5.003 -12.900  -8.250  1.00  0.00    -0.237 OA
ATOM     90  O   UNL     1       5.953 -10.678  -8.725  1.00  0.00    -0.744 OA
ENDBRANCH  86  87
ENDBRANCH  58  81
BRANCH  70  91
ATOM     91  C   UNL     1      14.901 -15.377  -3.272  1.00  0.00    -0.014 A 
ATOM     92  C   UNL     1      15.676 -14.729  -4.250  1.00  0.00     0.010 A 
ATOM     93  C   UNL     1      15.117 -16.747  -3.026  1.00  0.00     0.010 A 
ATOM     94  C   UNL     1      16.628 -15.442  -4.986  1.00  0.00     0.020 A 
ATOM     95  C   UNL     1      16.089 -17.455  -3.737  1.00  0.00     0.020 A 
ATOM     96  C   UNL     1      16.831 -16.800  -4.721  1.00  0.00     0.054 A 
BRANCH  96  97
ATOM     97  S   UNL     1      18.110 -17.687  -5.653  1.00  0.00     0.124 S 
ATOM     98  O   UNL     1      17.513 -17.774  -6.983  1.00  0.00    -0.237 OA
ATOM     99  O   UNL     1      19.263 -16.797  -5.538  1.00  0.00    -0.237 OA
ATOM    100  O   UNL     1      18.238 -18.958  -4.944  1.00  0.00    -0.744 OA
ENDBRANCH  96  97
ENDBRANCH  70  91
ENDBRANCH  44  45
ENDBRANCH  37  39
ENDBRANCH  36  37
ENDBRANCH  35  36
ENDBRANCH  34  35
ENDBRANCH   1  34
TORSDOF 22
