REMARK SMILES C[C@@H]1[C@@H](C(=O)OCCOCCOC(=O)c2ccc(-c3c4nc(c(-c5ccc(S(=O)(=O)[O-])cc5)c5ccc([nH]5)c(-c5ccc(S(=O)(=O)[O-])cc5)c5nc(c(-c6ccc(S(=O)(=O)[O-])cc6)c6ccc3[nH]6)C=C5)C=C4)cc2)CCN1C(=O)N1CCC[C@H]2CCC[C@@H]21
REMARK SMILES IDX 10 1 9 2 8 3 7 4 6 5 4 6 5 7 3 8 1 9 2 10 77 11 75 12 76 13
REMARK SMILES IDX 78 14 79 15 80 16 81 17 88 18 82 19 84 20 87 21 83 22 85 23
REMARK SMILES IDX 86 24 11 25 12 26 13 27 14 28 15 29 16 30 74 31 17 32 73 33
REMARK SMILES IDX 18 34 19 35 20 36 67 37 21 38 72 39 66 40 68 41 22 42 71 43
REMARK SMILES IDX 65 44 64 45 23 47 53 48 34 49 52 50 35 51 38 52 51 53 69 54
REMARK SMILES IDX 36 55 37 56 50 58 70 59 39 60 24 61 25 62 33 63 26 64 32 65
REMARK SMILES IDX 27 66 28 67 29 68 30 69 31 70 54 71 55 72 63 73 56 74 62 75
REMARK SMILES IDX 57 76 58 77 59 78 60 79 61 80 40 81 41 82 49 83 42 84 48 85
REMARK SMILES IDX 43 86 44 87 45 88 46 89 47 90
REMARK H PARENT 68 46 38 57
REMARK Flexibility Score: inf
ROOT
ATOM      1  C   UNL     1       0.606   2.892  -3.343  1.00  0.00     0.202 C 
ENDROOT
BRANCH   1   2
ATOM      2  O   UNL     1      -0.116   2.394  -4.469  1.00  0.00    -0.374 OA
BRANCH   2   3
ATOM      3  C   UNL     1      -1.541   2.389  -4.398  1.00  0.00     0.202 C 
BRANCH   3   4
ATOM      4  C   UNL     1      -2.203   1.244  -3.626  1.00  0.00     0.261 C 
BRANCH   4   5
ATOM      5  O   UNL     1      -1.852   1.258  -2.232  1.00  0.00    -0.463 OA
BRANCH   5   6
ATOM      6  C   UNL     1      -0.903   0.344  -1.886  1.00  0.00     0.311 C 
ATOM      7  O   UNL     1      -0.412  -0.466  -2.659  1.00  0.00    -0.252 OA
BRANCH   6   8
ATOM      8  C   UNL     1      -0.428   0.584  -0.463  1.00  0.00     0.123 C 
ATOM      9  C   UNL     1       1.645   0.253   0.935  1.00  0.00     0.032 C 
ATOM     10  C   UNL     1       0.758  -0.341  -0.162  1.00  0.00     0.098 C 
ATOM     11  N   UNL     1       0.100  -1.590   0.248  1.00  0.00    -0.321 N 
ATOM     12  C   UNL     1      -1.455   0.180   0.589  1.00  0.00     0.039 C 
ATOM     13  C   UNL     1      -1.253  -1.326   0.725  1.00  0.00     0.122 C 
BRANCH  11  14
ATOM     14  C   UNL     1       0.362  -2.850  -0.285  1.00  0.00     0.320 C 
ATOM     15  O   UNL     1      -0.448  -3.774  -0.219  1.00  0.00    -0.248 OA
BRANCH  14  16
ATOM     16  N   UNL     1       1.535  -2.961  -0.997  1.00  0.00    -0.321 N 
ATOM     17  C   UNL     1       2.826  -2.859  -0.330  1.00  0.00     0.121 C 
ATOM     18  C   UNL     1       1.593  -3.653  -2.272  1.00  0.00     0.090 C 
ATOM     19  C   UNL     1       3.857  -2.144  -1.209  1.00  0.00     0.022 C 
ATOM     20  C   UNL     1       2.490  -2.823  -3.198  1.00  0.00     0.012 C 
ATOM     21  C   UNL     1       0.336  -3.811  -3.123  1.00  0.00     0.025 C 
ATOM     22  C   UNL     1       3.904  -2.721  -2.634  1.00  0.00     0.007 C 
ATOM     23  C   UNL     1       2.330  -3.511  -4.542  1.00  0.00     0.006 C 
ATOM     24  C   UNL     1       0.864  -3.964  -4.559  1.00  0.00     0.002 C 
ENDBRANCH  14  16
ENDBRANCH  11  14
ENDBRANCH   6   8
ENDBRANCH   5   6
ENDBRANCH   4   5
ENDBRANCH   3   4
ENDBRANCH   2   3
ENDBRANCH   1   2
BRANCH   1  25
ATOM     25  C   UNL     1       0.635   4.411  -3.138  1.00  0.00     0.261 C 
BRANCH  25  26
ATOM     26  O   UNL     1      -0.662   4.942  -2.813  1.00  0.00    -0.460 OA
BRANCH  26  27
ATOM     27  C   UNL     1      -1.218   5.702  -3.786  1.00  0.00     0.338 C 
ATOM     28  O   UNL     1      -0.701   6.034  -4.846  1.00  0.00    -0.246 OA
BRANCH  27  29
ATOM     29  C   UNL     1      -2.642   5.941  -3.494  1.00  0.00     0.060 A 
ATOM     30  C   UNL     1      -3.568   5.613  -4.493  1.00  0.00     0.016 A 
ATOM     31  C   UNL     1      -3.062   6.541  -2.305  1.00  0.00     0.016 A 
ATOM     32  C   UNL     1      -4.913   5.935  -4.330  1.00  0.00     0.010 A 
ATOM     33  C   UNL     1      -4.412   6.873  -2.149  1.00  0.00     0.010 A 
ATOM     34  C   UNL     1      -5.335   6.606  -3.176  1.00  0.00    -0.014 A 
BRANCH  34  35
ATOM     35  C   UNL     1      -6.708   7.163  -3.120  1.00  0.00     0.031 A 
ATOM     36  C   UNL     1      -6.916   8.621  -3.432  1.00  0.00     0.074 A 
ATOM     37  C   UNL     1      -7.760   6.375  -2.834  1.00  0.00     0.049 A 
ATOM     38  N   UNL     1      -8.022   9.317  -3.433  1.00  0.00    -0.248 NA
ATOM     39  C   UNL     1      -5.716   9.395  -3.791  1.00  0.00     0.031 C 
ATOM     40  C   UNL     1      -7.691   4.940  -2.560  1.00  0.00     0.029 A 
ATOM     41  N   UNL     1      -9.094   6.676  -2.726  1.00  0.00    -0.354 N 
ATOM     42  C   UNL     1      -7.654  10.611  -3.785  1.00  0.00     0.074 A 
ATOM     43  C   UNL     1      -6.218  10.609  -3.963  1.00  0.00     0.031 C 
ATOM     44  C   UNL     1      -8.932   4.485  -2.310  1.00  0.00     0.029 A 
ATOM     45  C   UNL     1      -9.874   5.601  -2.376  1.00  0.00     0.049 A 
ATOM     46  H   UNL     1      -9.457   7.577  -2.886  1.00  0.00     0.167 HD
ATOM     47  C   UNL     1      -8.441  11.700  -3.952  1.00  0.00     0.031 A 
ATOM     48  C   UNL     1     -11.195   5.528  -2.119  1.00  0.00     0.031 A 
ATOM     49  C   UNL     1      -9.867  11.703  -3.763  1.00  0.00     0.049 A 
ATOM     50  C   UNL     1     -12.040   6.770  -2.241  1.00  0.00     0.074 A 
ATOM     51  C   UNL     1     -10.754  12.754  -3.918  1.00  0.00     0.029 A 
ATOM     52  N   UNL     1     -10.614  10.603  -3.370  1.00  0.00    -0.354 N 
ATOM     53  N   UNL     1     -11.679   7.981  -2.595  1.00  0.00    -0.248 NA
ATOM     54  C   UNL     1     -13.471   6.632  -1.936  1.00  0.00     0.031 C 
ATOM     55  C   UNL     1     -12.030  12.302  -3.567  1.00  0.00     0.029 A 
ATOM     56  C   UNL     1     -11.947  10.955  -3.252  1.00  0.00     0.049 A 
ATOM     57  H   UNL     1     -10.250   9.704  -3.200  1.00  0.00     0.167 HD
ATOM     58  C   UNL     1     -12.844   8.742  -2.581  1.00  0.00     0.074 A 
ATOM     59  C   UNL     1     -13.920   7.853  -2.196  1.00  0.00     0.031 C 
ATOM     60  C   UNL     1     -13.008  10.058  -2.865  1.00  0.00     0.031 A 
BRANCH  47  61
ATOM     61  C   UNL     1      -7.766  12.993  -4.326  1.00  0.00    -0.014 A 
ATOM     62  C   UNL     1      -7.234  13.193  -5.613  1.00  0.00     0.010 A 
ATOM     63  C   UNL     1      -7.691  14.037  -3.386  1.00  0.00     0.010 A 
ATOM     64  C   UNL     1      -6.607  14.398  -5.940  1.00  0.00     0.020 A 
ATOM     65  C   UNL     1      -7.088  15.253  -3.717  1.00  0.00     0.020 A 
ATOM     66  C   UNL     1      -6.535  15.420  -4.988  1.00  0.00     0.054 A 
BRANCH  66  67
ATOM     67  S   UNL     1      -5.731  16.981  -5.444  1.00  0.00     0.124 S 
ATOM     68  O   UNL     1      -4.321  16.601  -5.455  1.00  0.00    -0.237 OA
ATOM     69  O   UNL     1      -6.314  17.272  -6.751  1.00  0.00    -0.237 OA
ATOM     70  O   UNL     1      -6.120  17.897  -4.374  1.00  0.00    -0.744 OA
ENDBRANCH  66  67
ENDBRANCH  47  61
BRANCH  48  71
ATOM     71  C   UNL     1     -11.801   4.234  -1.703  1.00  0.00    -0.014 A 
ATOM     72  C   UNL     1     -12.672   3.539  -2.559  1.00  0.00     0.010 A 
ATOM     73  C   UNL     1     -11.505   3.690  -0.440  1.00  0.00     0.010 A 
ATOM     74  C   UNL     1     -13.249   2.331  -2.154  1.00  0.00     0.020 A 
ATOM     75  C   UNL     1     -12.058   2.470  -0.042  1.00  0.00     0.020 A 
ATOM     76  C   UNL     1     -12.936   1.804  -0.898  1.00  0.00     0.054 A 
BRANCH  76  77
ATOM     77  S   UNL     1     -13.655   0.210  -0.412  1.00  0.00     0.124 S 
ATOM     78  O   UNL     1     -15.037   0.578  -0.117  1.00  0.00    -0.237 OA
ATOM     79  O   UNL     1     -13.457  -0.603  -1.609  1.00  0.00    -0.237 OA
ATOM     80  O   UNL     1     -12.852  -0.188   0.742  1.00  0.00    -0.744 OA
ENDBRANCH  76  77
ENDBRANCH  48  71
BRANCH  60  81
ATOM     81  C   UNL     1     -14.406  10.613  -2.806  1.00  0.00    -0.014 A 
ATOM     82  C   UNL     1     -15.056  10.827  -1.577  1.00  0.00     0.010 A 
ATOM     83  C   UNL     1     -15.057  10.979  -3.998  1.00  0.00     0.010 A 
ATOM     84  C   UNL     1     -16.344  11.368  -1.545  1.00  0.00     0.020 A 
ATOM     85  C   UNL     1     -16.334  11.545  -3.968  1.00  0.00     0.020 A 
ATOM     86  C   UNL     1     -16.976  11.723  -2.741  1.00  0.00     0.054 A 
BRANCH  86  87
ATOM     87  S   UNL     1     -18.631  12.462  -2.670  1.00  0.00     0.124 S 
ATOM     88  O   UNL     1     -19.467  11.306  -2.361  1.00  0.00    -0.237 OA
ATOM     89  O   UNL     1     -18.498  13.447  -1.599  1.00  0.00    -0.237 OA
ATOM     90  O   UNL     1     -18.816  13.026  -4.006  1.00  0.00    -0.744 OA
ENDBRANCH  86  87
ENDBRANCH  60  81
ENDBRANCH  34  35
ENDBRANCH  27  29
ENDBRANCH  26  27
ENDBRANCH  25  26
ENDBRANCH   1  25
TORSDOF 19
