REMARK SMILES CC1=C(CC(=O)OCCOCCOC(=O)c2ccc(-c3c4nc(c(-c5ccc(S(=O)(=O)[O-])cc5)c5ccc([nH]5)c(-c5ccc(S(=O)(=O)[O-])cc5)c5nc(c(-c6ccc(S(=O)(=O)[O-])cc6)c6ccc3[nH]6)C=C5)C=C4)cc2)c2cc(F)ccc2/C1=C\c1ccc([S@@+](C)[O-])cc1
REMARK SMILES IDX 10 1 9 2 8 3 7 4 5 5 6 6 4 7 3 8 1 9 2 10 83 11 76 12 82 13
REMARK SMILES IDX 84 14 77 15 81 16 78 17 80 18 79 19 85 20 86 21 93 22 87 23
REMARK SMILES IDX 92 24 88 25 89 26 90 27 91 28 11 29 12 30 13 31 14 32 15 33
REMARK SMILES IDX 16 34 17 35 75 36 18 37 74 38 19 39 20 40 21 41 68 42 22 43
REMARK SMILES IDX 73 44 67 45 69 46 23 47 72 48 66 49 65 50 24 52 54 53 35 54
REMARK SMILES IDX 53 55 36 56 39 57 52 58 70 59 37 60 38 61 51 63 71 64 40 65
REMARK SMILES IDX 25 66 26 67 34 68 27 69 33 70 28 71 29 72 30 73 31 74 32 75
REMARK SMILES IDX 55 76 56 77 64 78 57 79 63 80 58 81 59 82 60 83 61 84 62 85
REMARK SMILES IDX 41 86 42 87 50 88 43 89 49 90 44 91 45 92 46 93 47 94 48 95
REMARK H PARENT 69 51 39 62
REMARK Flexibility Score: inf
ROOT
ATOM      1  O   UNL     1      -4.507   2.620   3.116  1.00  0.00    -0.374 OA
ENDROOT
BRANCH   1   2
ATOM      2  C   UNL     1      -3.726   1.741   3.920  1.00  0.00     0.202 C 
BRANCH   2   3
ATOM      3  C   UNL     1      -3.048   0.535   3.251  1.00  0.00     0.261 C 
BRANCH   3   4
ATOM      4  O   UNL     1      -2.232   0.855   2.104  1.00  0.00    -0.463 OA
BRANCH   4   5
ATOM      5  C   UNL     1      -2.659   0.325   0.925  1.00  0.00     0.310 C 
ATOM      6  O   UNL     1      -3.664  -0.373   0.804  1.00  0.00    -0.252 OA
BRANCH   5   7
ATOM      7  C   UNL     1      -1.801   0.654  -0.294  1.00  0.00     0.159 C 
BRANCH   7   8
ATOM      8  C   UNL     1      -0.668   1.626  -0.191  1.00  0.00    -0.025 C 
ATOM      9  C   UNL     1       1.222  -0.008   0.152  1.00  0.00     0.045 C 
ATOM     10  C   UNL     1       0.648   1.361  -0.008  1.00  0.00    -0.039 C 
ATOM     11  C   UNL     1       1.426   2.614  -0.052  1.00  0.00    -0.014 C 
ATOM     12  C   UNL     1      -0.798   3.070  -0.454  1.00  0.00    -0.011 A 
ATOM     13  C   UNL     1       0.456   3.697  -0.326  1.00  0.00    -0.010 A 
ATOM     14  C   UNL     1       2.764   2.706   0.100  1.00  0.00     0.017 C 
ATOM     15  C   UNL     1      -1.921   3.807  -0.809  1.00  0.00     0.048 A 
ATOM     16  C   UNL     1       0.571   5.074  -0.485  1.00  0.00     0.012 A 
ATOM     17  C   UNL     1      -1.794   5.188  -0.945  1.00  0.00     0.123 A 
ATOM     18  C   UNL     1      -0.569   5.828  -0.767  1.00  0.00     0.040 A 
ATOM     19  F   UNL     1      -2.882   5.925  -1.204  1.00  0.00    -0.207 F 
BRANCH  14  20
ATOM     20  C   UNL     1       3.547   3.945   0.045  1.00  0.00    -0.025 A 
ATOM     21  C   UNL     1       3.517   4.844   1.116  1.00  0.00     0.013 A 
ATOM     22  C   UNL     1       4.233   4.291  -1.123  1.00  0.00     0.013 A 
ATOM     23  C   UNL     1       4.051   6.129   0.972  1.00  0.00     0.061 A 
ATOM     24  C   UNL     1       4.790   5.568  -1.256  1.00  0.00     0.061 A 
ATOM     25  C   UNL     1       4.663   6.511  -0.228  1.00  0.00     0.152 A 
BRANCH  25  26
ATOM     26  S   UNL     1       5.101   8.241  -0.539  1.00  0.00    -0.018 S 
ATOM     27  C   UNL     1       6.084   8.589   0.931  1.00  0.00     0.346 C 
ATOM     28  O   UNL     1       6.054   8.262  -1.788  1.00  0.00    -0.612 OA
ENDBRANCH  25  26
ENDBRANCH  14  20
ENDBRANCH   7   8
ENDBRANCH   5   7
ENDBRANCH   4   5
ENDBRANCH   3   4
ENDBRANCH   2   3
ENDBRANCH   1   2
BRANCH   1  29
ATOM     29  C   UNL     1      -3.840   3.365   2.103  1.00  0.00     0.202 C 
BRANCH  29  30
ATOM     30  C   UNL     1      -2.827   4.434   2.531  1.00  0.00     0.261 C 
BRANCH  30  31
ATOM     31  O   UNL     1      -1.796   3.950   3.393  1.00  0.00    -0.460 OA
BRANCH  31  32
ATOM     32  C   UNL     1      -1.794   4.510   4.624  1.00  0.00     0.338 C 
ATOM     33  O   UNL     1      -2.539   5.380   5.052  1.00  0.00    -0.246 OA
BRANCH  32  34
ATOM     34  C   UNL     1      -0.837   3.787   5.467  1.00  0.00     0.060 A 
ATOM     35  C   UNL     1       0.509   3.702   5.111  1.00  0.00     0.016 A 
ATOM     36  C   UNL     1      -1.310   3.221   6.656  1.00  0.00     0.016 A 
ATOM     37  C   UNL     1       1.398   3.068   5.977  1.00  0.00     0.010 A 
ATOM     38  C   UNL     1      -0.420   2.595   7.522  1.00  0.00     0.010 A 
ATOM     39  C   UNL     1       0.942   2.537   7.198  1.00  0.00    -0.014 A 
BRANCH  39  40
ATOM     40  C   UNL     1       1.912   2.054   8.206  1.00  0.00     0.031 A 
ATOM     41  C   UNL     1       2.041   0.597   8.526  1.00  0.00     0.074 A 
ATOM     42  C   UNL     1       2.651   2.973   8.857  1.00  0.00     0.049 A 
ATOM     43  N   UNL     1       2.870   0.017   9.352  1.00  0.00    -0.248 NA
ATOM     44  C   UNL     1       1.122  -0.327   7.843  1.00  0.00     0.031 C 
ATOM     45  C   UNL     1       2.564   4.419   8.639  1.00  0.00     0.029 A 
ATOM     46  N   UNL     1       3.620   2.838   9.817  1.00  0.00    -0.354 N 
ATOM     47  C   UNL     1       2.587  -1.340   9.282  1.00  0.00     0.074 A 
ATOM     48  C   UNL     1       1.475  -1.494   8.369  1.00  0.00     0.031 C 
ATOM     49  C   UNL     1       3.473   5.033   9.409  1.00  0.00     0.029 A 
ATOM     50  C   UNL     1       4.173   4.034  10.211  1.00  0.00     0.049 A 
ATOM     51  H   UNL     1       3.894   1.969  10.190  1.00  0.00     0.167 HD
ATOM     52  C   UNL     1       3.219  -2.359   9.911  1.00  0.00     0.031 A 
ATOM     53  C   UNL     1       5.138   4.302  11.113  1.00  0.00     0.031 A 
ATOM     54  C   UNL     1       4.318  -2.175  10.826  1.00  0.00     0.049 A 
ATOM     55  C   UNL     1       5.802   3.154  11.818  1.00  0.00     0.074 A 
ATOM     56  C   UNL     1       5.055  -3.147  11.481  1.00  0.00     0.029 A 
ATOM     57  N   UNL     1       4.836  -0.949  11.222  1.00  0.00    -0.354 N 
ATOM     58  N   UNL     1       5.581   1.868  11.676  1.00  0.00    -0.248 NA
ATOM     59  C   UNL     1       6.854   3.483  12.787  1.00  0.00     0.031 C 
ATOM     60  C   UNL     1       5.957  -2.510  12.334  1.00  0.00     0.029 A 
ATOM     61  C   UNL     1       5.854  -1.140  12.142  1.00  0.00     0.049 A 
ATOM     62  H   UNL     1       4.526  -0.074  10.896  1.00  0.00     0.167 HD
ATOM     63  C   UNL     1       6.477   1.232  12.527  1.00  0.00     0.074 A 
ATOM     64  C   UNL     1       7.263   2.275  13.156  1.00  0.00     0.031 C 
ATOM     65  C   UNL     1       6.628  -0.093  12.768  1.00  0.00     0.031 A 
BRANCH  52  66
ATOM     66  C   UNL     1       2.771  -3.771   9.629  1.00  0.00    -0.014 A 
ATOM     67  C   UNL     1       2.253  -4.566  10.669  1.00  0.00     0.010 A 
ATOM     68  C   UNL     1       3.007  -4.362   8.374  1.00  0.00     0.010 A 
ATOM     69  C   UNL     1       2.027  -5.932  10.476  1.00  0.00     0.020 A 
ATOM     70  C   UNL     1       2.752  -5.721   8.167  1.00  0.00     0.020 A 
ATOM     71  C   UNL     1       2.292  -6.503   9.229  1.00  0.00     0.054 A 
BRANCH  71  72
ATOM     72  S   UNL     1       2.059  -8.290   9.018  1.00  0.00     0.124 S 
ATOM     73  O   UNL     1       3.164  -8.839   9.797  1.00  0.00    -0.237 OA
ATOM     74  O   UNL     1       0.725  -8.503   9.575  1.00  0.00    -0.237 OA
ATOM     75  O   UNL     1       2.158  -8.480   7.572  1.00  0.00    -0.744 OA
ENDBRANCH  71  72
ENDBRANCH  52  66
BRANCH  53  76
ATOM     76  C   UNL     1       5.551   5.716  11.332  1.00  0.00    -0.014 A 
ATOM     77  C   UNL     1       4.643   6.650  11.869  1.00  0.00     0.010 A 
ATOM     78  C   UNL     1       6.812   6.164  10.903  1.00  0.00     0.010 A 
ATOM     79  C   UNL     1       4.959   8.010  11.903  1.00  0.00     0.020 A 
ATOM     80  C   UNL     1       7.147   7.520  10.971  1.00  0.00     0.020 A 
ATOM     81  C   UNL     1       6.204   8.438  11.437  1.00  0.00     0.054 A 
BRANCH  81  82
ATOM     82  S   UNL     1       6.557  10.217  11.413  1.00  0.00     0.124 S 
ATOM     83  O   UNL     1       5.713  10.674  10.312  1.00  0.00    -0.237 OA
ATOM     84  O   UNL     1       6.138  10.642  12.746  1.00  0.00    -0.237 OA
ATOM     85  O   UNL     1       7.995  10.278  11.164  1.00  0.00    -0.744 OA
ENDBRANCH  81  82
ENDBRANCH  53  76
BRANCH  65  86
ATOM     86  C   UNL     1       7.676  -0.518  13.767  1.00  0.00    -0.014 A 
ATOM     87  C   UNL     1       8.764  -1.307  13.346  1.00  0.00     0.010 A 
ATOM     88  C   UNL     1       7.515  -0.256  15.139  1.00  0.00     0.010 A 
ATOM     89  C   UNL     1       9.642  -1.863  14.279  1.00  0.00     0.020 A 
ATOM     90  C   UNL     1       8.414  -0.777  16.073  1.00  0.00     0.020 A 
ATOM     91  C   UNL     1       9.455  -1.602  15.639  1.00  0.00     0.054 A 
BRANCH  91  92
ATOM     92  S   UNL     1      10.578  -2.370  16.837  1.00  0.00     0.124 S 
ATOM     93  O   UNL     1      10.144  -3.763  16.817  1.00  0.00    -0.237 OA
ATOM     94  O   UNL     1      11.893  -2.110  16.254  1.00  0.00    -0.237 OA
ATOM     95  O   UNL     1      10.302  -1.649  18.078  1.00  0.00    -0.744 OA
ENDBRANCH  91  92
ENDBRANCH  65  86
ENDBRANCH  39  40
ENDBRANCH  32  34
ENDBRANCH  31  32
ENDBRANCH  30  31
ENDBRANCH  29  30
ENDBRANCH   1  29
TORSDOF 20
