REMARK SMILES COc1ccc(NC(=O)N[C@@H]2C=C[C@H](C(=O)OCCOCCOC(=O)c3ccc(-c4c5nc(c(-c6ccc(S(=O)(=O)[O-])cc6)c6ccc([nH]6)c(-c6ccc(S(=O)(=O)[O-])cc6)c6nc(c(-c7ccc(S(=O)(=O)[O-])cc7)c7ccc4[nH]7)C=C6)C=C5)cc3)C2)c(C)c1
REMARK SMILES IDX 20 1 19 2 18 3 17 4 15 5 16 6 14 7 11 8 12 9 86 10 13 11
REMARK SMILES IDX 10 12 7 13 8 14 9 16 6 18 3 19 4 20 89 21 5 22 87 23 88 24
REMARK SMILES IDX 2 25 1 26 21 27 22 28 23 29 24 30 25 31 26 32 27 33 85 34
REMARK SMILES IDX 28 35 84 36 29 37 30 38 31 39 78 40 32 41 83 42 77 43 79 44
REMARK SMILES IDX 33 45 82 46 76 47 75 48 34 50 64 51 45 52 63 53 46 54 49 55
REMARK SMILES IDX 62 56 80 57 47 58 48 59 61 61 81 62 50 63 35 64 36 65 44 66
REMARK SMILES IDX 37 67 43 68 38 69 39 70 40 71 41 72 42 73 65 74 66 75 74 76
REMARK SMILES IDX 67 77 73 78 68 79 69 80 70 81 71 82 72 83 51 84 52 85 60 86
REMARK SMILES IDX 53 87 59 88 54 89 55 90 56 91 57 92 58 93
REMARK H PARENT 7 15 10 17 79 49 49 60
REMARK Flexibility Score: inf
ROOT
ATOM      1  O   UNL     1       5.724  -1.960   0.057  1.00  0.00    -0.374 OA
ENDROOT
BRANCH   1   2
ATOM      2  C   UNL     1       4.451  -2.414  -0.344  1.00  0.00     0.202 C 
BRANCH   2   3
ATOM      3  C   UNL     1       3.792  -1.127  -0.594  1.00  0.00     0.261 C 
BRANCH   3   4
ATOM      4  O   UNL     1       4.300  -0.742  -1.824  1.00  0.00    -0.463 OA
BRANCH   4   5
ATOM      5  C   UNL     1       5.461  -0.155  -2.089  1.00  0.00     0.312 C 
ATOM      6  O   UNL     1       6.218   0.400  -1.308  1.00  0.00    -0.252 OA
BRANCH   5   7
ATOM      7  C   UNL     1       5.729  -0.347  -3.709  1.00  0.00     0.124 C 
ATOM      8  C   UNL     1       5.236   2.335  -5.416  1.00  0.00     0.107 C 
ATOM      9  C   UNL     1       4.362   0.894  -6.336  1.00  0.00    -0.006 C 
ATOM     10  C   UNL     1       6.474   1.586  -3.996  1.00  0.00     0.048 C 
ATOM     11  C   UNL     1       4.479  -0.481  -5.528  1.00  0.00    -0.014 C 
BRANCH   8  12
ATOM     12  N   UNL     1       3.868   3.021  -4.663  1.00  0.00    -0.332 N 
ATOM     13  N   UNL     1       2.750   1.248  -3.192  1.00  0.00    -0.308 N 
ATOM     14  C   UNL     1       3.150   2.642  -3.481  1.00  0.00     0.319 C 
ATOM     15  H   UNL     1       2.003   1.085  -2.571  1.00  0.00     0.171 HD
ATOM     16  O   UNL     1       3.190   3.526  -2.624  1.00  0.00    -0.248 OA
ATOM     17  H   UNL     1       3.509   3.816  -5.119  1.00  0.00     0.165 HD
BRANCH  13  18
ATOM     18  C   UNL     1       3.405   0.141  -3.781  1.00  0.00     0.046 A 
ATOM     19  C   UNL     1       6.263  -1.619  -5.342  1.00  0.00     0.119 A 
ATOM     20  C   UNL     1       6.199   0.141  -5.380  1.00  0.00     0.048 A 
ATOM     21  C   UNL     1       4.974  -2.395  -4.471  1.00  0.00     0.052 A 
ATOM     22  C   UNL     1       4.652   0.870  -4.304  1.00  0.00     0.030 A 
ATOM     23  C   UNL     1       3.567  -1.561  -3.801  1.00  0.00    -0.024 A 
ATOM     24  C   UNL     1       2.529  -2.463  -3.171  1.00  0.00     0.047 C 
BRANCH  19  25
ATOM     25  O   UNL     1       7.401  -2.324  -5.611  1.00  0.00    -0.497 OA
ATOM     26  C   UNL     1       8.517  -1.807  -4.875  1.00  0.00     0.278 C 
ENDBRANCH  19  25
ENDBRANCH  13  18
ENDBRANCH   8  12
ENDBRANCH   5   7
ENDBRANCH   4   5
ENDBRANCH   3   4
ENDBRANCH   2   3
ENDBRANCH   1   2
BRANCH   1  27
ATOM     27  C   UNL     1       6.793  -2.683  -0.453  1.00  0.00     0.202 C 
BRANCH  27  28
ATOM     28  C   UNL     1       6.662  -4.090   0.099  1.00  0.00     0.261 C 
BRANCH  28  29
ATOM     29  O   UNL     1       6.409  -4.059   1.571  1.00  0.00    -0.460 OA
BRANCH  29  30
ATOM     30  C   UNL     1       5.177  -4.112   2.210  1.00  0.00     0.338 C 
ATOM     31  O   UNL     1       4.674  -5.171   2.563  1.00  0.00    -0.246 OA
BRANCH  30  32
ATOM     32  C   UNL     1       4.578  -2.772   2.661  1.00  0.00     0.060 A 
ATOM     33  C   UNL     1       3.184  -2.591   2.878  1.00  0.00     0.016 A 
ATOM     34  C   UNL     1       5.343  -1.631   2.553  1.00  0.00     0.016 A 
ATOM     35  C   UNL     1       2.533  -1.333   2.682  1.00  0.00     0.010 A 
ATOM     36  C   UNL     1       4.687  -0.451   2.202  1.00  0.00     0.010 A 
ATOM     37  C   UNL     1       3.267  -0.272   2.193  1.00  0.00    -0.014 A 
BRANCH  37  38
ATOM     38  C   UNL     1       2.821   1.079   1.680  1.00  0.00     0.031 A 
ATOM     39  C   UNL     1       3.555   2.162   2.445  1.00  0.00     0.074 A 
ATOM     40  C   UNL     1       2.125   1.355   0.513  1.00  0.00     0.049 A 
ATOM     41  N   UNL     1       3.647   3.388   2.106  1.00  0.00    -0.248 NA
ATOM     42  C   UNL     1       4.391   1.895   3.637  1.00  0.00     0.031 C 
ATOM     43  C   UNL     1       2.102   2.615  -0.250  1.00  0.00     0.029 A 
ATOM     44  N   UNL     1       1.265   0.600  -0.292  1.00  0.00    -0.354 N 
ATOM     45  C   UNL     1       4.687   3.980   2.806  1.00  0.00     0.074 A 
ATOM     46  C   UNL     1       5.140   2.996   3.736  1.00  0.00     0.031 C 
ATOM     47  C   UNL     1       1.149   2.626  -1.209  1.00  0.00     0.029 A 
ATOM     48  C   UNL     1       0.404   1.416  -1.053  1.00  0.00     0.049 A 
ATOM     49  H   UNL     1       1.262  -0.384  -0.323  1.00  0.00     0.167 HD
ATOM     50  C   UNL     1       5.079   5.225   2.427  1.00  0.00     0.031 A 
ATOM     51  C   UNL     1      -0.942   1.382  -0.862  1.00  0.00     0.031 A 
ATOM     52  C   UNL     1       4.116   5.717   1.428  1.00  0.00     0.049 A 
ATOM     53  C   UNL     1      -1.204   2.735  -0.143  1.00  0.00     0.074 A 
ATOM     54  C   UNL     1       4.162   5.839   0.055  1.00  0.00     0.029 A 
ATOM     55  N   UNL     1       2.759   5.697   1.767  1.00  0.00    -0.354 N 
ATOM     56  N   UNL     1      -0.381   3.306   0.730  1.00  0.00    -0.248 NA
ATOM     57  C   UNL     1      -2.111   3.702  -0.767  1.00  0.00     0.031 C 
ATOM     58  C   UNL     1       2.803   5.855  -0.418  1.00  0.00     0.029 A 
ATOM     59  C   UNL     1       1.927   5.669   0.656  1.00  0.00     0.049 A 
ATOM     60  H   UNL     1       2.430   5.703   2.695  1.00  0.00     0.167 HD
ATOM     61  C   UNL     1      -0.440   4.687   0.560  1.00  0.00     0.074 A 
ATOM     62  C   UNL     1      -1.568   4.861  -0.366  1.00  0.00     0.031 C 
ATOM     63  C   UNL     1       0.464   5.700   0.842  1.00  0.00     0.031 A 
BRANCH  50  64
ATOM     64  C   UNL     1       6.350   5.966   2.826  1.00  0.00    -0.014 A 
ATOM     65  C   UNL     1       6.615   7.191   2.179  1.00  0.00     0.010 A 
ATOM     66  C   UNL     1       7.333   5.551   3.757  1.00  0.00     0.010 A 
ATOM     67  C   UNL     1       7.761   7.962   2.435  1.00  0.00     0.020 A 
ATOM     68  C   UNL     1       8.494   6.321   4.031  1.00  0.00     0.020 A 
ATOM     69  C   UNL     1       8.695   7.530   3.368  1.00  0.00     0.054 A 
BRANCH  69  70
ATOM     70  S   UNL     1      10.132   8.592   3.700  1.00  0.00     0.124 S 
ATOM     71  O   UNL     1      10.783   8.663   2.393  1.00  0.00    -0.237 OA
ATOM     72  O   UNL     1       9.509   9.832   4.155  1.00  0.00    -0.237 OA
ATOM     73  O   UNL     1      10.881   7.865   4.722  1.00  0.00    -0.744 OA
ENDBRANCH  69  70
ENDBRANCH  50  64
BRANCH  51  74
ATOM     74  C   UNL     1      -1.303  -0.066  -0.610  1.00  0.00    -0.014 A 
ATOM     75  C   UNL     1      -1.231  -0.969  -1.725  1.00  0.00     0.010 A 
ATOM     76  C   UNL     1      -1.041  -0.601   0.661  1.00  0.00     0.010 A 
ATOM     77  C   UNL     1      -0.761  -2.295  -1.581  1.00  0.00     0.020 A 
ATOM     78  C   UNL     1      -0.529  -1.907   0.790  1.00  0.00     0.020 A 
ATOM     79  C   UNL     1      -0.375  -2.742  -0.320  1.00  0.00     0.054 A 
BRANCH  79  80
ATOM     80  S   UNL     1       0.472  -4.349  -0.124  1.00  0.00     0.124 S 
ATOM     81  O   UNL     1      -0.650  -5.274  -0.038  1.00  0.00    -0.237 OA
ATOM     82  O   UNL     1       1.287  -4.454  -1.331  1.00  0.00    -0.237 OA
ATOM     83  O   UNL     1       1.243  -4.169   1.100  1.00  0.00    -0.744 OA
ENDBRANCH  79  80
ENDBRANCH  51  74
BRANCH  63  84
ATOM     84  C   UNL     1      -0.097   6.926   1.544  1.00  0.00    -0.014 A 
ATOM     85  C   UNL     1      -1.470   7.169   1.654  1.00  0.00     0.010 A 
ATOM     86  C   UNL     1       0.763   7.821   2.234  1.00  0.00     0.010 A 
ATOM     87  C   UNL     1      -1.959   8.258   2.357  1.00  0.00     0.020 A 
ATOM     88  C   UNL     1       0.281   8.866   3.015  1.00  0.00     0.020 A 
ATOM     89  C   UNL     1      -1.083   9.090   3.044  1.00  0.00     0.054 A 
BRANCH  89  90
ATOM     90  S   UNL     1      -1.790  10.449   3.975  1.00  0.00     0.124 S 
ATOM     91  O   UNL     1      -2.338  11.283   2.907  1.00  0.00    -0.237 OA
ATOM     92  O   UNL     1      -2.777   9.768   4.809  1.00  0.00    -0.237 OA
ATOM     93  O   UNL     1      -0.651  11.014   4.692  1.00  0.00    -0.744 OA
ENDBRANCH  89  90
ENDBRANCH  63  84
ENDBRANCH  37  38
ENDBRANCH  30  32
ENDBRANCH  29  30
ENDBRANCH  28  29
ENDBRANCH  27  28
ENDBRANCH   1  27
TORSDOF 20
