REMARK SMILES Cc1nccn1C1(C(=O)OCCOCCOC(=O)c2ccc(-c3c4nc(c(-c5ccc(S(=O)(=O)[O-])cc5)c5ccc([nH]5)c(-c5ccc(S(=O)(=O)[O-])cc5)c5nc(c(-c6ccc(S(=O)(=O)[O-])cc6)c6ccc3[nH]6)C=C5)C=C4)cc2)CCN(C(=O)[C@@H]2C[C@H]2c2ccccc2)CC1
REMARK SMILES IDX 14 1 13 2 12 3 11 4 10 5 8 6 9 7 7 8 79 9 94 10 80 11 93 12
REMARK SMILES IDX 81 13 82 14 83 15 6 16 1 17 2 18 3 19 4 20 5 21 84 22 85 23
REMARK SMILES IDX 86 24 87 25 88 26 92 27 89 28 91 29 90 30 15 31 16 32 17 33
REMARK SMILES IDX 18 34 19 35 20 36 78 37 21 38 77 39 22 40 23 41 24 42 71 43
REMARK SMILES IDX 25 44 76 45 70 46 72 47 26 48 75 49 69 50 68 51 27 53 57 54
REMARK SMILES IDX 38 55 56 56 39 57 42 58 55 59 73 60 40 61 41 62 54 64 74 65
REMARK SMILES IDX 43 66 28 67 29 68 37 69 30 70 36 71 31 72 32 73 33 74 34 75
REMARK SMILES IDX 35 76 58 77 59 78 67 79 60 80 66 81 61 82 62 83 63 84 64 85
REMARK SMILES IDX 65 86 44 87 45 88 53 89 46 90 52 91 47 92 48 93 49 94 50 95
REMARK SMILES IDX 51 96
REMARK H PARENT 72 52 42 63
REMARK Flexibility Score: inf
ROOT
ATOM      1  C   UNL     1      -3.293   1.456   3.823  1.00  0.00     0.202 C 
ENDROOT
BRANCH   1   2
ATOM      2  O   UNL     1      -3.510   2.274   4.970  1.00  0.00    -0.374 OA
BRANCH   2   3
ATOM      3  C   UNL     1      -3.075   3.639   4.939  1.00  0.00     0.202 C 
BRANCH   3   4
ATOM      4  C   UNL     1      -1.563   3.839   4.974  1.00  0.00     0.261 C 
BRANCH   4   5
ATOM      5  O   UNL     1      -1.048   3.453   3.689  1.00  0.00    -0.461 OA
BRANCH   5   6
ATOM      6  C   UNL     1       0.029   2.628   3.668  1.00  0.00     0.332 C 
ATOM      7  O   UNL     1       0.746   2.436   4.646  1.00  0.00    -0.249 OA
BRANCH   6   8
ATOM      8  C   UNL     1       0.225   1.932   2.269  1.00  0.00     0.146 C 
ATOM      9  C   UNL     1      -0.631   2.691   1.210  1.00  0.00     0.062 C 
ATOM     10  C   UNL     1       1.712   2.201   2.045  1.00  0.00     0.062 C 
ATOM     11  C   UNL     1      -0.093   2.839  -0.206  1.00  0.00     0.122 C 
ATOM     12  C   UNL     1       2.135   2.130   0.613  1.00  0.00     0.122 C 
ATOM     13  N   UNL     1       1.351   2.936  -0.297  1.00  0.00    -0.342 N 
ATOM     14  C   UNL     1       1.873   3.527  -1.458  1.00  0.00     0.226 C 
ATOM     15  O   UNL     1       1.163   4.065  -2.300  1.00  0.00    -0.275 OA
BRANCH   8  16
ATOM     16  N   UNL     1      -0.032   0.462   2.391  1.00  0.00    -0.318 N 
ATOM     17  C   UNL     1       0.193  -0.589   0.004  1.00  0.00     0.087 C 
ATOM     18  C   UNL     1       0.082  -0.595   1.483  1.00  0.00     0.106 A 
ATOM     19  N   UNL     1       0.057  -1.760   2.107  1.00  0.00    -0.242 NA
ATOM     20  C   UNL     1      -0.191  -1.506   3.408  1.00  0.00     0.131 A 
ATOM     21  C   UNL     1      -0.303  -0.160   3.604  1.00  0.00     0.108 A 
ENDBRANCH   8  16
BRANCH  14  22
ATOM     22  C   UNL     1       3.348   3.599  -1.646  1.00  0.00     0.087 C 
ATOM     23  C   UNL     1       4.049   2.901  -2.785  1.00  0.00     0.023 C 
ATOM     24  C   UNL     1       4.283   2.423  -1.390  1.00  0.00     0.032 C 
BRANCH  24  25
ATOM     25  C   UNL     1       5.492   2.692  -0.511  1.00  0.00    -0.044 A 
ATOM     26  C   UNL     1       6.648   1.912  -0.628  1.00  0.00     0.004 A 
ATOM     27  C   UNL     1       5.439   3.596   0.575  1.00  0.00     0.004 A 
ATOM     28  C   UNL     1       7.678   1.994   0.317  1.00  0.00     0.000 A 
ATOM     29  C   UNL     1       6.455   3.673   1.529  1.00  0.00     0.000 A 
ATOM     30  C   UNL     1       7.574   2.861   1.402  1.00  0.00     0.000 A 
ENDBRANCH  24  25
ENDBRANCH  14  22
ENDBRANCH   6   8
ENDBRANCH   5   6
ENDBRANCH   4   5
ENDBRANCH   3   4
ENDBRANCH   2   3
ENDBRANCH   1   2
BRANCH   1  31
ATOM     31  C   UNL     1      -4.259   1.598   2.658  1.00  0.00     0.261 C 
BRANCH  31  32
ATOM     32  O   UNL     1      -4.113   2.865   2.031  1.00  0.00    -0.460 OA
BRANCH  32  33
ATOM     33  C   UNL     1      -5.032   3.783   2.418  1.00  0.00     0.338 C 
ATOM     34  O   UNL     1      -5.789   3.712   3.358  1.00  0.00    -0.246 OA
BRANCH  33  35
ATOM     35  C   UNL     1      -5.064   4.838   1.397  1.00  0.00     0.060 A 
ATOM     36  C   UNL     1      -6.179   5.672   1.441  1.00  0.00     0.016 A 
ATOM     37  C   UNL     1      -4.208   4.789   0.284  1.00  0.00     0.016 A 
ATOM     38  C   UNL     1      -6.586   6.257   0.268  1.00  0.00     0.010 A 
ATOM     39  C   UNL     1      -4.618   5.373  -0.889  1.00  0.00     0.010 A 
ATOM     40  C   UNL     1      -5.853   6.009  -0.899  1.00  0.00    -0.014 A 
BRANCH  40  41
ATOM     41  C   UNL     1      -6.396   6.520  -2.134  1.00  0.00     0.031 A 
ATOM     42  C   UNL     1      -6.307   7.989  -2.217  1.00  0.00     0.074 A 
ATOM     43  C   UNL     1      -6.895   5.734  -3.104  1.00  0.00     0.049 A 
ATOM     44  N   UNL     1      -7.268   8.833  -2.059  1.00  0.00    -0.248 NA
ATOM     45  C   UNL     1      -4.964   8.588  -2.254  1.00  0.00     0.031 C 
ATOM     46  C   UNL     1      -6.804   4.281  -3.256  1.00  0.00     0.029 A 
ATOM     47  N   UNL     1      -7.526   6.118  -4.240  1.00  0.00    -0.354 N 
ATOM     48  C   UNL     1      -6.684  10.082  -2.205  1.00  0.00     0.074 A 
ATOM     49  C   UNL     1      -5.260   9.879  -2.106  1.00  0.00     0.031 C 
ATOM     50  C   UNL     1      -7.131   3.951  -4.529  1.00  0.00     0.029 A 
ATOM     51  C   UNL     1      -7.584   5.145  -5.226  1.00  0.00     0.049 A 
ATOM     52  H   UNL     1      -7.912   7.016  -4.356  1.00  0.00     0.167 HD
ATOM     53  C   UNL     1      -7.395  11.144  -2.669  1.00  0.00     0.031 A 
ATOM     54  C   UNL     1      -7.898   5.352  -6.532  1.00  0.00     0.031 A 
ATOM     55  C   UNL     1      -8.814  10.911  -2.605  1.00  0.00     0.049 A 
ATOM     56  C   UNL     1      -8.643   6.639  -6.600  1.00  0.00     0.074 A 
ATOM     57  C   UNL     1      -9.694  10.620  -1.580  1.00  0.00     0.029 A 
ATOM     58  N   UNL     1      -9.446  10.528  -3.767  1.00  0.00    -0.354 N 
ATOM     59  N   UNL     1      -9.823   6.807  -6.067  1.00  0.00    -0.248 NA
ATOM     60  C   UNL     1      -7.879   7.862  -6.808  1.00  0.00     0.031 C 
ATOM     61  C   UNL     1     -10.577   9.641  -2.121  1.00  0.00     0.029 A 
ATOM     62  C   UNL     1     -10.244   9.452  -3.465  1.00  0.00     0.049 A 
ATOM     63  H   UNL     1      -9.345  10.949  -4.652  1.00  0.00     0.167 HD
ATOM     64  C   UNL     1      -9.777   8.064  -5.478  1.00  0.00     0.074 A 
ATOM     65  C   UNL     1      -8.582   8.699  -6.036  1.00  0.00     0.031 C 
ATOM     66  C   UNL     1     -10.537   8.370  -4.384  1.00  0.00     0.031 A 
BRANCH  53  67
ATOM     67  C   UNL     1      -6.776  12.196  -3.546  1.00  0.00    -0.014 A 
ATOM     68  C   UNL     1      -7.527  13.333  -3.892  1.00  0.00     0.010 A 
ATOM     69  C   UNL     1      -5.570  11.981  -4.249  1.00  0.00     0.010 A 
ATOM     70  C   UNL     1      -7.106  14.188  -4.918  1.00  0.00     0.020 A 
ATOM     71  C   UNL     1      -5.119  12.850  -5.238  1.00  0.00     0.020 A 
ATOM     72  C   UNL     1      -5.906  13.936  -5.587  1.00  0.00     0.054 A 
BRANCH  72  73
ATOM     73  S   UNL     1      -5.407  15.003  -6.957  1.00  0.00     0.124 S 
ATOM     74  O   UNL     1      -6.440  14.720  -7.949  1.00  0.00    -0.237 OA
ATOM     75  O   UNL     1      -5.456  16.329  -6.348  1.00  0.00    -0.237 OA
ATOM     76  O   UNL     1      -4.067  14.526  -7.292  1.00  0.00    -0.744 OA
ENDBRANCH  72  73
ENDBRANCH  53  67
BRANCH  54  77
ATOM     77  C   UNL     1      -7.251   4.724  -7.717  1.00  0.00    -0.014 A 
ATOM     78  C   UNL     1      -7.771   4.893  -9.015  1.00  0.00     0.010 A 
ATOM     79  C   UNL     1      -5.954   4.180  -7.604  1.00  0.00     0.010 A 
ATOM     80  C   UNL     1      -7.000   4.583 -10.153  1.00  0.00     0.020 A 
ATOM     81  C   UNL     1      -5.184   3.864  -8.730  1.00  0.00     0.020 A 
ATOM     82  C   UNL     1      -5.701   4.089 -10.002  1.00  0.00     0.054 A 
BRANCH  82  83
ATOM     83  S   UNL     1      -4.646   3.857 -11.465  1.00  0.00     0.124 S 
ATOM     84  O   UNL     1      -5.267   2.709 -12.119  1.00  0.00    -0.237 OA
ATOM     85  O   UNL     1      -4.783   5.133 -12.161  1.00  0.00    -0.237 OA
ATOM     86  O   UNL     1      -3.322   3.604 -10.898  1.00  0.00    -0.744 OA
ENDBRANCH  82  83
ENDBRANCH  54  77
BRANCH  66  87
ATOM     87  C   UNL     1     -11.625   7.407  -3.958  1.00  0.00    -0.014 A 
ATOM     88  C   UNL     1     -11.393   6.067  -3.583  1.00  0.00     0.010 A 
ATOM     89  C   UNL     1     -12.916   7.933  -3.775  1.00  0.00     0.010 A 
ATOM     90  C   UNL     1     -12.432   5.274  -3.068  1.00  0.00     0.020 A 
ATOM     91  C   UNL     1     -13.949   7.156  -3.246  1.00  0.00     0.020 A 
ATOM     92  C   UNL     1     -13.706   5.826  -2.905  1.00  0.00     0.054 A 
BRANCH  92  93
ATOM     93  S   UNL     1     -15.043   4.813  -2.208  1.00  0.00     0.124 S 
ATOM     94  O   UNL     1     -15.275   3.827  -3.260  1.00  0.00    -0.237 OA
ATOM     95  O   UNL     1     -14.450   4.294  -0.978  1.00  0.00    -0.237 OA
ATOM     96  O   UNL     1     -16.133   5.767  -2.005  1.00  0.00    -0.744 OA
ENDBRANCH  92  93
ENDBRANCH  66  87
ENDBRANCH  40  41
ENDBRANCH  33  35
ENDBRANCH  32  33
ENDBRANCH  31  32
ENDBRANCH   1  31
TORSDOF 20
