REMARK SMILES Cc1cc(Cl)cc2c1O[C@H](C(F)(F)F)C(C(=O)OCCOCCOC(=O)c1ccc(-c3c4nc(c(-c5ccc(S(=O)(=O)[O-])cc5)c5ccc([nH]5)c(-c5ccc(S(=O)(=O)[O-])cc5)c5nc(c(-c6ccc(S(=O)(=O)[O-])cc6)c6ccc3[nH]6)C=C5)C=C4)cc1)=C2
REMARK SMILES IDX 22 1 21 2 20 3 19 4 18 5 16 6 17 7 15 8 1 9 2 10 3 11 8 12
REMARK SMILES IDX 4 13 7 14 9 15 5 16 6 17 87 18 10 19 11 20 12 21 13 22 14 23
REMARK SMILES IDX 23 24 24 25 25 26 26 27 27 28 28 29 86 30 29 31 85 32 30 33
REMARK SMILES IDX 31 34 32 35 79 36 33 37 84 38 78 39 80 40 34 41 83 42 77 43
REMARK SMILES IDX 76 44 35 46 65 47 46 48 64 49 47 50 50 51 63 52 81 53 48 54
REMARK SMILES IDX 49 55 62 57 82 58 51 59 36 60 37 61 45 62 38 63 44 64 39 65
REMARK SMILES IDX 40 66 41 67 42 68 43 69 66 70 67 71 75 72 68 73 74 74 69 75
REMARK SMILES IDX 70 76 71 77 72 78 73 79 52 80 53 81 61 82 54 83 60 84 55 85
REMARK SMILES IDX 56 86 57 87 58 88 59 89
REMARK H PARENT 80 45 50 56
REMARK Flexibility Score: inf
ROOT
ATOM      1  C   UNL     1      -5.808   3.655   1.940  1.00  0.00     0.202 C 
ENDROOT
BRANCH   1   2
ATOM      2  O   UNL     1      -6.972   4.003   1.189  1.00  0.00    -0.374 OA
BRANCH   2   3
ATOM      3  C   UNL     1      -7.681   2.950   0.538  1.00  0.00     0.202 C 
BRANCH   3   4
ATOM      4  C   UNL     1      -7.092   2.438  -0.779  1.00  0.00     0.261 C 
BRANCH   4   5
ATOM      5  O   UNL     1      -5.743   1.973  -0.612  1.00  0.00    -0.460 OA
BRANCH   5   6
ATOM      6  C   UNL     1      -4.806   2.727  -1.230  1.00  0.00     0.338 C 
ATOM      7  O   UNL     1      -5.000   3.669  -1.984  1.00  0.00    -0.246 OA
BRANCH   6   8
ATOM      8  C   UNL     1      -3.461   2.341  -0.761  1.00  0.00     0.087 C 
ATOM      9  C   UNL     1       0.957  -0.045   0.220  1.00  0.00     0.048 C 
ATOM     10  C   UNL     1       0.503   1.386   0.142  1.00  0.00    -0.007 A 
ATOM     11  C   UNL     1       1.440   2.425   0.261  1.00  0.00     0.027 A 
ATOM     12  C   UNL     1      -0.849   1.703  -0.069  1.00  0.00     0.131 A 
ATOM     13  C   UNL     1       1.030   3.753   0.168  1.00  0.00     0.042 A 
ATOM     14  C   UNL     1      -1.244   3.038  -0.199  1.00  0.00     0.019 A 
ATOM     15  O   UNL     1      -1.731   0.659  -0.129  1.00  0.00    -0.475 OA
ATOM     16  Cl  UNL     1       2.188   5.019   0.313  1.00  0.00    -0.084 Cl
ATOM     17  C   UNL     1      -0.305   4.066  -0.062  1.00  0.00     0.032 A 
ATOM     18  C   UNL     1      -2.617   3.357  -0.542  1.00  0.00     0.027 C 
ATOM     19  C   UNL     1      -3.096   0.894  -0.580  1.00  0.00     0.316 C 
BRANCH  19  20
ATOM     20  C   UNL     1      -3.330   0.059  -1.847  1.00  0.00     0.430 C 
ATOM     21  F   UNL     1      -2.942  -1.226  -1.662  1.00  0.00    -0.167 F 
ATOM     22  F   UNL     1      -4.635   0.028  -2.196  1.00  0.00    -0.167 F 
ATOM     23  F   UNL     1      -2.636   0.544  -2.902  1.00  0.00    -0.167 F 
ENDBRANCH  19  20
ENDBRANCH   6   8
ENDBRANCH   5   6
ENDBRANCH   4   5
ENDBRANCH   3   4
ENDBRANCH   2   3
ENDBRANCH   1   2
BRANCH   1  24
ATOM     24  C   UNL     1      -6.021   2.938   3.280  1.00  0.00     0.261 C 
BRANCH  24  25
ATOM     25  O   UNL     1      -6.539   1.607   3.111  1.00  0.00    -0.460 OA
BRANCH  25  26
ATOM     26  C   UNL     1      -7.791   1.421   3.595  1.00  0.00     0.338 C 
ATOM     27  O   UNL     1      -8.476   2.237   4.199  1.00  0.00    -0.246 OA
BRANCH  26  28
ATOM     28  C   UNL     1      -8.327   0.130   3.132  1.00  0.00     0.060 A 
ATOM     29  C   UNL     1      -9.523   0.148   2.402  1.00  0.00     0.016 A 
ATOM     30  C   UNL     1      -7.723  -1.079   3.479  1.00  0.00     0.016 A 
ATOM     31  C   UNL     1     -10.145  -1.049   2.056  1.00  0.00     0.010 A 
ATOM     32  C   UNL     1      -8.357  -2.280   3.142  1.00  0.00     0.010 A 
ATOM     33  C   UNL     1      -9.587  -2.268   2.460  1.00  0.00    -0.014 A 
BRANCH  33  34
ATOM     34  C   UNL     1     -10.375  -3.514   2.303  1.00  0.00     0.031 A 
ATOM     35  C   UNL     1     -11.164  -4.028   3.477  1.00  0.00     0.074 A 
ATOM     36  C   UNL     1     -10.431  -4.149   1.119  1.00  0.00     0.049 A 
ATOM     37  N   UNL     1     -11.919  -5.092   3.563  1.00  0.00    -0.248 NA
ATOM     38  C   UNL     1     -11.099  -3.233   4.716  1.00  0.00     0.031 C 
ATOM     39  C   UNL     1      -9.760  -3.715  -0.106  1.00  0.00     0.029 A 
ATOM     40  N   UNL     1     -11.092  -5.295   0.753  1.00  0.00    -0.354 N 
ATOM     41  C   UNL     1     -12.422  -5.094   4.859  1.00  0.00     0.074 A 
ATOM     42  C   UNL     1     -11.861  -3.944   5.535  1.00  0.00     0.031 C 
ATOM     43  C   UNL     1     -10.050  -4.582  -1.092  1.00  0.00     0.029 A 
ATOM     44  C   UNL     1     -10.897  -5.648  -0.561  1.00  0.00     0.049 A 
ATOM     45  H   UNL     1     -11.653  -5.814   1.373  1.00  0.00     0.167 HD
ATOM     46  C   UNL     1     -13.283  -5.968   5.432  1.00  0.00     0.031 A 
ATOM     47  C   UNL     1     -11.341  -6.717  -1.252  1.00  0.00     0.031 A 
ATOM     48  C   UNL     1     -13.826  -7.120   4.765  1.00  0.00     0.049 A 
ATOM     49  C   UNL     1     -12.215  -7.731  -0.562  1.00  0.00     0.074 A 
ATOM     50  C   UNL     1     -14.701  -8.070   5.265  1.00  0.00     0.029 A 
ATOM     51  N   UNL     1     -13.546  -7.482   3.457  1.00  0.00    -0.354 N 
ATOM     52  N   UNL     1     -12.681  -7.719   0.664  1.00  0.00    -0.248 NA
ATOM     53  C   UNL     1     -12.623  -8.903  -1.350  1.00  0.00     0.031 C 
ATOM     54  C   UNL     1     -14.907  -9.035   4.275  1.00  0.00     0.029 A 
ATOM     55  C   UNL     1     -14.208  -8.656   3.140  1.00  0.00     0.049 A 
ATOM     56  H   UNL     1     -12.962  -6.980   2.844  1.00  0.00     0.167 HD
ATOM     57  C   UNL     1     -13.454  -8.869   0.788  1.00  0.00     0.074 A 
ATOM     58  C   UNL     1     -13.404  -9.546  -0.492  1.00  0.00     0.031 C 
ATOM     59  C   UNL     1     -14.144  -9.322   1.863  1.00  0.00     0.031 A 
BRANCH  46  60
ATOM     60  C   UNL     1     -13.674  -5.724   6.865  1.00  0.00    -0.014 A 
ATOM     61  C   UNL     1     -14.553  -4.681   7.206  1.00  0.00     0.010 A 
ATOM     62  C   UNL     1     -13.201  -6.581   7.875  1.00  0.00     0.010 A 
ATOM     63  C   UNL     1     -14.932  -4.483   8.537  1.00  0.00     0.020 A 
ATOM     64  C   UNL     1     -13.597  -6.401   9.203  1.00  0.00     0.020 A 
ATOM     65  C   UNL     1     -14.452  -5.346   9.527  1.00  0.00     0.054 A 
BRANCH  65  66
ATOM     66  S   UNL     1     -14.989  -5.085  11.240  1.00  0.00     0.124 S 
ATOM     67  O   UNL     1     -14.291  -3.851  11.591  1.00  0.00    -0.237 OA
ATOM     68  O   UNL     1     -16.439  -4.970  11.105  1.00  0.00    -0.237 OA
ATOM     69  O   UNL     1     -14.524  -6.282  11.936  1.00  0.00    -0.744 OA
ENDBRANCH  65  66
ENDBRANCH  46  60
BRANCH  47  70
ATOM     70  C   UNL     1     -10.956  -6.889  -2.680  1.00  0.00    -0.014 A 
ATOM     71  C   UNL     1     -11.911  -6.742  -3.700  1.00  0.00     0.010 A 
ATOM     72  C   UNL     1      -9.627  -7.193  -3.026  1.00  0.00     0.010 A 
ATOM     73  C   UNL     1     -11.546  -6.903  -5.040  1.00  0.00     0.020 A 
ATOM     74  C   UNL     1      -9.252  -7.330  -4.365  1.00  0.00     0.020 A 
ATOM     75  C   UNL     1     -10.217  -7.192  -5.364  1.00  0.00     0.054 A 
BRANCH  75  76
ATOM     76  S   UNL     1      -9.757  -7.339  -7.113  1.00  0.00     0.124 S 
ATOM     77  O   UNL     1     -10.384  -8.602  -7.488  1.00  0.00    -0.237 OA
ATOM     78  O   UNL     1     -10.352  -6.139  -7.696  1.00  0.00    -0.237 OA
ATOM     79  O   UNL     1      -8.296  -7.348  -7.083  1.00  0.00    -0.744 OA
ENDBRANCH  75  76
ENDBRANCH  47  70
BRANCH  59  80
ATOM     80  C   UNL     1     -14.918 -10.604   1.709  1.00  0.00    -0.014 A 
ATOM     81  C   UNL     1     -14.261 -11.846   1.663  1.00  0.00     0.010 A 
ATOM     82  C   UNL     1     -16.325 -10.570   1.693  1.00  0.00     0.010 A 
ATOM     83  C   UNL     1     -14.997 -13.031   1.585  1.00  0.00     0.020 A 
ATOM     84  C   UNL     1     -17.065 -11.755   1.641  1.00  0.00     0.020 A 
ATOM     85  C   UNL     1     -16.395 -12.978   1.578  1.00  0.00     0.054 A 
BRANCH  85  86
ATOM     86  S   UNL     1     -17.325 -14.535   1.537  1.00  0.00     0.124 S 
ATOM     87  O   UNL     1     -17.094 -14.991   0.169  1.00  0.00    -0.237 OA
ATOM     88  O   UNL     1     -16.674 -15.324   2.580  1.00  0.00    -0.237 OA
ATOM     89  O   UNL     1     -18.696 -14.129   1.835  1.00  0.00    -0.744 OA
ENDBRANCH  85  86
ENDBRANCH  59  80
ENDBRANCH  33  34
ENDBRANCH  26  28
ENDBRANCH  25  26
ENDBRANCH  24  25
ENDBRANCH   1  24
TORSDOF 18
