REMARK SMILES COc1ccc(-c2[nH]nc3nc(-c4ccc(C(F)(F)F)cc4)cc(C(=O)OCCOCCOC(=O)c4ccc(-c5c6nc(c(-c7ccc(S(=O)(=O)[O-])cc7)c7ccc([nH]7)c(-c7ccc(S(=O)(=O)[O-])cc7)c7nc(c(-c8ccc(S(=O)(=O)[O-])cc8)c8ccc5[nH]8)C=C7)C=C6)cc4)c23)cc1
REMARK SMILES IDX 31 1 30 2 29 3 28 4 27 5 25 6 26 7 24 8 7 9 8 10 96 11 9 12
REMARK SMILES IDX 10 14 11 15 23 16 12 17 6 18 3 19 4 20 98 21 5 22 97 23 2 24
REMARK SMILES IDX 1 25 13 26 14 27 22 28 15 29 21 30 16 31 17 32 18 33 19 34
REMARK SMILES IDX 20 35 32 36 33 37 34 38 35 39 36 40 37 41 95 42 38 43 94 44
REMARK SMILES IDX 39 45 40 46 41 47 88 48 42 49 93 50 87 51 89 52 43 53 92 54
REMARK SMILES IDX 86 55 85 56 44 58 74 59 55 60 73 61 56 62 59 63 72 64 90 65
REMARK SMILES IDX 57 66 58 67 71 69 91 70 60 71 45 72 46 73 54 74 47 75 53 76
REMARK SMILES IDX 48 77 49 78 50 79 51 80 52 81 75 82 76 83 84 84 77 85 83 86
REMARK SMILES IDX 78 87 79 88 80 89 81 90 82 91 61 92 62 93 70 94 63 95 69 96
REMARK SMILES IDX 64 97 65 98 66 99 67 100 68 101
REMARK H PARENT 8 13 89 57 59 68
REMARK Flexibility Score: inf
ROOT
ATOM      1  C   UNL     1       4.449   3.978   1.269  1.00  0.00     0.202 C 
ENDROOT
BRANCH   1   2
ATOM      2  O   UNL     1       3.906   3.977  -0.048  1.00  0.00    -0.374 OA
BRANCH   2   3
ATOM      3  C   UNL     1       4.337   5.071  -0.860  1.00  0.00     0.202 C 
BRANCH   3   4
ATOM      4  C   UNL     1       3.622   6.384  -0.533  1.00  0.00     0.261 C 
BRANCH   4   5
ATOM      5  O   UNL     1       3.852   6.755   0.842  1.00  0.00    -0.460 OA
BRANCH   5   6
ATOM      6  C   UNL     1       2.817   6.548   1.700  1.00  0.00     0.339 C 
ATOM      7  O   UNL     1       1.657   6.344   1.398  1.00  0.00    -0.246 OA
BRANCH   6   8
ATOM      8  C   UNL     1       3.321   6.597   3.082  1.00  0.00     0.075 A 
ATOM      9  C   UNL     1       1.950   4.822   4.289  1.00  0.00     0.075 A 
ATOM     10  N   UNL     1       1.791   4.630   5.644  1.00  0.00    -0.275 N 
ATOM     11  C   UNL     1       2.807   5.913   4.197  1.00  0.00     0.061 A 
ATOM     12  N   UNL     1       2.572   5.392   6.419  1.00  0.00    -0.154 NA
ATOM     13  H   UNL     1       1.151   3.980   6.014  1.00  0.00     0.190 HD
ATOM     14  C   UNL     1       3.240   6.146   5.548  1.00  0.00     0.182 A 
ATOM     15  N   UNL     1       4.222   7.023   5.866  1.00  0.00    -0.226 NA
ATOM     16  C   UNL     1       4.368   7.468   3.446  1.00  0.00     0.045 A 
ATOM     17  C   UNL     1       4.773   7.654   4.793  1.00  0.00     0.074 A 
BRANCH   9  18
ATOM     18  C   UNL     1       1.408   3.829   3.362  1.00  0.00     0.001 A 
ATOM     19  C   UNL     1       0.550   1.925   1.463  1.00  0.00     0.118 A 
ATOM     20  C   UNL     1      -0.166   3.108   1.671  1.00  0.00     0.047 A 
ATOM     21  C   UNL     1       1.660   1.661   2.259  1.00  0.00     0.047 A 
ATOM     22  C   UNL     1       0.258   4.056   2.613  1.00  0.00     0.014 A 
ATOM     23  C   UNL     1       2.067   2.594   3.221  1.00  0.00     0.014 A 
BRANCH  19  24
ATOM     24  O   UNL     1       0.067   1.122   0.466  1.00  0.00    -0.497 OA
ATOM     25  C   UNL     1       0.878   0.017   0.079  1.00  0.00     0.278 C 
ENDBRANCH  19  24
ENDBRANCH   9  18
BRANCH  17  26
ATOM     26  C   UNL     1       5.825   8.641   5.133  1.00  0.00     0.000 A 
ATOM     27  C   UNL     1       6.809   8.365   6.099  1.00  0.00     0.011 A 
ATOM     28  C   UNL     1       5.856   9.907   4.522  1.00  0.00     0.011 A 
ATOM     29  C   UNL     1       7.781   9.316   6.441  1.00  0.00     0.014 A 
ATOM     30  C   UNL     1       6.821  10.861   4.864  1.00  0.00     0.014 A 
ATOM     31  C   UNL     1       7.792  10.578   5.832  1.00  0.00     0.056 A 
BRANCH  31  32
ATOM     32  C   UNL     1       8.816  11.615   6.229  1.00  0.00     0.416 C 
ATOM     33  F   UNL     1       8.732  11.953   7.545  1.00  0.00    -0.166 F 
ATOM     34  F   UNL     1      10.094  11.202   6.022  1.00  0.00    -0.166 F 
ATOM     35  F   UNL     1       8.687  12.787   5.542  1.00  0.00    -0.166 F 
ENDBRANCH  31  32
ENDBRANCH  17  26
ENDBRANCH   6   8
ENDBRANCH   5   6
ENDBRANCH   4   5
ENDBRANCH   3   4
ENDBRANCH   2   3
ENDBRANCH   1   2
BRANCH   1  36
ATOM     36  C   UNL     1       5.225   2.713   1.589  1.00  0.00     0.261 C 
BRANCH  36  37
ATOM     37  O   UNL     1       6.578   2.952   1.238  1.00  0.00    -0.460 OA
BRANCH  37  38
ATOM     38  C   UNL     1       6.825   3.062  -0.094  1.00  0.00     0.338 C 
ATOM     39  O   UNL     1       6.183   2.647  -1.018  1.00  0.00    -0.246 OA
BRANCH  38  40
ATOM     40  C   UNL     1       8.131   3.727  -0.172  1.00  0.00     0.060 A 
ATOM     41  C   UNL     1       8.980   3.236  -1.156  1.00  0.00     0.016 A 
ATOM     42  C   UNL     1       8.580   4.493   0.917  1.00  0.00     0.016 A 
ATOM     43  C   UNL     1      10.321   3.224  -0.868  1.00  0.00     0.010 A 
ATOM     44  C   UNL     1       9.915   4.453   1.216  1.00  0.00     0.010 A 
ATOM     45  C   UNL     1      10.742   3.719   0.373  1.00  0.00    -0.014 A 
BRANCH  45  46
ATOM     46  C   UNL     1      12.125   3.537   0.735  1.00  0.00     0.031 A 
ATOM     47  C   UNL     1      12.978   4.544   0.083  1.00  0.00     0.074 A 
ATOM     48  C   UNL     1      12.536   2.623   1.631  1.00  0.00     0.049 A 
ATOM     49  N   UNL     1      13.657   4.399  -1.004  1.00  0.00    -0.248 NA
ATOM     50  C   UNL     1      12.825   5.940   0.527  1.00  0.00     0.031 C 
ATOM     51  C   UNL     1      11.733   1.797   2.536  1.00  0.00     0.029 A 
ATOM     52  N   UNL     1      13.807   2.314   1.986  1.00  0.00    -0.354 N 
ATOM     53  C   UNL     1      14.236   5.641  -1.218  1.00  0.00     0.074 A 
ATOM     54  C   UNL     1      13.454   6.581  -0.457  1.00  0.00     0.031 C 
ATOM     55  C   UNL     1      12.542   1.272   3.490  1.00  0.00     0.029 A 
ATOM     56  C   UNL     1      13.922   1.611   3.178  1.00  0.00     0.049 A 
ATOM     57  H   UNL     1      14.587   2.569   1.443  1.00  0.00     0.167 HD
ATOM     58  C   UNL     1      15.512   5.748  -1.677  1.00  0.00     0.031 A 
ATOM     59  C   UNL     1      15.071   1.404   3.873  1.00  0.00     0.031 A 
ATOM     60  C   UNL     1      15.985   4.500  -2.221  1.00  0.00     0.049 A 
ATOM     61  C   UNL     1      16.198   1.643   2.933  1.00  0.00     0.074 A 
ATOM     62  C   UNL     1      15.573   3.663  -3.240  1.00  0.00     0.029 A 
ATOM     63  N   UNL     1      16.797   3.744  -1.405  1.00  0.00    -0.354 N 
ATOM     64  N   UNL     1      16.440   0.887   1.898  1.00  0.00    -0.248 NA
ATOM     65  C   UNL     1      16.756   2.987   2.860  1.00  0.00     0.031 C 
ATOM     66  C   UNL     1      15.802   2.343  -2.753  1.00  0.00     0.029 A 
ATOM     67  C   UNL     1      16.409   2.433  -1.498  1.00  0.00     0.049 A 
ATOM     68  H   UNL     1      17.533   4.088  -0.849  1.00  0.00     0.167 HD
ATOM     69  C   UNL     1      16.790   1.768   0.882  1.00  0.00     0.074 A 
ATOM     70  C   UNL     1      17.060   3.035   1.559  1.00  0.00     0.031 C 
ATOM     71  C   UNL     1      16.546   1.463  -0.428  1.00  0.00     0.031 A 
BRANCH  58  72
ATOM     72  C   UNL     1      16.456   6.824  -1.192  1.00  0.00    -0.014 A 
ATOM     73  C   UNL     1      17.745   6.890  -1.750  1.00  0.00     0.010 A 
ATOM     74  C   UNL     1      16.223   7.595  -0.032  1.00  0.00     0.010 A 
ATOM     75  C   UNL     1      18.760   7.638  -1.137  1.00  0.00     0.020 A 
ATOM     76  C   UNL     1      17.210   8.379   0.558  1.00  0.00     0.020 A 
ATOM     77  C   UNL     1      18.484   8.368   0.020  1.00  0.00     0.054 A 
BRANCH  77  78
ATOM     78  S   UNL     1      19.816   9.254   0.858  1.00  0.00     0.124 S 
ATOM     79  O   UNL     1      20.668   8.157   1.306  1.00  0.00    -0.237 OA
ATOM     80  O   UNL     1      20.355  10.083  -0.217  1.00  0.00    -0.237 OA
ATOM     81  O   UNL     1      19.125   9.986   1.917  1.00  0.00    -0.744 OA
ENDBRANCH  77  78
ENDBRANCH  58  72
BRANCH  59  82
ATOM     82  C   UNL     1      15.255   1.369   5.348  1.00  0.00    -0.014 A 
ATOM     83  C   UNL     1      16.436   0.871   5.931  1.00  0.00     0.010 A 
ATOM     84  C   UNL     1      14.373   2.091   6.180  1.00  0.00     0.010 A 
ATOM     85  C   UNL     1      16.744   1.124   7.282  1.00  0.00     0.020 A 
ATOM     86  C   UNL     1      14.671   2.345   7.525  1.00  0.00     0.020 A 
ATOM     87  C   UNL     1      15.865   1.875   8.067  1.00  0.00     0.054 A 
BRANCH  87  88
ATOM     88  S   UNL     1      16.335   2.327   9.765  1.00  0.00     0.124 S 
ATOM     89  O   UNL     1      16.277   1.043  10.457  1.00  0.00    -0.237 OA
ATOM     90  O   UNL     1      17.671   2.890   9.588  1.00  0.00    -0.237 OA
ATOM     91  O   UNL     1      15.309   3.290  10.162  1.00  0.00    -0.744 OA
ENDBRANCH  87  88
ENDBRANCH  59  82
BRANCH  71  92
ATOM     92  C   UNL     1      16.197   0.033  -0.776  1.00  0.00    -0.014 A 
ATOM     93  C   UNL     1      15.043  -0.637  -0.321  1.00  0.00     0.010 A 
ATOM     94  C   UNL     1      17.008  -0.605  -1.730  1.00  0.00     0.010 A 
ATOM     95  C   UNL     1      14.729  -1.923  -0.793  1.00  0.00     0.020 A 
ATOM     96  C   UNL     1      16.691  -1.874  -2.218  1.00  0.00     0.020 A 
ATOM     97  C   UNL     1      15.558  -2.532  -1.741  1.00  0.00     0.054 A 
BRANCH  97  98
ATOM     98  S   UNL     1      15.133  -4.177  -2.383  1.00  0.00     0.124 S 
ATOM     99  O   UNL     1      15.339  -5.035  -1.220  1.00  0.00    -0.237 OA
ATOM    100  O   UNL     1      13.745  -4.012  -2.806  1.00  0.00    -0.237 OA
ATOM    101  O   UNL     1      16.084  -4.380  -3.476  1.00  0.00    -0.744 OA
ENDBRANCH  97  98
ENDBRANCH  71  92
ENDBRANCH  45  46
ENDBRANCH  38  40
ENDBRANCH  37  38
ENDBRANCH  36  37
ENDBRANCH   1  36
TORSDOF 21
