REMARK SMILES Cc1cc(C)cc(C(=O)N2CC[C@H](C(=O)OCCOCCOC(=O)c3ccc(-c4c5nc(c(-c6ccc(S(=O)(=O)[O-])cc6)c6ccc([nH]6)c(-c6ccc(S(=O)(=O)[O-])cc6)c6nc(c(-c7ccc(S(=O)(=O)[O-])cc7)c7ccc4[nH]7)C=C6)C=C5)cc3)[C@@H]2C)c1
REMARK SMILES IDX 20 1 19 2 18 3 17 4 16 5 14 6 15 7 13 8 10 9 11 10 85 11
REMARK SMILES IDX 12 12 86 13 8 14 9 15 7 16 1 17 2 18 3 19 87 20 4 21 5 22
REMARK SMILES IDX 6 23 21 24 22 25 23 26 24 27 25 28 26 29 84 30 27 31 83 32
REMARK SMILES IDX 28 33 29 34 30 35 77 36 31 37 82 38 76 39 78 40 32 41 81 42
REMARK SMILES IDX 75 43 74 44 33 46 63 47 44 48 62 49 45 50 48 51 61 52 79 53
REMARK SMILES IDX 46 54 47 55 60 57 80 58 49 59 34 60 35 61 43 62 36 63 42 64
REMARK SMILES IDX 37 65 38 66 39 67 40 68 41 69 64 70 65 71 73 72 66 73 72 74
REMARK SMILES IDX 67 75 68 76 69 77 70 78 71 79 50 80 51 81 59 82 52 83 58 84
REMARK SMILES IDX 53 85 54 86 55 87 56 88 57 89
REMARK H PARENT 78 45 48 56
REMARK Flexibility Score: inf
ROOT
ATOM      1  C   UNL     1       1.808  -6.991   3.171  1.00  0.00     0.202 C 
ENDROOT
BRANCH   1   2
ATOM      2  O   UNL     1       2.618  -8.163   3.219  1.00  0.00    -0.374 OA
BRANCH   2   3
ATOM      3  C   UNL     1       4.029  -7.931   3.225  1.00  0.00     0.202 C 
BRANCH   3   4
ATOM      4  C   UNL     1       4.661  -7.632   1.863  1.00  0.00     0.261 C 
BRANCH   4   5
ATOM      5  O   UNL     1       4.412  -6.284   1.406  1.00  0.00    -0.463 OA
BRANCH   5   6
ATOM      6  C   UNL     1       3.497  -6.164   0.404  1.00  0.00     0.311 C 
ATOM      7  O   UNL     1       2.769  -7.069   0.020  1.00  0.00    -0.252 OA
BRANCH   6   8
ATOM      8  C   UNL     1       3.566  -4.787  -0.234  1.00  0.00     0.123 C 
ATOM      9  N   UNL     1       1.462  -3.760  -0.749  1.00  0.00    -0.335 N 
ATOM     10  C   UNL     1       1.702  -4.811  -1.718  1.00  0.00     0.121 C 
ATOM     11  C   UNL     1       2.564  -3.704   0.233  1.00  0.00     0.096 C 
ATOM     12  C   UNL     1       3.217  -4.934  -1.723  1.00  0.00     0.039 C 
ATOM     13  C   UNL     1       2.071  -3.790   1.668  1.00  0.00     0.032 C 
BRANCH   9  14
ATOM     14  C   UNL     1       0.305  -3.008  -0.879  1.00  0.00     0.254 C 
ATOM     15  O   UNL     1      -0.677  -3.449  -1.480  1.00  0.00    -0.269 OA
BRANCH  14  16
ATOM     16  C   UNL     1       0.233  -1.601  -0.397  1.00  0.00     0.040 A 
ATOM     17  C   UNL     1       2.446   1.479  -0.073  1.00  0.00     0.044 C 
ATOM     18  C   UNL     1       1.234   0.595  -0.073  1.00  0.00    -0.050 A 
ATOM     19  C   UNL     1      -0.035   1.131   0.173  1.00  0.00     0.006 A 
ATOM     20  C   UNL     1       1.349  -0.759  -0.407  1.00  0.00     0.017 A 
ATOM     21  C   UNL     1      -1.177   0.322   0.122  1.00  0.00    -0.050 A 
ATOM     22  C   UNL     1      -2.537   0.942   0.250  1.00  0.00     0.044 C 
ATOM     23  C   UNL     1      -1.032  -1.048  -0.142  1.00  0.00     0.017 A 
ENDBRANCH  14  16
ENDBRANCH   9  14
ENDBRANCH   6   8
ENDBRANCH   5   6
ENDBRANCH   4   5
ENDBRANCH   3   4
ENDBRANCH   2   3
ENDBRANCH   1   2
BRANCH   1  24
ATOM     24  C   UNL     1       1.466  -6.378   4.532  1.00  0.00     0.261 C 
BRANCH  24  25
ATOM     25  O   UNL     1       2.660  -5.952   5.210  1.00  0.00    -0.460 OA
BRANCH  25  26
ATOM     26  C   UNL     1       2.997  -6.716   6.275  1.00  0.00     0.338 C 
ATOM     27  O   UNL     1       2.309  -7.574   6.814  1.00  0.00    -0.246 OA
BRANCH  26  28
ATOM     28  C   UNL     1       4.419  -6.519   6.608  1.00  0.00     0.060 A 
ATOM     29  C   UNL     1       5.196  -7.674   6.766  1.00  0.00     0.016 A 
ATOM     30  C   UNL     1       4.978  -5.254   6.806  1.00  0.00     0.016 A 
ATOM     31  C   UNL     1       6.518  -7.572   7.187  1.00  0.00     0.010 A 
ATOM     32  C   UNL     1       6.305  -5.154   7.238  1.00  0.00     0.010 A 
ATOM     33  C   UNL     1       7.066  -6.315   7.469  1.00  0.00    -0.014 A 
BRANCH  33  34
ATOM     34  C   UNL     1       8.370  -6.242   8.169  1.00  0.00     0.031 A 
ATOM     35  C   UNL     1       8.377  -6.085   9.666  1.00  0.00     0.074 A 
ATOM     36  C   UNL     1       9.524  -6.377   7.492  1.00  0.00     0.049 A 
ATOM     37  N   UNL     1       9.393  -6.020  10.486  1.00  0.00    -0.248 NA
ATOM     38  C   UNL     1       7.063  -5.994  10.325  1.00  0.00     0.031 C 
ATOM     39  C   UNL     1       9.638  -6.592   6.050  1.00  0.00     0.029 A 
ATOM     40  N   UNL     1      10.823  -6.360   7.934  1.00  0.00    -0.354 N 
ATOM     41  C   UNL     1       8.844  -5.878  11.755  1.00  0.00     0.074 A 
ATOM     42  C   UNL     1       7.407  -5.839  11.596  1.00  0.00     0.031 C 
ATOM     43  C   UNL     1      10.940  -6.686   5.725  1.00  0.00     0.029 A 
ATOM     44  C   UNL     1      11.749  -6.508   6.929  1.00  0.00     0.049 A 
ATOM     45  H   UNL     1      11.068  -6.251   8.881  1.00  0.00     0.167 HD
ATOM     46  C   UNL     1       9.479  -5.791  12.948  1.00  0.00     0.031 A 
ATOM     47  C   UNL     1      13.096  -6.482   6.975  1.00  0.00     0.031 A 
ATOM     48  C   UNL     1      10.909  -5.817  13.099  1.00  0.00     0.049 A 
ATOM     49  C   UNL     1      13.781  -6.288   8.302  1.00  0.00     0.074 A 
ATOM     50  C   UNL     1      11.652  -5.759  14.264  1.00  0.00     0.029 A 
ATOM     51  N   UNL     1      11.812  -5.894  12.050  1.00  0.00    -0.354 N 
ATOM     52  N   UNL     1      13.248  -6.186   9.496  1.00  0.00    -0.248 NA
ATOM     53  C   UNL     1      15.248  -6.200   8.286  1.00  0.00     0.031 C 
ATOM     54  C   UNL     1      13.007  -5.740  13.915  1.00  0.00     0.029 A 
ATOM     55  C   UNL     1      13.107  -5.841  12.536  1.00  0.00     0.049 A 
ATOM     56  H   UNL     1      11.568  -5.975  11.099  1.00  0.00     0.167 HD
ATOM     57  C   UNL     1      14.315  -6.032  10.376  1.00  0.00     0.074 A 
ATOM     58  C   UNL     1      15.524  -6.073   9.578  1.00  0.00     0.031 C 
ATOM     59  C   UNL     1      14.296  -5.869  11.722  1.00  0.00     0.031 A 
BRANCH  46  60
ATOM     60  C   UNL     1       8.630  -5.616  14.177  1.00  0.00    -0.014 A 
ATOM     61  C   UNL     1       7.863  -6.677  14.693  1.00  0.00     0.010 A 
ATOM     62  C   UNL     1       8.620  -4.377  14.843  1.00  0.00     0.010 A 
ATOM     63  C   UNL     1       7.073  -6.489  15.832  1.00  0.00     0.020 A 
ATOM     64  C   UNL     1       7.850  -4.192  15.994  1.00  0.00     0.020 A 
ATOM     65  C   UNL     1       7.068  -5.246  16.472  1.00  0.00     0.054 A 
BRANCH  65  66
ATOM     66  S   UNL     1       6.045  -5.032  17.955  1.00  0.00     0.124 S 
ATOM     67  O   UNL     1       4.700  -4.981  17.388  1.00  0.00    -0.237 OA
ATOM     68  O   UNL     1       6.353  -6.230  18.732  1.00  0.00    -0.237 OA
ATOM     69  O   UNL     1       6.526  -3.779  18.531  1.00  0.00    -0.744 OA
ENDBRANCH  65  66
ENDBRANCH  46  60
BRANCH  47  70
ATOM     70  C   UNL     1      13.884  -6.611   5.719  1.00  0.00    -0.014 A 
ATOM     71  C   UNL     1      14.645  -7.764   5.461  1.00  0.00     0.010 A 
ATOM     72  C   UNL     1      13.867  -5.575   4.766  1.00  0.00     0.010 A 
ATOM     73  C   UNL     1      15.378  -7.877   4.274  1.00  0.00     0.020 A 
ATOM     74  C   UNL     1      14.579  -5.695   3.569  1.00  0.00     0.020 A 
ATOM     75  C   UNL     1      15.336  -6.843   3.334  1.00  0.00     0.054 A 
BRANCH  75  76
ATOM     76  S   UNL     1      16.239  -7.039   1.772  1.00  0.00     0.124 S 
ATOM     77  O   UNL     1      17.621  -6.834   2.193  1.00  0.00    -0.237 OA
ATOM     78  O   UNL     1      15.892  -8.401   1.375  1.00  0.00    -0.237 OA
ATOM     79  O   UNL     1      15.680  -5.990   0.922  1.00  0.00    -0.744 OA
ENDBRANCH  75  76
ENDBRANCH  47  70
BRANCH  59  80
ATOM     80  C   UNL     1      15.620  -5.719  12.421  1.00  0.00    -0.014 A 
ATOM     81  C   UNL     1      16.345  -4.518  12.338  1.00  0.00     0.010 A 
ATOM     82  C   UNL     1      16.106  -6.762  13.230  1.00  0.00     0.010 A 
ATOM     83  C   UNL     1      17.544  -4.368  13.040  1.00  0.00     0.020 A 
ATOM     84  C   UNL     1      17.292  -6.607  13.952  1.00  0.00     0.020 A 
ATOM     85  C   UNL     1      18.008  -5.413  13.844  1.00  0.00     0.054 A 
BRANCH  85  86
ATOM     86  S   UNL     1      19.535  -5.170  14.794  1.00  0.00     0.124 S 
ATOM     87  O   UNL     1      20.557  -5.267  13.755  1.00  0.00    -0.237 OA
ATOM     88  O   UNL     1      19.347  -3.841  15.369  1.00  0.00    -0.237 OA
ATOM     89  O   UNL     1      19.521  -6.267  15.759  1.00  0.00    -0.744 OA
ENDBRANCH  85  86
ENDBRANCH  59  80
ENDBRANCH  33  34
ENDBRANCH  26  28
ENDBRANCH  25  26
ENDBRANCH  24  25
ENDBRANCH   1  24
TORSDOF 19
