REMARK SMILES Cc1ccc(NC(=O)C[C@H]2C(=O)NCCN2C(=O)CCC(=O)OCCOCCOC(=O)c2ccc(-c3c4nc(c(-c5ccc(S(=O)(=O)[O-])cc5)c5ccc([nH]5)c(-c5ccc(S(=O)(=O)[O-])cc5)c5nc(c(-c6ccc(S(=O)(=O)[O-])cc6)c6ccc3[nH]6)C=C5)C=C4)cc2)c(C)c1
REMARK SMILES IDX 24 1 23 2 21 3 22 4 20 5 19 6 17 7 18 8 16 9 10 10 11 11
REMARK SMILES IDX 12 12 13 13 15 14 14 15 9 17 7 18 6 19 8 21 5 22 1 23 2 24
REMARK SMILES IDX 3 25 94 26 4 27 92 28 93 29 25 30 26 31 27 32 28 33 29 34
REMARK SMILES IDX 30 35 31 36 32 37 33 38 91 39 34 40 90 41 35 42 36 43 37 44
REMARK SMILES IDX 84 45 38 46 89 47 83 48 85 49 39 50 88 51 82 52 81 53 40 55
REMARK SMILES IDX 70 56 51 57 69 58 52 59 55 60 68 61 86 62 53 63 54 64 67 66
REMARK SMILES IDX 87 67 56 68 41 69 42 70 50 71 43 72 49 73 44 74 45 75 46 76
REMARK SMILES IDX 47 77 48 78 71 79 72 80 80 81 73 82 79 83 74 84 75 85 76 86
REMARK SMILES IDX 77 87 78 88 57 89 58 90 66 91 59 92 65 93 60 94 61 95 62 96
REMARK SMILES IDX 63 97 64 98
REMARK H PARENT 13 16 6 20 85 54 55 65
REMARK Flexibility Score: inf
ROOT
ATOM      1  C   UNL     1      -1.492  -1.794   0.062  1.00  0.00     0.261 C 
ENDROOT
BRANCH   1   2
ATOM      2  O   UNL     1      -1.817  -0.454  -0.368  1.00  0.00    -0.463 OA
BRANCH   2   3
ATOM      3  C   UNL     1      -2.277  -0.229  -1.622  1.00  0.00     0.306 C 
ATOM      4  O   UNL     1      -2.394  -1.078  -2.493  1.00  0.00    -0.252 OA
BRANCH   3   5
ATOM      5  C   UNL     1      -2.612   1.245  -1.826  1.00  0.00     0.132 C 
BRANCH   5   6
ATOM      6  C   UNL     1      -3.868   1.734  -1.119  1.00  0.00     0.112 C 
BRANCH   6   7
ATOM      7  C   UNL     1      -3.867   2.946  -0.174  1.00  0.00     0.223 C 
ATOM      8  O   UNL     1      -4.791   3.758  -0.329  1.00  0.00    -0.275 OA
BRANCH   7   9
ATOM      9  N   UNL     1      -3.001   3.084   0.906  1.00  0.00    -0.328 N 
ATOM     10  C   UNL     1      -2.120   2.039   1.424  1.00  0.00     0.183 C 
ATOM     11  C   UNL     1      -2.678   1.408   2.701  1.00  0.00     0.243 C 
ATOM     12  O   UNL     1      -2.210   0.383   3.191  1.00  0.00    -0.273 OA
ATOM     13  N   UNL     1      -3.736   2.025   3.292  1.00  0.00    -0.353 N 
ATOM     14  C   UNL     1      -3.412   4.044   1.941  1.00  0.00     0.141 C 
ATOM     15  C   UNL     1      -4.299   3.313   2.940  1.00  0.00     0.137 C 
ATOM     16  H   UNL     1      -4.164   1.546   4.038  1.00  0.00     0.163 HD
BRANCH  10  17
ATOM     17  C   UNL     1      -0.606   2.246   1.528  1.00  0.00     0.135 C 
BRANCH  17  18
ATOM     18  C   UNL     1      -0.051   3.512   2.134  1.00  0.00     0.227 C 
ATOM     19  N   UNL     1      -0.004   4.714   1.486  1.00  0.00    -0.326 N 
ATOM     20  H   UNL     1       0.586   5.388   1.895  1.00  0.00     0.169 HD
ATOM     21  O   UNL     1       0.376   3.485   3.293  1.00  0.00    -0.275 OA
BRANCH  19  22
ATOM     22  C   UNL     1      -0.672   5.130   0.324  1.00  0.00     0.044 A 
ATOM     23  C   UNL     1      -3.691   6.056  -2.587  1.00  0.00     0.044 C 
ATOM     24  C   UNL     1      -2.542   5.832  -1.648  1.00  0.00    -0.051 A 
ATOM     25  C   UNL     1      -2.455   6.575  -0.472  1.00  0.00     0.005 A 
ATOM     26  C   UNL     1      -1.596   4.824  -1.883  1.00  0.00     0.009 A 
ATOM     27  C   UNL     1      -1.507   6.244   0.494  1.00  0.00     0.026 A 
ATOM     28  C   UNL     1      -0.620   4.492  -0.921  1.00  0.00    -0.027 A 
ATOM     29  C   UNL     1       0.478   3.547  -1.321  1.00  0.00     0.046 C 
ENDBRANCH  19  22
ENDBRANCH  17  18
ENDBRANCH  10  17
ENDBRANCH   7   9
ENDBRANCH   6   7
ENDBRANCH   5   6
ENDBRANCH   3   5
ENDBRANCH   2   3
ENDBRANCH   1   2
BRANCH   1  30
ATOM     30  C   UNL     1      -2.504  -2.321   1.094  1.00  0.00     0.202 C 
BRANCH  30  31
ATOM     31  O   UNL     1      -3.765  -2.675   0.517  1.00  0.00    -0.374 OA
BRANCH  31  32
ATOM     32  C   UNL     1      -4.626  -1.559   0.301  1.00  0.00     0.202 C 
BRANCH  32  33
ATOM     33  C   UNL     1      -5.911  -1.631   1.122  1.00  0.00     0.261 C 
BRANCH  33  34
ATOM     34  O   UNL     1      -5.716  -0.980   2.392  1.00  0.00    -0.460 OA
BRANCH  34  35
ATOM     35  C   UNL     1      -5.420  -1.778   3.445  1.00  0.00     0.338 C 
ATOM     36  O   UNL     1      -5.335  -2.994   3.449  1.00  0.00    -0.246 OA
BRANCH  35  37
ATOM     37  C   UNL     1      -5.100  -0.913   4.602  1.00  0.00     0.060 A 
ATOM     38  C   UNL     1      -3.996  -1.238   5.397  1.00  0.00     0.016 A 
ATOM     39  C   UNL     1      -5.835   0.248   4.867  1.00  0.00     0.016 A 
ATOM     40  C   UNL     1      -3.613  -0.397   6.449  1.00  0.00     0.010 A 
ATOM     41  C   UNL     1      -5.415   1.116   5.883  1.00  0.00     0.010 A 
ATOM     42  C   UNL     1      -4.319   0.786   6.708  1.00  0.00    -0.014 A 
BRANCH  42  43
ATOM     43  C   UNL     1      -4.068   1.555   7.961  1.00  0.00     0.031 A 
ATOM     44  C   UNL     1      -5.164   1.561   9.001  1.00  0.00     0.074 A 
ATOM     45  C   UNL     1      -2.913   2.209   8.208  1.00  0.00     0.049 A 
ATOM     46  N   UNL     1      -5.190   2.122  10.182  1.00  0.00    -0.248 NA
ATOM     47  C   UNL     1      -6.417   0.872   8.643  1.00  0.00     0.031 C 
ATOM     48  C   UNL     1      -1.776   2.335   7.293  1.00  0.00     0.029 A 
ATOM     49  N   UNL     1      -2.504   2.892   9.332  1.00  0.00    -0.354 N 
ATOM     50  C   UNL     1      -6.460   1.866  10.684  1.00  0.00     0.074 A 
ATOM     51  C   UNL     1      -7.208   1.202   9.645  1.00  0.00     0.031 C 
ATOM     52  C   UNL     1      -0.791   3.023   7.905  1.00  0.00     0.029 A 
ATOM     53  C   UNL     1      -1.221   3.388   9.254  1.00  0.00     0.049 A 
ATOM     54  H   UNL     1      -3.078   3.014  10.123  1.00  0.00     0.167 HD
ATOM     55  C   UNL     1      -6.959   2.091  11.921  1.00  0.00     0.031 A 
ATOM     56  C   UNL     1      -0.475   4.035  10.176  1.00  0.00     0.031 A 
ATOM     57  C   UNL     1      -6.216   2.692  12.985  1.00  0.00     0.049 A 
ATOM     58  C   UNL     1      -1.041   4.269  11.559  1.00  0.00     0.074 A 
ATOM     59  C   UNL     1      -6.611   2.920  14.289  1.00  0.00     0.029 A 
ATOM     60  N   UNL     1      -4.914   3.147  12.867  1.00  0.00    -0.354 N 
ATOM     61  N   UNL     1      -2.218   3.941  12.040  1.00  0.00    -0.248 NA
ATOM     62  C   UNL     1      -0.162   4.936  12.535  1.00  0.00     0.031 C 
ATOM     63  C   UNL     1      -5.550   3.540  14.957  1.00  0.00     0.029 A 
ATOM     64  C   UNL     1      -4.487   3.660  14.076  1.00  0.00     0.049 A 
ATOM     65  H   UNL     1      -4.373   3.110  12.044  1.00  0.00     0.167 HD
ATOM     66  C   UNL     1      -2.202   4.324  13.380  1.00  0.00     0.074 A 
ATOM     67  C   UNL     1      -0.900   4.901  13.636  1.00  0.00     0.031 C 
ATOM     68  C   UNL     1      -3.176   4.206  14.316  1.00  0.00     0.031 A 
BRANCH  55  69
ATOM     69  C   UNL     1      -8.374   1.644  12.162  1.00  0.00    -0.014 A 
ATOM     70  C   UNL     1      -8.695   0.274  12.211  1.00  0.00     0.010 A 
ATOM     71  C   UNL     1      -9.399   2.597  12.271  1.00  0.00     0.010 A 
ATOM     72  C   UNL     1     -10.026  -0.136  12.287  1.00  0.00     0.020 A 
ATOM     73  C   UNL     1     -10.731   2.190  12.381  1.00  0.00     0.020 A 
ATOM     74  C   UNL     1     -11.037   0.826  12.358  1.00  0.00     0.054 A 
BRANCH  74  75
ATOM     75  S   UNL     1     -12.762   0.272  12.422  1.00  0.00     0.124 S 
ATOM     76  O   UNL     1     -13.014  -0.082  11.027  1.00  0.00    -0.237 OA
ATOM     77  O   UNL     1     -12.706  -0.851  13.354  1.00  0.00    -0.237 OA
ATOM     78  O   UNL     1     -13.482   1.446  12.908  1.00  0.00    -0.744 OA
ENDBRANCH  74  75
ENDBRANCH  55  69
BRANCH  56  79
ATOM     79  C   UNL     1       0.918   4.474   9.866  1.00  0.00    -0.014 A 
ATOM     80  C   UNL     1       2.020   3.824  10.454  1.00  0.00     0.010 A 
ATOM     81  C   UNL     1       1.152   5.585   9.036  1.00  0.00     0.010 A 
ATOM     82  C   UNL     1       3.321   4.296  10.250  1.00  0.00     0.020 A 
ATOM     83  C   UNL     1       2.454   6.048   8.811  1.00  0.00     0.020 A 
ATOM     84  C   UNL     1       3.530   5.411   9.434  1.00  0.00     0.054 A 
BRANCH  84  85
ATOM     85  S   UNL     1       5.227   6.006   9.177  1.00  0.00     0.124 S 
ATOM     86  O   UNL     1       5.519   6.653  10.452  1.00  0.00    -0.237 OA
ATOM     87  O   UNL     1       5.961   4.771   8.912  1.00  0.00    -0.237 OA
ATOM     88  O   UNL     1       5.104   6.906   8.032  1.00  0.00    -0.744 OA
ENDBRANCH  84  85
ENDBRANCH  56  79
BRANCH  68  89
ATOM     89  C   UNL     1      -2.868   4.657  15.718  1.00  0.00    -0.014 A 
ATOM     90  C   UNL     1      -2.806   6.022  16.047  1.00  0.00     0.010 A 
ATOM     91  C   UNL     1      -2.733   3.697  16.738  1.00  0.00     0.010 A 
ATOM     92  C   UNL     1      -2.591   6.419  17.369  1.00  0.00     0.020 A 
ATOM     93  C   UNL     1      -2.543   4.091  18.065  1.00  0.00     0.020 A 
ATOM     94  C   UNL     1      -2.462   5.451  18.370  1.00  0.00     0.054 A 
BRANCH  94  95
ATOM     95  S   UNL     1      -2.249   5.990  20.089  1.00  0.00     0.124 S 
ATOM     96  O   UNL     1      -0.844   6.385  20.112  1.00  0.00    -0.237 OA
ATOM     97  O   UNL     1      -3.211   7.084  20.206  1.00  0.00    -0.237 OA
ATOM     98  O   UNL     1      -2.576   4.798  20.869  1.00  0.00    -0.744 OA
ENDBRANCH  94  95
ENDBRANCH  68  89
ENDBRANCH  42  43
ENDBRANCH  35  37
ENDBRANCH  34  35
ENDBRANCH  33  34
ENDBRANCH  32  33
ENDBRANCH  31  32
ENDBRANCH  30  31
ENDBRANCH   1  30
TORSDOF 23
