REMARK SMILES O=C(OCCOCCOC(=O)c1ccc(-c2c3nc(c(-c4ccc(S(=O)(=O)[O-])cc4)c4ccc([nH]4)c(-c4ccc(S(=O)(=O)[O-])cc4)c4nc(c(-c5ccc(S(=O)(=O)[O-])cc5)c5ccc2[nH]5)C=C4)C=C3)cc1)C1=Cc2cc(Cl)ccc2O[C@@H]1C(F)(F)F
REMARK SMILES IDX 7 1 6 2 5 3 4 4 3 5 2 6 1 7 72 8 73 9 82 10 74 11 81 12
REMARK SMILES IDX 75 13 80 14 76 15 79 16 77 17 78 18 83 19 84 20 85 21 86 22
REMARK SMILES IDX 8 23 9 24 10 25 11 26 12 27 13 28 71 29 14 30 70 31 15 32
REMARK SMILES IDX 16 33 17 34 64 35 18 36 69 37 63 38 65 39 19 40 68 41 62 42
REMARK SMILES IDX 61 43 20 45 50 46 31 47 49 48 32 49 35 50 48 51 66 52 33 53
REMARK SMILES IDX 34 54 47 56 67 57 36 58 21 59 22 60 30 61 23 62 29 63 24 64
REMARK SMILES IDX 25 65 26 66 27 67 28 68 51 69 52 70 60 71 53 72 59 73 54 74
REMARK SMILES IDX 55 75 56 76 57 77 58 78 37 79 38 80 46 81 39 82 45 83 40 84
REMARK SMILES IDX 41 85 42 86 43 87 44 88
REMARK H PARENT 65 44 35 55
REMARK Flexibility Score: inf
ROOT
ATOM      1  C   UNL     1       2.860   0.247   3.116  1.00  0.00     0.202 C 
ENDROOT
BRANCH   1   2
ATOM      2  O   UNL     1       4.074  -0.129   2.439  1.00  0.00    -0.374 OA
BRANCH   2   3
ATOM      3  C   UNL     1       4.322  -0.767   0.974  1.00  0.00     0.202 C 
BRANCH   3   4
ATOM      4  C   UNL     1       3.452  -0.264  -0.948  1.00  0.00     0.261 C 
BRANCH   4   5
ATOM      5  O   UNL     1       2.474  -1.143  -1.768  1.00  0.00    -0.460 OA
BRANCH   5   6
ATOM      6  C   UNL     1       2.621  -2.447  -1.524  1.00  0.00     0.338 C 
ATOM      7  O   UNL     1       1.986  -3.391  -1.921  1.00  0.00    -0.246 OA
BRANCH   6   8
ATOM      8  C   UNL     1       3.510  -2.278  -0.401  1.00  0.00     0.087 C 
ATOM      9  C   UNL     1       4.896  -1.982  -0.855  1.00  0.00     0.027 C 
ATOM     10  C   UNL     1       2.386  -1.046   0.592  1.00  0.00     0.316 C 
ATOM     11  C   UNL     1       5.661  -0.338  -0.735  1.00  0.00     0.019 A 
ATOM     12  O   UNL     1       3.157   0.715   0.677  1.00  0.00    -0.475 OA
ATOM     13  C   UNL     1       6.870  -0.102  -1.330  1.00  0.00     0.032 A 
ATOM     14  C   UNL     1       4.805   1.004  -0.046  1.00  0.00     0.128 A 
ATOM     15  C   UNL     1       7.264   1.249  -1.351  1.00  0.00     0.041 A 
ATOM     16  C   UNL     1       5.214   2.291  -0.218  1.00  0.00     0.048 A 
ATOM     17  Cl  UNL     1       8.812   1.598  -2.056  1.00  0.00    -0.084 Cl
ATOM     18  C   UNL     1       6.475   2.373  -0.862  1.00  0.00     0.024 A 
BRANCH  10  19
ATOM     19  C   UNL     1       1.898  -2.005   1.754  1.00  0.00     0.430 C 
ATOM     20  F   UNL     1       0.996  -1.474   2.600  1.00  0.00    -0.167 F 
ATOM     21  F   UNL     1       1.254  -3.058   1.167  1.00  0.00    -0.167 F 
ATOM     22  F   UNL     1       2.887  -2.570   2.482  1.00  0.00    -0.167 F 
ENDBRANCH  10  19
ENDBRANCH   6   8
ENDBRANCH   5   6
ENDBRANCH   4   5
ENDBRANCH   3   4
ENDBRANCH   2   3
ENDBRANCH   1   2
BRANCH   1  23
ATOM     23  C   UNL     1       2.962   1.531   3.936  1.00  0.00     0.261 C 
BRANCH  23  24
ATOM     24  O   UNL     1       3.425   2.623   3.152  1.00  0.00    -0.460 OA
BRANCH  24  25
ATOM     25  C   UNL     1       4.753   2.853   3.258  1.00  0.00     0.338 C 
ATOM     26  O   UNL     1       5.585   2.174   3.834  1.00  0.00    -0.246 OA
BRANCH  25  27
ATOM     27  C   UNL     1       5.059   4.102   2.542  1.00  0.00     0.060 A 
ATOM     28  C   UNL     1       6.342   4.251   2.004  1.00  0.00     0.016 A 
ATOM     29  C   UNL     1       4.088   5.100   2.378  1.00  0.00     0.016 A 
ATOM     30  C   UNL     1       6.651   5.390   1.272  1.00  0.00     0.010 A 
ATOM     31  C   UNL     1       4.405   6.252   1.672  1.00  0.00     0.010 A 
ATOM     32  C   UNL     1       5.691   6.401   1.136  1.00  0.00    -0.014 A 
BRANCH  32  33
ATOM     33  C   UNL     1       6.116   7.731   0.677  1.00  0.00     0.031 A 
ATOM     34  C   UNL     1       6.611   8.678   1.726  1.00  0.00     0.074 A 
ATOM     35  C   UNL     1       6.050   8.070  -0.619  1.00  0.00     0.049 A 
ATOM     36  N   UNL     1       7.013   9.912   1.601  1.00  0.00    -0.248 NA
ATOM     37  C   UNL     1       6.657   8.160   3.107  1.00  0.00     0.031 C 
ATOM     38  C   UNL     1       5.619   7.191  -1.706  1.00  0.00     0.029 A 
ATOM     39  N   UNL     1       6.341   9.256  -1.235  1.00  0.00    -0.354 N 
ATOM     40  C   UNL     1       7.361  10.316   2.883  1.00  0.00     0.074 A 
ATOM     41  C   UNL     1       7.094   9.213   3.776  1.00  0.00     0.031 C 
ATOM     42  C   UNL     1       5.668   7.878  -2.861  1.00  0.00     0.029 A 
ATOM     43  C   UNL     1       6.095   9.248  -2.586  1.00  0.00     0.049 A 
ATOM     44  H   UNL     1       6.694  10.041  -0.756  1.00  0.00     0.167 HD
ATOM     45  C   UNL     1       7.858  11.509   3.277  1.00  0.00     0.031 A 
ATOM     46  C   UNL     1       6.184  10.250  -3.482  1.00  0.00     0.031 A 
ATOM     47  C   UNL     1       8.054  12.611   2.379  1.00  0.00     0.049 A 
ATOM     48  C   UNL     1       6.648  11.603  -3.003  1.00  0.00     0.074 A 
ATOM     49  C   UNL     1       8.533  13.875   2.660  1.00  0.00     0.029 A 
ATOM     50  N   UNL     1       7.756  12.581   1.023  1.00  0.00    -0.354 N 
ATOM     51  N   UNL     1       7.002  11.972  -1.793  1.00  0.00    -0.248 NA
ATOM     52  C   UNL     1       6.731  12.670  -4.007  1.00  0.00     0.031 C 
ATOM     53  C   UNL     1       8.454  14.634   1.488  1.00  0.00     0.029 A 
ATOM     54  C   UNL     1       8.012  13.816   0.458  1.00  0.00     0.049 A 
ATOM     55  H   UNL     1       7.413  11.797   0.536  1.00  0.00     0.167 HD
ATOM     56  C   UNL     1       7.388  13.305  -1.899  1.00  0.00     0.074 A 
ATOM     57  C   UNL     1       7.227  13.672  -3.292  1.00  0.00     0.031 C 
ATOM     58  C   UNL     1       7.843  14.147  -0.937  1.00  0.00     0.031 A 
BRANCH  45  59
ATOM     59  C   UNL     1       8.144  11.682   4.744  1.00  0.00    -0.014 A 
ATOM     60  C   UNL     1       9.173  10.962   5.381  1.00  0.00     0.010 A 
ATOM     61  C   UNL     1       7.358  12.567   5.501  1.00  0.00     0.010 A 
ATOM     62  C   UNL     1       9.377  11.090   6.757  1.00  0.00     0.020 A 
ATOM     63  C   UNL     1       7.582  12.725   6.871  1.00  0.00     0.020 A 
ATOM     64  C   UNL     1       8.579  11.971   7.493  1.00  0.00     0.054 A 
BRANCH  64  65
ATOM     65  S   UNL     1       8.874  12.126   9.275  1.00  0.00     0.124 S 
ATOM     66  O   UNL     1       8.408  10.834   9.772  1.00  0.00    -0.237 OA
ATOM     67  O   UNL     1      10.318  12.341   9.340  1.00  0.00    -0.237 OA
ATOM     68  O   UNL     1       8.057  13.273   9.664  1.00  0.00    -0.744 OA
ENDBRANCH  64  65
ENDBRANCH  45  59
BRANCH  46  69
ATOM     69  C   UNL     1       5.816  10.013  -4.905  1.00  0.00    -0.014 A 
ATOM     70  C   UNL     1       6.789  10.052  -5.919  1.00  0.00     0.010 A 
ATOM     71  C   UNL     1       4.482   9.731  -5.254  1.00  0.00     0.010 A 
ATOM     72  C   UNL     1       6.434   9.825  -7.253  1.00  0.00     0.020 A 
ATOM     73  C   UNL     1       4.128   9.473  -6.582  1.00  0.00     0.020 A 
ATOM     74  C   UNL     1       5.106   9.529  -7.575  1.00  0.00     0.054 A 
BRANCH  74  75
ATOM     75  S   UNL     1       4.684   9.175  -9.303  1.00  0.00     0.124 S 
ATOM     76  O   UNL     1       4.855  10.480  -9.933  1.00  0.00    -0.237 OA
ATOM     77  O   UNL     1       5.672   8.162  -9.665  1.00  0.00    -0.237 OA
ATOM     78  O   UNL     1       3.306   8.692  -9.227  1.00  0.00    -0.744 OA
ENDBRANCH  74  75
ENDBRANCH  46  69
BRANCH  58  79
ATOM     79  C   UNL     1       8.257  15.533  -1.361  1.00  0.00    -0.014 A 
ATOM     80  C   UNL     1       7.315  16.499  -1.752  1.00  0.00     0.010 A 
ATOM     81  C   UNL     1       9.616  15.893  -1.275  1.00  0.00     0.010 A 
ATOM     82  C   UNL     1       7.728  17.794  -2.075  1.00  0.00     0.020 A 
ATOM     83  C   UNL     1      10.028  17.195  -1.562  1.00  0.00     0.020 A 
ATOM     84  C   UNL     1       9.081  18.135  -1.971  1.00  0.00     0.054 A 
BRANCH  84  85
ATOM     85  S   UNL     1       9.581  19.838  -2.336  1.00  0.00     0.124 S 
ATOM     86  O   UNL     1       9.396  19.906  -3.783  1.00  0.00    -0.237 OA
ATOM     87  O   UNL     1       8.638  20.623  -1.544  1.00  0.00    -0.237 OA
ATOM     88  O   UNL     1      10.969  19.899  -1.883  1.00  0.00    -0.744 OA
ENDBRANCH  84  85
ENDBRANCH  58  79
ENDBRANCH  32  33
ENDBRANCH  25  27
ENDBRANCH  24  25
ENDBRANCH  23  24
ENDBRANCH   1  23
TORSDOF 18
