REMARK SMILES Nc1nc(Nc2ccc(C(=O)OCCOCCOC(=O)c3ccc(-c4c5nc(c(-c6ccc(S(=O)(=O)[O-])cc6)c6ccc([nH]6)c(-c6ccc(S(=O)(=O)[O-])cc6)c6nc(c(-c7ccc(S(=O)(=O)[O-])cc7)c7ccc4[nH]7)C=C6)C=C5)cc3)cc2)ccc1[N+](=O)[O-]
REMARK SMILES IDX 15 1 14 2 13 3 12 4 10 5 11 6 9 7 6 8 7 9 82 10 8 11 81 12
REMARK SMILES IDX 5 13 4 15 2 16 3 17 85 18 84 19 83 20 1 21 86 24 87 25 88 26
REMARK SMILES IDX 16 27 17 28 18 29 19 30 20 31 21 32 22 33 80 34 23 35 79 36
REMARK SMILES IDX 24 37 25 38 26 39 73 40 27 41 78 42 72 43 74 44 28 45 77 46
REMARK SMILES IDX 71 47 70 48 29 50 59 51 40 52 58 53 41 54 44 55 57 56 75 57
REMARK SMILES IDX 42 58 43 59 56 61 76 62 45 63 30 64 31 65 39 66 32 67 38 68
REMARK SMILES IDX 33 69 34 70 35 71 36 72 37 73 60 74 61 75 69 76 62 77 68 78
REMARK SMILES IDX 63 79 64 80 65 81 66 82 67 83 46 84 47 85 55 86 48 87 54 88
REMARK SMILES IDX 49 89 50 90 51 91 52 92 53 93
REMARK H PARENT 5 14 1 22 1 23 74 49 44 60
REMARK Flexibility Score: inf
ROOT
ATOM      1  O   UNL     1       1.416   9.926   0.546  1.00  0.00    -0.374 OA
ENDROOT
BRANCH   1   2
ATOM      2  C   UNL     1       2.654   9.673  -0.121  1.00  0.00     0.202 C 
BRANCH   2   3
ATOM      3  C   UNL     1       3.402   8.408   0.309  1.00  0.00     0.261 C 
BRANCH   3   4
ATOM      4  O   UNL     1       2.642   7.228   0.005  1.00  0.00    -0.460 OA
BRANCH   4   5
ATOM      5  C   UNL     1       2.104   6.605   1.079  1.00  0.00     0.338 C 
ATOM      6  O   UNL     1       2.302   6.869   2.256  1.00  0.00    -0.246 OA
BRANCH   5   7
ATOM      7  C   UNL     1       1.086   5.621   0.647  1.00  0.00     0.060 A 
ATOM      8  C   UNL     1      -0.797   3.626   0.065  1.00  0.00     0.040 A 
ATOM      9  C   UNL     1      -0.928   4.401   1.222  1.00  0.00     0.027 A 
ATOM     10  C   UNL     1       0.243   3.913  -0.833  1.00  0.00     0.027 A 
ATOM     11  C   UNL     1       0.014   5.386   1.517  1.00  0.00     0.018 A 
ATOM     12  C   UNL     1       1.178   4.915  -0.555  1.00  0.00     0.018 A 
BRANCH   8  13
ATOM     13  N   UNL     1      -1.565   2.448  -0.061  1.00  0.00    -0.340 N 
ATOM     14  H   UNL     1      -2.542   2.534  -0.150  1.00  0.00     0.168 HD
BRANCH  13  15
ATOM     15  C   UNL     1      -1.003   1.155  -0.066  1.00  0.00     0.133 A 
ATOM     16  C   UNL     1       0.907  -0.210   0.032  1.00  0.00     0.204 A 
ATOM     17  N   UNL     1       0.341   1.012  -0.001  1.00  0.00    -0.207 NA
ATOM     18  C   UNL     1       0.123  -1.355   0.005  1.00  0.00     0.311 A 
ATOM     19  C   UNL     1      -1.270  -1.226  -0.086  1.00  0.00     0.093 A 
ATOM     20  C   UNL     1      -1.837   0.047  -0.132  1.00  0.00     0.054 A 
BRANCH  16  21
ATOM     21  N   UNL     1       2.273  -0.173   0.195  1.00  0.00    -0.378 N 
ATOM     22  H   UNL     1       2.745   0.690   0.200  1.00  0.00     0.158 HD
ATOM     23  H   UNL     1       2.778  -1.011   0.307  1.00  0.00     0.158 HD
ENDBRANCH  16  21
BRANCH  18  24
ATOM     24  N   UNL     1       0.711  -2.688   0.060  1.00  0.00     0.066 N 
ATOM     25  O   UNL     1      -0.056  -3.637   0.288  1.00  0.00    -0.258 OA
ATOM     26  O   UNL     1       1.926  -2.817  -0.149  1.00  0.00    -0.258 OA
ENDBRANCH  18  24
ENDBRANCH  13  15
ENDBRANCH   8  13
ENDBRANCH   5   7
ENDBRANCH   4   5
ENDBRANCH   3   4
ENDBRANCH   2   3
ENDBRANCH   1   2
BRANCH   1  27
ATOM     27  C   UNL     1       0.264   9.241   0.050  1.00  0.00     0.202 C 
BRANCH  27  28
ATOM     28  C   UNL     1      -0.394   9.835  -1.201  1.00  0.00     0.261 C 
BRANCH  28  29
ATOM     29  O   UNL     1       0.437   9.682  -2.366  1.00  0.00    -0.460 OA
BRANCH  29  30
ATOM     30  C   UNL     1       0.988  10.830  -2.826  1.00  0.00     0.338 C 
ATOM     31  O   UNL     1       0.786  11.963  -2.409  1.00  0.00    -0.246 OA
BRANCH  30  32
ATOM     32  C   UNL     1       2.040  10.524  -3.814  1.00  0.00     0.060 A 
ATOM     33  C   UNL     1       3.292  11.125  -3.632  1.00  0.00     0.016 A 
ATOM     34  C   UNL     1       1.796   9.719  -4.929  1.00  0.00     0.016 A 
ATOM     35  C   UNL     1       4.290  10.965  -4.591  1.00  0.00     0.010 A 
ATOM     36  C   UNL     1       2.797   9.566  -5.895  1.00  0.00     0.010 A 
ATOM     37  C   UNL     1       4.035  10.216  -5.747  1.00  0.00    -0.014 A 
BRANCH  37  38
ATOM     38  C   UNL     1       5.013  10.236  -6.864  1.00  0.00     0.031 A 
ATOM     39  C   UNL     1       4.766  11.154  -8.031  1.00  0.00     0.074 A 
ATOM     40  C   UNL     1       6.124   9.479  -6.821  1.00  0.00     0.049 A 
ATOM     41  N   UNL     1       5.471  11.315  -9.121  1.00  0.00    -0.248 NA
ATOM     42  C   UNL     1       3.567  12.007  -7.958  1.00  0.00     0.031 C 
ATOM     43  C   UNL     1       6.504   8.593  -5.721  1.00  0.00     0.029 A 
ATOM     44  N   UNL     1       7.141   9.339  -7.732  1.00  0.00    -0.354 N 
ATOM     45  C   UNL     1       4.806  12.285  -9.862  1.00  0.00     0.074 A 
ATOM     46  C   UNL     1       3.623  12.652  -9.114  1.00  0.00     0.031 C 
ATOM     47  C   UNL     1       7.672   8.000  -6.023  1.00  0.00     0.029 A 
ATOM     48  C   UNL     1       8.104   8.437  -7.349  1.00  0.00     0.049 A 
ATOM     49  H   UNL     1       7.177   9.839  -8.580  1.00  0.00     0.167 HD
ATOM     50  C   UNL     1       5.154  12.831 -11.052  1.00  0.00     0.031 A 
ATOM     51  C   UNL     1       9.200   8.000  -8.002  1.00  0.00     0.031 A 
ATOM     52  C   UNL     1       6.320  12.453 -11.804  1.00  0.00     0.049 A 
ATOM     53  C   UNL     1       9.511   8.551  -9.371  1.00  0.00     0.074 A 
ATOM     54  C   UNL     1       6.750  12.938 -13.027  1.00  0.00     0.029 A 
ATOM     55  N   UNL     1       7.242  11.497 -11.406  1.00  0.00    -0.354 N 
ATOM     56  N   UNL     1       8.872   9.469 -10.057  1.00  0.00    -0.248 NA
ATOM     57  C   UNL     1      10.696   8.008 -10.051  1.00  0.00     0.031 C 
ATOM     58  C   UNL     1       7.908  12.241 -13.390  1.00  0.00     0.029 A 
ATOM     59  C   UNL     1       8.229  11.364 -12.367  1.00  0.00     0.049 A 
ATOM     60  H   UNL     1       7.201  10.989 -10.564  1.00  0.00     0.167 HD
ATOM     61  C   UNL     1       9.598   9.637 -11.232  1.00  0.00     0.074 A 
ATOM     62  C   UNL     1      10.727   8.734 -11.160  1.00  0.00     0.031 C 
ATOM     63  C   UNL     1       9.353  10.466 -12.277  1.00  0.00     0.031 A 
BRANCH  50  64
ATOM     64  C   UNL     1       4.244  13.885 -11.625  1.00  0.00    -0.014 A 
ATOM     65  C   UNL     1       4.189  15.175 -11.066  1.00  0.00     0.010 A 
ATOM     66  C   UNL     1       3.468  13.598 -12.762  1.00  0.00     0.010 A 
ATOM     67  C   UNL     1       3.350  16.148 -11.614  1.00  0.00     0.020 A 
ATOM     68  C   UNL     1       2.647  14.576 -13.329  1.00  0.00     0.020 A 
ATOM     69  C   UNL     1       2.582  15.842 -12.742  1.00  0.00     0.054 A 
BRANCH  69  70
ATOM     70  S   UNL     1       1.523  17.133 -13.450  1.00  0.00     0.124 S 
ATOM     71  O   UNL     1       0.448  17.214 -12.463  1.00  0.00    -0.237 OA
ATOM     72  O   UNL     1       2.416  18.288 -13.502  1.00  0.00    -0.237 OA
ATOM     73  O   UNL     1       1.134  16.590 -14.749  1.00  0.00    -0.744 OA
ENDBRANCH  69  70
ENDBRANCH  50  64
BRANCH  51  74
ATOM     74  C   UNL     1      10.080   6.969  -7.388  1.00  0.00    -0.014 A 
ATOM     75  C   UNL     1      11.388   7.291  -6.984  1.00  0.00     0.010 A 
ATOM     76  C   UNL     1       9.623   5.648  -7.232  1.00  0.00     0.010 A 
ATOM     77  C   UNL     1      12.232   6.305  -6.464  1.00  0.00     0.020 A 
ATOM     78  C   UNL     1      10.454   4.665  -6.687  1.00  0.00     0.020 A 
ATOM     79  C   UNL     1      11.760   4.997  -6.322  1.00  0.00     0.054 A 
BRANCH  79  80
ATOM     80  S   UNL     1      12.863   3.737  -5.624  1.00  0.00     0.124 S 
ATOM     81  O   UNL     1      13.767   3.475  -6.740  1.00  0.00    -0.237 OA
ATOM     82  O   UNL     1      13.451   4.429  -4.481  1.00  0.00    -0.237 OA
ATOM     83  O   UNL     1      11.956   2.643  -5.281  1.00  0.00    -0.744 OA
ENDBRANCH  79  80
ENDBRANCH  51  74
BRANCH  63  84
ATOM     84  C   UNL     1      10.347  10.473 -13.408  1.00  0.00    -0.014 A 
ATOM     85  C   UNL     1      10.430   9.403 -14.316  1.00  0.00     0.010 A 
ATOM     86  C   UNL     1      11.175  11.596 -13.594  1.00  0.00     0.010 A 
ATOM     87  C   UNL     1      11.345   9.442 -15.371  1.00  0.00     0.020 A 
ATOM     88  C   UNL     1      12.071  11.651 -14.664  1.00  0.00     0.020 A 
ATOM     89  C   UNL     1      12.160  10.566 -15.539  1.00  0.00     0.054 A 
BRANCH  89  90
ATOM     90  S   UNL     1      13.308  10.612 -16.943  1.00  0.00     0.124 S 
ATOM     91  O   UNL     1      14.356   9.691 -16.509  1.00  0.00    -0.237 OA
ATOM     92  O   UNL     1      12.479  10.145 -18.051  1.00  0.00    -0.237 OA
ATOM     93  O   UNL     1      13.706  12.017 -17.019  1.00  0.00    -0.744 OA
ENDBRANCH  89  90
ENDBRANCH  63  84
ENDBRANCH  37  38
ENDBRANCH  30  32
ENDBRANCH  29  30
ENDBRANCH  28  29
ENDBRANCH  27  28
ENDBRANCH   1  27
TORSDOF 21
