REMARK SMILES COc1cccc(CSc2nc3ccccc3c(=O)n2CCC(=O)OCCOCCOC(=O)c2ccc(-c3c4nc(c(-c5ccc(S(=O)(=O)[O-])cc5)c5ccc([nH]5)c(-c5ccc(S(=O)(=O)[O-])cc5)c5nc(c(-c6ccc(S(=O)(=O)[O-])cc6)c6ccc3[nH]6)C=C5)C=C4)cc2)c1
REMARK SMILES IDX 26 1 25 2 23 3 24 4 22 5 21 6 20 7 10 8 11 9 12 10 18 11
REMARK SMILES IDX 13 12 17 13 19 14 14 15 16 16 15 17 9 18 8 19 7 20 3 21 4 22
REMARK SMILES IDX 94 23 5 24 6 25 2 26 1 27 27 28 28 29 29 30 30 31 31 32
REMARK SMILES IDX 32 33 33 34 34 35 35 36 93 37 36 38 92 39 37 40 38 41 39 42
REMARK SMILES IDX 86 43 40 44 91 45 85 46 87 47 41 48 90 49 84 50 83 51 42 53
REMARK SMILES IDX 72 54 53 55 71 56 54 57 57 58 70 59 88 60 55 61 56 62 69 64
REMARK SMILES IDX 89 65 58 66 43 67 44 68 52 69 45 70 51 71 46 72 47 73 48 74
REMARK SMILES IDX 49 75 50 76 73 77 74 78 82 79 75 80 81 81 76 82 77 83 78 84
REMARK SMILES IDX 79 85 80 86 59 87 60 88 68 89 61 90 67 91 62 92 63 93 64 94
REMARK SMILES IDX 65 95 66 96
REMARK H PARENT 87 52 57 63
REMARK Flexibility Score: inf
ROOT
ATOM      1  C   UNL     1       6.919   1.494  -4.979  1.00  0.00     0.261 C 
ENDROOT
BRANCH   1   2
ATOM      2  O   UNL     1       6.406   0.308  -4.298  1.00  0.00    -0.463 OA
BRANCH   2   3
ATOM      3  C   UNL     1       6.059   0.412  -2.985  1.00  0.00     0.307 C 
ATOM      4  O   UNL     1       6.017   1.465  -2.359  1.00  0.00    -0.252 OA
BRANCH   3   5
ATOM      5  C   UNL     1       5.739  -0.939  -2.341  1.00  0.00     0.144 C 
BRANCH   5   6
ATOM      6  C   UNL     1       4.301  -1.504  -2.341  1.00  0.00     0.140 C 
BRANCH   6   7
ATOM      7  N   UNL     1       3.751  -1.915  -3.624  1.00  0.00    -0.286 N 
ATOM      8  C   UNL     1       3.942  -1.231  -4.777  1.00  0.00     0.171 A 
ATOM      9  N   UNL     1       4.418  -1.810  -5.835  1.00  0.00    -0.224 NA
ATOM     10  C   UNL     1       4.494  -3.215  -5.789  1.00  0.00     0.079 A 
ATOM     11  C   UNL     1       3.166  -3.162  -3.760  1.00  0.00     0.262 A 
ATOM     12  C   UNL     1       5.306  -3.944  -6.650  1.00  0.00     0.029 A 
ATOM     13  C   UNL     1       3.620  -3.912  -4.953  1.00  0.00     0.066 A 
ATOM     14  O   UNL     1       2.402  -3.659  -2.941  1.00  0.00    -0.269 OA
ATOM     15  C   UNL     1       5.151  -5.331  -6.757  1.00  0.00     0.002 A 
ATOM     16  C   UNL     1       3.377  -5.274  -5.117  1.00  0.00     0.016 A 
ATOM     17  C   UNL     1       4.142  -5.983  -6.042  1.00  0.00     0.001 A 
BRANCH   8  18
ATOM     18  S   UNL     1       3.333   0.373  -4.947  1.00  0.00    -0.083 SA
BRANCH  18  19
ATOM     19  C   UNL     1       2.961   1.219  -3.409  1.00  0.00     0.113 C 
BRANCH  19  20
ATOM     20  C   UNL     1       1.515   1.104  -3.043  1.00  0.00    -0.034 A 
ATOM     21  C   UNL     1      -0.188   0.176  -1.603  1.00  0.00     0.119 A 
ATOM     22  C   UNL     1      -1.150   0.501  -2.559  1.00  0.00     0.046 A 
ATOM     23  C   UNL     1       1.144   0.492  -1.843  1.00  0.00     0.051 A 
ATOM     24  C   UNL     1      -0.804   1.226  -3.698  1.00  0.00     0.004 A 
ATOM     25  C   UNL     1       0.525   1.548  -3.929  1.00  0.00     0.005 A 
BRANCH  21  26
ATOM     26  O   UNL     1      -0.639  -0.493  -0.499  1.00  0.00    -0.497 OA
ATOM     27  C   UNL     1       0.190  -0.398   0.655  1.00  0.00     0.278 C 
ENDBRANCH  21  26
ENDBRANCH  19  20
ENDBRANCH  18  19
ENDBRANCH   8  18
ENDBRANCH   6   7
ENDBRANCH   5   6
ENDBRANCH   3   5
ENDBRANCH   2   3
ENDBRANCH   1   2
BRANCH   1  28
ATOM     28  C   UNL     1       6.219   1.789  -6.328  1.00  0.00     0.202 C 
BRANCH  28  29
ATOM     29  O   UNL     1       5.755   3.144  -6.496  1.00  0.00    -0.374 OA
BRANCH  29  30
ATOM     30  C   UNL     1       4.482   3.438  -5.921  1.00  0.00     0.202 C 
BRANCH  30  31
ATOM     31  C   UNL     1       3.248   3.187  -6.818  1.00  0.00     0.261 C 
BRANCH  31  32
ATOM     32  O   UNL     1       3.306   1.925  -7.490  1.00  0.00    -0.460 OA
BRANCH  32  33
ATOM     33  C   UNL     1       3.680   1.991  -8.785  1.00  0.00     0.338 C 
ATOM     34  O   UNL     1       3.723   2.981  -9.485  1.00  0.00    -0.246 OA
BRANCH  33  35
ATOM     35  C   UNL     1       4.263   0.697  -9.187  1.00  0.00     0.060 A 
ATOM     36  C   UNL     1       5.546   0.763  -9.736  1.00  0.00     0.016 A 
ATOM     37  C   UNL     1       3.592  -0.525  -9.081  1.00  0.00     0.016 A 
ATOM     38  C   UNL     1       6.136  -0.378 -10.259  1.00  0.00     0.010 A 
ATOM     39  C   UNL     1       4.189  -1.677  -9.609  1.00  0.00     0.010 A 
ATOM     40  C   UNL     1       5.443  -1.594 -10.240  1.00  0.00    -0.014 A 
BRANCH  40  41
ATOM     41  C   UNL     1       5.997  -2.720 -11.027  1.00  0.00     0.031 A 
ATOM     42  C   UNL     1       5.416  -3.008 -12.384  1.00  0.00     0.074 A 
ATOM     43  C   UNL     1       7.075  -3.391 -10.582  1.00  0.00     0.049 A 
ATOM     44  N   UNL     1       5.787  -3.895 -13.269  1.00  0.00    -0.248 NA
ATOM     45  C   UNL     1       4.283  -2.170 -12.812  1.00  0.00     0.031 C 
ATOM     46  C   UNL     1       7.775  -3.120  -9.326  1.00  0.00     0.029 A 
ATOM     47  N   UNL     1       7.778  -4.428 -11.138  1.00  0.00    -0.354 N 
ATOM     48  C   UNL     1       4.941  -3.718 -14.358  1.00  0.00     0.074 A 
ATOM     49  C   UNL     1       4.013  -2.666 -14.011  1.00  0.00     0.031 C 
ATOM     50  C   UNL     1       8.787  -3.992  -9.190  1.00  0.00     0.029 A 
ATOM     51  C   UNL     1       8.804  -4.883 -10.346  1.00  0.00     0.049 A 
ATOM     52  H   UNL     1       7.568  -4.809 -12.021  1.00  0.00     0.167 HD
ATOM     53  C   UNL     1       4.948  -4.370 -15.545  1.00  0.00     0.031 A 
ATOM     54  C   UNL     1       9.652  -5.914 -10.527  1.00  0.00     0.031 A 
ATOM     55  C   UNL     1       5.871  -5.425 -15.866  1.00  0.00     0.049 A 
ATOM     56  C   UNL     1       9.562  -6.702 -11.806  1.00  0.00     0.074 A 
ATOM     57  C   UNL     1       5.975  -6.152 -17.039  1.00  0.00     0.029 A 
ATOM     58  N   UNL     1       6.843  -5.914 -15.004  1.00  0.00    -0.354 N 
ATOM     59  N   UNL     1       8.777  -6.503 -12.839  1.00  0.00    -0.248 NA
ATOM     60  C   UNL     1      10.472  -7.845 -11.949  1.00  0.00     0.031 C 
ATOM     61  C   UNL     1       6.958  -7.129 -16.857  1.00  0.00     0.029 A 
ATOM     62  C   UNL     1       7.516  -6.967 -15.598  1.00  0.00     0.049 A 
ATOM     63  H   UNL     1       7.026  -5.564 -14.102  1.00  0.00     0.167 HD
ATOM     64  C   UNL     1       9.110  -7.486 -13.762  1.00  0.00     0.074 A 
ATOM     65  C   UNL     1      10.184  -8.262 -13.175  1.00  0.00     0.031 C 
ATOM     66  C   UNL     1       8.574  -7.730 -14.984  1.00  0.00     0.031 A 
BRANCH  53  67
ATOM     67  C   UNL     1       3.904  -3.991 -16.564  1.00  0.00    -0.014 A 
ATOM     68  C   UNL     1       3.947  -2.758 -17.238  1.00  0.00     0.010 A 
ATOM     69  C   UNL     1       2.887  -4.909 -16.887  1.00  0.00     0.010 A 
ATOM     70  C   UNL     1       2.978  -2.439 -18.195  1.00  0.00     0.020 A 
ATOM     71  C   UNL     1       1.933  -4.606 -17.863  1.00  0.00     0.020 A 
ATOM     72  C   UNL     1       1.978  -3.366 -18.503  1.00  0.00     0.054 A 
BRANCH  72  73
ATOM     73  S   UNL     1       0.757  -2.940 -19.775  1.00  0.00     0.124 S 
ATOM     74  O   UNL     1      -0.018  -1.893 -19.114  1.00  0.00    -0.237 OA
ATOM     75  O   UNL     1       1.596  -2.494 -20.885  1.00  0.00    -0.237 OA
ATOM     76  O   UNL     1       0.040  -4.193 -20.004  1.00  0.00    -0.744 OA
ENDBRANCH  72  73
ENDBRANCH  53  67
BRANCH  54  77
ATOM     77  C   UNL     1      10.624  -6.275  -9.459  1.00  0.00    -0.014 A 
ATOM     78  C   UNL     1      12.008  -6.131  -9.655  1.00  0.00     0.010 A 
ATOM     79  C   UNL     1      10.158  -6.765  -8.224  1.00  0.00     0.010 A 
ATOM     80  C   UNL     1      12.907  -6.486  -8.643  1.00  0.00     0.020 A 
ATOM     81  C   UNL     1      11.050  -7.092  -7.200  1.00  0.00     0.020 A 
ATOM     82  C   UNL     1      12.421  -6.961  -7.421  1.00  0.00     0.054 A 
BRANCH  82  83
ATOM     83  S   UNL     1      13.604  -7.374  -6.109  1.00  0.00     0.124 S 
ATOM     84  O   UNL     1      14.227  -8.585  -6.631  1.00  0.00    -0.237 OA
ATOM     85  O   UNL     1      14.456  -6.188  -6.070  1.00  0.00    -0.237 OA
ATOM     86  O   UNL     1      12.758  -7.561  -4.932  1.00  0.00    -0.744 OA
ENDBRANCH  82  83
ENDBRANCH  54  77
BRANCH  66  87
ATOM     87  C   UNL     1       9.138  -8.886 -15.765  1.00  0.00    -0.014 A 
ATOM     88  C   UNL     1       8.870 -10.212 -15.382  1.00  0.00     0.010 A 
ATOM     89  C   UNL     1       9.877  -8.644 -16.938  1.00  0.00     0.010 A 
ATOM     90  C   UNL     1       9.348 -11.277 -16.147  1.00  0.00     0.020 A 
ATOM     91  C   UNL     1      10.329  -9.707 -17.723  1.00  0.00     0.020 A 
ATOM     92  C   UNL     1      10.068 -11.017 -17.317  1.00  0.00     0.054 A 
BRANCH  92  93
ATOM     93  S   UNL     1      10.614 -12.420 -18.328  1.00  0.00     0.124 S 
ATOM     94  O   UNL     1      11.659 -13.007 -17.494  1.00  0.00    -0.237 OA
ATOM     95  O   UNL     1       9.393 -13.213 -18.456  1.00  0.00    -0.237 OA
ATOM     96  O   UNL     1      11.079 -11.798 -19.565  1.00  0.00    -0.744 OA
ENDBRANCH  92  93
ENDBRANCH  66  87
ENDBRANCH  40  41
ENDBRANCH  33  35
ENDBRANCH  32  33
ENDBRANCH  31  32
ENDBRANCH  30  31
ENDBRANCH  29  30
ENDBRANCH  28  29
ENDBRANCH   1  28
TORSDOF 23
