REMARK SMILES COc1ccc(F)cc1[C@H](C)NC(=O)[C@H]1CC=CC[C@@H]1C(=O)OCCOCCOC(=O)c1ccc(-c2c3nc(c(-c4ccc(S(=O)(=O)[O-])cc4)c4ccc([nH]4)c(-c4ccc(S(=O)(=O)[O-])cc4)c4nc(c(-c5ccc(S(=O)(=O)[O-])cc5)c5ccc2[nH]5)C=C4)C=C3)cc1
REMARK SMILES IDX 25 1 24 2 23 3 21 4 22 5 20 6 15 7 16 8 17 9 19 10 18 11
REMARK SMILES IDX 13 12 12 13 14 15 10 16 11 17 9 18 3 19 4 20 5 21 8 22 6 23
REMARK SMILES IDX 7 24 2 25 1 26 26 27 27 28 28 29 29 30 30 31 31 32 32 33
REMARK SMILES IDX 33 34 91 35 34 36 90 37 35 38 36 39 37 40 84 41 38 42 89 43
REMARK SMILES IDX 83 44 85 45 39 46 88 47 82 48 81 49 40 51 70 52 51 53 69 54
REMARK SMILES IDX 52 55 55 56 68 57 86 58 53 59 54 60 67 62 87 63 56 64 41 65
REMARK SMILES IDX 42 66 50 67 43 68 49 69 44 70 45 71 46 72 47 73 48 74 71 75
REMARK SMILES IDX 72 76 80 77 73 78 79 79 74 80 75 81 76 82 77 83 78 84 57 85
REMARK SMILES IDX 58 86 66 87 59 88 65 89 60 90 61 91 62 92 63 93 64 94
REMARK H PARENT 12 14 85 50 55 61
REMARK Flexibility Score: inf
ROOT
ATOM      1  C   UNL     1      -1.351  -4.015   4.689  1.00  0.00     0.202 C 
ENDROOT
BRANCH   1   2
ATOM      2  C   UNL     1      -2.713  -4.412   4.110  1.00  0.00     0.261 C 
BRANCH   2   3
ATOM      3  O   UNL     1      -2.625  -5.029   2.818  1.00  0.00    -0.463 OA
BRANCH   3   4
ATOM      4  C   UNL     1      -2.916  -4.186   1.788  1.00  0.00     0.310 C 
ATOM      5  O   UNL     1      -3.216  -3.006   1.935  1.00  0.00    -0.252 OA
BRANCH   4   6
ATOM      6  C   UNL     1      -2.698  -4.852   0.430  1.00  0.00     0.115 C 
ATOM      7  C   UNL     1      -2.814  -3.748  -0.642  1.00  0.00     0.097 C 
ATOM      8  C   UNL     1      -4.270  -3.287  -0.842  1.00  0.00     0.041 C 
ATOM      9  C   UNL     1      -5.317  -4.336  -0.608  1.00  0.00    -0.030 C 
ATOM     10  C   UNL     1      -3.673  -6.014   0.226  1.00  0.00     0.043 C 
ATOM     11  C   UNL     1      -5.051  -5.563  -0.144  1.00  0.00    -0.030 C 
BRANCH   7  12
ATOM     12  C   UNL     1      -2.200  -4.106  -1.987  1.00  0.00     0.224 C 
ATOM     13  N   UNL     1      -1.806  -3.100  -2.828  1.00  0.00    -0.349 N 
ATOM     14  H   UNL     1      -1.705  -3.357  -3.773  1.00  0.00     0.164 HD
ATOM     15  O   UNL     1      -2.082  -5.268  -2.375  1.00  0.00    -0.275 OA
BRANCH  13  16
ATOM     16  C   UNL     1      -1.513  -1.696  -2.527  1.00  0.00     0.113 C 
ATOM     17  C   UNL     1      -0.022  -1.438  -2.784  1.00  0.00     0.036 C 
BRANCH  16  18
ATOM     18  C   UNL     1      -2.408  -0.747  -3.309  1.00  0.00     0.019 A 
ATOM     19  C   UNL     1      -3.399   0.028  -2.663  1.00  0.00     0.124 A 
ATOM     20  C   UNL     1      -4.173   0.941  -3.394  1.00  0.00     0.050 A 
ATOM     21  C   UNL     1      -3.987   1.080  -4.768  1.00  0.00     0.043 A 
ATOM     22  C   UNL     1      -2.255  -0.606  -4.701  1.00  0.00     0.049 A 
ATOM     23  C   UNL     1      -3.034   0.304  -5.408  1.00  0.00     0.123 A 
ATOM     24  F   UNL     1      -2.849   0.446  -6.727  1.00  0.00    -0.207 F 
BRANCH  19  25
ATOM     25  O   UNL     1      -3.513  -0.109  -1.303  1.00  0.00    -0.496 OA
ATOM     26  C   UNL     1      -4.807   0.135  -0.753  1.00  0.00     0.278 C 
ENDBRANCH  19  25
ENDBRANCH  16  18
ENDBRANCH  13  16
ENDBRANCH   7  12
ENDBRANCH   4   6
ENDBRANCH   3   4
ENDBRANCH   2   3
ENDBRANCH   1   2
BRANCH   1  27
ATOM     27  O   UNL     1      -0.482  -3.216   3.892  1.00  0.00    -0.374 OA
BRANCH  27  28
ATOM     28  C   UNL     1       0.206  -3.834   2.805  1.00  0.00     0.202 C 
BRANCH  28  29
ATOM     29  C   UNL     1       1.281  -4.880   3.123  1.00  0.00     0.261 C 
BRANCH  29  30
ATOM     30  O   UNL     1       0.737  -6.071   3.718  1.00  0.00    -0.460 OA
BRANCH  30  31
ATOM     31  C   UNL     1       1.139  -6.301   4.991  1.00  0.00     0.338 C 
ATOM     32  O   UNL     1       1.938  -5.639   5.643  1.00  0.00    -0.246 OA
BRANCH  31  33
ATOM     33  C   UNL     1       0.323  -7.367   5.596  1.00  0.00     0.060 A 
ATOM     34  C   UNL     1      -0.364  -7.068   6.780  1.00  0.00     0.016 A 
ATOM     35  C   UNL     1       0.303  -8.658   5.066  1.00  0.00     0.016 A 
ATOM     36  C   UNL     1      -1.036  -8.073   7.469  1.00  0.00     0.010 A 
ATOM     37  C   UNL     1      -0.360  -9.669   5.768  1.00  0.00     0.010 A 
ATOM     38  C   UNL     1      -0.999  -9.388   6.989  1.00  0.00    -0.014 A 
BRANCH  38  39
ATOM     39  C   UNL     1      -1.489 -10.492   7.847  1.00  0.00     0.031 A 
ATOM     40  C   UNL     1      -0.492 -11.283   8.649  1.00  0.00     0.074 A 
ATOM     41  C   UNL     1      -2.802 -10.774   7.924  1.00  0.00     0.049 A 
ATOM     42  N   UNL     1      -0.688 -12.315   9.427  1.00  0.00    -0.248 NA
ATOM     43  C   UNL     1       0.914 -10.854   8.560  1.00  0.00     0.031 C 
ATOM     44  C   UNL     1      -3.865 -10.049   7.228  1.00  0.00     0.029 A 
ATOM     45  N   UNL     1      -3.462 -11.755   8.619  1.00  0.00    -0.354 N 
ATOM     46  C   UNL     1       0.567 -12.670   9.907  1.00  0.00     0.074 A 
ATOM     47  C   UNL     1       1.521 -11.755   9.320  1.00  0.00     0.031 C 
ATOM     48  C   UNL     1      -5.045 -10.623   7.519  1.00  0.00     0.029 A 
ATOM     49  C   UNL     1      -4.817 -11.773   8.392  1.00  0.00     0.049 A 
ATOM     50  H   UNL     1      -3.008 -12.387   9.222  1.00  0.00     0.167 HD
ATOM     51  C   UNL     1       0.895 -13.668  10.761  1.00  0.00     0.031 A 
ATOM     52  C   UNL     1      -5.761 -12.635   8.819  1.00  0.00     0.031 A 
ATOM     53  C   UNL     1      -0.057 -14.580  11.336  1.00  0.00     0.049 A 
ATOM     54  C   UNL     1      -5.364 -13.775   9.720  1.00  0.00     0.074 A 
ATOM     55  C   UNL     1       0.171 -15.610  12.231  1.00  0.00     0.029 A 
ATOM     56  N   UNL     1      -1.417 -14.577  11.067  1.00  0.00    -0.354 N 
ATOM     57  N   UNL     1      -4.177 -14.079  10.191  1.00  0.00    -0.248 NA
ATOM     58  C   UNL     1      -6.434 -14.684  10.155  1.00  0.00     0.031 C 
ATOM     59  C   UNL     1      -1.043 -16.266  12.460  1.00  0.00     0.029 A 
ATOM     60  C   UNL     1      -2.037 -15.605  11.755  1.00  0.00     0.049 A 
ATOM     61  H   UNL     1      -1.875 -13.938  10.474  1.00  0.00     0.167 HD
ATOM     62  C   UNL     1      -4.364 -15.196  10.998  1.00  0.00     0.074 A 
ATOM     63  C   UNL     1      -5.778 -15.508  10.961  1.00  0.00     0.031 C 
ATOM     64  C   UNL     1      -3.447 -15.898  11.710  1.00  0.00     0.031 A 
BRANCH  51  65
ATOM     65  C   UNL     1       2.351 -13.852  11.094  1.00  0.00    -0.014 A 
ATOM     66  C   UNL     1       3.032 -12.947  11.927  1.00  0.00     0.010 A 
ATOM     67  C   UNL     1       3.038 -14.975  10.597  1.00  0.00     0.010 A 
ATOM     68  C   UNL     1       4.382 -13.144  12.230  1.00  0.00     0.020 A 
ATOM     69  C   UNL     1       4.381 -15.189  10.918  1.00  0.00     0.020 A 
ATOM     70  C   UNL     1       5.049 -14.263  11.721  1.00  0.00     0.054 A 
BRANCH  70  71
ATOM     71  S   UNL     1       6.793 -14.509  12.153  1.00  0.00     0.124 S 
ATOM     72  O   UNL     1       7.451 -13.484  11.346  1.00  0.00    -0.237 OA
ATOM     73  O   UNL     1       6.803 -14.275  13.595  1.00  0.00    -0.237 OA
ATOM     74  O   UNL     1       7.060 -15.887  11.747  1.00  0.00    -0.744 OA
ENDBRANCH  70  71
ENDBRANCH  51  65
BRANCH  52  75
ATOM     75  C   UNL     1      -7.171 -12.469   8.374  1.00  0.00    -0.014 A 
ATOM     76  C   UNL     1      -8.171 -12.069   9.278  1.00  0.00     0.010 A 
ATOM     77  C   UNL     1      -7.520 -12.710   7.032  1.00  0.00     0.010 A 
ATOM     78  C   UNL     1      -9.495 -11.929   8.852  1.00  0.00     0.020 A 
ATOM     79  C   UNL     1      -8.838 -12.545   6.597  1.00  0.00     0.020 A 
ATOM     80  C   UNL     1      -9.820 -12.166   7.513  1.00  0.00     0.054 A 
BRANCH  80  81
ATOM     81  S   UNL     1     -11.535 -11.927   6.970  1.00  0.00     0.124 S 
ATOM     82  O   UNL     1     -12.195 -13.104   7.525  1.00  0.00    -0.237 OA
ATOM     83  O   UNL     1     -11.887 -10.651   7.589  1.00  0.00    -0.237 OA
ATOM     84  O   UNL     1     -11.430 -11.895   5.513  1.00  0.00    -0.744 OA
ENDBRANCH  80  81
ENDBRANCH  52  75
BRANCH  64  85
ATOM     85  C   UNL     1      -3.944 -17.051  12.542  1.00  0.00    -0.014 A 
ATOM     86  C   UNL     1      -4.345 -18.260  11.950  1.00  0.00     0.010 A 
ATOM     87  C   UNL     1      -3.938 -16.942  13.945  1.00  0.00     0.010 A 
ATOM     88  C   UNL     1      -4.755 -19.334  12.746  1.00  0.00     0.020 A 
ATOM     89  C   UNL     1      -4.322 -18.021  14.745  1.00  0.00     0.020 A 
ATOM     90  C   UNL     1      -4.740 -19.207  14.139  1.00  0.00     0.054 A 
BRANCH  90  91
ATOM     91  S   UNL     1      -5.224 -20.632  15.152  1.00  0.00     0.124 S 
ATOM     92  O   UNL     1      -6.674 -20.645  14.985  1.00  0.00    -0.237 OA
ATOM     93  O   UNL     1      -4.508 -21.736  14.517  1.00  0.00    -0.237 OA
ATOM     94  O   UNL     1      -4.753 -20.282  16.490  1.00  0.00    -0.744 OA
ENDBRANCH  90  91
ENDBRANCH  64  85
ENDBRANCH  38  39
ENDBRANCH  31  33
ENDBRANCH  30  31
ENDBRANCH  29  30
ENDBRANCH  28  29
ENDBRANCH  27  28
ENDBRANCH   1  27
TORSDOF 21
