REMARK SMILES Nc1cc([N+](=O)[O-])ccc1[C@H]([NH3+])C(=O)OCCOCCOC(=O)c1ccc(-c2c3nc(c(-c4ccc(S(=O)(=O)[O-])cc4)c4ccc([nH]4)c(-c4ccc(S(=O)(=O)[O-])cc4)c4nc(c(-c5ccc(S(=O)(=O)[O-])cc5)c5ccc2[nH]5)C=C4)C=C3)cc1
REMARK SMILES IDX 19 1 18 2 17 3 16 4 15 5 13 6 14 7 11 8 10 9 2 10 3 11 4 12
REMARK SMILES IDX 9 13 8 14 1 15 5 18 6 19 7 20 12 21 20 25 21 26 22 27 23 28
REMARK SMILES IDX 24 29 25 30 83 31 26 32 82 33 27 34 28 35 29 36 76 37 30 38
REMARK SMILES IDX 81 39 75 40 77 41 31 42 80 43 74 44 73 45 32 47 62 48 43 49
REMARK SMILES IDX 61 50 44 51 47 52 60 53 78 54 45 55 46 56 59 58 79 59 48 60
REMARK SMILES IDX 33 61 34 62 42 63 35 64 41 65 36 66 37 67 38 68 39 69 40 70
REMARK SMILES IDX 63 71 64 72 72 73 65 74 71 75 66 76 67 77 68 78 69 79 70 80
REMARK SMILES IDX 49 81 50 82 58 83 51 84 57 85 52 86 53 87 54 88 55 89 56 90
REMARK H PARENT 1 16 1 17 12 22 12 23 12 24 77 46 47 57
REMARK Flexibility Score: inf
ROOT
ATOM      1  C   UNL     1       1.024   2.144   3.485  1.00  0.00     0.202 C 
ENDROOT
BRANCH   1   2
ATOM      2  O   UNL     1       0.857   3.405   4.130  1.00  0.00    -0.374 OA
BRANCH   2   3
ATOM      3  C   UNL     1      -0.256   4.203   3.723  1.00  0.00     0.202 C 
BRANCH   3   4
ATOM      4  C   UNL     1      -0.089   4.996   2.424  1.00  0.00     0.261 C 
BRANCH   4   5
ATOM      5  O   UNL     1      -0.058   4.131   1.277  1.00  0.00    -0.459 OA
BRANCH   5   6
ATOM      6  C   UNL     1       1.163   3.954   0.690  1.00  0.00     0.369 C 
ATOM      7  O   UNL     1       2.188   4.550   1.008  1.00  0.00    -0.245 OA
BRANCH   6   8
ATOM      8  C   UNL     1       1.102   2.929  -0.473  1.00  0.00     0.325 C 
BRANCH   8   9
ATOM      9  C   UNL     1       0.696   3.558  -1.814  1.00  0.00     0.044 A 
ATOM     10  C   UNL     1       0.280   2.817  -2.945  1.00  0.00     0.048 A 
ATOM     11  C   UNL     1       0.061   3.479  -4.166  1.00  0.00     0.111 A 
ATOM     12  C   UNL     1       0.201   4.866  -4.272  1.00  0.00     0.271 A 
ATOM     13  C   UNL     1       0.844   4.962  -1.964  1.00  0.00     0.020 A 
ATOM     14  C   UNL     1       0.588   5.616  -3.168  1.00  0.00     0.086 A 
BRANCH  10  15
ATOM     15  N   UNL     1       0.228   1.425  -2.972  1.00  0.00    -0.398 N 
ATOM     16  H   UNL     1      -0.069   0.960  -3.787  1.00  0.00     0.156 HD
ATOM     17  H   UNL     1       0.488   0.907  -2.176  1.00  0.00     0.156 HD
ENDBRANCH  10  15
BRANCH  12  18
ATOM     18  N   UNL     1      -0.014   5.526  -5.562  1.00  0.00     0.062 N 
ATOM     19  O   UNL     1      -0.364   4.820  -6.520  1.00  0.00    -0.258 OA
ATOM     20  O   UNL     1       0.195   6.746  -5.629  1.00  0.00    -0.258 OA
ENDBRANCH  12  18
ENDBRANCH   8   9
BRANCH   8  21
ATOM     21  N   UNL     1       0.290   1.769  -0.038  1.00  0.00    -0.342 N 
ATOM     22  H   UNL     1      -0.657   2.079   0.179  1.00  0.00     0.345 HD
ATOM     23  H   UNL     1       0.710   1.353   0.794  1.00  0.00     0.345 HD
ATOM     24  H   UNL     1       0.258   1.076  -0.785  1.00  0.00     0.345 HD
ENDBRANCH   8  21
ENDBRANCH   6   8
ENDBRANCH   5   6
ENDBRANCH   4   5
ENDBRANCH   3   4
ENDBRANCH   2   3
ENDBRANCH   1   2
BRANCH   1  25
ATOM     25  C   UNL     1       0.127   0.995   3.960  1.00  0.00     0.261 C 
BRANCH  25  26
ATOM     26  O   UNL     1      -1.266   1.230   3.689  1.00  0.00    -0.460 OA
BRANCH  26  27
ATOM     27  C   UNL     1      -2.009   1.522   4.782  1.00  0.00     0.338 C 
ATOM     28  O   UNL     1      -1.635   1.530   5.948  1.00  0.00    -0.246 OA
BRANCH  27  29
ATOM     29  C   UNL     1      -3.336   2.019   4.378  1.00  0.00     0.060 A 
ATOM     30  C   UNL     1      -3.768   3.227   4.941  1.00  0.00     0.016 A 
ATOM     31  C   UNL     1      -4.176   1.288   3.534  1.00  0.00     0.016 A 
ATOM     32  C   UNL     1      -5.064   3.679   4.713  1.00  0.00     0.010 A 
ATOM     33  C   UNL     1      -5.481   1.740   3.312  1.00  0.00     0.010 A 
ATOM     34  C   UNL     1      -5.943   2.914   3.935  1.00  0.00    -0.014 A 
BRANCH  34  35
ATOM     35  C   UNL     1      -7.383   3.264   3.915  1.00  0.00     0.031 A 
ATOM     36  C   UNL     1      -8.327   2.510   4.811  1.00  0.00     0.074 A 
ATOM     37  C   UNL     1      -7.839   4.263   3.140  1.00  0.00     0.049 A 
ATOM     38  N   UNL     1      -9.620   2.647   4.954  1.00  0.00    -0.248 NA
ATOM     39  C   UNL     1      -7.733   1.462   5.657  1.00  0.00     0.031 C 
ATOM     40  C   UNL     1      -7.018   5.090   2.257  1.00  0.00     0.029 A 
ATOM     41  N   UNL     1      -9.112   4.746   2.971  1.00  0.00    -0.354 N 
ATOM     42  C   UNL     1      -9.996   1.702   5.903  1.00  0.00     0.074 A 
ATOM     43  C   UNL     1      -8.800   0.976   6.272  1.00  0.00     0.031 C 
ATOM     44  C   UNL     1      -7.812   5.971   1.626  1.00  0.00     0.029 A 
ATOM     45  C   UNL     1      -9.197   5.752   2.040  1.00  0.00     0.049 A 
ATOM     46  H   UNL     1      -9.889   4.404   3.469  1.00  0.00     0.167 HD
ATOM     47  C   UNL     1     -11.223   1.464   6.426  1.00  0.00     0.031 A 
ATOM     48  C   UNL     1     -10.272   6.408   1.559  1.00  0.00     0.031 A 
ATOM     49  C   UNL     1     -12.415   2.170   6.036  1.00  0.00     0.049 A 
ATOM     50  C   UNL     1     -11.638   6.087   2.102  1.00  0.00     0.074 A 
ATOM     51  C   UNL     1     -13.705   2.008   6.508  1.00  0.00     0.029 A 
ATOM     52  N   UNL     1     -12.464   3.164   5.069  1.00  0.00    -0.354 N 
ATOM     53  N   UNL     1     -11.974   5.209   3.017  1.00  0.00    -0.248 NA
ATOM     54  C   UNL     1     -12.767   6.853   1.557  1.00  0.00     0.031 C 
ATOM     55  C   UNL     1     -14.544   2.867   5.787  1.00  0.00     0.029 A 
ATOM     56  C   UNL     1     -13.766   3.606   4.910  1.00  0.00     0.049 A 
ATOM     57  H   UNL     1     -11.687   3.504   4.570  1.00  0.00     0.167 HD
ATOM     58  C   UNL     1     -13.352   5.329   3.172  1.00  0.00     0.074 A 
ATOM     59  C   UNL     1     -13.782   6.375   2.265  1.00  0.00     0.031 C 
ATOM     60  C   UNL     1     -14.183   4.639   3.993  1.00  0.00     0.031 A 
BRANCH  47  61
ATOM     61  C   UNL     1     -11.330   0.360   7.444  1.00  0.00    -0.014 A 
ATOM     62  C   UNL     1     -10.772   0.496   8.729  1.00  0.00     0.010 A 
ATOM     63  C   UNL     1     -11.985  -0.838   7.107  1.00  0.00     0.010 A 
ATOM     64  C   UNL     1     -10.813  -0.568   9.635  1.00  0.00     0.020 A 
ATOM     65  C   UNL     1     -12.054  -1.894   8.020  1.00  0.00     0.020 A 
ATOM     66  C   UNL     1     -11.444  -1.761   9.269  1.00  0.00     0.054 A 
BRANCH  66  67
ATOM     67  S   UNL     1     -11.462  -3.137  10.451  1.00  0.00     0.124 S 
ATOM     68  O   UNL     1     -10.085  -3.619  10.370  1.00  0.00    -0.237 OA
ATOM     69  O   UNL     1     -11.824  -2.481  11.704  1.00  0.00    -0.237 OA
ATOM     70  O   UNL     1     -12.472  -4.044   9.912  1.00  0.00    -0.744 OA
ENDBRANCH  66  67
ENDBRANCH  47  61
BRANCH  48  71
ATOM     71  C   UNL     1     -10.085   7.421   0.486  1.00  0.00    -0.014 A 
ATOM     72  C   UNL     1     -10.210   8.793   0.759  1.00  0.00     0.010 A 
ATOM     73  C   UNL     1      -9.724   7.009  -0.811  1.00  0.00     0.010 A 
ATOM     74  C   UNL     1      -9.970   9.737  -0.245  1.00  0.00     0.020 A 
ATOM     75  C   UNL     1      -9.460   7.949  -1.809  1.00  0.00     0.020 A 
ATOM     76  C   UNL     1      -9.588   9.309  -1.520  1.00  0.00     0.054 A 
BRANCH  76  77
ATOM     77  S   UNL     1      -9.186  10.553  -2.779  1.00  0.00     0.124 S 
ATOM     78  O   UNL     1     -10.507  11.055  -3.142  1.00  0.00    -0.237 OA
ATOM     79  O   UNL     1      -8.334  11.482  -2.041  1.00  0.00    -0.237 OA
ATOM     80  O   UNL     1      -8.501   9.781  -3.814  1.00  0.00    -0.744 OA
ENDBRANCH  76  77
ENDBRANCH  48  71
BRANCH  60  81
ATOM     81  C   UNL     1     -15.644   5.003   3.966  1.00  0.00    -0.014 A 
ATOM     82  C   UNL     1     -16.465   4.647   2.881  1.00  0.00     0.010 A 
ATOM     83  C   UNL     1     -16.216   5.659   5.072  1.00  0.00     0.010 A 
ATOM     84  C   UNL     1     -17.826   4.968   2.890  1.00  0.00     0.020 A 
ATOM     85  C   UNL     1     -17.581   5.957   5.096  1.00  0.00     0.020 A 
ATOM     86  C   UNL     1     -18.375   5.621   3.998  1.00  0.00     0.054 A 
BRANCH  86  87
ATOM     87  S   UNL     1     -20.152   5.987   4.005  1.00  0.00     0.124 S 
ATOM     88  O   UNL     1     -20.236   7.104   3.068  1.00  0.00    -0.237 OA
ATOM     89  O   UNL     1     -20.740   4.732   3.541  1.00  0.00    -0.237 OA
ATOM     90  O   UNL     1     -20.432   6.320   5.400  1.00  0.00    -0.744 OA
ENDBRANCH  86  87
ENDBRANCH  60  81
ENDBRANCH  34  35
ENDBRANCH  27  29
ENDBRANCH  26  27
ENDBRANCH  25  26
ENDBRANCH   1  25
TORSDOF 21
