REMARK SMILES CC[C@@H](C(=O)OCCOCCOC(=O)c1ccc(-c2c3nc(c(-c4ccc(S(=O)(=O)[O-])cc4)c4ccc([nH]4)c(-c4ccc(S(=O)(=O)[O-])cc4)c4nc(c(-c5ccc(S(=O)(=O)[O-])cc5)c5ccc2[nH]5)C=C4)C=C3)cc1)[N@@H+]1CCc2ccc(N)cc2C1
REMARK SMILES IDX 10 1 9 2 8 3 7 4 6 5 4 6 5 7 3 8 2 9 1 10 75 11 76 12 85 13
REMARK SMILES IDX 77 15 84 16 78 17 83 18 79 19 81 20 80 21 82 22 11 25 12 26
REMARK SMILES IDX 13 27 14 28 15 29 16 30 74 31 17 32 73 33 18 34 19 35 20 36
REMARK SMILES IDX 67 37 21 38 72 39 66 40 68 41 22 42 71 43 65 44 64 45 23 47
REMARK SMILES IDX 53 48 34 49 52 50 35 51 38 52 51 53 69 54 36 55 37 56 50 58
REMARK SMILES IDX 70 59 39 60 24 61 25 62 33 63 26 64 32 65 27 66 28 67 29 68
REMARK SMILES IDX 30 69 31 70 54 71 55 72 63 73 56 74 62 75 57 76 58 77 59 78
REMARK SMILES IDX 60 79 61 80 40 81 41 82 49 83 42 84 48 85 43 86 44 87 45 88
REMARK SMILES IDX 46 89 47 90
REMARK H PARENT 75 14 82 23 82 24 68 46 38 57
REMARK Flexibility Score: inf
ROOT
ATOM      1  C   UNL     1      -2.341  -4.698   1.508  1.00  0.00     0.202 C 
ENDROOT
BRANCH   1   2
ATOM      2  O   UNL     1      -1.102  -4.279   0.887  1.00  0.00    -0.374 OA
BRANCH   2   3
ATOM      3  C   UNL     1       0.006  -4.137   1.802  1.00  0.00     0.202 C 
BRANCH   3   4
ATOM      4  C   UNL     1       1.425  -4.180   1.120  1.00  0.00     0.261 C 
BRANCH   4   5
ATOM      5  O   UNL     1       1.751  -2.990   0.344  1.00  0.00    -0.459 OA
BRANCH   5   6
ATOM      6  C   UNL     1       2.676  -3.043  -0.669  1.00  0.00     0.364 C 
ATOM      7  O   UNL     1       3.623  -3.823  -0.640  1.00  0.00    -0.245 OA
BRANCH   6   8
ATOM      8  C   UNL     1       2.350  -2.086  -1.945  1.00  0.00     0.295 C 
BRANCH   8   9
ATOM      9  C   UNL     1       2.659  -0.566  -1.832  1.00  0.00     0.074 C 
ATOM     10  C   UNL     1       3.305  -0.015  -0.566  1.00  0.00     0.011 C 
ENDBRANCH   8   9
BRANCH   8  11
ATOM     11  N   UNL     1       1.092  -2.508  -2.721  1.00  0.00    -0.319 N 
ATOM     12  C   UNL     1       0.309  -1.547  -3.589  1.00  0.00     0.268 C 
ATOM     13  C   UNL     1       0.122  -3.069  -1.811  1.00  0.00     0.300 C 
ATOM     14  H   UNL     1       1.537  -3.132  -3.395  1.00  0.00     0.349 HD
ATOM     15  C   UNL     1      -1.316  -1.464  -3.332  1.00  0.00     0.097 C 
ATOM     16  C   UNL     1      -0.581  -1.942  -1.117  1.00  0.00     0.012 A 
ATOM     17  C   UNL     1      -1.596  -1.387  -1.846  1.00  0.00    -0.033 A 
ATOM     18  C   UNL     1      -0.168  -1.190  -0.036  1.00  0.00     0.035 A 
ATOM     19  C   UNL     1      -2.616  -0.781  -1.127  1.00  0.00     0.006 A 
ATOM     20  C   UNL     1      -1.054  -0.405   0.661  1.00  0.00     0.032 A 
ATOM     21  C   UNL     1      -2.361  -0.398   0.206  1.00  0.00     0.026 A 
BRANCH  20  22
ATOM     22  N   UNL     1      -0.637   0.075   1.900  1.00  0.00    -0.399 N 
ATOM     23  H   UNL     1      -1.237   0.642   2.436  1.00  0.00     0.156 HD
ATOM     24  H   UNL     1       0.259  -0.151   2.239  1.00  0.00     0.156 HD
ENDBRANCH  20  22
ENDBRANCH   8  11
ENDBRANCH   6   8
ENDBRANCH   5   6
ENDBRANCH   4   5
ENDBRANCH   3   4
ENDBRANCH   2   3
ENDBRANCH   1   2
BRANCH   1  25
ATOM     25  C   UNL     1      -3.440  -3.619   1.557  1.00  0.00     0.261 C 
BRANCH  25  26
ATOM     26  O   UNL     1      -3.102  -2.604   2.515  1.00  0.00    -0.460 OA
BRANCH  26  27
ATOM     27  C   UNL     1      -3.406  -2.929   3.801  1.00  0.00     0.338 C 
ATOM     28  O   UNL     1      -4.077  -3.855   4.176  1.00  0.00    -0.246 OA
BRANCH  27  29
ATOM     29  C   UNL     1      -2.549  -2.111   4.688  1.00  0.00     0.060 A 
ATOM     30  C   UNL     1      -1.964  -2.764   5.772  1.00  0.00     0.016 A 
ATOM     31  C   UNL     1      -2.284  -0.760   4.455  1.00  0.00     0.016 A 
ATOM     32  C   UNL     1      -1.150  -2.054   6.648  1.00  0.00     0.010 A 
ATOM     33  C   UNL     1      -1.406  -0.065   5.297  1.00  0.00     0.010 A 
ATOM     34  C   UNL     1      -0.891  -0.690   6.440  1.00  0.00    -0.014 A 
BRANCH  34  35
ATOM     35  C   UNL     1      -0.285   0.065   7.569  1.00  0.00     0.031 A 
ATOM     36  C   UNL     1      -1.182   0.930   8.413  1.00  0.00     0.074 A 
ATOM     37  C   UNL     1       0.976  -0.188   7.973  1.00  0.00     0.049 A 
ATOM     38  N   UNL     1      -1.012   1.330   9.647  1.00  0.00    -0.248 NA
ATOM     39  C   UNL     1      -2.444   1.385   7.805  1.00  0.00     0.031 C 
ATOM     40  C   UNL     1       1.959  -0.994   7.248  1.00  0.00     0.029 A 
ATOM     41  N   UNL     1       1.619   0.160   9.137  1.00  0.00    -0.354 N 
ATOM     42  C   UNL     1      -2.162   2.038   9.973  1.00  0.00     0.074 A 
ATOM     43  C   UNL     1      -2.990   2.077   8.791  1.00  0.00     0.031 C 
ATOM     44  C   UNL     1       3.061  -1.125   8.008  1.00  0.00     0.029 A 
ATOM     45  C   UNL     1       2.857  -0.424   9.275  1.00  0.00     0.049 A 
ATOM     46  H   UNL     1       1.231   0.768   9.807  1.00  0.00     0.167 HD
ATOM     47  C   UNL     1      -2.524   2.580  11.158  1.00  0.00     0.031 A 
ATOM     48  C   UNL     1       3.710  -0.435  10.320  1.00  0.00     0.031 A 
ATOM     49  C   UNL     1      -1.700   2.578  12.332  1.00  0.00     0.049 A 
ATOM     50  C   UNL     1       3.308   0.215  11.620  1.00  0.00     0.074 A 
ATOM     51  C   UNL     1      -1.983   3.098  13.581  1.00  0.00     0.029 A 
ATOM     52  N   UNL     1      -0.425   2.041  12.395  1.00  0.00    -0.354 N 
ATOM     53  N   UNL     1       2.175   0.795  11.938  1.00  0.00    -0.248 NA
ATOM     54  C   UNL     1       4.294   0.179  12.710  1.00  0.00     0.031 C 
ATOM     55  C   UNL     1      -0.856   2.917  14.391  1.00  0.00     0.029 A 
ATOM     56  C   UNL     1       0.105   2.240  13.657  1.00  0.00     0.049 A 
ATOM     57  H   UNL     1       0.035   1.587  11.653  1.00  0.00     0.167 HD
ATOM     58  C   UNL     1       2.304   1.168  13.274  1.00  0.00     0.074 A 
ATOM     59  C   UNL     1       3.617   0.735  13.706  1.00  0.00     0.031 C 
ATOM     60  C   UNL     1       1.413   1.807  14.073  1.00  0.00     0.031 A 
BRANCH  47  61
ATOM     61  C   UNL     1      -3.876   3.230  11.221  1.00  0.00    -0.014 A 
ATOM     62  C   UNL     1      -5.047   2.450  11.238  1.00  0.00     0.010 A 
ATOM     63  C   UNL     1      -3.978   4.631  11.256  1.00  0.00     0.010 A 
ATOM     64  C   UNL     1      -6.302   3.063  11.248  1.00  0.00     0.020 A 
ATOM     65  C   UNL     1      -5.232   5.247  11.288  1.00  0.00     0.020 A 
ATOM     66  C   UNL     1      -6.385   4.459  11.265  1.00  0.00     0.054 A 
BRANCH  66  67
ATOM     67  S   UNL     1      -8.025   5.233  11.280  1.00  0.00     0.124 S 
ATOM     68  O   UNL     1      -8.447   5.065   9.891  1.00  0.00    -0.237 OA
ATOM     69  O   UNL     1      -8.752   4.430  12.259  1.00  0.00    -0.237 OA
ATOM     70  O   UNL     1      -7.753   6.609  11.687  1.00  0.00    -0.744 OA
ENDBRANCH  66  67
ENDBRANCH  47  61
BRANCH  48  71
ATOM     71  C   UNL     1       5.028  -1.117  10.199  1.00  0.00    -0.014 A 
ATOM     72  C   UNL     1       5.293  -2.312  10.890  1.00  0.00     0.010 A 
ATOM     73  C   UNL     1       6.039  -0.546   9.406  1.00  0.00     0.010 A 
ATOM     74  C   UNL     1       6.554  -2.912  10.809  1.00  0.00     0.020 A 
ATOM     75  C   UNL     1       7.293  -1.154   9.306  1.00  0.00     0.020 A 
ATOM     76  C   UNL     1       7.548  -2.326  10.020  1.00  0.00     0.054 A 
BRANCH  76  77
ATOM     77  S   UNL     1       9.168  -3.134   9.899  1.00  0.00     0.124 S 
ATOM     78  O   UNL     1       9.781  -2.774  11.174  1.00  0.00    -0.237 OA
ATOM     79  O   UNL     1       8.811  -4.541   9.742  1.00  0.00    -0.237 OA
ATOM     80  O   UNL     1       9.768  -2.516   8.719  1.00  0.00    -0.744 OA
ENDBRANCH  76  77
ENDBRANCH  48  71
BRANCH  60  81
ATOM     81  C   UNL     1       1.813   2.060  15.502  1.00  0.00    -0.014 A 
ATOM     82  C   UNL     1       2.764   3.042  15.827  1.00  0.00     0.010 A 
ATOM     83  C   UNL     1       1.184   1.344  16.537  1.00  0.00     0.010 A 
ATOM     84  C   UNL     1       3.106   3.279  17.162  1.00  0.00     0.020 A 
ATOM     85  C   UNL     1       1.506   1.594  17.873  1.00  0.00     0.020 A 
ATOM     86  C   UNL     1       2.478   2.550  18.176  1.00  0.00     0.054 A 
BRANCH  86  87
ATOM     87  S   UNL     1       2.910   2.897  19.904  1.00  0.00     0.124 S 
ATOM     88  O   UNL     1       4.187   2.202  20.041  1.00  0.00    -0.237 OA
ATOM     89  O   UNL     1       2.982   4.356  19.933  1.00  0.00    -0.237 OA
ATOM     90  O   UNL     1       1.801   2.320  20.659  1.00  0.00    -0.744 OA
ENDBRANCH  86  87
ENDBRANCH  60  81
ENDBRANCH  34  35
ENDBRANCH  27  29
ENDBRANCH  26  27
ENDBRANCH  25  26
ENDBRANCH   1  25
TORSDOF 20
