REMARK SMILES COc1ccc([C@H]2CC(c3ccc(S(C)(=O)=O)cc3)=NN2c2ccc(C(=O)OCCOCCOC(=O)c3ccc(-c4c5nc(c(-c6ccc(S(=O)(=O)[O-])cc6)c6ccc([nH]6)c(-c6ccc(S(=O)(=O)[O-])cc6)c6nc(c(-c7ccc(S(=O)(=O)[O-])cc7)c7ccc4[nH]7)C=C6)C=C5)cc3)cc2)cc1
REMARK SMILES IDX 31 1 30 2 29 3 28 4 26 5 27 6 25 7 22 8 23 9 98 10 24 11
REMARK SMILES IDX 97 12 21 13 7 14 8 15 9 16 20 17 6 18 3 19 4 20 100 21 5 22
REMARK SMILES IDX 99 23 2 24 1 25 10 26 11 27 19 28 12 29 18 30 13 31 14 32
REMARK SMILES IDX 15 33 16 34 17 35 32 36 33 37 34 38 35 39 36 40 37 41 38 42
REMARK SMILES IDX 96 43 39 44 95 45 40 46 41 47 42 48 89 49 43 50 94 51 88 52
REMARK SMILES IDX 90 53 44 54 93 55 87 56 86 57 45 59 75 60 56 61 74 62 57 63
REMARK SMILES IDX 60 64 73 65 91 66 58 67 59 68 72 70 92 71 61 72 46 73 47 74
REMARK SMILES IDX 55 75 48 76 54 77 49 78 50 79 51 80 52 81 53 82 76 83 77 84
REMARK SMILES IDX 85 85 78 86 84 87 79 88 80 89 81 90 82 91 83 92 62 93 63 94
REMARK SMILES IDX 71 95 64 96 70 97 65 98 66 99 67 100 68 101 69 102
REMARK H PARENT 90 58 60 69
REMARK Flexibility Score: inf
ROOT
ATOM      1  O   UNL     1       4.605  10.854  -1.623  1.00  0.00    -0.374 OA
ENDROOT
BRANCH   1   2
ATOM      2  C   UNL     1       3.252  11.242  -1.870  1.00  0.00     0.202 C 
BRANCH   2   3
ATOM      3  C   UNL     1       2.234  10.102  -1.979  1.00  0.00     0.261 C 
BRANCH   3   4
ATOM      4  O   UNL     1       2.135   9.366  -0.749  1.00  0.00    -0.460 OA
BRANCH   4   5
ATOM      5  C   UNL     1       2.699   8.135  -0.777  1.00  0.00     0.338 C 
ATOM      6  O   UNL     1       3.169   7.564  -1.752  1.00  0.00    -0.246 OA
BRANCH   5   7
ATOM      7  C   UNL     1       2.826   7.596   0.594  1.00  0.00     0.060 A 
ATOM      8  C   UNL     1       3.109   6.355   3.103  1.00  0.00     0.060 A 
ATOM      9  C   UNL     1       4.112   6.241   2.133  1.00  0.00     0.029 A 
ATOM     10  C   UNL     1       2.003   7.174   2.823  1.00  0.00     0.029 A 
ATOM     11  C   UNL     1       3.961   6.830   0.879  1.00  0.00     0.018 A 
ATOM     12  C   UNL     1       1.864   7.809   1.583  1.00  0.00     0.018 A 
BRANCH   8  13
ATOM     13  N   UNL     1       3.176   5.606   4.274  1.00  0.00    -0.257 N 
ATOM     14  C   UNL     1       2.111   4.681   4.674  1.00  0.00     0.144 C 
ATOM     15  C   UNL     1       2.743   3.926   5.849  1.00  0.00     0.091 C 
ATOM     16  C   UNL     1       4.118   4.531   5.845  1.00  0.00     0.071 C 
ATOM     17  N   UNL     1       4.347   5.437   4.948  1.00  0.00    -0.176 NA
BRANCH  14  18
ATOM     18  C   UNL     1       1.678   3.754   3.544  1.00  0.00    -0.023 A 
ATOM     19  C   UNL     1       0.830   2.076   1.435  1.00  0.00     0.118 A 
ATOM     20  C   UNL     1      -0.051   2.990   2.012  1.00  0.00     0.047 A 
ATOM     21  C   UNL     1       2.147   2.021   1.886  1.00  0.00     0.047 A 
ATOM     22  C   UNL     1       0.363   3.816   3.061  1.00  0.00     0.010 A 
ATOM     23  C   UNL     1       2.569   2.857   2.928  1.00  0.00     0.010 A 
BRANCH  19  24
ATOM     24  O   UNL     1       0.301   1.326   0.420  1.00  0.00    -0.497 OA
ATOM     25  C   UNL     1       0.958   0.097   0.140  1.00  0.00     0.278 C 
ENDBRANCH  19  24
ENDBRANCH  14  18
BRANCH  16  26
ATOM     26  C   UNL     1       5.104   4.143   6.860  1.00  0.00    -0.002 A 
ATOM     27  C   UNL     1       5.616   5.136   7.702  1.00  0.00     0.011 A 
ATOM     28  C   UNL     1       5.499   2.810   6.999  1.00  0.00     0.011 A 
ATOM     29  C   UNL     1       6.519   4.792   8.709  1.00  0.00     0.021 A 
ATOM     30  C   UNL     1       6.424   2.468   7.988  1.00  0.00     0.021 A 
ATOM     31  C   UNL     1       6.928   3.460   8.838  1.00  0.00     0.067 A 
BRANCH  31  32
ATOM     32  S   UNL     1       8.085   3.030  10.117  1.00  0.00     0.175 S 
ATOM     33  C   UNL     1       9.533   3.982   9.737  1.00  0.00     0.163 C 
ATOM     34  O   UNL     1       7.531   3.515  11.366  1.00  0.00    -0.224 OA
ATOM     35  O   UNL     1       8.429   1.630   9.947  1.00  0.00    -0.224 OA
ENDBRANCH  31  32
ENDBRANCH  16  26
ENDBRANCH   8  13
ENDBRANCH   5   7
ENDBRANCH   4   5
ENDBRANCH   3   4
ENDBRANCH   2   3
ENDBRANCH   1   2
BRANCH   1  36
ATOM     36  C   UNL     1       4.960  10.602  -0.261  1.00  0.00     0.202 C 
BRANCH  36  37
ATOM     37  C   UNL     1       5.261  11.837   0.596  1.00  0.00     0.261 C 
BRANCH  37  38
ATOM     38  O   UNL     1       4.078  12.618   0.842  1.00  0.00    -0.460 OA
BRANCH  38  39
ATOM     39  C   UNL     1       4.035  13.807   0.196  1.00  0.00     0.338 C 
ATOM     40  O   UNL     1       4.920  14.309  -0.485  1.00  0.00    -0.246 OA
BRANCH  39  41
ATOM     41  C   UNL     1       2.674  14.371   0.268  1.00  0.00     0.060 A 
ATOM     42  C   UNL     1       2.086  14.796  -0.930  1.00  0.00     0.016 A 
ATOM     43  C   UNL     1       2.005  14.537   1.483  1.00  0.00     0.016 A 
ATOM     44  C   UNL     1       0.849  15.436  -0.913  1.00  0.00     0.010 A 
ATOM     45  C   UNL     1       0.765  15.187   1.498  1.00  0.00     0.010 A 
ATOM     46  C   UNL     1       0.199  15.671   0.305  1.00  0.00    -0.014 A 
BRANCH  46  47
ATOM     47  C   UNL     1      -1.003  16.539   0.340  1.00  0.00     0.031 A 
ATOM     48  C   UNL     1      -0.855  17.977   0.757  1.00  0.00     0.074 A 
ATOM     49  C   UNL     1      -2.208  16.059  -0.015  1.00  0.00     0.049 A 
ATOM     50  N   UNL     1      -1.771  18.902   0.875  1.00  0.00    -0.248 NA
ATOM     51  C   UNL     1       0.507  18.430   1.087  1.00  0.00     0.031 C 
ATOM     52  C   UNL     1      -2.475  14.694  -0.467  1.00  0.00     0.029 A 
ATOM     53  N   UNL     1      -3.437  16.670  -0.042  1.00  0.00    -0.354 N 
ATOM     54  C   UNL     1      -1.102  20.043   1.305  1.00  0.00     0.074 A 
ATOM     55  C   UNL     1       0.293  19.686   1.449  1.00  0.00     0.031 C 
ATOM     56  C   UNL     1      -3.790  14.568  -0.716  1.00  0.00     0.029 A 
ATOM     57  C   UNL     1      -4.460  15.831  -0.413  1.00  0.00     0.049 A 
ATOM     58  H   UNL     1      -3.572  17.619   0.182  1.00  0.00     0.167 HD
ATOM     59  C   UNL     1      -1.603  21.277   1.554  1.00  0.00     0.031 A 
ATOM     60  C   UNL     1      -5.789  16.050  -0.480  1.00  0.00     0.031 A 
ATOM     61  C   UNL     1      -2.993  21.626   1.419  1.00  0.00     0.049 A 
ATOM     62  C   UNL     1      -6.332  17.415  -0.147  1.00  0.00     0.074 A 
ATOM     63  C   UNL     1      -3.593  22.857   1.620  1.00  0.00     0.029 A 
ATOM     64  N   UNL     1      -4.000  20.743   1.062  1.00  0.00    -0.354 N 
ATOM     65  N   UNL     1      -5.681  18.493   0.220  1.00  0.00    -0.248 NA
ATOM     66  C   UNL     1      -7.787  17.594  -0.249  1.00  0.00     0.031 C 
ATOM     67  C   UNL     1      -4.972  22.705   1.438  1.00  0.00     0.029 A 
ATOM     68  C   UNL     1      -5.223  21.394   1.066  1.00  0.00     0.049 A 
ATOM     69  H   UNL     1      -3.866  19.794   0.838  1.00  0.00     0.167 HD
ATOM     70  C   UNL     1      -6.644  19.485   0.370  1.00  0.00     0.074 A 
ATOM     71  C   UNL     1      -7.920  18.882   0.042  1.00  0.00     0.031 C 
ATOM     72  C   UNL     1      -6.486  20.780   0.743  1.00  0.00     0.031 A 
BRANCH  59  73
ATOM     73  C   UNL     1      -0.643  22.331   2.038  1.00  0.00    -0.014 A 
ATOM     74  C   UNL     1       0.315  22.899   1.180  1.00  0.00     0.010 A 
ATOM     75  C   UNL     1      -0.722  22.780   3.369  1.00  0.00     0.010 A 
ATOM     76  C   UNL     1       1.204  23.867   1.655  1.00  0.00     0.020 A 
ATOM     77  C   UNL     1       0.148  23.767   3.841  1.00  0.00     0.020 A 
ATOM     78  C   UNL     1       1.119  24.291   2.985  1.00  0.00     0.054 A 
BRANCH  78  79
ATOM     79  S   UNL     1       2.277  25.557   3.574  1.00  0.00     0.124 S 
ATOM     80  O   UNL     1       3.522  24.800   3.678  1.00  0.00    -0.237 OA
ATOM     81  O   UNL     1       2.235  26.552   2.506  1.00  0.00    -0.237 OA
ATOM     82  O   UNL     1       1.702  25.988   4.846  1.00  0.00    -0.744 OA
ENDBRANCH  78  79
ENDBRANCH  59  73
BRANCH  60  83
ATOM     83  C   UNL     1      -6.700  14.936  -0.859  1.00  0.00    -0.014 A 
ATOM     84  C   UNL     1      -7.356  14.931  -2.101  1.00  0.00     0.010 A 
ATOM     85  C   UNL     1      -6.901  13.859   0.025  1.00  0.00     0.010 A 
ATOM     86  C   UNL     1      -8.202  13.874  -2.450  1.00  0.00     0.020 A 
ATOM     87  C   UNL     1      -7.725  12.789  -0.331  1.00  0.00     0.020 A 
ATOM     88  C   UNL     1      -8.377  12.807  -1.564  1.00  0.00     0.054 A 
BRANCH  88  89
ATOM     89  S   UNL     1      -9.426  11.413  -2.065  1.00  0.00     0.124 S 
ATOM     90  O   UNL     1     -10.765  11.978  -1.934  1.00  0.00    -0.237 OA
ATOM     91  O   UNL     1      -8.977  11.156  -3.431  1.00  0.00    -0.237 OA
ATOM     92  O   UNL     1      -9.088  10.369  -1.100  1.00  0.00    -0.744 OA
ENDBRANCH  88  89
ENDBRANCH  60  83
BRANCH  72  93
ATOM     93  C   UNL     1      -7.717  21.646   0.789  1.00  0.00    -0.014 A 
ATOM     94  C   UNL     1      -8.674  21.501   1.808  1.00  0.00     0.010 A 
ATOM     95  C   UNL     1      -7.886  22.663  -0.170  1.00  0.00     0.010 A 
ATOM     96  C   UNL     1      -9.794  22.337   1.851  1.00  0.00     0.020 A 
ATOM     97  C   UNL     1      -8.990  23.518  -0.115  1.00  0.00     0.020 A 
ATOM     98  C   UNL     1      -9.945  23.340   0.888  1.00  0.00     0.054 A 
BRANCH  98  99
ATOM     99  S   UNL     1     -11.383  24.442   0.990  1.00  0.00     0.124 S 
ATOM    100  O   UNL     1     -12.462  23.577   0.522  1.00  0.00    -0.237 OA
ATOM    101  O   UNL     1     -11.424  24.787   2.409  1.00  0.00    -0.237 OA
ATOM    102  O   UNL     1     -11.037  25.546   0.097  1.00  0.00    -0.744 OA
ENDBRANCH  98  99
ENDBRANCH  72  93
ENDBRANCH  46  47
ENDBRANCH  39  41
ENDBRANCH  38  39
ENDBRANCH  37  38
ENDBRANCH  36  37
ENDBRANCH   1  36
TORSDOF 22
