REMARK SMILES CC(C)[N@H+](C)Cc1cc2c(cc1Cl)C=C(C(=O)OCCOCCOC(=O)c1ccc(-c3c4nc(c(-c5ccc(S(=O)(=O)[O-])cc5)c5ccc([nH]5)c(-c5ccc(S(=O)(=O)[O-])cc5)c5nc(c(-c6ccc(S(=O)(=O)[O-])cc6)c6ccc3[nH]6)C=C5)C=C4)cc1)[C@@H](C(F)(F)F)O2
REMARK SMILES IDX 21 1 20 2 19 3 18 4 16 5 17 6 15 7 7 8 8 9 12 10 9 11 11 12
REMARK SMILES IDX 13 13 10 14 92 15 14 16 87 17 6 18 4 19 5 20 2 22 1 23 3 24
REMARK SMILES IDX 88 25 89 26 90 27 91 28 22 29 23 30 24 31 25 32 26 33 27 34
REMARK SMILES IDX 28 35 86 36 29 37 85 38 30 39 31 40 32 41 79 42 33 43 84 44
REMARK SMILES IDX 78 45 80 46 34 47 83 48 77 49 76 50 35 52 65 53 46 54 64 55
REMARK SMILES IDX 47 56 50 57 63 58 81 59 48 60 49 61 62 63 82 64 51 65 36 66
REMARK SMILES IDX 37 67 45 68 38 69 44 70 39 71 40 72 41 73 42 74 43 75 66 76
REMARK SMILES IDX 67 77 75 78 68 79 74 80 69 81 70 82 71 83 72 84 73 85 52 86
REMARK SMILES IDX 53 87 61 88 54 89 60 90 55 91 56 92 57 93 58 94 59 95
REMARK H PARENT 4 21 80 51 50 62
REMARK Flexibility Score: inf
ROOT
ATOM      1  O   UNL     1      -0.410   7.686   8.434  1.00  0.00    -0.374 OA
ENDROOT
BRANCH   1   2
ATOM      2  C   UNL     1      -0.249   9.002   7.907  1.00  0.00     0.202 C 
BRANCH   2   3
ATOM      3  C   UNL     1       0.616   9.164   6.653  1.00  0.00     0.261 C 
BRANCH   3   4
ATOM      4  O   UNL     1       0.141   8.343   5.577  1.00  0.00    -0.460 OA
BRANCH   4   5
ATOM      5  C   UNL     1       0.965   7.320   5.255  1.00  0.00     0.338 C 
ATOM      6  O   UNL     1       2.097   7.123   5.664  1.00  0.00    -0.246 OA
BRANCH   5   7
ATOM      7  C   UNL     1       0.208   6.328   4.476  1.00  0.00     0.087 C 
ATOM      8  C   UNL     1      -1.290   1.948   2.587  1.00  0.00     0.029 A 
ATOM      9  C   UNL     1      -1.421   3.293   2.178  1.00  0.00     0.058 A 
ATOM     10  C   UNL     1      -0.899   1.702   3.917  1.00  0.00     0.050 A 
ATOM     11  C   UNL     1      -0.994   4.337   2.997  1.00  0.00     0.128 A 
ATOM     12  C   UNL     1      -0.412   2.742   4.706  1.00  0.00     0.033 A 
ATOM     13  Cl  UNL     1      -0.960   0.159   4.697  1.00  0.00    -0.084 Cl
ATOM     14  C   UNL     1      -0.407   4.046   4.222  1.00  0.00     0.019 A 
ATOM     15  O   UNL     1      -1.139   5.601   2.508  1.00  0.00    -0.475 OA
ATOM     16  C   UNL     1       0.277   5.082   4.958  1.00  0.00     0.027 C 
ATOM     17  C   UNL     1      -0.601   6.722   3.273  1.00  0.00     0.316 C 
BRANCH   8  18
ATOM     18  C   UNL     1      -1.559   0.882   1.541  1.00  0.00     0.300 C 
BRANCH  18  19
ATOM     19  N   UNL     1      -0.806  -0.348   1.742  1.00  0.00    -0.332 N 
ATOM     20  C   UNL     1      -1.625  -1.539   1.843  1.00  0.00     0.333 C 
ATOM     21  H   UNL     1      -0.461  -0.158   2.683  1.00  0.00     0.348 HD
BRANCH  19  22
ATOM     22  C   UNL     1       0.540  -0.512   1.193  1.00  0.00     0.177 C 
ATOM     23  C   UNL     1       0.659  -0.386  -0.327  1.00  0.00     0.075 C 
ATOM     24  C   UNL     1       1.544   0.434   1.865  1.00  0.00     0.075 C 
ENDBRANCH  19  22
ENDBRANCH  18  19
ENDBRANCH   8  18
BRANCH  17  25
ATOM     25  C   UNL     1       0.180   7.607   2.293  1.00  0.00     0.430 C 
ATOM     26  F   UNL     1      -0.580   7.926   1.218  1.00  0.00    -0.167 F 
ATOM     27  F   UNL     1       0.564   8.771   2.863  1.00  0.00    -0.167 F 
ATOM     28  F   UNL     1       1.292   6.985   1.838  1.00  0.00    -0.167 F 
ENDBRANCH  17  25
ENDBRANCH   5   7
ENDBRANCH   4   5
ENDBRANCH   3   4
ENDBRANCH   2   3
ENDBRANCH   1   2
BRANCH   1  29
ATOM     29  C   UNL     1      -1.340   6.814   7.790  1.00  0.00     0.202 C 
BRANCH  29  30
ATOM     30  C   UNL     1      -2.839   7.109   7.933  1.00  0.00     0.261 C 
BRANCH  30  31
ATOM     31  O   UNL     1      -3.234   8.284   7.203  1.00  0.00    -0.460 OA
BRANCH  31  32
ATOM     32  C   UNL     1      -3.602   9.342   7.967  1.00  0.00     0.338 C 
ATOM     33  O   UNL     1      -3.678   9.381   9.186  1.00  0.00    -0.246 OA
BRANCH  32  34
ATOM     34  C   UNL     1      -3.676  10.540   7.112  1.00  0.00     0.060 A 
ATOM     35  C   UNL     1      -4.552  10.602   6.028  1.00  0.00     0.016 A 
ATOM     36  C   UNL     1      -2.855  11.630   7.430  1.00  0.00     0.016 A 
ATOM     37  C   UNL     1      -4.619  11.775   5.271  1.00  0.00     0.010 A 
ATOM     38  C   UNL     1      -2.915  12.794   6.667  1.00  0.00     0.010 A 
ATOM     39  C   UNL     1      -3.813  12.882   5.595  1.00  0.00    -0.014 A 
BRANCH  39  40
ATOM     40  C   UNL     1      -4.004  14.183   4.909  1.00  0.00     0.031 A 
ATOM     41  C   UNL     1      -3.009  14.694   3.911  1.00  0.00     0.074 A 
ATOM     42  C   UNL     1      -5.079  14.925   5.240  1.00  0.00     0.049 A 
ATOM     43  N   UNL     1      -3.043  15.805   3.223  1.00  0.00    -0.248 NA
ATOM     44  C   UNL     1      -1.827  13.859   3.650  1.00  0.00     0.031 C 
ATOM     45  C   UNL     1      -6.098  14.526   6.213  1.00  0.00     0.029 A 
ATOM     46  N   UNL     1      -5.498  16.156   4.803  1.00  0.00    -0.354 N 
ATOM     47  C   UNL     1      -1.901  15.799   2.433  1.00  0.00     0.074 A 
ATOM     48  C   UNL     1      -1.169  14.594   2.761  1.00  0.00     0.031 C 
ATOM     49  C   UNL     1      -7.039  15.479   6.275  1.00  0.00     0.029 A 
ATOM     50  C   UNL     1      -6.669  16.578   5.387  1.00  0.00     0.049 A 
ATOM     51  H   UNL     1      -5.007  16.686   4.134  1.00  0.00     0.167 HD
ATOM     52  C   UNL     1      -1.516  16.710   1.508  1.00  0.00     0.031 A 
ATOM     53  C   UNL     1      -7.370  17.721   5.234  1.00  0.00     0.031 A 
ATOM     54  C   UNL     1      -2.253  17.913   1.208  1.00  0.00     0.049 A 
ATOM     55  C   UNL     1      -6.887  18.747   4.247  1.00  0.00     0.074 A 
ATOM     56  C   UNL     1      -1.960  18.878   0.260  1.00  0.00     0.029 A 
ATOM     57  N   UNL     1      -3.414  18.325   1.848  1.00  0.00    -0.354 N 
ATOM     58  N   UNL     1      -5.844  18.690   3.453  1.00  0.00    -0.248 NA
ATOM     59  C   UNL     1      -7.672  19.982   4.121  1.00  0.00     0.031 C 
ATOM     60  C   UNL     1      -2.888  19.911   0.386  1.00  0.00     0.029 A 
ATOM     61  C   UNL     1      -3.822  19.549   1.343  1.00  0.00     0.049 A 
ATOM     62  H   UNL     1      -3.878  17.822   2.555  1.00  0.00     0.167 HD
ATOM     63  C   UNL     1      -5.863  19.868   2.715  1.00  0.00     0.074 A 
ATOM     64  C   UNL     1      -7.027  20.614   3.147  1.00  0.00     0.031 C 
ATOM     65  C   UNL     1      -4.990  20.286   1.767  1.00  0.00     0.031 A 
BRANCH  52  66
ATOM     66  C   UNL     1      -0.254  16.457   0.720  1.00  0.00    -0.014 A 
ATOM     67  C   UNL     1       0.830  17.350   0.825  1.00  0.00     0.010 A 
ATOM     68  C   UNL     1      -0.203  15.435  -0.244  1.00  0.00     0.010 A 
ATOM     69  C   UNL     1       1.917  17.256  -0.049  1.00  0.00     0.020 A 
ATOM     70  C   UNL     1       0.898  15.317  -1.099  1.00  0.00     0.020 A 
ATOM     71  C   UNL     1       1.938  16.247  -1.014  1.00  0.00     0.054 A 
BRANCH  71  72
ATOM     72  S   UNL     1       3.329  16.177  -2.176  1.00  0.00     0.124 S 
ATOM     73  O   UNL     1       3.081  17.338  -3.026  1.00  0.00    -0.237 OA
ATOM     74  O   UNL     1       4.487  16.278  -1.291  1.00  0.00    -0.237 OA
ATOM     75  O   UNL     1       3.167  14.879  -2.829  1.00  0.00    -0.744 OA
ENDBRANCH  71  72
ENDBRANCH  52  66
BRANCH  53  76
ATOM     76  C   UNL     1      -8.627  17.906   6.012  1.00  0.00    -0.014 A 
ATOM     77  C   UNL     1      -8.591  17.995   7.417  1.00  0.00     0.010 A 
ATOM     78  C   UNL     1      -9.874  17.887   5.363  1.00  0.00     0.010 A 
ATOM     79  C   UNL     1      -9.774  17.987   8.161  1.00  0.00     0.020 A 
ATOM     80  C   UNL     1     -11.061  17.917   6.103  1.00  0.00     0.020 A 
ATOM     81  C   UNL     1     -11.002  17.931   7.498  1.00  0.00     0.054 A 
BRANCH  81  82
ATOM     82  S   UNL     1     -12.519  17.842   8.488  1.00  0.00     0.124 S 
ATOM     83  O   UNL     1     -12.455  16.480   9.011  1.00  0.00    -0.237 OA
ATOM     84  O   UNL     1     -12.319  18.904   9.471  1.00  0.00    -0.237 OA
ATOM     85  O   UNL     1     -13.579  18.089   7.515  1.00  0.00    -0.744 OA
ENDBRANCH  81  82
ENDBRANCH  53  76
BRANCH  65  86
ATOM     86  C   UNL     1      -5.229  21.617   1.096  1.00  0.00    -0.014 A 
ATOM     87  C   UNL     1      -5.492  21.659  -0.287  1.00  0.00     0.010 A 
ATOM     88  C   UNL     1      -4.999  22.821   1.784  1.00  0.00     0.010 A 
ATOM     89  C   UNL     1      -5.449  22.870  -0.982  1.00  0.00     0.020 A 
ATOM     90  C   UNL     1      -4.991  24.039   1.098  1.00  0.00     0.020 A 
ATOM     91  C   UNL     1      -5.178  24.050  -0.287  1.00  0.00     0.054 A 
BRANCH  91  92
ATOM     92  S   UNL     1      -5.020  25.596  -1.224  1.00  0.00     0.124 S 
ATOM     93  O   UNL     1      -3.754  25.402  -1.925  1.00  0.00    -0.237 OA
ATOM     94  O   UNL     1      -6.214  25.582  -2.065  1.00  0.00    -0.237 OA
ATOM     95  O   UNL     1      -5.008  26.627  -0.189  1.00  0.00    -0.744 OA
ENDBRANCH  91  92
ENDBRANCH  65  86
ENDBRANCH  39  40
ENDBRANCH  32  34
ENDBRANCH  31  32
ENDBRANCH  30  31
ENDBRANCH  29  30
ENDBRANCH   1  29
TORSDOF 21
