REMARK SMILES CC1CCN(S(=O)(=O)c2ccc(C(=O)N3CCC[C@@H]3C(=O)OCCOCCOC(=O)c3ccc(-c4c5nc(c(-c6ccc(S(=O)(=O)[O-])cc6)c6ccc([nH]6)c(-c6ccc(S(=O)(=O)[O-])cc6)c6nc(c(-c7ccc(S(=O)(=O)[O-])cc7)c7ccc4[nH]7)C=C6)C=C5)cc3)cc2)CC1
REMARK SMILES IDX 24 1 23 2 22 3 20 4 21 5 19 6 15 7 16 8 17 9 18 10 13 11
REMARK SMILES IDX 14 12 12 13 9 14 10 15 92 16 11 17 91 18 6 19 7 20 8 21 5 22
REMARK SMILES IDX 1 23 2 24 3 25 94 26 4 27 93 28 25 29 26 30 27 31 28 32
REMARK SMILES IDX 29 33 30 34 31 35 32 36 90 37 33 38 89 39 34 40 35 41 36 42
REMARK SMILES IDX 83 43 37 44 88 45 82 46 84 47 38 48 87 49 81 50 80 51 39 53
REMARK SMILES IDX 69 54 50 55 68 56 51 57 54 58 67 59 85 60 52 61 53 62 66 64
REMARK SMILES IDX 86 65 55 66 40 67 41 68 49 69 42 70 48 71 43 72 44 73 45 74
REMARK SMILES IDX 46 75 47 76 70 77 71 78 79 79 72 80 78 81 73 82 74 83 75 84
REMARK SMILES IDX 76 85 77 86 56 87 57 88 65 89 58 90 64 91 59 92 60 93 61 94
REMARK SMILES IDX 62 95 63 96
REMARK H PARENT 84 52 54 63
REMARK Flexibility Score: inf
ROOT
ATOM      1  C   UNL     1       6.751  -6.227   0.384  1.00  0.00     0.202 C 
ENDROOT
BRANCH   1   2
ATOM      2  C   UNL     1       6.220  -5.300  -0.714  1.00  0.00     0.261 C 
BRANCH   2   3
ATOM      3  O   UNL     1       5.301  -5.962  -1.603  1.00  0.00    -0.462 OA
BRANCH   3   4
ATOM      4  C   UNL     1       5.813  -6.282  -2.825  1.00  0.00     0.328 C 
ATOM      5  O   UNL     1       6.965  -6.061  -3.179  1.00  0.00    -0.250 OA
BRANCH   4   6
ATOM      6  C   UNL     1       4.782  -6.961  -3.734  1.00  0.00     0.195 C 
ATOM      7  N   UNL     1       3.741  -6.039  -4.153  1.00  0.00    -0.325 N 
ATOM      8  C   UNL     1       2.538  -6.791  -4.441  1.00  0.00     0.121 C 
ATOM      9  C   UNL     1       2.515  -7.772  -3.289  1.00  0.00     0.024 C 
ATOM     10  C   UNL     1       3.997  -8.123  -3.094  1.00  0.00     0.039 C 
BRANCH   7  11
ATOM     11  C   UNL     1       4.083  -4.867  -4.792  1.00  0.00     0.254 C 
ATOM     12  O   UNL     1       4.955  -4.801  -5.648  1.00  0.00    -0.269 OA
BRANCH  11  13
ATOM     13  C   UNL     1       3.501  -3.634  -4.178  1.00  0.00     0.040 A 
ATOM     14  C   UNL     1       2.489  -1.315  -2.979  1.00  0.00     0.082 A 
ATOM     15  C   UNL     1       3.674  -1.251  -3.717  1.00  0.00     0.022 A 
ATOM     16  C   UNL     1       1.811  -2.526  -2.853  1.00  0.00     0.022 A 
ATOM     17  C   UNL     1       4.170  -2.411  -4.330  1.00  0.00     0.015 A 
ATOM     18  C   UNL     1       2.342  -3.685  -3.399  1.00  0.00     0.015 A 
BRANCH  14  19
ATOM     19  S   UNL     1       1.676   0.168  -2.421  1.00  0.00     0.243 S 
ATOM     20  O   UNL     1       0.331   0.072  -2.946  1.00  0.00    -0.207 OA
ATOM     21  O   UNL     1       2.530   1.279  -2.795  1.00  0.00    -0.207 OA
BRANCH  19  22
ATOM     22  N   UNL     1       1.639   0.095  -0.710  1.00  0.00    -0.198 NA
ATOM     23  C   UNL     1      -2.606  -0.051  -0.118  1.00  0.00     0.008 C 
ATOM     24  C   UNL     1      -1.133   0.015   0.287  1.00  0.00    -0.012 C 
ATOM     25  C   UNL     1      -0.485   1.314  -0.223  1.00  0.00     0.020 C 
ATOM     26  C   UNL     1      -0.394  -1.240  -0.183  1.00  0.00     0.020 C 
ATOM     27  C   UNL     1       1.038   1.325  -0.079  1.00  0.00     0.103 C 
ATOM     28  C   UNL     1       1.111  -1.098  -0.007  1.00  0.00     0.103 C 
ENDBRANCH  19  22
ENDBRANCH  14  19
ENDBRANCH  11  13
ENDBRANCH   7  11
ENDBRANCH   4   6
ENDBRANCH   3   4
ENDBRANCH   2   3
ENDBRANCH   1   2
BRANCH   1  29
ATOM     29  O   UNL     1       7.583  -7.309  -0.036  1.00  0.00    -0.374 OA
BRANCH  29  30
ATOM     30  C   UNL     1       6.940  -8.459  -0.579  1.00  0.00     0.202 C 
BRANCH  30  31
ATOM     31  C   UNL     1       6.287  -9.417   0.423  1.00  0.00     0.261 C 
BRANCH  31  32
ATOM     32  O   UNL     1       5.198  -8.801   1.135  1.00  0.00    -0.460 OA
BRANCH  32  33
ATOM     33  C   UNL     1       5.423  -8.639   2.464  1.00  0.00     0.338 C 
ATOM     34  O   UNL     1       6.378  -9.054   3.100  1.00  0.00    -0.246 OA
BRANCH  33  35
ATOM     35  C   UNL     1       4.426  -7.724   3.055  1.00  0.00     0.060 A 
ATOM     36  C   UNL     1       4.917  -6.670   3.834  1.00  0.00     0.016 A 
ATOM     37  C   UNL     1       3.049  -7.935   2.938  1.00  0.00     0.016 A 
ATOM     38  C   UNL     1       4.038  -5.863   4.553  1.00  0.00     0.010 A 
ATOM     39  C   UNL     1       2.167  -7.126   3.669  1.00  0.00     0.010 A 
ATOM     40  C   UNL     1       2.660  -6.115   4.513  1.00  0.00    -0.014 A 
BRANCH  40  41
ATOM     41  C   UNL     1       1.780  -5.421   5.488  1.00  0.00     0.031 A 
ATOM     42  C   UNL     1       1.418  -6.121   6.774  1.00  0.00     0.074 A 
ATOM     43  C   UNL     1       1.377  -4.154   5.278  1.00  0.00     0.049 A 
ATOM     44  N   UNL     1       0.744  -5.669   7.801  1.00  0.00    -0.248 NA
ATOM     45  C   UNL     1       1.881  -7.511   6.922  1.00  0.00     0.031 C 
ATOM     46  C   UNL     1       1.687  -3.342   4.101  1.00  0.00     0.029 A 
ATOM     47  N   UNL     1       0.631  -3.321   6.073  1.00  0.00    -0.354 N 
ATOM     48  C   UNL     1       0.701  -6.716   8.716  1.00  0.00     0.074 A 
ATOM     49  C   UNL     1       1.391  -7.834   8.111  1.00  0.00     0.031 C 
ATOM     50  C   UNL     1       1.151  -2.118   4.261  1.00  0.00     0.029 A 
ATOM     51  C   UNL     1       0.452  -2.066   5.543  1.00  0.00     0.049 A 
ATOM     52  H   UNL     1       0.259  -3.596   6.942  1.00  0.00     0.167 HD
ATOM     53  C   UNL     1       0.146  -6.746   9.952  1.00  0.00     0.031 A 
ATOM     54  C   UNL     1      -0.197  -0.996   6.040  1.00  0.00     0.031 A 
ATOM     55  C   UNL     1      -0.547  -5.643  10.561  1.00  0.00     0.049 A 
ATOM     56  C   UNL     1      -0.860  -1.076   7.386  1.00  0.00     0.074 A 
ATOM     57  C   UNL     1      -1.115  -5.572  11.823  1.00  0.00     0.029 A 
ATOM     58  N   UNL     1      -0.778  -4.421   9.952  1.00  0.00    -0.354 N 
ATOM     59  N   UNL     1      -0.884  -2.072   8.235  1.00  0.00    -0.248 NA
ATOM     60  C   UNL     1      -1.579   0.126   7.835  1.00  0.00     0.031 C 
ATOM     61  C   UNL     1      -1.733  -4.323  11.956  1.00  0.00     0.029 A 
ATOM     62  C   UNL     1      -1.506  -3.600  10.797  1.00  0.00     0.049 A 
ATOM     63  H   UNL     1      -0.470  -4.172   9.050  1.00  0.00     0.167 HD
ATOM     64  C   UNL     1      -1.609  -1.612   9.329  1.00  0.00     0.074 A 
ATOM     65  C   UNL     1      -1.996  -0.247   9.036  1.00  0.00     0.031 C 
ATOM     66  C   UNL     1      -1.918  -2.259  10.479  1.00  0.00     0.031 A 
BRANCH  53  67
ATOM     67  C   UNL     1       0.238  -8.037  10.719  1.00  0.00    -0.014 A 
ATOM     68  C   UNL     1       1.448  -8.455  11.302  1.00  0.00     0.010 A 
ATOM     69  C   UNL     1      -0.913  -8.827  10.886  1.00  0.00     0.010 A 
ATOM     70  C   UNL     1       1.513  -9.662  12.004  1.00  0.00     0.020 A 
ATOM     71  C   UNL     1      -0.857 -10.023  11.606  1.00  0.00     0.020 A 
ATOM     72  C   UNL     1       0.361 -10.442  12.145  1.00  0.00     0.054 A 
BRANCH  72  73
ATOM     73  S   UNL     1       0.467 -11.999  13.069  1.00  0.00     0.124 S 
ATOM     74  O   UNL     1       1.127 -12.875  12.104  1.00  0.00    -0.237 OA
ATOM     75  O   UNL     1       1.267 -11.631  14.234  1.00  0.00    -0.237 OA
ATOM     76  O   UNL     1      -0.928 -12.327  13.354  1.00  0.00    -0.744 OA
ENDBRANCH  72  73
ENDBRANCH  53  67
BRANCH  54  77
ATOM     77  C   UNL     1      -0.274   0.265   5.264  1.00  0.00    -0.014 A 
ATOM     78  C   UNL     1       0.581   1.339   5.564  1.00  0.00     0.010 A 
ATOM     79  C   UNL     1      -1.252   0.415   4.268  1.00  0.00     0.010 A 
ATOM     80  C   UNL     1       0.461   2.547   4.873  1.00  0.00     0.020 A 
ATOM     81  C   UNL     1      -1.376   1.624   3.580  1.00  0.00     0.020 A 
ATOM     82  C   UNL     1      -0.513   2.678   3.880  1.00  0.00     0.054 A 
BRANCH  82  83
ATOM     83  S   UNL     1      -0.611   4.236   2.958  1.00  0.00     0.124 S 
ATOM     84  O   UNL     1      -0.915   5.199   4.010  1.00  0.00    -0.237 OA
ATOM     85  O   UNL     1       0.728   4.320   2.378  1.00  0.00    -0.237 OA
ATOM     86  O   UNL     1      -1.683   3.997   1.996  1.00  0.00    -0.744 OA
ENDBRANCH  82  83
ENDBRANCH  54  77
BRANCH  66  87
ATOM     87  C   UNL     1      -2.709  -1.490  11.501  1.00  0.00    -0.014 A 
ATOM     88  C   UNL     1      -4.079  -1.232  11.312  1.00  0.00     0.010 A 
ATOM     89  C   UNL     1      -2.074  -1.022  12.665  1.00  0.00     0.010 A 
ATOM     90  C   UNL     1      -4.790  -0.479  12.250  1.00  0.00     0.020 A 
ATOM     91  C   UNL     1      -2.787  -0.289  13.616  1.00  0.00     0.020 A 
ATOM     92  C   UNL     1      -4.137  -0.005  13.392  1.00  0.00     0.054 A 
BRANCH  92  93
ATOM     93  S   UNL     1      -5.078   0.961  14.604  1.00  0.00     0.124 S 
ATOM     94  O   UNL     1      -5.133   2.274  13.967  1.00  0.00    -0.237 OA
ATOM     95  O   UNL     1      -6.349   0.243  14.675  1.00  0.00    -0.237 OA
ATOM     96  O   UNL     1      -4.261   0.887  15.813  1.00  0.00    -0.744 OA
ENDBRANCH  92  93
ENDBRANCH  66  87
ENDBRANCH  40  41
ENDBRANCH  33  35
ENDBRANCH  32  33
ENDBRANCH  31  32
ENDBRANCH  30  31
ENDBRANCH  29  30
ENDBRANCH   1  29
TORSDOF 21
