REMARK SMILES CCn1c(SCC(=O)OCCOCCOC(=O)c2ccc(-c3c4nc(c(-c5ccc(S(=O)(=O)[O-])cc5)c5ccc([nH]5)c(-c5ccc(S(=O)(=O)[O-])cc5)c5nc(c(-c6ccc(S(=O)(=O)[O-])cc6)c6ccc3[nH]6)C=C5)C=C4)cc2)nc2ccc(C)cc2c1=O
REMARK SMILES IDX 12 1 11 2 10 3 9 4 7 5 8 6 6 7 5 8 4 9 3 10 86 11 78 12
REMARK SMILES IDX 85 13 87 14 79 15 84 16 80 17 82 18 81 19 83 20 2 21 1 22
REMARK SMILES IDX 13 23 14 24 15 25 16 26 17 27 18 28 19 29 77 30 20 31 76 32
REMARK SMILES IDX 21 33 22 34 23 35 70 36 24 37 75 38 69 39 71 40 25 41 74 42
REMARK SMILES IDX 68 43 67 44 26 46 56 47 37 48 55 49 38 50 41 51 54 52 72 53
REMARK SMILES IDX 39 54 40 55 53 57 73 58 42 59 27 60 28 61 36 62 29 63 35 64
REMARK SMILES IDX 30 65 31 66 32 67 33 68 34 69 57 70 58 71 66 72 59 73 65 74
REMARK SMILES IDX 60 75 61 76 62 77 63 78 64 79 43 80 44 81 52 82 45 83 51 84
REMARK SMILES IDX 46 85 47 86 48 87 49 88 50 89
REMARK H PARENT 71 45 41 56
REMARK Flexibility Score: inf
ROOT
ATOM      1  O   UNL     1      -2.471  -1.181   3.351  1.00  0.00    -0.374 OA
ENDROOT
BRANCH   1   2
ATOM      2  C   UNL     1      -1.877  -1.949   4.400  1.00  0.00     0.202 C 
BRANCH   2   3
ATOM      3  C   UNL     1      -0.644  -2.799   4.064  1.00  0.00     0.261 C 
BRANCH   3   4
ATOM      4  O   UNL     1       0.552  -2.018   3.824  1.00  0.00    -0.463 OA
BRANCH   4   5
ATOM      5  C   UNL     1       1.248  -2.333   2.697  1.00  0.00     0.316 C 
ATOM      6  O   UNL     1       0.868  -3.149   1.861  1.00  0.00    -0.251 OA
BRANCH   5   7
ATOM      7  C   UNL     1       2.585  -1.638   2.535  1.00  0.00     0.200 C 
BRANCH   7   8
ATOM      8  S   UNL     1       2.791  -0.040   3.272  1.00  0.00    -0.076 SA
BRANCH   8   9
ATOM      9  C   UNL     1       2.192   1.339   2.380  1.00  0.00     0.171 A 
ATOM     10  N   UNL     1       1.374   1.352   1.254  1.00  0.00    -0.287 N 
ATOM     11  C   UNL     1       0.765   2.557   0.849  1.00  0.00     0.262 A 
ATOM     12  N   UNL     1       2.543   2.429   2.991  1.00  0.00    -0.224 NA
ATOM     13  C   UNL     1       1.050   3.766   1.630  1.00  0.00     0.066 A 
ATOM     14  O   UNL     1      -0.024   2.645  -0.091  1.00  0.00    -0.269 OA
ATOM     15  C   UNL     1       1.998   3.658   2.630  1.00  0.00     0.079 A 
ATOM     16  C   UNL     1       0.360   4.966   1.408  1.00  0.00     0.019 A 
ATOM     17  C   UNL     1       2.316   4.794   3.379  1.00  0.00     0.029 A 
ATOM     18  C   UNL     1       0.656   6.098   2.177  1.00  0.00    -0.050 A 
ATOM     19  C   UNL     1       1.651   6.006   3.156  1.00  0.00     0.006 A 
ATOM     20  C   UNL     1      -0.139   7.359   2.003  1.00  0.00     0.044 C 
BRANCH  10  21
ATOM     21  C   UNL     1       0.984   0.219   0.422  1.00  0.00     0.125 C 
ATOM     22  C   UNL     1       1.794   0.112  -0.858  1.00  0.00     0.028 C 
ENDBRANCH  10  21
ENDBRANCH   8   9
ENDBRANCH   7   8
ENDBRANCH   5   7
ENDBRANCH   4   5
ENDBRANCH   3   4
ENDBRANCH   2   3
ENDBRANCH   1   2
BRANCH   1  23
ATOM     23  C   UNL     1      -1.646  -0.238   2.684  1.00  0.00     0.202 C 
BRANCH  23  24
ATOM     24  C   UNL     1      -1.276   1.047   3.431  1.00  0.00     0.261 C 
BRANCH  24  25
ATOM     25  O   UNL     1      -0.950   0.852   4.800  1.00  0.00    -0.460 OA
BRANCH  25  26
ATOM     26  C   UNL     1      -1.889   1.316   5.655  1.00  0.00     0.338 C 
ATOM     27  O   UNL     1      -2.904   1.940   5.391  1.00  0.00    -0.246 OA
BRANCH  26  28
ATOM     28  C   UNL     1      -1.591   0.756   6.975  1.00  0.00     0.060 A 
ATOM     29  C   UNL     1      -0.365   0.988   7.600  1.00  0.00     0.016 A 
ATOM     30  C   UNL     1      -2.570  -0.053   7.563  1.00  0.00     0.016 A 
ATOM     31  C   UNL     1      -0.131   0.424   8.852  1.00  0.00     0.010 A 
ATOM     32  C   UNL     1      -2.334  -0.614   8.810  1.00  0.00     0.010 A 
ATOM     33  C   UNL     1      -1.125  -0.357   9.470  1.00  0.00    -0.014 A 
BRANCH  33  34
ATOM     34  C   UNL     1      -0.979  -0.771  10.881  1.00  0.00     0.031 A 
ATOM     35  C   UNL     1      -0.711  -2.195  11.251  1.00  0.00     0.074 A 
ATOM     36  C   UNL     1      -1.152   0.177  11.822  1.00  0.00     0.049 A 
ATOM     37  N   UNL     1      -0.543  -2.707  12.441  1.00  0.00    -0.248 NA
ATOM     38  C   UNL     1      -0.629  -3.173  10.155  1.00  0.00     0.031 C 
ATOM     39  C   UNL     1      -1.446   1.586  11.543  1.00  0.00     0.029 A 
ATOM     40  N   UNL     1      -1.097   0.112  13.189  1.00  0.00    -0.354 N 
ATOM     41  C   UNL     1      -0.318  -4.062  12.242  1.00  0.00     0.074 A 
ATOM     42  C   UNL     1      -0.420  -4.304  10.819  1.00  0.00     0.031 C 
ATOM     43  C   UNL     1      -1.496   2.260  12.700  1.00  0.00     0.029 A 
ATOM     44  C   UNL     1      -1.286   1.328  13.802  1.00  0.00     0.049 A 
ATOM     45  H   UNL     1      -0.937  -0.724  13.684  1.00  0.00     0.167 HD
ATOM     46  C   UNL     1      -0.032  -5.004  13.171  1.00  0.00     0.031 A 
ATOM     47  C   UNL     1      -1.281   1.659  15.107  1.00  0.00     0.031 A 
ATOM     48  C   UNL     1       0.051  -4.731  14.585  1.00  0.00     0.049 A 
ATOM     49  C   UNL     1      -1.000   0.581  16.116  1.00  0.00     0.074 A 
ATOM     50  C   UNL     1       0.368  -5.608  15.607  1.00  0.00     0.029 A 
ATOM     51  N   UNL     1      -0.182  -3.497  15.177  1.00  0.00    -0.354 N 
ATOM     52  N   UNL     1      -0.721  -0.684  15.908  1.00  0.00    -0.248 NA
ATOM     53  C   UNL     1      -1.018   0.974  17.530  1.00  0.00     0.031 C 
ATOM     54  C   UNL     1       0.248  -4.926  16.820  1.00  0.00     0.029 A 
ATOM     55  C   UNL     1      -0.052  -3.600  16.553  1.00  0.00     0.049 A 
ATOM     56  H   UNL     1      -0.407  -2.671  14.692  1.00  0.00     0.167 HD
ATOM     57  C   UNL     1      -0.506  -1.235  17.165  1.00  0.00     0.074 A 
ATOM     58  C   UNL     1      -0.661  -0.158  18.123  1.00  0.00     0.031 C 
ATOM     59  C   UNL     1      -0.213  -2.517  17.495  1.00  0.00     0.031 A 
BRANCH  46  60
ATOM     60  C   UNL     1       0.246  -6.414  12.715  1.00  0.00    -0.014 A 
ATOM     61  C   UNL     1      -0.594  -7.466  13.126  1.00  0.00     0.010 A 
ATOM     62  C   UNL     1       1.431  -6.720  12.021  1.00  0.00     0.010 A 
ATOM     63  C   UNL     1      -0.227  -8.797  12.905  1.00  0.00     0.020 A 
ATOM     64  C   UNL     1       1.786  -8.049  11.771  1.00  0.00     0.020 A 
ATOM     65  C   UNL     1       0.971  -9.079  12.244  1.00  0.00     0.054 A 
BRANCH  65  66
ATOM     66  S   UNL     1       1.471 -10.812  12.043  1.00  0.00     0.124 S 
ATOM     67  O   UNL     1       1.816 -11.194  13.408  1.00  0.00    -0.237 OA
ATOM     68  O   UNL     1       0.263 -11.429  11.499  1.00  0.00    -0.237 OA
ATOM     69  O   UNL     1       2.595 -10.738  11.111  1.00  0.00    -0.744 OA
ENDBRANCH  65  66
ENDBRANCH  46  60
BRANCH  47  70
ATOM     70  C   UNL     1      -1.473   3.082  15.503  1.00  0.00    -0.014 A 
ATOM     71  C   UNL     1      -2.688   3.745  15.247  1.00  0.00     0.010 A 
ATOM     72  C   UNL     1      -0.405   3.809  16.057  1.00  0.00     0.010 A 
ATOM     73  C   UNL     1      -2.813   5.117  15.483  1.00  0.00     0.020 A 
ATOM     74  C   UNL     1      -0.538   5.174  16.331  1.00  0.00     0.020 A 
ATOM     75  C   UNL     1      -1.732   5.825  16.014  1.00  0.00     0.054 A 
BRANCH  75  76
ATOM     76  S   UNL     1      -1.902   7.613  16.266  1.00  0.00     0.124 S 
ATOM     77  O   UNL     1      -1.863   8.114  14.894  1.00  0.00    -0.237 OA
ATOM     78  O   UNL     1      -3.195   7.717  16.937  1.00  0.00    -0.237 OA
ATOM     79  O   UNL     1      -0.746   7.955  17.089  1.00  0.00    -0.744 OA
ENDBRANCH  75  76
ENDBRANCH  47  70
BRANCH  59  80
ATOM     80  C   UNL     1      -0.041  -2.847  18.957  1.00  0.00    -0.014 A 
ATOM     81  C   UNL     1       1.206  -3.294  19.432  1.00  0.00     0.010 A 
ATOM     82  C   UNL     1      -1.140  -2.829  19.835  1.00  0.00     0.010 A 
ATOM     83  C   UNL     1       1.344  -3.754  20.743  1.00  0.00     0.020 A 
ATOM     84  C   UNL     1      -0.996  -3.249  21.160  1.00  0.00     0.020 A 
ATOM     85  C   UNL     1       0.238  -3.735  21.597  1.00  0.00     0.054 A 
BRANCH  85  86
ATOM     86  S   UNL     1       0.429  -4.363  23.287  1.00  0.00     0.124 S 
ATOM     87  O   UNL     1       0.492  -5.806  23.074  1.00  0.00    -0.237 OA
ATOM     88  O   UNL     1       1.675  -3.735  23.723  1.00  0.00    -0.237 OA
ATOM     89  O   UNL     1      -0.771  -3.885  23.969  1.00  0.00    -0.744 OA
ENDBRANCH  85  86
ENDBRANCH  59  80
ENDBRANCH  33  34
ENDBRANCH  26  28
ENDBRANCH  25  26
ENDBRANCH  24  25
ENDBRANCH  23  24
ENDBRANCH   1  23
TORSDOF 20
