REMARK SMILES CC(C)(C)OC(=O)N[C@H](c1ccccc1)[C@@H](O)CC(=O)OCCOCCOC(=O)c1ccc(-c2c3nc(c(-c4ccc(S(=O)(=O)[O-])cc4)c4ccc([nH]4)c(-c4ccc(S(=O)(=O)[O-])cc4)c4nc(c(-c5ccc(S(=O)(=O)[O-])cc5)c5ccc2[nH]5)C=C4)C=C3)cc1
REMARK SMILES IDX 23 1 22 2 21 3 19 4 20 5 18 6 16 7 9 8 8 9 6 10 7 11 5 13
REMARK SMILES IDX 2 14 1 15 3 16 4 17 10 18 11 19 15 20 12 21 14 22 13 23
REMARK SMILES IDX 17 24 24 26 25 27 26 28 27 29 28 30 29 31 30 32 31 33 89 34
REMARK SMILES IDX 32 35 88 36 33 37 34 38 35 39 82 40 36 41 87 42 81 43 83 44
REMARK SMILES IDX 37 45 86 46 80 47 79 48 38 50 68 51 49 52 67 53 50 54 53 55
REMARK SMILES IDX 66 56 84 57 51 58 52 59 65 61 85 62 54 63 39 64 40 65 48 66
REMARK SMILES IDX 41 67 47 68 42 69 43 70 44 71 45 72 46 73 69 74 70 75 78 76
REMARK SMILES IDX 71 77 77 78 72 79 73 80 74 81 75 82 76 83 55 84 56 85 64 86
REMARK SMILES IDX 57 87 63 88 58 89 59 90 60 91 61 92 62 93
REMARK H PARENT 8 12 17 25 83 49 53 60
REMARK Flexibility Score: inf
ROOT
ATOM      1  C   UNL     1       5.590   3.917   6.526  1.00  0.00     0.202 C 
ENDROOT
BRANCH   1   2
ATOM      2  C   UNL     1       5.515   2.401   6.327  1.00  0.00     0.261 C 
BRANCH   2   3
ATOM      3  O   UNL     1       4.237   2.025   5.765  1.00  0.00    -0.463 OA
BRANCH   3   4
ATOM      4  C   UNL     1       3.355   1.379   6.565  1.00  0.00     0.308 C 
ATOM      5  O   UNL     1       3.564   1.075   7.732  1.00  0.00    -0.252 OA
BRANCH   4   6
ATOM      6  C   UNL     1       2.075   1.035   5.833  1.00  0.00     0.157 C 
BRANCH   6   7
ATOM      7  C   UNL     1       1.275   2.192   5.201  1.00  0.00     0.152 C 
BRANCH   7   8
ATOM      8  C   UNL     1       1.710   2.551   3.739  1.00  0.00     0.145 C 
BRANCH   8   9
ATOM      9  N   UNL     1       3.060   3.069   3.683  1.00  0.00    -0.312 N 
ATOM     10  C   UNL     1       3.814   3.311   2.582  1.00  0.00     0.408 C 
ATOM     11  O   UNL     1       4.976   3.679   2.727  1.00  0.00    -0.225 OA
ATOM     12  H   UNL     1       3.482   3.270   4.550  1.00  0.00     0.167 HD
BRANCH  10  13
ATOM     13  O   UNL     1       3.144   3.148   1.417  1.00  0.00    -0.444 OA
BRANCH  13  14
ATOM     14  C   UNL     1       3.702   3.664   0.181  1.00  0.00     0.106 C 
ATOM     15  C   UNL     1       2.651   3.457  -0.912  1.00  0.00     0.056 C 
ATOM     16  C   UNL     1       4.979   2.917  -0.199  1.00  0.00     0.056 C 
ATOM     17  C   UNL     1       3.929   5.163   0.301  1.00  0.00     0.056 C 
ENDBRANCH  13  14
ENDBRANCH  10  13
ENDBRANCH   8   9
BRANCH   8  18
ATOM     18  C   UNL     1       0.757   3.545   3.071  1.00  0.00    -0.023 A 
ATOM     19  C   UNL     1       0.716   4.901   3.437  1.00  0.00     0.006 A 
ATOM     20  C   UNL     1      -0.025   3.118   1.985  1.00  0.00     0.006 A 
ATOM     21  C   UNL     1      -0.062   5.807   2.712  1.00  0.00     0.000 A 
ATOM     22  C   UNL     1      -0.799   4.026   1.262  1.00  0.00     0.000 A 
ATOM     23  C   UNL     1      -0.812   5.371   1.620  1.00  0.00     0.000 A 
ENDBRANCH   8  18
ENDBRANCH   7   8
BRANCH   7  24
ATOM     24  O   UNL     1      -0.103   1.764   5.219  1.00  0.00    -0.390 OA
ATOM     25  H   UNL     1      -0.196   0.951   4.698  1.00  0.00     0.211 HD
ENDBRANCH   7  24
ENDBRANCH   6   7
ENDBRANCH   4   6
ENDBRANCH   3   4
ENDBRANCH   2   3
ENDBRANCH   1   2
BRANCH   1  26
ATOM     26  O   UNL     1       4.837   4.411   7.637  1.00  0.00    -0.374 OA
BRANCH  26  27
ATOM     27  C   UNL     1       3.453   4.646   7.399  1.00  0.00     0.202 C 
BRANCH  27  28
ATOM     28  C   UNL     1       3.097   6.011   6.798  1.00  0.00     0.261 C 
BRANCH  28  29
ATOM     29  O   UNL     1       3.708   6.227   5.515  1.00  0.00    -0.460 OA
BRANCH  29  30
ATOM     30  C   UNL     1       4.847   6.970   5.545  1.00  0.00     0.338 C 
ATOM     31  O   UNL     1       5.355   7.493   6.521  1.00  0.00    -0.246 OA
BRANCH  30  32
ATOM     32  C   UNL     1       5.484   6.958   4.214  1.00  0.00     0.060 A 
ATOM     33  C   UNL     1       6.796   6.484   4.086  1.00  0.00     0.016 A 
ATOM     34  C   UNL     1       4.810   7.445   3.102  1.00  0.00     0.016 A 
ATOM     35  C   UNL     1       7.434   6.475   2.834  1.00  0.00     0.010 A 
ATOM     36  C   UNL     1       5.456   7.434   1.861  1.00  0.00     0.010 A 
ATOM     37  C   UNL     1       6.771   6.936   1.690  1.00  0.00    -0.014 A 
BRANCH  37  38
ATOM     38  C   UNL     1       7.411   6.953   0.324  1.00  0.00     0.031 A 
ATOM     39  C   UNL     1       7.399   8.240  -0.475  1.00  0.00     0.074 A 
ATOM     40  C   UNL     1       7.930   5.851  -0.270  1.00  0.00     0.049 A 
ATOM     41  N   UNL     1       7.730   8.450  -1.725  1.00  0.00    -0.248 NA
ATOM     42  C   UNL     1       6.903   9.441   0.218  1.00  0.00     0.031 C 
ATOM     43  C   UNL     1       8.023   4.515   0.319  1.00  0.00     0.029 A 
ATOM     44  N   UNL     1       8.454   5.675  -1.538  1.00  0.00    -0.354 N 
ATOM     45  C   UNL     1       7.446   9.790  -1.967  1.00  0.00     0.074 A 
ATOM     46  C   UNL     1       6.811  10.307  -0.777  1.00  0.00     0.031 C 
ATOM     47  C   UNL     1       8.543   3.661  -0.583  1.00  0.00     0.029 A 
ATOM     48  C   UNL     1       8.811   4.374  -1.829  1.00  0.00     0.049 A 
ATOM     49  H   UNL     1       8.563   6.415  -2.179  1.00  0.00     0.167 HD
ATOM     50  C   UNL     1       7.742  10.556  -3.045  1.00  0.00     0.031 A 
ATOM     51  C   UNL     1       9.289   3.807  -2.959  1.00  0.00     0.031 A 
ATOM     52  C   UNL     1       8.445  10.091  -4.207  1.00  0.00     0.049 A 
ATOM     53  C   UNL     1       9.587   4.664  -4.167  1.00  0.00     0.074 A 
ATOM     54  C   UNL     1       8.887  10.829  -5.291  1.00  0.00     0.029 A 
ATOM     55  N   UNL     1       8.821   8.779  -4.434  1.00  0.00    -0.354 N 
ATOM     56  N   UNL     1       9.400   5.952  -4.331  1.00  0.00    -0.248 NA
ATOM     57  C   UNL     1      10.200   3.998  -5.330  1.00  0.00     0.031 C 
ATOM     58  C   UNL     1       9.483   9.953  -6.202  1.00  0.00     0.029 A 
ATOM     59  C   UNL     1       9.470   8.681  -5.653  1.00  0.00     0.049 A 
ATOM     60  H   UNL     1       8.652   8.027  -3.821  1.00  0.00     0.167 HD
ATOM     61  C   UNL     1       9.929   6.256  -5.584  1.00  0.00     0.074 A 
ATOM     62  C   UNL     1      10.435   5.021  -6.140  1.00  0.00     0.031 C 
ATOM     63  C   UNL     1      10.001   7.460  -6.203  1.00  0.00     0.031 A 
BRANCH  50  64
ATOM     64  C   UNL     1       7.340  12.007  -2.987  1.00  0.00    -0.014 A 
ATOM     65  C   UNL     1       7.941  12.886  -2.066  1.00  0.00     0.010 A 
ATOM     66  C   UNL     1       6.369  12.502  -3.874  1.00  0.00     0.010 A 
ATOM     67  C   UNL     1       7.528  14.216  -1.985  1.00  0.00     0.020 A 
ATOM     68  C   UNL     1       5.983  13.845  -3.825  1.00  0.00     0.020 A 
ATOM     69  C   UNL     1       6.549  14.686  -2.864  1.00  0.00     0.054 A 
BRANCH  69  70
ATOM     70  S   UNL     1       6.046  16.423  -2.744  1.00  0.00     0.124 S 
ATOM     71  O   UNL     1       5.279  16.427  -1.500  1.00  0.00    -0.237 OA
ATOM     72  O   UNL     1       7.327  17.123  -2.693  1.00  0.00    -0.237 OA
ATOM     73  O   UNL     1       5.265  16.643  -3.958  1.00  0.00    -0.744 OA
ENDBRANCH  69  70
ENDBRANCH  50  64
BRANCH  51  74
ATOM     74  C   UNL     1       9.564   2.338  -3.017  1.00  0.00    -0.014 A 
ATOM     75  C   UNL     1      10.887   1.858  -3.054  1.00  0.00     0.010 A 
ATOM     76  C   UNL     1       8.506   1.412  -3.085  1.00  0.00     0.010 A 
ATOM     77  C   UNL     1      11.147   0.489  -3.184  1.00  0.00     0.020 A 
ATOM     78  C   UNL     1       8.762   0.038  -3.189  1.00  0.00     0.020 A 
ATOM     79  C   UNL     1      10.082  -0.414  -3.248  1.00  0.00     0.054 A 
BRANCH  79  80
ATOM     80  S   UNL     1      10.450  -2.188  -3.377  1.00  0.00     0.124 S 
ATOM     81  O   UNL     1      11.000  -2.290  -4.725  1.00  0.00    -0.237 OA
ATOM     82  O   UNL     1      11.402  -2.389  -2.288  1.00  0.00    -0.237 OA
ATOM     83  O   UNL     1       9.148  -2.823  -3.183  1.00  0.00    -0.744 OA
ENDBRANCH  79  80
ENDBRANCH  51  74
BRANCH  63  84
ATOM     84  C   UNL     1      10.715   7.546  -7.529  1.00  0.00    -0.014 A 
ATOM     85  C   UNL     1      10.162   7.007  -8.703  1.00  0.00     0.010 A 
ATOM     86  C   UNL     1      11.921   8.268  -7.612  1.00  0.00     0.010 A 
ATOM     87  C   UNL     1      10.810   7.175  -9.932  1.00  0.00     0.020 A 
ATOM     88  C   UNL     1      12.556   8.465  -8.842  1.00  0.00     0.020 A 
ATOM     89  C   UNL     1      11.999   7.909  -9.994  1.00  0.00     0.054 A 
BRANCH  89  90
ATOM     90  S   UNL     1      12.780   8.173 -11.611  1.00  0.00     0.124 S 
ATOM     91  O   UNL     1      13.294   6.843 -11.923  1.00  0.00    -0.237 OA
ATOM     92  O   UNL     1      11.661   8.624 -12.435  1.00  0.00    -0.237 OA
ATOM     93  O   UNL     1      13.798   9.187 -11.345  1.00  0.00    -0.744 OA
ENDBRANCH  89  90
ENDBRANCH  63  84
ENDBRANCH  37  38
ENDBRANCH  30  32
ENDBRANCH  29  30
ENDBRANCH  28  29
ENDBRANCH  27  28
ENDBRANCH  26  27
ENDBRANCH   1  26
TORSDOF 24
