REMARK SMILES Cc1cc(C)c2c(OCCCC(=O)OCCOCCOC(=O)c3ccc(-c4c5nc(c(-c6ccc(S(=O)(=O)[O-])cc6)c6ccc([nH]6)c(-c6ccc(S(=O)(=O)[O-])cc6)c6nc(c(-c7ccc(S(=O)(=O)[O-])cc7)c7ccc4[nH]7)C=C6)C=C5)cc3)nsc2n1
REMARK SMILES IDX 16 1 15 2 14 3 12 4 13 5 11 6 10 7 9 8 8 9 7 10 1 11 2 12
REMARK SMILES IDX 3 13 86 14 4 15 85 16 5 17 6 18 84 19 83 20 17 21 18 22
REMARK SMILES IDX 19 23 20 24 21 25 22 26 23 27 24 28 82 29 25 30 81 31 26 32
REMARK SMILES IDX 27 33 28 34 75 35 29 36 80 37 74 38 76 39 30 40 79 41 73 42
REMARK SMILES IDX 72 43 31 45 61 46 42 47 60 48 43 49 46 50 59 51 77 52 44 53
REMARK SMILES IDX 45 54 58 56 78 57 47 58 32 59 33 60 41 61 34 62 40 63 35 64
REMARK SMILES IDX 36 65 37 66 38 67 39 68 62 69 63 70 71 71 64 72 70 73 65 74
REMARK SMILES IDX 66 75 67 76 68 77 69 78 48 79 49 80 57 81 50 82 56 83 51 84
REMARK SMILES IDX 52 85 53 86 54 87 55 88
REMARK H PARENT 76 44 46 55
REMARK Flexibility Score: inf
ROOT
ATOM      1  C   UNL     1       3.564  -4.037   0.009  1.00  0.00     0.202 C 
ENDROOT
BRANCH   1   2
ATOM      2  C   UNL     1       2.361  -3.149   0.301  1.00  0.00     0.261 C 
BRANCH   2   3
ATOM      3  O   UNL     1       1.333  -3.760   1.135  1.00  0.00    -0.463 OA
BRANCH   3   4
ATOM      4  C   UNL     1       0.063  -3.421   0.791  1.00  0.00     0.305 C 
ATOM      5  O   UNL     1      -0.212  -2.802  -0.236  1.00  0.00    -0.252 OA
BRANCH   4   6
ATOM      6  C   UNL     1      -1.038  -3.747   1.792  1.00  0.00     0.126 C 
BRANCH   6   7
ATOM      7  C   UNL     1      -0.940  -4.872   2.819  1.00  0.00     0.053 C 
BRANCH   7   8
ATOM      8  C   UNL     1      -0.445  -4.612   4.256  1.00  0.00     0.232 C 
BRANCH   8   9
ATOM      9  O   UNL     1      -1.169  -3.745   5.113  1.00  0.00    -0.477 OA
BRANCH   9  10
ATOM     10  C   UNL     1      -1.137  -2.409   4.899  1.00  0.00     0.235 A 
ATOM     11  C   UNL     1       0.698   0.943   0.919  1.00  0.00     0.067 C 
ATOM     12  C   UNL     1       0.505   0.252   2.238  1.00  0.00     0.039 A 
ATOM     13  C   UNL     1       1.427  -0.698   2.656  1.00  0.00     0.027 A 
ATOM     14  N   UNL     1      -0.644   0.494   2.885  1.00  0.00    -0.240 NA
ATOM     15  C   UNL     1       1.110  -1.629   3.664  1.00  0.00    -0.034 A 
ATOM     16  C   UNL     1      -0.936  -0.412   3.835  1.00  0.00     0.147 A 
ATOM     17  C   UNL     1       2.171  -2.624   4.051  1.00  0.00     0.045 C 
ATOM     18  C   UNL     1      -0.211  -1.557   4.182  1.00  0.00     0.078 A 
ATOM     19  S   UNL     1      -2.347  -0.307   4.777  1.00  0.00    -0.012 S 
ATOM     20  N   UNL     1      -2.229  -1.831   5.401  1.00  0.00    -0.153 NA
ENDBRANCH   9  10
ENDBRANCH   8   9
ENDBRANCH   7   8
ENDBRANCH   6   7
ENDBRANCH   4   6
ENDBRANCH   3   4
ENDBRANCH   2   3
ENDBRANCH   1   2
BRANCH   1  21
ATOM     21  O   UNL     1       3.392  -5.020  -1.008  1.00  0.00    -0.374 OA
BRANCH  21  22
ATOM     22  C   UNL     1       2.236  -5.847  -0.960  1.00  0.00     0.202 C 
BRANCH  22  23
ATOM     23  C   UNL     1       2.229  -6.963   0.079  1.00  0.00     0.261 C 
BRANCH  23  24
ATOM     24  O   UNL     1       2.560  -6.507   1.385  1.00  0.00    -0.460 OA
BRANCH  24  25
ATOM     25  C   UNL     1       3.882  -6.595   1.657  1.00  0.00     0.338 C 
ATOM     26  O   UNL     1       4.784  -6.824   0.855  1.00  0.00    -0.246 OA
BRANCH  25  27
ATOM     27  C   UNL     1       4.105  -6.508   3.107  1.00  0.00     0.060 A 
ATOM     28  C   UNL     1       5.414  -6.800   3.495  1.00  0.00     0.016 A 
ATOM     29  C   UNL     1       3.007  -6.719   3.955  1.00  0.00     0.016 A 
ATOM     30  C   UNL     1       5.572  -7.688   4.528  1.00  0.00     0.010 A 
ATOM     31  C   UNL     1       3.170  -7.598   4.997  1.00  0.00     0.010 A 
ATOM     32  C   UNL     1       4.425  -8.180   5.157  1.00  0.00    -0.014 A 
BRANCH  32  33
ATOM     33  C   UNL     1       4.569  -9.423   5.880  1.00  0.00     0.031 A 
ATOM     34  C   UNL     1       5.237  -9.294   7.185  1.00  0.00     0.074 A 
ATOM     35  C   UNL     1       4.091 -10.588   5.406  1.00  0.00     0.049 A 
ATOM     36  N   UNL     1       6.381  -9.768   7.544  1.00  0.00    -0.248 NA
ATOM     37  C   UNL     1       4.596  -8.405   8.161  1.00  0.00     0.031 C 
ATOM     38  C   UNL     1       3.167 -10.814   4.290  1.00  0.00     0.029 A 
ATOM     39  N   UNL     1       4.247 -11.828   5.934  1.00  0.00    -0.354 N 
ATOM     40  C   UNL     1       6.546  -9.364   8.861  1.00  0.00     0.074 A 
ATOM     41  C   UNL     1       5.498  -8.410   9.139  1.00  0.00     0.031 C 
ATOM     42  C   UNL     1       2.649 -12.060   4.398  1.00  0.00     0.029 A 
ATOM     43  C   UNL     1       3.308 -12.748   5.497  1.00  0.00     0.049 A 
ATOM     44  H   UNL     1       4.964 -12.053   6.570  1.00  0.00     0.167 HD
ATOM     45  C   UNL     1       7.407  -9.972   9.718  1.00  0.00     0.031 A 
ATOM     46  C   UNL     1       3.026 -13.933   6.093  1.00  0.00     0.031 A 
ATOM     47  C   UNL     1       8.343 -10.835   9.056  1.00  0.00     0.049 A 
ATOM     48  C   UNL     1       4.180 -14.280   6.964  1.00  0.00     0.074 A 
ATOM     49  C   UNL     1       9.364 -10.638   8.148  1.00  0.00     0.029 A 
ATOM     50  N   UNL     1       8.051 -12.178   9.012  1.00  0.00    -0.354 N 
ATOM     51  N   UNL     1       5.367 -14.572   6.510  1.00  0.00    -0.248 NA
ATOM     52  C   UNL     1       4.138 -13.875   8.362  1.00  0.00     0.031 C 
ATOM     53  C   UNL     1       9.317 -11.769   7.282  1.00  0.00     0.029 A 
ATOM     54  C   UNL     1       8.292 -12.606   7.728  1.00  0.00     0.049 A 
ATOM     55  H   UNL     1       7.729 -12.731   9.760  1.00  0.00     0.167 HD
ATOM     56  C   UNL     1       6.254 -14.006   7.416  1.00  0.00     0.074 A 
ATOM     57  C   UNL     1       5.441 -13.678   8.584  1.00  0.00     0.031 C 
ATOM     58  C   UNL     1       7.505 -13.608   7.035  1.00  0.00     0.031 A 
BRANCH  45  59
ATOM     59  C   UNL     1       7.160 -10.001  11.194  1.00  0.00    -0.014 A 
ATOM     60  C   UNL     1       8.206 -10.295  12.082  1.00  0.00     0.010 A 
ATOM     61  C   UNL     1       5.848  -9.953  11.719  1.00  0.00     0.010 A 
ATOM     62  C   UNL     1       7.945 -10.536  13.438  1.00  0.00     0.020 A 
ATOM     63  C   UNL     1       5.585 -10.142  13.072  1.00  0.00     0.020 A 
ATOM     64  C   UNL     1       6.635 -10.461  13.920  1.00  0.00     0.054 A 
BRANCH  64  65
ATOM     65  S   UNL     1       6.299 -10.858  15.652  1.00  0.00     0.124 S 
ATOM     66  O   UNL     1       6.621 -12.281  15.701  1.00  0.00    -0.237 OA
ATOM     67  O   UNL     1       7.221  -9.973  16.359  1.00  0.00    -0.237 OA
ATOM     68  O   UNL     1       4.884 -10.530  15.812  1.00  0.00    -0.744 OA
ENDBRANCH  64  65
ENDBRANCH  45  59
BRANCH  46  69
ATOM     69  C   UNL     1       1.678 -14.526   6.269  1.00  0.00    -0.014 A 
ATOM     70  C   UNL     1       1.523 -15.858   6.692  1.00  0.00     0.010 A 
ATOM     71  C   UNL     1       0.537 -13.694   6.287  1.00  0.00     0.010 A 
ATOM     72  C   UNL     1       0.286 -16.322   7.172  1.00  0.00     0.020 A 
ATOM     73  C   UNL     1      -0.699 -14.151   6.753  1.00  0.00     0.020 A 
ATOM     74  C   UNL     1      -0.812 -15.457   7.219  1.00  0.00     0.054 A 
BRANCH  74  75
ATOM     75  S   UNL     1      -2.353 -16.009   8.006  1.00  0.00     0.124 S 
ATOM     76  O   UNL     1      -2.827 -17.030   7.078  1.00  0.00    -0.237 OA
ATOM     77  O   UNL     1      -1.887 -16.496   9.301  1.00  0.00    -0.237 OA
ATOM     78  O   UNL     1      -3.166 -14.794   8.061  1.00  0.00    -0.744 OA
ENDBRANCH  74  75
ENDBRANCH  46  69
BRANCH  58  79
ATOM     79  C   UNL     1       7.996 -14.025   5.665  1.00  0.00    -0.014 A 
ATOM     80  C   UNL     1       7.361 -13.638   4.468  1.00  0.00     0.010 A 
ATOM     81  C   UNL     1       9.221 -14.710   5.579  1.00  0.00     0.010 A 
ATOM     82  C   UNL     1       7.919 -13.956   3.220  1.00  0.00     0.020 A 
ATOM     83  C   UNL     1       9.792 -15.015   4.339  1.00  0.00     0.020 A 
ATOM     84  C   UNL     1       9.133 -14.645   3.165  1.00  0.00     0.054 A 
BRANCH  84  85
ATOM     85  S   UNL     1       9.868 -15.019   1.547  1.00  0.00     0.124 S 
ATOM     86  O   UNL     1       8.920 -15.975   0.981  1.00  0.00    -0.237 OA
ATOM     87  O   UNL     1       9.907 -13.711   0.898  1.00  0.00    -0.237 OA
ATOM     88  O   UNL     1      11.180 -15.575   1.880  1.00  0.00    -0.744 OA
ENDBRANCH  84  85
ENDBRANCH  58  79
ENDBRANCH  32  33
ENDBRANCH  25  27
ENDBRANCH  24  25
ENDBRANCH  23  24
ENDBRANCH  22  23
ENDBRANCH  21  22
ENDBRANCH   1  21
TORSDOF 21
