REMARK SMILES O=C(OCCOCCOC(=O)[C@@H]1CCCC[C@H]1C(=O)Nc1ccc(NC(=O)c2ccco2)cc1)c1ccc(-c2c3nc(c(-c4ccc(S(=O)(=O)[O-])cc4)c4ccc([nH]4)c(-c4ccc(S(=O)(=O)[O-])cc4)c4nc(c(-c5ccc(S(=O)(=O)[O-])cc5)c5ccc2[nH]5)C=C4)C=C3)cc1
REMARK SMILES IDX 7 1 6 2 5 3 4 4 3 5 2 6 1 7 35 8 36 9 94 10 37 11 93 12
REMARK SMILES IDX 38 13 39 14 40 15 87 16 41 17 92 18 86 19 88 20 42 21 91 22
REMARK SMILES IDX 85 23 84 24 43 26 73 27 54 28 72 29 55 30 58 31 71 32 89 33
REMARK SMILES IDX 56 34 57 35 70 37 90 38 59 39 44 40 45 41 53 42 46 43 52 44
REMARK SMILES IDX 47 45 48 46 49 47 50 48 51 49 74 50 75 51 83 52 76 53 82 54
REMARK SMILES IDX 77 55 78 56 79 57 80 58 81 59 60 60 61 61 69 62 62 63 68 64
REMARK SMILES IDX 63 65 64 66 65 67 66 68 67 69 8 70 9 71 10 72 11 73 12 74
REMARK SMILES IDX 13 75 17 76 14 77 16 78 15 79 18 80 19 81 20 82 21 84 22 85
REMARK SMILES IDX 34 86 23 87 33 88 24 89 25 90 26 91 27 93 28 94 29 95 32 96
REMARK SMILES IDX 30 97 31 98
REMARK H PARENT 88 25 58 36 20 83 25 92
REMARK Flexibility Score: inf
ROOT
ATOM      1  C   UNL     1       2.533  -1.798  -1.100  1.00  0.00     0.202 C 
ENDROOT
BRANCH   1   2
ATOM      2  O   UNL     1       3.873  -1.315  -1.225  1.00  0.00    -0.374 OA
BRANCH   2   3
ATOM      3  C   UNL     1       4.566  -1.109   0.005  1.00  0.00     0.202 C 
BRANCH   3   4
ATOM      4  C   UNL     1       4.307   0.221   0.737  1.00  0.00     0.261 C 
BRANCH   4   5
ATOM      5  O   UNL     1       2.906   0.526   0.833  1.00  0.00    -0.460 OA
BRANCH   5   6
ATOM      6  C   UNL     1       2.168   1.305   0.007  1.00  0.00     0.338 C 
ATOM      7  O   UNL     1       0.979   1.486   0.261  1.00  0.00    -0.246 OA
BRANCH   6   8
ATOM      8  C   UNL     1       2.741   1.975  -1.197  1.00  0.00     0.060 A 
ATOM      9  C   UNL     1       3.867   1.527  -1.886  1.00  0.00     0.016 A 
ATOM     10  C   UNL     1       2.069   3.099  -1.702  1.00  0.00     0.016 A 
ATOM     11  C   UNL     1       4.366   2.181  -2.986  1.00  0.00     0.010 A 
ATOM     12  C   UNL     1       2.544   3.760  -2.838  1.00  0.00     0.010 A 
ATOM     13  C   UNL     1       3.705   3.299  -3.464  1.00  0.00    -0.014 A 
BRANCH  13  14
ATOM     14  C   UNL     1       4.375   4.013  -4.550  1.00  0.00     0.031 A 
ATOM     15  C   UNL     1       5.200   5.200  -4.190  1.00  0.00     0.074 A 
ATOM     16  C   UNL     1       4.395   3.454  -5.771  1.00  0.00     0.049 A 
ATOM     17  N   UNL     1       5.841   6.020  -4.972  1.00  0.00    -0.248 NA
ATOM     18  C   UNL     1       5.344   5.492  -2.751  1.00  0.00     0.031 C 
ATOM     19  C   UNL     1       3.773   2.172  -6.121  1.00  0.00     0.029 A 
ATOM     20  N   UNL     1       4.994   3.863  -6.926  1.00  0.00    -0.354 N 
ATOM     21  C   UNL     1       6.413   6.960  -4.128  1.00  0.00     0.074 A 
ATOM     22  C   UNL     1       6.082   6.590  -2.772  1.00  0.00     0.031 C 
ATOM     23  C   UNL     1       4.034   1.898  -7.408  1.00  0.00     0.029 A 
ATOM     24  C   UNL     1       4.760   3.022  -7.985  1.00  0.00     0.049 A 
ATOM     25  H   UNL     1       5.540   4.680  -6.993  1.00  0.00     0.167 HD
ATOM     26  C   UNL     1       7.114   8.061  -4.480  1.00  0.00     0.031 A 
ATOM     27  C   UNL     1       5.051   3.186  -9.288  1.00  0.00     0.031 A 
ATOM     28  C   UNL     1       7.380   8.392  -5.851  1.00  0.00     0.049 A 
ATOM     29  C   UNL     1       5.744   4.460  -9.676  1.00  0.00     0.074 A 
ATOM     30  C   UNL     1       7.961   9.527  -6.377  1.00  0.00     0.029 A 
ATOM     31  N   UNL     1       7.064   7.560  -6.921  1.00  0.00    -0.354 N 
ATOM     32  N   UNL     1       6.173   5.426  -8.894  1.00  0.00    -0.248 NA
ATOM     33  C   UNL     1       5.968   4.690 -11.105  1.00  0.00     0.031 C 
ATOM     34  C   UNL     1       7.962   9.396  -7.771  1.00  0.00     0.029 A 
ATOM     35  C   UNL     1       7.425   8.160  -8.110  1.00  0.00     0.049 A 
ATOM     36  H   UNL     1       6.645   6.673  -6.842  1.00  0.00     0.167 HD
ATOM     37  C   UNL     1       6.713   6.387  -9.734  1.00  0.00     0.074 A 
ATOM     38  C   UNL     1       6.575   5.872 -11.086  1.00  0.00     0.031 C 
ATOM     39  C   UNL     1       7.262   7.588  -9.426  1.00  0.00     0.031 A 
BRANCH  26  40
ATOM     40  C   UNL     1       7.475   9.005  -3.369  1.00  0.00    -0.014 A 
ATOM     41  C   UNL     1       8.495   8.710  -2.446  1.00  0.00     0.010 A 
ATOM     42  C   UNL     1       6.692  10.158  -3.179  1.00  0.00     0.010 A 
ATOM     43  C   UNL     1       8.680   9.516  -1.317  1.00  0.00     0.020 A 
ATOM     44  C   UNL     1       6.886  10.976  -2.063  1.00  0.00     0.020 A 
ATOM     45  C   UNL     1       7.858  10.632  -1.123  1.00  0.00     0.054 A 
BRANCH  45  46
ATOM     46  S   UNL     1       8.060  11.624   0.383  1.00  0.00     0.124 S 
ATOM     47  O   UNL     1       7.382  10.797   1.379  1.00  0.00    -0.237 OA
ATOM     48  O   UNL     1       9.511  11.710   0.524  1.00  0.00    -0.237 OA
ATOM     49  O   UNL     1       7.393  12.882   0.060  1.00  0.00    -0.744 OA
ENDBRANCH  45  46
ENDBRANCH  26  40
BRANCH  27  50
ATOM     50  C   UNL     1       4.582   2.175 -10.273  1.00  0.00    -0.014 A 
ATOM     51  C   UNL     1       5.482   1.317 -10.924  1.00  0.00     0.010 A 
ATOM     52  C   UNL     1       3.199   1.998 -10.483  1.00  0.00     0.010 A 
ATOM     53  C   UNL     1       5.007   0.289 -11.749  1.00  0.00     0.020 A 
ATOM     54  C   UNL     1       2.721   0.958 -11.284  1.00  0.00     0.020 A 
ATOM     55  C   UNL     1       3.629   0.109 -11.915  1.00  0.00     0.054 A 
BRANCH  55  56
ATOM     56  S   UNL     1       3.029  -1.297 -12.896  1.00  0.00     0.124 S 
ATOM     57  O   UNL     1       3.230  -0.823 -14.261  1.00  0.00    -0.237 OA
ATOM     58  O   UNL     1       3.907  -2.383 -12.467  1.00  0.00    -0.237 OA
ATOM     59  O   UNL     1       1.636  -1.434 -12.477  1.00  0.00    -0.744 OA
ENDBRANCH  55  56
ENDBRANCH  27  50
BRANCH  39  60
ATOM     60  C   UNL     1       7.768   8.411 -10.570  1.00  0.00    -0.014 A 
ATOM     61  C   UNL     1       6.885   9.191 -11.335  1.00  0.00     0.010 A 
ATOM     62  C   UNL     1       9.153   8.497 -10.795  1.00  0.00     0.010 A 
ATOM     63  C   UNL     1       7.384  10.054 -12.310  1.00  0.00     0.020 A 
ATOM     64  C   UNL     1       9.654   9.371 -11.758  1.00  0.00     0.020 A 
ATOM     65  C   UNL     1       8.766  10.143 -12.510  1.00  0.00     0.054 A 
BRANCH  65  66
ATOM     66  S   UNL     1       9.399  11.347 -13.707  1.00  0.00     0.124 S 
ATOM     67  O   UNL     1       9.159  10.666 -14.976  1.00  0.00    -0.237 OA
ATOM     68  O   UNL     1       8.566  12.521 -13.456  1.00  0.00    -0.237 OA
ATOM     69  O   UNL     1      10.804  11.497 -13.334  1.00  0.00    -0.744 OA
ENDBRANCH  65  66
ENDBRANCH  39  60
ENDBRANCH  13  14
ENDBRANCH   6   8
ENDBRANCH   5   6
ENDBRANCH   4   5
ENDBRANCH   3   4
ENDBRANCH   2   3
ENDBRANCH   1   2
BRANCH   1  70
ATOM     70  C   UNL     1       2.460  -3.293  -1.395  1.00  0.00     0.261 C 
BRANCH  70  71
ATOM     71  O   UNL     1       2.874  -4.039  -0.234  1.00  0.00    -0.463 OA
BRANCH  71  72
ATOM     72  C   UNL     1       4.187  -4.367  -0.165  1.00  0.00     0.309 C 
ATOM     73  O   UNL     1       5.022  -4.178  -1.039  1.00  0.00    -0.252 OA
BRANCH  72  74
ATOM     74  C   UNL     1       4.523  -5.055   1.141  1.00  0.00     0.111 C 
ATOM     75  C   UNL     1       4.076  -6.518   1.034  1.00  0.00     0.016 C 
ATOM     76  C   UNL     1       3.975  -4.362   2.399  1.00  0.00     0.093 C 
ATOM     77  C   UNL     1       4.446  -7.282   2.298  1.00  0.00     0.001 C 
ATOM     78  C   UNL     1       4.268  -5.178   3.666  1.00  0.00     0.014 C 
ATOM     79  C   UNL     1       3.821  -6.629   3.524  1.00  0.00     0.001 C 
BRANCH  76  80
ATOM     80  C   UNL     1       4.283  -2.892   2.719  1.00  0.00     0.228 C 
ATOM     81  O   UNL     1       3.325  -2.134   2.930  1.00  0.00    -0.274 OA
ATOM     82  N   UNL     1       5.510  -2.352   2.966  1.00  0.00    -0.326 N 
ATOM     83  H   UNL     1       5.466  -1.444   3.344  1.00  0.00     0.169 HD
BRANCH  82  84
ATOM     84  C   UNL     1       6.813  -2.815   2.796  1.00  0.00     0.041 A 
ATOM     85  C   UNL     1       7.734  -2.539   3.799  1.00  0.00     0.028 A 
ATOM     86  C   UNL     1       7.260  -3.478   1.665  1.00  0.00     0.028 A 
ATOM     87  C   UNL     1       8.980  -3.171   3.796  1.00  0.00     0.028 A 
ATOM     88  C   UNL     1       8.482  -4.152   1.680  1.00  0.00     0.028 A 
ATOM     89  C   UNL     1       9.299  -4.098   2.809  1.00  0.00     0.041 A 
BRANCH  89  90
ATOM     90  N   UNL     1      10.359  -5.019   2.868  1.00  0.00    -0.319 N 
ATOM     91  C   UNL     1      11.174  -5.446   3.898  1.00  0.00     0.291 C 
ATOM     92  H   UNL     1      10.560  -5.445   2.004  1.00  0.00     0.170 HD
ATOM     93  O   UNL     1      12.003  -6.322   3.631  1.00  0.00    -0.265 OA
BRANCH  91  94
ATOM     94  C   UNL     1      11.022  -4.914   5.229  1.00  0.00     0.191 A 
ATOM     95  C   UNL     1      10.024  -5.029   6.183  1.00  0.00     0.056 A 
ATOM     96  O   UNL     1      12.019  -4.110   5.710  1.00  0.00    -0.459 OA
ATOM     97  C   UNL     1      10.410  -4.206   7.272  1.00  0.00     0.043 A 
ATOM     98  C   UNL     1      11.634  -3.678   6.937  1.00  0.00     0.196 A 
ENDBRANCH  91  94
ENDBRANCH  89  90
ENDBRANCH  82  84
ENDBRANCH  76  80
ENDBRANCH  72  74
ENDBRANCH  71  72
ENDBRANCH  70  71
ENDBRANCH   1  70
TORSDOF 21
