REMARK SMILES CCCc1nc(C[N@H+]2CCCC[C@@H]2C(=O)OCCOCCOC(=O)c2ccc(-c3c4nc(c(-c5ccc(S(=O)(=O)[O-])cc5)c5ccc([nH]5)c(-c5ccc(S(=O)(=O)[O-])cc5)c5nc(c(-c6ccc(S(=O)(=O)[O-])cc6)c6ccc3[nH]6)C=C5)C=C4)cc2)cs1
REMARK SMILES IDX 18 1 17 2 16 3 14 4 15 5 13 6 8 7 9 8 10 10 12 11 11 12 7 13
REMARK SMILES IDX 6 14 4 15 5 16 86 17 85 18 3 19 2 20 1 21 19 22 20 23 21 24
REMARK SMILES IDX 22 25 23 26 24 27 25 28 26 29 84 30 27 31 83 32 28 33 29 34
REMARK SMILES IDX 30 35 77 36 31 37 82 38 76 39 78 40 32 41 81 42 75 43 74 44
REMARK SMILES IDX 33 46 63 47 44 48 62 49 45 50 48 51 61 52 79 53 46 54 47 55
REMARK SMILES IDX 60 57 80 58 49 59 34 60 35 61 43 62 36 63 42 64 37 65 38 66
REMARK SMILES IDX 39 67 40 68 41 69 64 70 65 71 73 72 66 73 72 74 67 75 68 76
REMARK SMILES IDX 69 77 70 78 71 79 50 80 51 81 59 82 52 83 58 84 53 85 54 86
REMARK SMILES IDX 55 87 56 88 57 89
REMARK H PARENT 8 9 78 45 48 56
REMARK Flexibility Score: inf
ROOT
ATOM      1  C   UNL     1       0.684  -8.344   4.604  1.00  0.00     0.202 C 
ENDROOT
BRANCH   1   2
ATOM      2  C   UNL     1      -0.065  -7.031   4.879  1.00  0.00     0.261 C 
BRANCH   2   3
ATOM      3  O   UNL     1      -1.115  -6.744   3.947  1.00  0.00    -0.459 OA
BRANCH   3   4
ATOM      4  C   UNL     1      -0.723  -5.942   2.920  1.00  0.00     0.364 C 
ATOM      5  O   UNL     1       0.425  -5.518   2.803  1.00  0.00    -0.245 OA
BRANCH   4   6
ATOM      6  C   UNL     1      -1.824  -5.686   1.862  1.00  0.00     0.295 C 
ATOM      7  N   UNL     1      -2.204  -4.253   1.796  1.00  0.00    -0.318 N 
ATOM      8  C   UNL     1      -3.215  -3.976   0.766  1.00  0.00     0.263 C 
ATOM      9  H   UNL     1      -2.622  -4.087   2.711  1.00  0.00     0.349 HD
ATOM     10  C   UNL     1      -4.464  -4.839   0.939  1.00  0.00     0.062 C 
ATOM     11  C   UNL     1      -3.070  -6.570   2.064  1.00  0.00     0.078 C 
ATOM     12  C   UNL     1      -4.106  -6.316   0.973  1.00  0.00     0.013 C 
BRANCH   7  13
ATOM     13  C   UNL     1      -1.079  -3.300   1.700  1.00  0.00     0.321 C 
BRANCH  13  14
ATOM     14  C   UNL     1      -0.261  -3.367   0.433  1.00  0.00     0.106 A 
ATOM     15  C   UNL     1       0.641  -2.348  -1.319  1.00  0.00     0.093 A 
ATOM     16  N   UNL     1      -0.301  -2.264  -0.407  1.00  0.00    -0.240 NA
ATOM     17  S   UNL     1       1.452  -3.857  -1.401  1.00  0.00    -0.127 S 
ATOM     18  C   UNL     1       0.625  -4.346   0.016  1.00  0.00     0.096 A 
BRANCH  15  19
ATOM     19  C   UNL     1       1.060  -1.220  -2.207  1.00  0.00     0.067 C 
BRANCH  19  20
ATOM     20  C   UNL     1       0.667   0.149  -1.643  1.00  0.00     0.004 C 
ATOM     21  C   UNL     1       1.322   0.471  -0.303  1.00  0.00     0.004 C 
ENDBRANCH  19  20
ENDBRANCH  15  19
ENDBRANCH  13  14
ENDBRANCH   7  13
ENDBRANCH   4   6
ENDBRANCH   3   4
ENDBRANCH   2   3
ENDBRANCH   1   2
BRANCH   1  22
ATOM     22  O   UNL     1       1.050  -8.656   3.264  1.00  0.00    -0.374 OA
BRANCH  22  23
ATOM     23  C   UNL     1       0.035  -9.062   2.347  1.00  0.00     0.202 C 
BRANCH  23  24
ATOM     24  C   UNL     1      -0.825 -10.282   2.694  1.00  0.00     0.261 C 
BRANCH  24  25
ATOM     25  O   UNL     1      -1.690 -10.036   3.818  1.00  0.00    -0.460 OA
BRANCH  25  26
ATOM     26  C   UNL     1      -1.558 -10.923   4.831  1.00  0.00     0.338 C 
ATOM     27  O   UNL     1      -0.849 -11.925   4.847  1.00  0.00    -0.246 OA
BRANCH  26  28
ATOM     28  C   UNL     1      -2.236 -10.430   6.039  1.00  0.00     0.060 A 
ATOM     29  C   UNL     1      -1.458 -10.239   7.188  1.00  0.00     0.016 A 
ATOM     30  C   UNL     1      -3.622 -10.272   6.083  1.00  0.00     0.016 A 
ATOM     31  C   UNL     1      -2.070  -9.944   8.403  1.00  0.00     0.010 A 
ATOM     32  C   UNL     1      -4.236  -9.988   7.307  1.00  0.00     0.010 A 
ATOM     33  C   UNL     1      -3.466  -9.864   8.478  1.00  0.00    -0.014 A 
BRANCH  33  34
ATOM     34  C   UNL     1      -4.116  -9.823   9.809  1.00  0.00     0.031 A 
ATOM     35  C   UNL     1      -4.623 -11.107  10.410  1.00  0.00     0.074 A 
ATOM     36  C   UNL     1      -4.206  -8.671  10.495  1.00  0.00     0.049 A 
ATOM     37  N   UNL     1      -5.222 -11.305  11.555  1.00  0.00    -0.248 NA
ATOM     38  C   UNL     1      -4.424 -12.330   9.614  1.00  0.00     0.031 C 
ATOM     39  C   UNL     1      -3.703  -7.375  10.043  1.00  0.00     0.029 A 
ATOM     40  N   UNL     1      -4.754  -8.409  11.726  1.00  0.00    -0.354 N 
ATOM     41  C   UNL     1      -5.474 -12.670  11.618  1.00  0.00     0.074 A 
ATOM     42  C   UNL     1      -4.989 -13.249  10.384  1.00  0.00     0.031 C 
ATOM     43  C   UNL     1      -3.969  -6.452  10.983  1.00  0.00     0.029 A 
ATOM     44  C   UNL     1      -4.687  -7.086  12.088  1.00  0.00     0.049 A 
ATOM     45  H   UNL     1      -5.157  -9.104  12.295  1.00  0.00     0.167 HD
ATOM     46  C   UNL     1      -6.052 -13.381  12.616  1.00  0.00     0.031 A 
ATOM     47  C   UNL     1      -5.166  -6.455  13.178  1.00  0.00     0.031 A 
ATOM     48  C   UNL     1      -6.550 -12.801  13.835  1.00  0.00     0.049 A 
ATOM     49  C   UNL     1      -5.878  -7.253  14.239  1.00  0.00     0.074 A 
ATOM     50  C   UNL     1      -7.155 -13.435  14.906  1.00  0.00     0.029 A 
ATOM     51  N   UNL     1      -6.507 -11.449  14.142  1.00  0.00    -0.354 N 
ATOM     52  N   UNL     1      -6.102  -8.545  14.287  1.00  0.00    -0.248 NA
ATOM     53  C   UNL     1      -6.395  -6.507  15.395  1.00  0.00     0.031 C 
ATOM     54  C   UNL     1      -7.522 -12.459  15.839  1.00  0.00     0.029 A 
ATOM     55  C   UNL     1      -7.095 -11.225  15.375  1.00  0.00     0.049 A 
ATOM     56  H   UNL     1      -6.116 -10.752  13.567  1.00  0.00     0.167 HD
ATOM     57  C   UNL     1      -6.764  -8.770  15.490  1.00  0.00     0.074 A 
ATOM     58  C   UNL     1      -6.893  -7.483  16.143  1.00  0.00     0.031 C 
ATOM     59  C   UNL     1      -7.220  -9.937  16.009  1.00  0.00     0.031 A 
BRANCH  46  60
ATOM     60  C   UNL     1      -6.207 -14.864  12.410  1.00  0.00    -0.014 A 
ATOM     61  C   UNL     1      -5.097 -15.726  12.461  1.00  0.00     0.010 A 
ATOM     62  C   UNL     1      -7.486 -15.406  12.187  1.00  0.00     0.010 A 
ATOM     63  C   UNL     1      -5.258 -17.099  12.255  1.00  0.00     0.020 A 
ATOM     64  C   UNL     1      -7.654 -16.781  12.005  1.00  0.00     0.020 A 
ATOM     65  C   UNL     1      -6.536 -17.617  12.022  1.00  0.00     0.054 A 
BRANCH  65  66
ATOM     66  S   UNL     1      -6.719 -19.404  11.771  1.00  0.00     0.124 S 
ATOM     67  O   UNL     1      -6.186 -19.574  10.421  1.00  0.00    -0.237 OA
ATOM     68  O   UNL     1      -5.902 -19.966  12.843  1.00  0.00    -0.237 OA
ATOM     69  O   UNL     1      -8.157 -19.628  11.904  1.00  0.00    -0.744 OA
ENDBRANCH  65  66
ENDBRANCH  46  60
BRANCH  47  70
ATOM     70  C   UNL     1      -5.003  -4.982  13.312  1.00  0.00    -0.014 A 
ATOM     71  C   UNL     1      -4.126  -4.440  14.266  1.00  0.00     0.010 A 
ATOM     72  C   UNL     1      -5.722  -4.112  12.471  1.00  0.00     0.010 A 
ATOM     73  C   UNL     1      -3.979  -3.054  14.386  1.00  0.00     0.020 A 
ATOM     74  C   UNL     1      -5.559  -2.728  12.570  1.00  0.00     0.020 A 
ATOM     75  C   UNL     1      -4.695  -2.207  13.534  1.00  0.00     0.054 A 
BRANCH  75  76
ATOM     76  S   UNL     1      -4.444  -0.415  13.666  1.00  0.00     0.124 S 
ATOM     77  O   UNL     1      -5.176  -0.095  14.887  1.00  0.00    -0.237 OA
ATOM     78  O   UNL     1      -2.990  -0.305  13.752  1.00  0.00    -0.237 OA
ATOM     79  O   UNL     1      -5.027   0.102  12.430  1.00  0.00    -0.744 OA
ENDBRANCH  75  76
ENDBRANCH  47  70
BRANCH  59  80
ATOM     80  C   UNL     1      -7.875  -9.886  17.363  1.00  0.00    -0.014 A 
ATOM     81  C   UNL     1      -9.165  -9.352  17.529  1.00  0.00     0.010 A 
ATOM     82  C   UNL     1      -7.210 -10.433  18.476  1.00  0.00     0.010 A 
ATOM     83  C   UNL     1      -9.768  -9.341  18.790  1.00  0.00     0.020 A 
ATOM     84  C   UNL     1      -7.820 -10.447  19.733  1.00  0.00     0.020 A 
ATOM     85  C   UNL     1      -9.090  -9.887  19.885  1.00  0.00     0.054 A 
BRANCH  85  86
ATOM     86  S   UNL     1      -9.910  -9.901  21.503  1.00  0.00     0.124 S 
ATOM     87  O   UNL     1      -9.794  -8.505  21.913  1.00  0.00    -0.237 OA
ATOM     88  O   UNL     1     -11.261 -10.351  21.176  1.00  0.00    -0.237 OA
ATOM     89  O   UNL     1      -9.117 -10.848  22.284  1.00  0.00    -0.744 OA
ENDBRANCH  85  86
ENDBRANCH  59  80
ENDBRANCH  33  34
ENDBRANCH  26  28
ENDBRANCH  25  26
ENDBRANCH  24  25
ENDBRANCH  23  24
ENDBRANCH  22  23
ENDBRANCH   1  22
TORSDOF 21
