REMARK SMILES O=C(OCCOCCOC(=O)c1cccn1CC(=O)N1CCc2ccccc2C1)c1ccc(-c2c3nc(c(-c4ccc(S(=O)(=O)[O-])cc4)c4ccc([nH]4)c(-c4ccc(S(=O)(=O)[O-])cc4)c4nc(c(-c5ccc(S(=O)(=O)[O-])cc5)c5ccc2[nH]5)C=C4)C=C3)cc1
REMARK SMILES IDX 6 1 5 2 4 3 3 4 2 5 1 6 30 7 31 8 89 9 32 10 88 11 33 12
REMARK SMILES IDX 34 13 35 14 82 15 36 16 87 17 81 18 83 19 37 20 86 21 80 22
REMARK SMILES IDX 79 23 38 25 68 26 49 27 67 28 50 29 53 30 66 31 84 32 51 33
REMARK SMILES IDX 52 34 65 36 85 37 54 38 39 39 40 40 48 41 41 42 47 43 42 44
REMARK SMILES IDX 43 45 44 46 45 47 46 48 69 49 70 50 78 51 71 52 77 53 72 54
REMARK SMILES IDX 73 55 74 56 75 57 76 58 55 59 56 60 64 61 57 62 63 63 58 64
REMARK SMILES IDX 59 65 60 66 61 67 62 68 7 69 8 70 9 71 10 72 11 73 12 74
REMARK SMILES IDX 13 75 16 76 14 77 15 78 17 79 18 80 19 81 20 82 21 83 29 84
REMARK SMILES IDX 22 85 28 86 23 87 27 88 24 89 26 90 25 91
REMARK H PARENT 83 24 53 35
REMARK Flexibility Score: inf
ROOT
ATOM      1  O   UNL     1       4.114   2.303   0.108  1.00  0.00    -0.374 OA
ENDROOT
BRANCH   1   2
ATOM      2  C   UNL     1       4.971   1.242  -0.280  1.00  0.00     0.202 C 
BRANCH   2   3
ATOM      3  C   UNL     1       4.403  -0.174  -0.223  1.00  0.00     0.261 C 
BRANCH   3   4
ATOM      4  O   UNL     1       3.011  -0.243  -0.557  1.00  0.00    -0.460 OA
BRANCH   4   5
ATOM      5  C   UNL     1       1.942  -0.130   0.276  1.00  0.00     0.338 C 
ATOM      6  O   UNL     1       0.833   0.129  -0.182  1.00  0.00    -0.246 OA
BRANCH   5   7
ATOM      7  C   UNL     1       2.069  -0.535   1.682  1.00  0.00     0.060 A 
ATOM      8  C   UNL     1       3.260  -0.443   2.389  1.00  0.00     0.016 A 
ATOM      9  C   UNL     1       0.971  -1.211   2.228  1.00  0.00     0.016 A 
ATOM     10  C   UNL     1       3.509  -1.365   3.371  1.00  0.00     0.010 A 
ATOM     11  C   UNL     1       1.152  -2.004   3.342  1.00  0.00     0.010 A 
ATOM     12  C   UNL     1       2.446  -2.141   3.844  1.00  0.00    -0.014 A 
BRANCH  12  13
ATOM     13  C   UNL     1       2.691  -2.803   5.122  1.00  0.00     0.031 A 
ATOM     14  C   UNL     1       2.897  -1.696   6.182  1.00  0.00     0.074 A 
ATOM     15  C   UNL     1       2.795  -4.166   5.092  1.00  0.00     0.049 A 
ATOM     16  N   UNL     1       3.735  -1.647   7.166  1.00  0.00    -0.248 NA
ATOM     17  C   UNL     1       2.213  -0.371   6.010  1.00  0.00     0.031 C 
ATOM     18  C   UNL     1       2.597  -5.029   3.899  1.00  0.00     0.029 A 
ATOM     19  N   UNL     1       3.096  -5.109   6.044  1.00  0.00    -0.354 N 
ATOM     20  C   UNL     1       3.512  -0.429   7.846  1.00  0.00     0.074 A 
ATOM     21  C   UNL     1       2.726   0.388   6.980  1.00  0.00     0.031 C 
ATOM     22  C   UNL     1       2.857  -6.328   4.186  1.00  0.00     0.029 A 
ATOM     23  C   UNL     1       3.219  -6.448   5.585  1.00  0.00     0.049 A 
ATOM     24  H   UNL     1       3.220  -4.871   6.992  1.00  0.00     0.167 HD
ATOM     25  C   UNL     1       3.806  -0.256   9.167  1.00  0.00     0.031 A 
ATOM     26  C   UNL     1       3.629  -7.548   6.293  1.00  0.00     0.031 A 
ATOM     27  C   UNL     1       4.362  -1.462   9.685  1.00  0.00     0.049 A 
ATOM     28  C   UNL     1       3.760  -7.072   7.682  1.00  0.00     0.074 A 
ATOM     29  C   UNL     1       5.564  -2.085   9.472  1.00  0.00     0.029 A 
ATOM     30  N   UNL     1       3.445  -2.379  10.156  1.00  0.00    -0.354 N 
ATOM     31  N   UNL     1       2.771  -6.736   8.454  1.00  0.00    -0.248 NA
ATOM     32  C   UNL     1       5.107  -6.842   8.221  1.00  0.00     0.031 C 
ATOM     33  C   UNL     1       5.183  -3.433   9.305  1.00  0.00     0.029 A 
ATOM     34  C   UNL     1       3.852  -3.609   9.709  1.00  0.00     0.049 A 
ATOM     35  H   UNL     1       2.651  -2.187  10.706  1.00  0.00     0.167 HD
ATOM     36  C   UNL     1       3.380  -5.908   9.363  1.00  0.00     0.074 A 
ATOM     37  C   UNL     1       4.782  -6.276   9.380  1.00  0.00     0.031 C 
ATOM     38  C   UNL     1       2.873  -4.666   9.589  1.00  0.00     0.031 A 
BRANCH  25  39
ATOM     39  C   UNL     1       3.345   0.769  10.164  1.00  0.00    -0.014 A 
ATOM     40  C   UNL     1       3.974   0.733  11.434  1.00  0.00     0.010 A 
ATOM     41  C   UNL     1       2.148   1.491  10.052  1.00  0.00     0.010 A 
ATOM     42  C   UNL     1       3.356   1.244  12.572  1.00  0.00     0.020 A 
ATOM     43  C   UNL     1       1.540   2.048  11.189  1.00  0.00     0.020 A 
ATOM     44  C   UNL     1       2.120   1.867  12.447  1.00  0.00     0.054 A 
BRANCH  44  45
ATOM     45  S   UNL     1       1.256   2.357  13.962  1.00  0.00     0.124 S 
ATOM     46  O   UNL     1       0.880   1.066  14.530  1.00  0.00    -0.237 OA
ATOM     47  O   UNL     1       2.293   3.083  14.692  1.00  0.00    -0.237 OA
ATOM     48  O   UNL     1       0.152   3.180  13.477  1.00  0.00    -0.744 OA
ENDBRANCH  44  45
ENDBRANCH  25  39
BRANCH  26  49
ATOM     49  C   UNL     1       4.090  -8.973   6.050  1.00  0.00    -0.014 A 
ATOM     50  C   UNL     1       4.129  -9.650   4.826  1.00  0.00     0.010 A 
ATOM     51  C   UNL     1       4.689  -9.664   7.147  1.00  0.00     0.010 A 
ATOM     52  C   UNL     1       4.870 -10.854   4.682  1.00  0.00     0.020 A 
ATOM     53  C   UNL     1       5.472 -10.811   7.008  1.00  0.00     0.020 A 
ATOM     54  C   UNL     1       5.588 -11.389   5.759  1.00  0.00     0.054 A 
BRANCH  54  55
ATOM     55  S   UNL     1       6.792 -12.732   5.522  1.00  0.00     0.124 S 
ATOM     56  O   UNL     1       5.948 -13.921   5.552  1.00  0.00    -0.237 OA
ATOM     57  O   UNL     1       7.383 -12.407   4.226  1.00  0.00    -0.237 OA
ATOM     58  O   UNL     1       7.700 -12.581   6.658  1.00  0.00    -0.744 OA
ENDBRANCH  54  55
ENDBRANCH  26  49
BRANCH  38  59
ATOM     59  C   UNL     1       1.381  -4.485   9.304  1.00  0.00    -0.014 A 
ATOM     60  C   UNL     1       0.444  -5.328   9.929  1.00  0.00     0.010 A 
ATOM     61  C   UNL     1       0.868  -3.551   8.381  1.00  0.00     0.010 A 
ATOM     62  C   UNL     1      -0.931  -5.248   9.649  1.00  0.00     0.020 A 
ATOM     63  C   UNL     1      -0.508  -3.466   8.079  1.00  0.00     0.020 A 
ATOM     64  C   UNL     1      -1.404  -4.315   8.726  1.00  0.00     0.054 A 
BRANCH  64  65
ATOM     65  S   UNL     1      -3.192  -4.229   8.403  1.00  0.00     0.124 S 
ATOM     66  O   UNL     1      -3.510  -5.587   7.967  1.00  0.00    -0.237 OA
ATOM     67  O   UNL     1      -3.729  -3.852   9.708  1.00  0.00    -0.237 OA
ATOM     68  O   UNL     1      -3.314  -3.207   7.364  1.00  0.00    -0.744 OA
ENDBRANCH  64  65
ENDBRANCH  38  59
ENDBRANCH  12  13
ENDBRANCH   5   7
ENDBRANCH   4   5
ENDBRANCH   3   4
ENDBRANCH   2   3
ENDBRANCH   1   2
BRANCH   1  69
ATOM     69  C   UNL     1       3.034   2.663  -0.757  1.00  0.00     0.202 C 
BRANCH  69  70
ATOM     70  C   UNL     1       3.309   2.947  -2.238  1.00  0.00     0.261 C 
BRANCH  70  71
ATOM     71  O   UNL     1       3.573   1.767  -3.033  1.00  0.00    -0.459 OA
BRANCH  71  72
ATOM     72  C   UNL     1       4.801   1.699  -3.627  1.00  0.00     0.355 C 
ATOM     73  O   UNL     1       5.731   2.458  -3.413  1.00  0.00    -0.244 OA
BRANCH  72  74
ATOM     74  C   UNL     1       4.855   0.591  -4.557  1.00  0.00     0.128 A 
ATOM     75  C   UNL     1       4.282   0.545  -5.819  1.00  0.00     0.035 A 
ATOM     76  N   UNL     1       5.562  -0.593  -4.408  1.00  0.00    -0.333 N 
ATOM     77  C   UNL     1       4.764  -0.606  -6.482  1.00  0.00     0.020 A 
ATOM     78  C   UNL     1       5.583  -1.271  -5.602  1.00  0.00     0.087 A 
BRANCH  76  79
ATOM     79  C   UNL     1       6.284  -1.043  -3.229  1.00  0.00     0.222 C 
BRANCH  79  80
ATOM     80  C   UNL     1       5.888  -2.370  -2.563  1.00  0.00     0.242 C 
ATOM     81  O   UNL     1       6.806  -2.998  -2.014  1.00  0.00    -0.273 OA
BRANCH  80  82
ATOM     82  N   UNL     1       4.565  -2.780  -2.383  1.00  0.00    -0.336 N 
ATOM     83  C   UNL     1       3.416  -2.256  -3.125  1.00  0.00     0.124 C 
ATOM     84  C   UNL     1       4.325  -3.836  -1.382  1.00  0.00     0.155 C 
ATOM     85  C   UNL     1       2.019  -2.600  -2.611  1.00  0.00     0.057 C 
ATOM     86  C   UNL     1       3.025  -4.590  -1.500  1.00  0.00    -0.025 A 
ATOM     87  C   UNL     1       1.908  -4.000  -2.101  1.00  0.00    -0.041 A 
ATOM     88  C   UNL     1       2.883  -5.849  -0.897  1.00  0.00     0.006 A 
ATOM     89  C   UNL     1       0.675  -4.666  -2.111  1.00  0.00     0.004 A 
ATOM     90  C   UNL     1       1.656  -6.515  -0.918  1.00  0.00     0.000 A 
ATOM     91  C   UNL     1       0.553  -5.924  -1.528  1.00  0.00     0.000 A 
ENDBRANCH  80  82
ENDBRANCH  79  80
ENDBRANCH  76  79
ENDBRANCH  72  74
ENDBRANCH  71  72
ENDBRANCH  70  71
ENDBRANCH  69  70
ENDBRANCH   1  69
TORSDOF 20
