REMARK SMILES C/C=C(\C)[C@H]1C(C)=C[C@H]2CC[C@@H](OS(=O)(=O)[O-])[C@@H](C)[C@H]2[C@H]1/C=C/C=C/C(=O)OCCOCCOC(=O)c1ccc(-c2c3nc(c(-c4ccc(S(=O)(=O)[O-])cc4)c4ccc([nH]4)c(-c4ccc(S(=O)(=O)[O-])cc4)c4nc(c(-c5ccc(S(=O)(=O)[O-])cc5)c5ccc2[nH]5)C=C4)C=C3)cc1
REMARK SMILES IDX 30 1 29 2 28 3 26 4 27 5 25 6 24 7 23 8 22 9 21 10 5 11 6 12
REMARK SMILES IDX 7 13 8 14 20 15 9 16 18 17 10 18 12 19 19 20 11 21 3 22 1 23
REMARK SMILES IDX 2 24 4 25 13 26 14 27 15 28 16 29 17 30 31 31 32 32 33 33
REMARK SMILES IDX 34 34 35 35 36 36 37 37 38 38 96 39 39 40 95 41 40 42 41 43
REMARK SMILES IDX 42 44 89 45 43 46 94 47 88 48 90 49 44 50 93 51 87 52 86 53
REMARK SMILES IDX 45 55 75 56 56 57 74 58 57 59 60 60 73 61 91 62 58 63 59 64
REMARK SMILES IDX 72 66 92 67 61 68 46 69 47 70 55 71 48 72 54 73 49 74 50 75
REMARK SMILES IDX 51 76 52 77 53 78 76 79 77 80 85 81 78 82 84 83 79 84 80 85
REMARK SMILES IDX 81 86 82 87 83 88 62 89 63 90 71 91 64 92 70 93 65 94 66 95
REMARK SMILES IDX 67 96 68 97 69 98
REMARK H PARENT 90 54 60 65
REMARK Flexibility Score: inf
ROOT
ATOM      1  C   UNL     1       7.783  -1.247  -0.210  1.00  0.00     0.202 C 
ENDROOT
BRANCH   1   2
ATOM      2  C   UNL     1       6.556  -2.146  -0.047  1.00  0.00     0.261 C 
BRANCH   2   3
ATOM      3  O   UNL     1       5.431  -1.629  -0.769  1.00  0.00    -0.460 OA
BRANCH   3   4
ATOM      4  C   UNL     1       4.450  -1.151   0.023  1.00  0.00     0.330 C 
ATOM      5  O   UNL     1       4.388  -1.210   1.243  1.00  0.00    -0.247 OA
BRANCH   4   6
ATOM      6  C   UNL     1       3.529  -0.294  -0.725  1.00  0.00     0.093 C 
ATOM      7  C   UNL     1       3.160  -0.314  -2.016  1.00  0.00     0.007 C 
BRANCH   7   8
ATOM      8  C   UNL     1       2.208   0.690  -2.394  1.00  0.00    -0.004 C 
ATOM      9  C   UNL     1       1.498   0.922  -3.500  1.00  0.00    -0.022 C 
BRANCH   9  10
ATOM     10  C   UNL     1       0.454   2.054  -3.523  1.00  0.00     0.027 C 
ATOM     11  C   UNL     1      -0.714   2.033  -2.418  1.00  0.00     0.047 C 
ATOM     12  C   UNL     1      -1.029   3.402  -1.790  1.00  0.00    -0.069 C 
ATOM     13  C   UNL     1      -1.877   3.476  -0.546  1.00  0.00     0.040 C 
ATOM     14  C   UNL     1      -0.666   4.554  -2.394  1.00  0.00    -0.024 C 
ATOM     15  C   UNL     1       1.118   3.456  -3.768  1.00  0.00     0.009 C 
ATOM     16  C   UNL     1       0.078   4.590  -3.699  1.00  0.00     0.016 C 
ATOM     17  C   UNL     1       2.414   3.803  -2.963  1.00  0.00     0.021 C 
ATOM     18  C   UNL     1       0.696   5.968  -4.031  1.00  0.00     0.011 C 
ATOM     19  C   UNL     1       3.015   5.102  -3.533  1.00  0.00     0.141 C 
ATOM     20  C   UNL     1       2.302   3.893  -1.429  1.00  0.00     0.011 C 
ATOM     21  C   UNL     1       2.040   6.269  -3.368  1.00  0.00     0.034 C 
BRANCH  11  22
ATOM     22  C   UNL     1      -0.655   0.817  -1.457  1.00  0.00    -0.070 C 
ATOM     23  C   UNL     1       0.156  -0.279   0.721  1.00  0.00     0.035 C 
ATOM     24  C   UNL     1      -0.125   0.860  -0.213  1.00  0.00    -0.031 C 
ATOM     25  C   UNL     1      -1.174  -0.464  -2.080  1.00  0.00     0.040 C 
ENDBRANCH  11  22
BRANCH  19  26
ATOM     26  O   UNL     1       4.242   5.401  -2.875  1.00  0.00    -0.276 OA
BRANCH  26  27
ATOM     27  S   UNL     1       5.621   5.005  -3.640  1.00  0.00     0.217 S 
ATOM     28  O   UNL     1       5.540   3.644  -4.111  1.00  0.00    -0.213 OA
ATOM     29  O   UNL     1       5.978   6.088  -4.530  1.00  0.00    -0.213 OA
ATOM     30  O   UNL     1       6.715   5.006  -2.459  1.00  0.00    -0.726 OA
ENDBRANCH  26  27
ENDBRANCH  19  26
ENDBRANCH   9  10
ENDBRANCH   7   8
ENDBRANCH   4   6
ENDBRANCH   3   4
ENDBRANCH   2   3
ENDBRANCH   1   2
BRANCH   1  31
ATOM     31  O   UNL     1       7.742   0.058   0.365  1.00  0.00    -0.374 OA
BRANCH  31  32
ATOM     32  C   UNL     1       6.975   1.064  -0.292  1.00  0.00     0.202 C 
BRANCH  32  33
ATOM     33  C   UNL     1       7.466   1.588  -1.649  1.00  0.00     0.261 C 
BRANCH  33  34
ATOM     34  O   UNL     1       7.500   0.586  -2.676  1.00  0.00    -0.460 OA
BRANCH  34  35
ATOM     35  C   UNL     1       8.741   0.246  -3.108  1.00  0.00     0.338 C 
ATOM     36  O   UNL     1       9.805   0.720  -2.751  1.00  0.00    -0.246 OA
BRANCH  35  37
ATOM     37  C   UNL     1       8.639  -0.942  -3.974  1.00  0.00     0.060 A 
ATOM     38  C   UNL     1       9.182  -2.151  -3.519  1.00  0.00     0.016 A 
ATOM     39  C   UNL     1       8.060  -0.853  -5.239  1.00  0.00     0.016 A 
ATOM     40  C   UNL     1       9.144  -3.282  -4.331  1.00  0.00     0.010 A 
ATOM     41  C   UNL     1       8.041  -1.984  -6.060  1.00  0.00     0.010 A 
ATOM     42  C   UNL     1       8.592  -3.200  -5.615  1.00  0.00    -0.014 A 
BRANCH  42  43
ATOM     43  C   UNL     1       8.649  -4.364  -6.531  1.00  0.00     0.031 A 
ATOM     44  C   UNL     1       9.666  -4.385  -7.636  1.00  0.00     0.074 A 
ATOM     45  C   UNL     1       7.784  -5.383  -6.383  1.00  0.00     0.049 A 
ATOM     46  N   UNL     1       9.816  -5.253  -8.603  1.00  0.00    -0.248 NA
ATOM     47  C   UNL     1      10.639  -3.281  -7.657  1.00  0.00     0.031 C 
ATOM     48  C   UNL     1       6.785  -5.496  -5.319  1.00  0.00     0.029 A 
ATOM     49  N   UNL     1       7.596  -6.510  -7.142  1.00  0.00    -0.354 N 
ATOM     50  C   UNL     1      10.889  -4.794  -9.358  1.00  0.00     0.074 A 
ATOM     51  C   UNL     1      11.339  -3.560  -8.748  1.00  0.00     0.031 C 
ATOM     52  C   UNL     1       6.077  -6.623  -5.505  1.00  0.00     0.029 A 
ATOM     53  C   UNL     1       6.538  -7.283  -6.724  1.00  0.00     0.049 A 
ATOM     54  H   UNL     1       8.163  -6.743  -7.912  1.00  0.00     0.167 HD
ATOM     55  C   UNL     1      11.445  -5.351 -10.461  1.00  0.00     0.031 A 
ATOM     56  C   UNL     1       5.980  -8.376  -7.282  1.00  0.00     0.031 A 
ATOM     57  C   UNL     1      10.977  -6.569 -11.071  1.00  0.00     0.049 A 
ATOM     58  C   UNL     1       6.555  -8.922  -8.562  1.00  0.00     0.074 A 
ATOM     59  C   UNL     1      11.488  -7.229 -12.175  1.00  0.00     0.029 A 
ATOM     60  N   UNL     1       9.879  -7.300 -10.642  1.00  0.00    -0.354 N 
ATOM     61  N   UNL     1       7.593  -8.501  -9.245  1.00  0.00    -0.248 NA
ATOM     62  C   UNL     1       5.881 -10.090  -9.148  1.00  0.00     0.031 C 
ATOM     63  C   UNL     1      10.656  -8.317 -12.457  1.00  0.00     0.029 A 
ATOM     64  C   UNL     1       9.668  -8.378 -11.486  1.00  0.00     0.049 A 
ATOM     65  H   UNL     1       9.331  -7.086  -9.853  1.00  0.00     0.167 HD
ATOM     66  C   UNL     1       7.706  -9.361 -10.333  1.00  0.00     0.074 A 
ATOM     67  C   UNL     1       6.647 -10.341 -10.202  1.00  0.00     0.031 C 
ATOM     68  C   UNL     1       8.602  -9.339 -11.351  1.00  0.00     0.031 A 
BRANCH  55  69
ATOM     69  C   UNL     1      12.594  -4.624 -11.110  1.00  0.00    -0.014 A 
ATOM     70  C   UNL     1      13.857  -4.548 -10.494  1.00  0.00     0.010 A 
ATOM     71  C   UNL     1      12.420  -4.047 -12.382  1.00  0.00     0.010 A 
ATOM     72  C   UNL     1      14.911  -3.879 -11.122  1.00  0.00     0.020 A 
ATOM     73  C   UNL     1      13.480  -3.403 -13.026  1.00  0.00     0.020 A 
ATOM     74  C   UNL     1      14.716  -3.310 -12.384  1.00  0.00     0.054 A 
BRANCH  74  75
ATOM     75  S   UNL     1      16.110  -2.470 -13.184  1.00  0.00     0.124 S 
ATOM     76  O   UNL     1      16.256  -1.274 -12.359  1.00  0.00    -0.237 OA
ATOM     77  O   UNL     1      17.186  -3.451 -13.062  1.00  0.00    -0.237 OA
ATOM     78  O   UNL     1      15.639  -2.232 -14.546  1.00  0.00    -0.744 OA
ENDBRANCH  74  75
ENDBRANCH  55  69
BRANCH  56  79
ATOM     79  C   UNL     1       4.782  -8.999  -6.654  1.00  0.00    -0.014 A 
ATOM     80  C   UNL     1       4.856 -10.277  -6.076  1.00  0.00     0.010 A 
ATOM     81  C   UNL     1       3.555  -8.307  -6.627  1.00  0.00     0.010 A 
ATOM     82  C   UNL     1       3.726 -10.857  -5.492  1.00  0.00     0.020 A 
ATOM     83  C   UNL     1       2.432  -8.870  -6.016  1.00  0.00     0.020 A 
ATOM     84  C   UNL     1       2.522 -10.146  -5.460  1.00  0.00     0.054 A 
BRANCH  84  85
ATOM     85  S   UNL     1       1.087 -10.896  -4.642  1.00  0.00     0.124 S 
ATOM     86  O   UNL     1       0.728 -11.961  -5.573  1.00  0.00    -0.237 OA
ATOM     87  O   UNL     1       1.646 -11.331  -3.365  1.00  0.00    -0.237 OA
ATOM     88  O   UNL     1       0.130  -9.794  -4.552  1.00  0.00    -0.744 OA
ENDBRANCH  84  85
ENDBRANCH  56  79
BRANCH  68  89
ATOM     89  C   UNL     1       8.486 -10.411 -12.405  1.00  0.00    -0.014 A 
ATOM     90  C   UNL     1       7.427 -10.405 -13.331  1.00  0.00     0.010 A 
ATOM     91  C   UNL     1       9.484 -11.397 -12.513  1.00  0.00     0.010 A 
ATOM     92  C   UNL     1       7.357 -11.379 -14.331  1.00  0.00     0.020 A 
ATOM     93  C   UNL     1       9.434 -12.354 -13.531  1.00  0.00     0.020 A 
ATOM     94  C   UNL     1       8.364 -12.344 -14.428  1.00  0.00     0.054 A 
BRANCH  94  95
ATOM     95  S   UNL     1       8.278 -13.559 -15.772  1.00  0.00     0.124 S 
ATOM     96  O   UNL     1       7.151 -14.392 -15.359  1.00  0.00    -0.237 OA
ATOM     97  O   UNL     1       8.042 -12.720 -16.945  1.00  0.00    -0.237 OA
ATOM     98  O   UNL     1       9.583 -14.214 -15.733  1.00  0.00    -0.744 OA
ENDBRANCH  94  95
ENDBRANCH  68  89
ENDBRANCH  42  43
ENDBRANCH  35  37
ENDBRANCH  34  35
ENDBRANCH  33  34
ENDBRANCH  32  33
ENDBRANCH  31  32
ENDBRANCH   1  31
TORSDOF 22
