REMARK SMILES O=C(OCCOCCOC(=O)[C@@H]1C=C[C@@H]([NH+]2CC3(CC3)C2)C1)c1ccc(-c2c3nc(c(-c4ccc(S(=O)(=O)[O-])cc4)c4ccc([nH]4)c(-c4ccc(S(=O)(=O)[O-])cc4)c4nc(c(-c5ccc(S(=O)(=O)[O-])cc5)c5ccc2[nH]5)C=C4)C=C3)cc1
REMARK SMILES IDX 5 1 4 2 3 3 2 4 1 5 23 6 24 7 82 8 25 9 81 10 26 11 27 12
REMARK SMILES IDX 28 13 75 14 29 15 80 16 74 17 76 18 30 19 79 20 73 21 72 22
REMARK SMILES IDX 31 24 61 25 42 26 60 27 43 28 46 29 59 30 77 31 44 32 45 33
REMARK SMILES IDX 58 35 78 36 47 37 32 38 33 39 41 40 34 41 40 42 35 43 36 44
REMARK SMILES IDX 37 45 38 46 39 47 62 48 63 49 71 50 64 51 70 52 65 53 66 54
REMARK SMILES IDX 67 55 68 56 69 57 48 58 49 59 57 60 50 61 56 62 51 63 52 64
REMARK SMILES IDX 53 65 54 66 55 67 6 68 7 69 8 70 9 71 10 72 11 73 12 74
REMARK SMILES IDX 13 75 22 76 14 77 15 78 16 79 17 80 21 81 18 83 19 84 20 85
REMARK H PARENT 76 23 46 34 16 82
REMARK Flexibility Score: inf
ROOT
ATOM      1  C   UNL     1       5.645  -2.376   0.740  1.00  0.00     0.202 C 
ENDROOT
BRANCH   1   2
ATOM      2  C   UNL     1       5.457  -2.180   2.242  1.00  0.00     0.261 C 
BRANCH   2   3
ATOM      3  O   UNL     1       5.547  -0.790   2.565  1.00  0.00    -0.460 OA
BRANCH   3   4
ATOM      4  C   UNL     1       6.710  -0.113   2.715  1.00  0.00     0.338 C 
ATOM      5  O   UNL     1       6.706   1.113   2.637  1.00  0.00    -0.246 OA
BRANCH   4   6
ATOM      6  C   UNL     1       7.983  -0.801   3.075  1.00  0.00     0.060 A 
ATOM      7  C   UNL     1       8.437  -1.996   2.510  1.00  0.00     0.016 A 
ATOM      8  C   UNL     1       8.811  -0.147   3.996  1.00  0.00     0.016 A 
ATOM      9  C   UNL     1       9.653  -2.543   2.833  1.00  0.00     0.010 A 
ATOM     10  C   UNL     1      10.053  -0.687   4.330  1.00  0.00     0.010 A 
ATOM     11  C   UNL     1      10.464  -1.885   3.738  1.00  0.00    -0.014 A 
BRANCH  11  12
ATOM     12  C   UNL     1      11.671  -2.603   4.135  1.00  0.00     0.031 A 
ATOM     13  C   UNL     1      11.634  -3.331   5.434  1.00  0.00     0.074 A 
ATOM     14  C   UNL     1      12.663  -2.743   3.239  1.00  0.00     0.049 A 
ATOM     15  N   UNL     1      12.589  -3.972   6.041  1.00  0.00    -0.248 NA
ATOM     16  C   UNL     1      10.339  -3.351   6.143  1.00  0.00     0.031 C 
ATOM     17  C   UNL     1      12.643  -2.222   1.865  1.00  0.00     0.029 A 
ATOM     18  N   UNL     1      13.855  -3.397   3.329  1.00  0.00    -0.354 N 
ATOM     19  C   UNL     1      12.030  -4.421   7.229  1.00  0.00     0.074 A 
ATOM     20  C   UNL     1      10.651  -3.997   7.254  1.00  0.00     0.031 C 
ATOM     21  C   UNL     1      13.772  -2.590   1.241  1.00  0.00     0.029 A 
ATOM     22  C   UNL     1      14.623  -3.285   2.196  1.00  0.00     0.049 A 
ATOM     23  H   UNL     1      14.138  -3.901   4.126  1.00  0.00     0.167 HD
ATOM     24  C   UNL     1      12.649  -5.106   8.215  1.00  0.00     0.031 A 
ATOM     25  C   UNL     1      15.899  -3.655   1.994  1.00  0.00     0.031 A 
ATOM     26  C   UNL     1      14.031  -5.484   8.128  1.00  0.00     0.049 A 
ATOM     27  C   UNL     1      16.606  -4.303   3.152  1.00  0.00     0.074 A 
ATOM     28  C   UNL     1      14.824  -6.101   9.073  1.00  0.00     0.029 A 
ATOM     29  N   UNL     1      14.826  -5.270   7.005  1.00  0.00    -0.354 N 
ATOM     30  N   UNL     1      16.121  -4.626   4.331  1.00  0.00    -0.248 NA
ATOM     31  C   UNL     1      18.024  -4.619   2.970  1.00  0.00     0.031 C 
ATOM     32  C   UNL     1      16.114  -6.208   8.542  1.00  0.00     0.029 A 
ATOM     33  C   UNL     1      16.108  -5.725   7.239  1.00  0.00     0.049 A 
ATOM     34  H   UNL     1      14.519  -4.855   6.167  1.00  0.00     0.167 HD
ATOM     35  C   UNL     1      17.170  -5.205   5.029  1.00  0.00     0.074 A 
ATOM     36  C   UNL     1      18.311  -5.200   4.128  1.00  0.00     0.031 C 
ATOM     37  C   UNL     1      17.200  -5.694   6.294  1.00  0.00     0.031 A 
BRANCH  24  38
ATOM     38  C   UNL     1      11.863  -5.355   9.471  1.00  0.00    -0.014 A 
ATOM     39  C   UNL     1      10.780  -6.253   9.508  1.00  0.00     0.010 A 
ATOM     40  C   UNL     1      12.183  -4.624  10.629  1.00  0.00     0.010 A 
ATOM     41  C   UNL     1      10.006  -6.379  10.666  1.00  0.00     0.020 A 
ATOM     42  C   UNL     1      11.430  -4.768  11.797  1.00  0.00     0.020 A 
ATOM     43  C   UNL     1      10.334  -5.632  11.802  1.00  0.00     0.054 A 
BRANCH  43  44
ATOM     44  S   UNL     1       9.313  -5.813  13.290  1.00  0.00     0.124 S 
ATOM     45  O   UNL     1       8.079  -5.137  12.895  1.00  0.00    -0.237 OA
ATOM     46  O   UNL     1       9.215  -7.263  13.435  1.00  0.00    -0.237 OA
ATOM     47  O   UNL     1      10.088  -5.136  14.327  1.00  0.00    -0.744 OA
ENDBRANCH  43  44
ENDBRANCH  24  38
BRANCH  25  48
ATOM     48  C   UNL     1      16.581  -3.342   0.708  1.00  0.00    -0.014 A 
ATOM     49  C   UNL     1      17.029  -4.364  -0.145  1.00  0.00     0.010 A 
ATOM     50  C   UNL     1      16.770  -2.002   0.316  1.00  0.00     0.010 A 
ATOM     51  C   UNL     1      17.664  -4.053  -1.353  1.00  0.00     0.020 A 
ATOM     52  C   UNL     1      17.374  -1.686  -0.904  1.00  0.00     0.020 A 
ATOM     53  C   UNL     1      17.830  -2.716  -1.726  1.00  0.00     0.054 A 
BRANCH  53  54
ATOM     54  S   UNL     1      18.625  -2.338  -3.313  1.00  0.00     0.124 S 
ATOM     55  O   UNL     1      20.011  -2.714  -3.056  1.00  0.00    -0.237 OA
ATOM     56  O   UNL     1      17.897  -3.199  -4.242  1.00  0.00    -0.237 OA
ATOM     57  O   UNL     1      18.386  -0.906  -3.485  1.00  0.00    -0.744 OA
ENDBRANCH  53  54
ENDBRANCH  25  48
BRANCH  37  58
ATOM     58  C   UNL     1      18.493  -6.306   6.746  1.00  0.00    -0.014 A 
ATOM     59  C   UNL     1      19.608  -5.510   7.053  1.00  0.00     0.010 A 
ATOM     60  C   UNL     1      18.556  -7.698   6.937  1.00  0.00     0.010 A 
ATOM     61  C   UNL     1      20.780  -6.103   7.523  1.00  0.00     0.020 A 
ATOM     62  C   UNL     1      19.713  -8.289   7.438  1.00  0.00     0.020 A 
ATOM     63  C   UNL     1      20.822  -7.488   7.717  1.00  0.00     0.054 A 
BRANCH  63  64
ATOM     64  S   UNL     1      22.334  -8.225   8.389  1.00  0.00     0.124 S 
ATOM     65  O   UNL     1      23.245  -8.136   7.252  1.00  0.00    -0.237 OA
ATOM     66  O   UNL     1      22.643  -7.347   9.515  1.00  0.00    -0.237 OA
ATOM     67  O   UNL     1      21.925  -9.579   8.757  1.00  0.00    -0.744 OA
ENDBRANCH  63  64
ENDBRANCH  37  58
ENDBRANCH  11  12
ENDBRANCH   4   6
ENDBRANCH   3   4
ENDBRANCH   2   3
ENDBRANCH   1   2
BRANCH   1  68
ATOM     68  O   UNL     1       6.876  -1.882   0.220  1.00  0.00    -0.374 OA
BRANCH  68  69
ATOM     69  C   UNL     1       6.875  -0.630  -0.455  1.00  0.00     0.202 C 
BRANCH  69  70
ATOM     70  C   UNL     1       7.130  -0.870  -1.941  1.00  0.00     0.261 C 
BRANCH  70  71
ATOM     71  O   UNL     1       6.018  -1.611  -2.460  1.00  0.00    -0.463 OA
BRANCH  71  72
ATOM     72  C   UNL     1       6.056  -2.956  -2.220  1.00  0.00     0.313 C 
ATOM     73  O   UNL     1       7.060  -3.629  -2.012  1.00  0.00    -0.252 OA
BRANCH  72  74
ATOM     74  C   UNL     1       4.637  -3.484  -2.288  1.00  0.00     0.128 C 
ATOM     75  C   UNL     1       4.100  -4.392  -1.221  1.00  0.00    -0.010 C 
ATOM     76  C   UNL     1       4.576  -4.363  -3.512  1.00  0.00     0.089 C 
ATOM     77  C   UNL     1       4.020  -5.664  -1.624  1.00  0.00     0.033 C 
ATOM     78  C   UNL     1       4.544  -5.822  -3.016  1.00  0.00     0.208 C 
BRANCH  78  79
ATOM     79  N   UNL     1       3.786  -6.799  -3.809  1.00  0.00    -0.328 N 
ATOM     80  C   UNL     1       2.557  -6.253  -4.420  1.00  0.00     0.275 C 
ATOM     81  C   UNL     1       4.390  -6.947  -5.150  1.00  0.00     0.275 C 
ATOM     82  H   UNL     1       3.709  -7.579  -3.157  1.00  0.00     0.348 HD
ATOM     83  C   UNL     1       3.355  -6.011  -5.647  1.00  0.00     0.068 C 
ATOM     84  C   UNL     1       3.626  -4.705  -6.350  1.00  0.00     0.020 C 
ATOM     85  C   UNL     1       2.869  -5.799  -7.039  1.00  0.00     0.020 C 
ENDBRANCH  78  79
ENDBRANCH  72  74
ENDBRANCH  71  72
ENDBRANCH  70  71
ENDBRANCH  69  70
ENDBRANCH  68  69
ENDBRANCH   1  68
TORSDOF 18
