REMARK SMILES Cc1cc(F)cc(N[C@H](C(=O)OCCOCCOC(=O)c2ccc(-c3c4nc(c(-c5ccc(S(=O)(=O)[O-])cc5)c5ccc([nH]5)c(-c5ccc(S(=O)(=O)[O-])cc5)c5nc(c(-c6ccc(S(=O)(=O)[O-])cc6)c6ccc3[nH]6)C=C5)C=C4)cc2)c2cc(C)cc(C)c2)c1
REMARK SMILES IDX 16 1 15 2 14 3 13 4 12 5 10 6 11 7 9 8 8 9 7 11 1 12 2 13
REMARK SMILES IDX 3 14 89 15 4 16 5 17 6 18 81 19 82 20 88 21 83 22 86 23
REMARK SMILES IDX 84 24 85 25 87 26 17 27 18 28 19 29 20 30 21 31 22 32 80 33
REMARK SMILES IDX 23 34 79 35 24 36 25 37 26 38 73 39 27 40 78 41 72 42 74 43
REMARK SMILES IDX 28 44 77 45 71 46 70 47 29 49 59 50 40 51 58 52 41 53 44 54
REMARK SMILES IDX 57 55 75 56 42 57 43 58 56 60 76 61 45 62 30 63 31 64 39 65
REMARK SMILES IDX 32 66 38 67 33 68 34 69 35 70 36 71 37 72 60 73 61 74 69 75
REMARK SMILES IDX 62 76 68 77 63 78 64 79 65 80 66 81 67 82 46 83 47 84 55 85
REMARK SMILES IDX 48 86 54 87 49 88 50 89 51 90 52 91 53 92
REMARK H PARENT 8 10 74 48 44 59
REMARK Flexibility Score: inf
ROOT
ATOM      1  C   UNL     1       0.504  -0.867  -0.306  1.00  0.00     0.202 C 
ENDROOT
BRANCH   1   2
ATOM      2  O   UNL     1       1.860  -0.928   0.144  1.00  0.00    -0.374 OA
BRANCH   2   3
ATOM      3  C   UNL     1       2.786  -1.669  -0.645  1.00  0.00     0.202 C 
BRANCH   3   4
ATOM      4  C   UNL     1       2.806  -3.192  -0.488  1.00  0.00     0.261 C 
BRANCH   4   5
ATOM      5  O   UNL     1       1.512  -3.795  -0.566  1.00  0.00    -0.461 OA
BRANCH   5   6
ATOM      6  C   UNL     1       0.922  -3.975   0.652  1.00  0.00     0.333 C 
ATOM      7  O   UNL     1       1.393  -3.545   1.703  1.00  0.00    -0.249 OA
BRANCH   6   8
ATOM      8  C   UNL     1      -0.450  -4.673   0.553  1.00  0.00     0.221 C 
BRANCH   8   9
ATOM      9  N   UNL     1      -0.650  -5.502  -0.662  1.00  0.00    -0.369 N 
ATOM     10  H   UNL     1      -1.324  -5.157  -1.292  1.00  0.00     0.161 HD
BRANCH   9  11
ATOM     11  C   UNL     1      -0.042  -6.682  -1.049  1.00  0.00     0.038 A 
ATOM     12  C   UNL     1      -0.296  -9.163  -3.979  1.00  0.00     0.044 C 
ATOM     13  C   UNL     1       0.099  -8.537  -2.675  1.00  0.00    -0.046 A 
ATOM     14  C   UNL     1       1.004  -9.205  -1.851  1.00  0.00     0.042 A 
ATOM     15  C   UNL     1      -0.439  -7.303  -2.250  1.00  0.00     0.029 A 
ATOM     16  C   UNL     1       1.406  -8.605  -0.675  1.00  0.00     0.125 A 
ATOM     17  F   UNL     1       2.282  -9.227   0.126  1.00  0.00    -0.207 F 
ATOM     18  C   UNL     1       0.920  -7.355  -0.303  1.00  0.00     0.065 A 
ENDBRANCH   9  11
ENDBRANCH   8   9
BRANCH   8  19
ATOM     19  C   UNL     1      -0.840  -5.389   1.843  1.00  0.00    -0.014 A 
ATOM     20  C   UNL     1       0.123  -6.095   2.581  1.00  0.00     0.010 A 
ATOM     21  C   UNL     1      -2.151  -5.367   2.337  1.00  0.00     0.010 A 
ATOM     22  C   UNL     1      -0.210  -6.901   3.664  1.00  0.00    -0.051 A 
ATOM     23  C   UNL     1      -2.480  -6.059   3.515  1.00  0.00    -0.051 A 
ATOM     24  C   UNL     1       0.822  -7.852   4.190  1.00  0.00     0.044 C 
ATOM     25  C   UNL     1      -1.519  -6.873   4.135  1.00  0.00     0.006 A 
ATOM     26  C   UNL     1      -3.854  -5.970   4.108  1.00  0.00     0.044 C 
ENDBRANCH   8  19
ENDBRANCH   6   8
ENDBRANCH   5   6
ENDBRANCH   4   5
ENDBRANCH   3   4
ENDBRANCH   2   3
ENDBRANCH   1   2
BRANCH   1  27
ATOM     27  C   UNL     1       0.222   0.008  -1.532  1.00  0.00     0.261 C 
BRANCH  27  28
ATOM     28  O   UNL     1       0.689  -0.619  -2.742  1.00  0.00    -0.460 OA
BRANCH  28  29
ATOM     29  C   UNL     1       1.701   0.023  -3.369  1.00  0.00     0.338 C 
ATOM     30  O   UNL     1       2.186   1.110  -3.068  1.00  0.00    -0.246 OA
BRANCH  29  31
ATOM     31  C   UNL     1       2.316  -0.874  -4.362  1.00  0.00     0.060 A 
ATOM     32  C   UNL     1       3.693  -1.116  -4.259  1.00  0.00     0.016 A 
ATOM     33  C   UNL     1       1.572  -1.423  -5.407  1.00  0.00     0.016 A 
ATOM     34  C   UNL     1       4.343  -1.873  -5.229  1.00  0.00     0.010 A 
ATOM     35  C   UNL     1       2.229  -2.167  -6.391  1.00  0.00     0.010 A 
ATOM     36  C   UNL     1       3.621  -2.364  -6.324  1.00  0.00    -0.014 A 
BRANCH  36  37
ATOM     37  C   UNL     1       4.346  -2.934  -7.481  1.00  0.00     0.031 A 
ATOM     38  C   UNL     1       4.619  -2.049  -8.667  1.00  0.00     0.074 A 
ATOM     39  C   UNL     1       4.771  -4.210  -7.469  1.00  0.00     0.049 A 
ATOM     40  N   UNL     1       5.181  -2.345  -9.809  1.00  0.00    -0.248 NA
ATOM     41  C   UNL     1       4.199  -0.642  -8.547  1.00  0.00     0.031 C 
ATOM     42  C   UNL     1       4.613  -5.144  -6.356  1.00  0.00     0.029 A 
ATOM     43  N   UNL     1       5.417  -4.939  -8.434  1.00  0.00    -0.354 N 
ATOM     44  C   UNL     1       5.174  -1.168 -10.548  1.00  0.00     0.074 A 
ATOM     45  C   UNL     1       4.531  -0.159  -9.735  1.00  0.00     0.031 C 
ATOM     46  C   UNL     1       5.138  -6.331  -6.707  1.00  0.00     0.029 A 
ATOM     47  C   UNL     1       5.634  -6.249  -8.079  1.00  0.00     0.049 A 
ATOM     48  H   UNL     1       5.699  -4.561  -9.298  1.00  0.00     0.167 HD
ATOM     49  C   UNL     1       5.661  -0.948 -11.792  1.00  0.00     0.031 A 
ATOM     50  C   UNL     1       6.147  -7.270  -8.793  1.00  0.00     0.031 A 
ATOM     51  C   UNL     1       6.285  -1.960 -12.601  1.00  0.00     0.049 A 
ATOM     52  C   UNL     1       6.605  -7.022 -10.207  1.00  0.00     0.074 A 
ATOM     53  C   UNL     1       6.821  -1.838 -13.871  1.00  0.00     0.029 A 
ATOM     54  N   UNL     1       6.448  -3.284 -12.223  1.00  0.00    -0.354 N 
ATOM     55  N   UNL     1       6.606  -5.901 -10.888  1.00  0.00    -0.248 NA
ATOM     56  C   UNL     1       7.132  -8.177 -10.946  1.00  0.00     0.031 C 
ATOM     57  C   UNL     1       7.257  -3.102 -14.283  1.00  0.00     0.029 A 
ATOM     58  C   UNL     1       7.047  -3.998 -13.246  1.00  0.00     0.049 A 
ATOM     59  H   UNL     1       6.177  -3.661 -11.354  1.00  0.00     0.167 HD
ATOM     60  C   UNL     1       7.153  -6.211 -12.129  1.00  0.00     0.074 A 
ATOM     61  C   UNL     1       7.485  -7.621 -12.098  1.00  0.00     0.031 C 
ATOM     62  C   UNL     1       7.363  -5.404 -13.198  1.00  0.00     0.031 A 
BRANCH  49  63
ATOM     63  C   UNL     1       5.498   0.434 -12.367  1.00  0.00    -0.014 A 
ATOM     64  C   UNL     1       6.255   1.518 -11.888  1.00  0.00     0.010 A 
ATOM     65  C   UNL     1       4.593   0.644 -13.424  1.00  0.00     0.010 A 
ATOM     66  C   UNL     1       6.083   2.795 -12.431  1.00  0.00     0.020 A 
ATOM     67  C   UNL     1       4.437   1.913 -13.987  1.00  0.00     0.020 A 
ATOM     68  C   UNL     1       5.172   2.985 -13.475  1.00  0.00     0.054 A 
BRANCH  68  69
ATOM     69  S   UNL     1       4.982   4.647 -14.174  1.00  0.00     0.124 S 
ATOM     70  O   UNL     1       4.251   5.338 -13.114  1.00  0.00    -0.237 OA
ATOM     71  O   UNL     1       6.366   5.075 -14.363  1.00  0.00    -0.237 OA
ATOM     72  O   UNL     1       4.229   4.423 -15.405  1.00  0.00    -0.744 OA
ENDBRANCH  68  69
ENDBRANCH  49  63
BRANCH  50  73
ATOM     73  C   UNL     1       6.225  -8.629  -8.193  1.00  0.00    -0.014 A 
ATOM     74  C   UNL     1       7.467  -9.203  -7.869  1.00  0.00     0.010 A 
ATOM     75  C   UNL     1       5.048  -9.358  -7.939  1.00  0.00     0.010 A 
ATOM     76  C   UNL     1       7.531 -10.485  -7.315  1.00  0.00     0.020 A 
ATOM     77  C   UNL     1       5.107 -10.629  -7.361  1.00  0.00     0.020 A 
ATOM     78  C   UNL     1       6.350 -11.189  -7.062  1.00  0.00     0.054 A 
BRANCH  78  79
ATOM     79  S   UNL     1       6.452 -12.829  -6.293  1.00  0.00     0.124 S 
ATOM     80  O   UNL     1       6.926 -13.654  -7.399  1.00  0.00    -0.237 OA
ATOM     81  O   UNL     1       7.409 -12.611  -5.210  1.00  0.00    -0.237 OA
ATOM     82  O   UNL     1       5.081 -13.088  -5.859  1.00  0.00    -0.744 OA
ENDBRANCH  78  79
ENDBRANCH  50  73
BRANCH  62  83
ATOM     83  C   UNL     1       8.003  -6.016 -14.416  1.00  0.00    -0.014 A 
ATOM     84  C   UNL     1       7.287  -6.891 -15.252  1.00  0.00     0.010 A 
ATOM     85  C   UNL     1       9.321  -5.664 -14.760  1.00  0.00     0.010 A 
ATOM     86  C   UNL     1       7.888  -7.425 -16.395  1.00  0.00     0.020 A 
ATOM     87  C   UNL     1       9.916  -6.173 -15.917  1.00  0.00     0.020 A 
ATOM     88  C   UNL     1       9.199  -7.062 -16.720  1.00  0.00     0.054 A 
BRANCH  88  89
ATOM     89  S   UNL     1       9.940  -7.732 -18.234  1.00  0.00     0.124 S 
ATOM     90  O   UNL     1      10.212  -9.115 -17.853  1.00  0.00    -0.237 OA
ATOM     91  O   UNL     1       8.877  -7.549 -19.220  1.00  0.00    -0.237 OA
ATOM     92  O   UNL     1      11.122  -6.899 -18.440  1.00  0.00    -0.744 OA
ENDBRANCH  88  89
ENDBRANCH  62  83
ENDBRANCH  36  37
ENDBRANCH  29  31
ENDBRANCH  28  29
ENDBRANCH  27  28
ENDBRANCH   1  27
TORSDOF 20
