REMARK SMILES Cc1c[nH]c(C[N@H+]2C[C@@H]3CN(S(C)(=O)=O)C[C@]3(C(=O)OCCOCCOC(=O)c3ccc(-c4c5nc(c(-c6ccc(S(=O)(=O)[O-])cc6)c6ccc([nH]6)c(-c6ccc(S(=O)(=O)[O-])cc6)c6nc(c(-c7ccc(S(=O)(=O)[O-])cc7)c7ccc4[nH]7)C=C6)C=C5)cc3)C2)n1
REMARK SMILES IDX 24 1 23 2 22 3 21 4 20 5 18 6 19 7 17 8 7 9 8 10 89 11 9 13
REMARK SMILES IDX 10 14 16 15 11 16 6 17 5 18 1 19 2 20 3 21 90 22 4 23 12 25
REMARK SMILES IDX 13 26 14 27 15 28 25 29 26 30 27 31 28 32 29 33 30 34 88 35
REMARK SMILES IDX 31 36 87 37 32 38 33 39 34 40 81 41 35 42 86 43 80 44 82 45
REMARK SMILES IDX 36 46 85 47 79 48 78 49 37 51 67 52 48 53 66 54 49 55 52 56
REMARK SMILES IDX 65 57 83 58 50 59 51 60 64 62 84 63 53 64 38 65 39 66 47 67
REMARK SMILES IDX 40 68 46 69 41 70 42 71 43 72 44 73 45 74 68 75 69 76 77 77
REMARK SMILES IDX 70 78 76 79 71 80 72 81 73 82 74 83 75 84 54 85 55 86 63 87
REMARK SMILES IDX 56 88 62 89 57 90 58 91 59 92 60 93 61 94
REMARK H PARENT 7 12 4 24 82 50 52 61
REMARK Flexibility Score: inf
ROOT
ATOM      1  C   UNL     1       2.493   5.468   1.846  1.00  0.00     0.202 C 
ENDROOT
BRANCH   1   2
ATOM      2  O   UNL     1       2.142   6.673   1.166  1.00  0.00    -0.374 OA
BRANCH   2   3
ATOM      3  C   UNL     1       1.019   7.383   1.687  1.00  0.00     0.202 C 
BRANCH   3   4
ATOM      4  C   UNL     1      -0.311   7.008   1.033  1.00  0.00     0.261 C 
BRANCH   4   5
ATOM      5  O   UNL     1      -0.895   5.844   1.643  1.00  0.00    -0.463 OA
BRANCH   5   6
ATOM      6  C   UNL     1      -0.483   4.559   1.373  1.00  0.00     0.319 C 
ATOM      7  O   UNL     1       0.244   4.232   0.454  1.00  0.00    -0.251 OA
BRANCH   6   8
ATOM      8  C   UNL     1      -1.212   3.653   2.365  1.00  0.00     0.140 C 
ATOM      9  N   UNL     1      -2.840   1.986   1.536  1.00  0.00    -0.327 N 
ATOM     10  C   UNL     1      -2.124   1.405   2.651  1.00  0.00     0.268 C 
ATOM     11  C   UNL     1      -2.520   3.425   1.571  1.00  0.00     0.283 C 
ATOM     12  H   UNL     1      -3.848   1.859   1.628  1.00  0.00     0.348 HD
ATOM     13  C   UNL     1      -0.843   2.233   2.841  1.00  0.00     0.084 C 
ATOM     14  C   UNL     1      -0.595   2.239   4.359  1.00  0.00     0.113 C 
ATOM     15  C   UNL     1      -1.111   4.466   3.677  1.00  0.00     0.127 C 
ATOM     16  N   UNL     1      -1.094   3.530   4.784  1.00  0.00    -0.200 NA
BRANCH   9  17
ATOM     17  C   UNL     1      -2.636   1.294   0.244  1.00  0.00     0.338 C 
BRANCH  17  18
ATOM     18  C   UNL     1      -1.372   0.493   0.066  1.00  0.00     0.161 A 
ATOM     19  C   UNL     1       2.148  -0.055  -0.060  1.00  0.00     0.068 C 
ATOM     20  C   UNL     1       0.674  -0.185  -0.050  1.00  0.00     0.056 A 
ATOM     21  C   UNL     1      -0.098  -1.324  -0.074  1.00  0.00     0.107 A 
ATOM     22  N   UNL     1      -0.130   0.930   0.014  1.00  0.00    -0.233 NA
ATOM     23  N   UNL     1      -1.390  -0.882  -0.021  1.00  0.00    -0.344 N 
ATOM     24  H   UNL     1      -2.195  -1.449  -0.041  1.00  0.00     0.167 HD
ENDBRANCH  17  18
ENDBRANCH   9  17
BRANCH  16  25
ATOM     25  S   UNL     1      -1.872   3.871   6.207  1.00  0.00     0.211 S 
ATOM     26  C   UNL     1      -3.553   4.059   5.643  1.00  0.00     0.176 C 
ATOM     27  O   UNL     1      -1.801   2.700   7.060  1.00  0.00    -0.213 OA
ATOM     28  O   UNL     1      -1.411   5.163   6.650  1.00  0.00    -0.213 OA
ENDBRANCH  16  25
ENDBRANCH   6   8
ENDBRANCH   5   6
ENDBRANCH   4   5
ENDBRANCH   3   4
ENDBRANCH   2   3
ENDBRANCH   1   2
BRANCH   1  29
ATOM     29  C   UNL     1       3.476   5.622   3.003  1.00  0.00     0.261 C 
BRANCH  29  30
ATOM     30  O   UNL     1       2.912   6.428   4.049  1.00  0.00    -0.460 OA
BRANCH  30  31
ATOM     31  C   UNL     1       3.274   7.730   3.973  1.00  0.00     0.338 C 
ATOM     32  O   UNL     1       4.082   8.219   3.200  1.00  0.00    -0.246 OA
BRANCH  31  33
ATOM     33  C   UNL     1       2.438   8.562   4.856  1.00  0.00     0.060 A 
ATOM     34  C   UNL     1       2.000   9.781   4.326  1.00  0.00     0.016 A 
ATOM     35  C   UNL     1       2.180   8.231   6.189  1.00  0.00     0.016 A 
ATOM     36  C   UNL     1       1.410  10.724   5.154  1.00  0.00     0.010 A 
ATOM     37  C   UNL     1       1.581   9.183   7.022  1.00  0.00     0.010 A 
ATOM     38  C   UNL     1       1.257  10.456   6.521  1.00  0.00    -0.014 A 
BRANCH  38  39
ATOM     39  C   UNL     1       0.930  11.588   7.420  1.00  0.00     0.031 A 
ATOM     40  C   UNL     1       2.034  12.226   8.224  1.00  0.00     0.074 A 
ATOM     41  C   UNL     1      -0.307  12.115   7.427  1.00  0.00     0.049 A 
ATOM     42  N   UNL     1       1.994  13.287   8.988  1.00  0.00    -0.248 NA
ATOM     43  C   UNL     1       3.361  11.591   8.151  1.00  0.00     0.031 C 
ATOM     44  C   UNL     1      -1.441  11.612   6.652  1.00  0.00     0.029 A 
ATOM     45  N   UNL     1      -0.808  13.204   8.092  1.00  0.00    -0.354 N 
ATOM     46  C   UNL     1       3.282  13.442   9.491  1.00  0.00     0.074 A 
ATOM     47  C   UNL     1       4.072  12.347   8.974  1.00  0.00     0.031 C 
ATOM     48  C   UNL     1      -2.504  12.403   6.874  1.00  0.00     0.029 A 
ATOM     49  C   UNL     1      -2.135  13.445   7.830  1.00  0.00     0.049 A 
ATOM     50  H   UNL     1      -0.268  13.761   8.700  1.00  0.00     0.167 HD
ATOM     51  C   UNL     1       3.766  14.414  10.301  1.00  0.00     0.031 A 
ATOM     52  C   UNL     1      -2.961  14.394   8.313  1.00  0.00     0.031 A 
ATOM     53  C   UNL     1       2.970  15.495  10.822  1.00  0.00     0.049 A 
ATOM     54  C   UNL     1      -2.414  15.426   9.264  1.00  0.00     0.074 A 
ATOM     55  C   UNL     1       3.366  16.537  11.644  1.00  0.00     0.029 A 
ATOM     56  N   UNL     1       1.615  15.671  10.581  1.00  0.00    -0.354 N 
ATOM     57  N   UNL     1      -1.190  15.571   9.713  1.00  0.00    -0.248 NA
ATOM     58  C   UNL     1      -3.361  16.435   9.758  1.00  0.00     0.031 C 
ATOM     59  C   UNL     1       2.237  17.303  11.952  1.00  0.00     0.029 A 
ATOM     60  C   UNL     1       1.154  16.787  11.258  1.00  0.00     0.049 A 
ATOM     61  H   UNL     1       1.063  15.088  10.011  1.00  0.00     0.167 HD
ATOM     62  C   UNL     1      -1.211  16.708  10.514  1.00  0.00     0.074 A 
ATOM     63  C   UNL     1      -2.567  17.219  10.472  1.00  0.00     0.031 C 
ATOM     64  C   UNL     1      -0.200  17.282  11.215  1.00  0.00     0.031 A 
BRANCH  51  65
ATOM     65  C   UNL     1       5.216  14.330  10.708  1.00  0.00    -0.014 A 
ATOM     66  C   UNL     1       6.254  14.549   9.784  1.00  0.00     0.010 A 
ATOM     67  C   UNL     1       5.545  14.068  12.051  1.00  0.00     0.010 A 
ATOM     68  C   UNL     1       7.591  14.472  10.187  1.00  0.00     0.020 A 
ATOM     69  C   UNL     1       6.879  14.021  12.465  1.00  0.00     0.020 A 
ATOM     70  C   UNL     1       7.895  14.208  11.526  1.00  0.00     0.054 A 
BRANCH  70  71
ATOM     71  S   UNL     1       9.637  14.143  12.028  1.00  0.00     0.124 S 
ATOM     72  O   UNL     1      10.086  12.903  11.400  1.00  0.00    -0.237 OA
ATOM     73  O   UNL     1      10.181  15.370  11.453  1.00  0.00    -0.237 OA
ATOM     74  O   UNL     1       9.579  14.114  13.487  1.00  0.00    -0.744 OA
ENDBRANCH  70  71
ENDBRANCH  51  65
BRANCH  52  75
ATOM     75  C   UNL     1      -4.394  14.403   7.910  1.00  0.00    -0.014 A 
ATOM     76  C   UNL     1      -4.918  15.441   7.120  1.00  0.00     0.010 A 
ATOM     77  C   UNL     1      -5.245  13.359   8.317  1.00  0.00     0.010 A 
ATOM     78  C   UNL     1      -6.270  15.444   6.762  1.00  0.00     0.020 A 
ATOM     79  C   UNL     1      -6.588  13.341   7.934  1.00  0.00     0.020 A 
ATOM     80  C   UNL     1      -7.095  14.391   7.168  1.00  0.00     0.054 A 
BRANCH  80  81
ATOM     81  S   UNL     1      -8.833  14.389   6.647  1.00  0.00     0.124 S 
ATOM     82  O   UNL     1      -9.395  15.466   7.455  1.00  0.00    -0.237 OA
ATOM     83  O   UNL     1      -8.732  14.657   5.215  1.00  0.00    -0.237 OA
ATOM     84  O   UNL     1      -9.291  13.044   6.989  1.00  0.00    -0.744 OA
ENDBRANCH  80  81
ENDBRANCH  52  75
BRANCH  64  85
ATOM     85  C   UNL     1      -0.509  18.560  11.954  1.00  0.00    -0.014 A 
ATOM     86  C   UNL     1      -1.358  18.579  13.076  1.00  0.00     0.010 A 
ATOM     87  C   UNL     1       0.082  19.763  11.525  1.00  0.00     0.010 A 
ATOM     88  C   UNL     1      -1.654  19.786  13.717  1.00  0.00     0.020 A 
ATOM     89  C   UNL     1      -0.181  20.965  12.186  1.00  0.00     0.020 A 
ATOM     90  C   UNL     1      -1.067  20.972  13.264  1.00  0.00     0.054 A 
BRANCH  90  91
ATOM     91  S   UNL     1      -1.464  22.524  14.115  1.00  0.00     0.124 S 
ATOM     92  O   UNL     1      -2.838  22.764  13.684  1.00  0.00    -0.237 OA
ATOM     93  O   UNL     1      -1.299  22.168  15.523  1.00  0.00    -0.237 OA
ATOM     94  O   UNL     1      -0.475  23.467  13.597  1.00  0.00    -0.744 OA
ENDBRANCH  90  91
ENDBRANCH  64  85
ENDBRANCH  38  39
ENDBRANCH  31  33
ENDBRANCH  30  31
ENDBRANCH  29  30
ENDBRANCH   1  29
TORSDOF 20
