REMARK SMILES Cc1cccc(N2C(=O)/C(=C/c3ccc(C(=O)OCCOCCOC(=O)c4ccc(-c5c6nc(c(-c7ccc(S(=O)(=O)[O-])cc7)c7ccc([nH]7)c(-c7ccc(S(=O)(=O)[O-])cc7)c7nc(c(-c8ccc(S(=O)(=O)[O-])cc8)c8ccc5[nH]8)C=C7)C=C6)cc4)cc3)c3ccccc3C2=O)c1
REMARK SMILES IDX 22 1 21 2 20 3 19 4 18 5 16 6 17 7 15 8 12 9 13 10 88 11
REMARK SMILES IDX 14 12 87 13 11 14 7 15 8 16 95 17 9 18 10 19 94 20 96 21
REMARK SMILES IDX 89 22 93 23 90 24 92 25 91 26 6 27 1 28 2 29 3 30 97 31 4 32
REMARK SMILES IDX 5 33 23 34 24 35 25 36 26 37 27 38 28 39 86 40 29 41 85 42
REMARK SMILES IDX 30 43 31 44 32 45 79 46 33 47 84 48 78 49 80 50 34 51 83 52
REMARK SMILES IDX 77 53 76 54 35 56 65 57 46 58 64 59 47 60 50 61 63 62 81 63
REMARK SMILES IDX 48 64 49 65 62 67 82 68 51 69 36 70 37 71 45 72 38 73 44 74
REMARK SMILES IDX 39 75 40 76 41 77 42 78 43 79 66 80 67 81 75 82 68 83 74 84
REMARK SMILES IDX 69 85 70 86 71 87 72 88 73 89 52 90 53 91 61 92 54 93 60 94
REMARK SMILES IDX 55 95 56 96 57 97 58 98 59 99
REMARK H PARENT 80 55 50 66
REMARK Flexibility Score: inf
ROOT
ATOM      1  C   UNL     1      -1.488  12.956   1.236  1.00  0.00     0.202 C 
ENDROOT
BRANCH   1   2
ATOM      2  O   UNL     1      -2.759  12.537   0.800  1.00  0.00    -0.374 OA
BRANCH   2   3
ATOM      3  C   UNL     1      -3.607  11.966   1.787  1.00  0.00     0.202 C 
BRANCH   3   4
ATOM      4  C   UNL     1      -4.788  11.406   1.045  1.00  0.00     0.261 C 
BRANCH   4   5
ATOM      5  O   UNL     1      -4.430  10.328   0.146  1.00  0.00    -0.460 OA
BRANCH   5   6
ATOM      6  C   UNL     1      -3.798  10.568  -1.045  1.00  0.00     0.338 C 
ATOM      7  O   UNL     1      -3.518  11.588  -1.594  1.00  0.00    -0.246 OA
BRANCH   6   8
ATOM      8  C   UNL     1      -3.299   9.255  -1.486  1.00  0.00     0.060 A 
ATOM      9  C   UNL     1      -2.083   6.803  -1.399  1.00  0.00    -0.025 A 
ATOM     10  C   UNL     1      -1.320   7.934  -1.715  1.00  0.00     0.009 A 
ATOM     11  C   UNL     1      -3.481   6.873  -1.384  1.00  0.00     0.009 A 
ATOM     12  C   UNL     1      -1.937   9.174  -1.774  1.00  0.00     0.016 A 
ATOM     13  C   UNL     1      -4.094   8.114  -1.384  1.00  0.00     0.016 A 
BRANCH   9  14
ATOM     14  C   UNL     1      -1.382   5.601  -0.955  1.00  0.00     0.022 C 
ATOM     15  N   UNL     1      -1.609   2.497   0.532  1.00  0.00    -0.242 N 
ATOM     16  C   UNL     1      -0.849   3.659   0.302  1.00  0.00     0.265 C 
ATOM     17  C   UNL     1      -2.967   2.590   0.937  1.00  0.00     0.265 C 
ATOM     18  O   UNL     1       0.368   3.780   0.176  1.00  0.00    -0.268 OA
ATOM     19  C   UNL     1      -1.670   4.888   0.155  1.00  0.00     0.049 C 
ATOM     20  C   UNL     1      -3.445   3.903   1.452  1.00  0.00     0.048 A 
ATOM     21  O   UNL     1      -3.805   1.691   0.951  1.00  0.00    -0.268 OA
ATOM     22  C   UNL     1      -2.757   5.064   1.114  1.00  0.00    -0.000 A 
ATOM     23  C   UNL     1      -4.581   3.968   2.274  1.00  0.00     0.014 A 
ATOM     24  C   UNL     1      -3.145   6.283   1.689  1.00  0.00     0.010 A 
ATOM     25  C   UNL     1      -4.997   5.192   2.797  1.00  0.00     0.001 A 
ATOM     26  C   UNL     1      -4.269   6.347   2.518  1.00  0.00     0.001 A 
BRANCH  15  27
ATOM     27  C   UNL     1      -0.986   1.187   0.329  1.00  0.00     0.053 A 
ATOM     28  C   UNL     1       2.535  -0.294  -0.033  1.00  0.00     0.044 C 
ATOM     29  C   UNL     1       1.039  -0.210   0.041  1.00  0.00    -0.049 A 
ATOM     30  C   UNL     1       0.256  -1.352  -0.084  1.00  0.00     0.003 A 
ATOM     31  C   UNL     1       0.412   1.029   0.262  1.00  0.00     0.030 A 
ATOM     32  C   UNL     1      -1.126  -1.242  -0.015  1.00  0.00     0.002 A 
ATOM     33  C   UNL     1      -1.733   0.007   0.179  1.00  0.00     0.027 A 
ENDBRANCH  15  27
ENDBRANCH   9  14
ENDBRANCH   6   8
ENDBRANCH   5   6
ENDBRANCH   4   5
ENDBRANCH   3   4
ENDBRANCH   2   3
ENDBRANCH   1   2
BRANCH   1  34
ATOM     34  C   UNL     1      -1.555  14.101   2.248  1.00  0.00     0.261 C 
BRANCH  34  35
ATOM     35  O   UNL     1      -1.975  15.325   1.610  1.00  0.00    -0.460 OA
BRANCH  35  36
ATOM     36  C   UNL     1      -3.266  15.697   1.856  1.00  0.00     0.338 C 
ATOM     37  O   UNL     1      -3.632  16.228   2.889  1.00  0.00    -0.246 OA
BRANCH  36  38
ATOM     38  C   UNL     1      -4.127  15.391   0.680  1.00  0.00     0.060 A 
ATOM     39  C   UNL     1      -5.520  15.252   0.809  1.00  0.00     0.016 A 
ATOM     40  C   UNL     1      -3.513  15.071  -0.525  1.00  0.00     0.016 A 
ATOM     41  C   UNL     1      -6.277  14.663  -0.222  1.00  0.00     0.010 A 
ATOM     42  C   UNL     1      -4.245  14.428  -1.499  1.00  0.00     0.010 A 
ATOM     43  C   UNL     1      -5.624  14.188  -1.355  1.00  0.00    -0.014 A 
BRANCH  43  44
ATOM     44  C   UNL     1      -6.194  13.388  -2.450  1.00  0.00     0.031 A 
ATOM     45  C   UNL     1      -6.075  13.923  -3.830  1.00  0.00     0.074 A 
ATOM     46  C   UNL     1      -6.454  12.067  -2.281  1.00  0.00     0.049 A 
ATOM     47  N   UNL     1      -6.494  13.309  -4.880  1.00  0.00    -0.248 NA
ATOM     48  C   UNL     1      -5.488  15.227  -4.152  1.00  0.00     0.031 C 
ATOM     49  C   UNL     1      -6.344  10.992  -3.272  1.00  0.00     0.029 A 
ATOM     50  N   UNL     1      -6.906  11.390  -1.150  1.00  0.00    -0.354 N 
ATOM     51  C   UNL     1      -5.889  13.894  -5.965  1.00  0.00     0.074 A 
ATOM     52  C   UNL     1      -5.402  15.161  -5.484  1.00  0.00     0.031 C 
ATOM     53  C   UNL     1      -6.946   9.884  -2.808  1.00  0.00     0.029 A 
ATOM     54  C   UNL     1      -7.593  10.241  -1.558  1.00  0.00     0.049 A 
ATOM     55  H   UNL     1      -6.765  11.674  -0.217  1.00  0.00     0.167 HD
ATOM     56  C   UNL     1      -5.744  13.154  -7.099  1.00  0.00     0.031 A 
ATOM     57  C   UNL     1      -8.904  10.077  -1.228  1.00  0.00     0.031 A 
ATOM     58  C   UNL     1      -6.510  11.903  -7.011  1.00  0.00     0.049 A 
ATOM     59  C   UNL     1      -9.718  10.105  -2.492  1.00  0.00     0.074 A 
ATOM     60  C   UNL     1      -6.165  10.566  -6.912  1.00  0.00     0.029 A 
ATOM     61  N   UNL     1      -7.869  11.978  -6.706  1.00  0.00    -0.354 N 
ATOM     62  N   UNL     1      -9.260  10.626  -3.599  1.00  0.00    -0.248 NA
ATOM     63  C   UNL     1     -11.021   9.479  -2.675  1.00  0.00     0.031 C 
ATOM     64  C   UNL     1      -7.308   9.861  -6.424  1.00  0.00     0.029 A 
ATOM     65  C   UNL     1      -8.355  10.759  -6.274  1.00  0.00     0.049 A 
ATOM     66  H   UNL     1      -8.413  12.794  -6.788  1.00  0.00     0.167 HD
ATOM     67  C   UNL     1     -10.085  10.323  -4.632  1.00  0.00     0.074 A 
ATOM     68  C   UNL     1     -11.211   9.654  -3.998  1.00  0.00     0.031 C 
ATOM     69  C   UNL     1      -9.768  10.616  -5.925  1.00  0.00     0.031 A 
BRANCH  56  70
ATOM     70  C   UNL     1      -4.768  13.469  -8.215  1.00  0.00    -0.014 A 
ATOM     71  C   UNL     1      -4.694  12.617  -9.337  1.00  0.00     0.010 A 
ATOM     72  C   UNL     1      -3.840  14.532  -8.192  1.00  0.00     0.010 A 
ATOM     73  C   UNL     1      -3.763  12.820 -10.371  1.00  0.00     0.020 A 
ATOM     74  C   UNL     1      -2.925  14.766  -9.230  1.00  0.00     0.020 A 
ATOM     75  C   UNL     1      -2.886  13.902 -10.315  1.00  0.00     0.054 A 
BRANCH  75  76
ATOM     76  S   UNL     1      -1.698  14.163 -11.658  1.00  0.00     0.124 S 
ATOM     77  O   UNL     1      -0.849  12.979 -11.559  1.00  0.00    -0.237 OA
ATOM     78  O   UNL     1      -2.558  14.227 -12.836  1.00  0.00    -0.237 OA
ATOM     79  O   UNL     1      -1.043  15.422 -11.304  1.00  0.00    -0.744 OA
ENDBRANCH  75  76
ENDBRANCH  56  70
BRANCH  57  80
ATOM     80  C   UNL     1      -9.210  10.606   0.143  1.00  0.00    -0.014 A 
ATOM     81  C   UNL     1      -8.737   9.829   1.231  1.00  0.00     0.010 A 
ATOM     82  C   UNL     1      -9.401  11.986   0.356  1.00  0.00     0.010 A 
ATOM     83  C   UNL     1      -8.301  10.432   2.421  1.00  0.00     0.020 A 
ATOM     84  C   UNL     1      -8.954  12.593   1.548  1.00  0.00     0.020 A 
ATOM     85  C   UNL     1      -8.356  11.820   2.548  1.00  0.00     0.054 A 
BRANCH  85  86
ATOM     86  S   UNL     1      -7.393  12.613   3.885  1.00  0.00     0.124 S 
ATOM     87  O   UNL     1      -8.287  12.490   5.030  1.00  0.00    -0.237 OA
ATOM     88  O   UNL     1      -6.182  11.791   3.945  1.00  0.00    -0.237 OA
ATOM     89  O   UNL     1      -7.178  13.967   3.388  1.00  0.00    -0.744 OA
ENDBRANCH  85  86
ENDBRANCH  57  80
BRANCH  69  90
ATOM     90  C   UNL     1     -10.791  10.762  -7.011  1.00  0.00    -0.014 A 
ATOM     91  C   UNL     1     -12.150  10.996  -6.750  1.00  0.00     0.010 A 
ATOM     92  C   UNL     1     -10.357  10.871  -8.352  1.00  0.00     0.010 A 
ATOM     93  C   UNL     1     -13.047  11.258  -7.785  1.00  0.00     0.020 A 
ATOM     94  C   UNL     1     -11.233  11.193  -9.385  1.00  0.00     0.020 A 
ATOM     95  C   UNL     1     -12.583  11.354  -9.096  1.00  0.00     0.054 A 
BRANCH  95  96
ATOM     96  S   UNL     1     -13.755  11.747 -10.410  1.00  0.00     0.124 S 
ATOM     97  O   UNL     1     -14.364  10.444 -10.661  1.00  0.00    -0.237 OA
ATOM     98  O   UNL     1     -14.627  12.736  -9.781  1.00  0.00    -0.237 OA
ATOM     99  O   UNL     1     -12.910  12.263 -11.484  1.00  0.00    -0.744 OA
ENDBRANCH  95  96
ENDBRANCH  69  90
ENDBRANCH  43  44
ENDBRANCH  36  38
ENDBRANCH  35  36
ENDBRANCH  34  35
ENDBRANCH   1  34
TORSDOF 19
