REMARK SMILES Cc1ccc(C(=O)N2CCCC[C@@H]2C(=O)OCCOCCOC(=O)c2ccc(-c3c4nc(c(-c5ccc(S(=O)(=O)[O-])cc5)c5ccc([nH]5)c(-c5ccc(S(=O)(=O)[O-])cc5)c5nc(c(-c6ccc(S(=O)(=O)[O-])cc6)c6ccc3[nH]6)C=C5)C=C4)cc2)cc1S(=O)(=O)N1CCCCC1
REMARK SMILES IDX 18 1 17 2 16 3 14 4 15 5 13 6 8 7 9 8 10 9 12 10 11 11 6 12
REMARK SMILES IDX 7 13 5 14 1 15 2 16 3 17 86 18 4 19 85 20 87 21 88 22 89 23
REMARK SMILES IDX 90 24 91 25 95 26 92 27 94 28 93 29 19 30 20 31 21 32 22 33
REMARK SMILES IDX 23 34 24 35 25 36 26 37 84 38 27 39 83 40 28 41 29 42 30 43
REMARK SMILES IDX 77 44 31 45 82 46 76 47 78 48 32 49 81 50 75 51 74 52 33 54
REMARK SMILES IDX 63 55 44 56 62 57 45 58 48 59 61 60 79 61 46 62 47 63 60 65
REMARK SMILES IDX 80 66 49 67 34 68 35 69 43 70 36 71 42 72 37 73 38 74 39 75
REMARK SMILES IDX 40 76 41 77 64 78 65 79 73 80 66 81 72 82 67 83 68 84 69 85
REMARK SMILES IDX 70 86 71 87 50 88 51 89 59 90 52 91 58 92 53 93 54 94 55 95
REMARK SMILES IDX 56 96 57 97
REMARK H PARENT 78 53 48 64
REMARK Flexibility Score: inf
ROOT
ATOM      1  C   UNL     1      -4.312   1.574  -4.284  1.00  0.00     0.202 C 
ENDROOT
BRANCH   1   2
ATOM      2  C   UNL     1      -4.203   0.585  -3.119  1.00  0.00     0.261 C 
BRANCH   2   3
ATOM      3  O   UNL     1      -4.504   1.200  -1.835  1.00  0.00    -0.462 OA
BRANCH   3   4
ATOM      4  C   UNL     1      -3.623   2.092  -1.291  1.00  0.00     0.328 C 
ATOM      5  O   UNL     1      -2.436   2.196  -1.573  1.00  0.00    -0.250 OA
BRANCH   4   6
ATOM      6  C   UNL     1      -4.350   3.124  -0.389  1.00  0.00     0.195 C 
ATOM      7  N   UNL     1      -4.671   2.873   1.061  1.00  0.00    -0.325 N 
ATOM      8  C   UNL     1      -6.041   2.984   1.552  1.00  0.00     0.121 C 
ATOM      9  C   UNL     1      -7.127   3.126   0.515  1.00  0.00     0.022 C 
ATOM     10  C   UNL     1      -5.541   3.610  -1.262  1.00  0.00     0.037 C 
ATOM     11  C   UNL     1      -6.699   4.180  -0.485  1.00  0.00     0.005 C 
BRANCH   7  12
ATOM     12  C   UNL     1      -3.742   2.966   2.126  1.00  0.00     0.254 C 
ATOM     13  O   UNL     1      -4.077   3.158   3.297  1.00  0.00    -0.269 OA
BRANCH  12  14
ATOM     14  C   UNL     1      -2.360   2.541   1.928  1.00  0.00     0.041 A 
ATOM     15  C   UNL     1       0.383   0.595  -0.085  1.00  0.00     0.046 C 
ATOM     16  C   UNL     1      -0.211   1.286   1.050  1.00  0.00    -0.031 A 
ATOM     17  C   UNL     1      -1.118   0.559   1.829  1.00  0.00     0.005 A 
ATOM     18  C   UNL     1      -0.137   2.660   0.991  1.00  0.00     0.086 A 
ATOM     19  C   UNL     1      -2.206   1.209   2.310  1.00  0.00     0.014 A 
ATOM     20  C   UNL     1      -1.304   3.317   1.375  1.00  0.00     0.035 A 
BRANCH  18  21
ATOM     21  S   UNL     1       1.325   3.435   0.190  1.00  0.00     0.243 S 
ATOM     22  O   UNL     1       0.987   3.601  -1.211  1.00  0.00    -0.207 OA
ATOM     23  O   UNL     1       1.621   4.579   1.028  1.00  0.00    -0.207 OA
BRANCH  21  24
ATOM     24  N   UNL     1       2.725   2.353   0.273  1.00  0.00    -0.198 NA
ATOM     25  C   UNL     1       3.137   1.622   1.931  1.00  0.00     0.102 C 
ATOM     26  C   UNL     1       3.654   1.894  -1.296  1.00  0.00     0.102 C 
ATOM     27  C   UNL     1       4.544   0.179   2.069  1.00  0.00     0.017 C 
ATOM     28  C   UNL     1       5.169   0.573  -1.176  1.00  0.00     0.017 C 
ATOM     29  C   UNL     1       5.599  -0.266   0.509  1.00  0.00     0.003 C 
ENDBRANCH  21  24
ENDBRANCH  18  21
ENDBRANCH  12  14
ENDBRANCH   7  12
ENDBRANCH   4   6
ENDBRANCH   3   4
ENDBRANCH   2   3
ENDBRANCH   1   2
BRANCH   1  30
ATOM     30  O   UNL     1      -3.154   2.405  -4.241  1.00  0.00    -0.374 OA
BRANCH  30  31
ATOM     31  C   UNL     1      -3.178   3.604  -4.994  1.00  0.00     0.202 C 
BRANCH  31  32
ATOM     32  C   UNL     1      -3.235   3.412  -6.513  1.00  0.00     0.261 C 
BRANCH  32  33
ATOM     33  O   UNL     1      -2.007   2.836  -6.996  1.00  0.00    -0.460 OA
BRANCH  33  34
ATOM     34  C   UNL     1      -2.108   1.527  -7.357  1.00  0.00     0.338 C 
ATOM     35  O   UNL     1      -2.682   1.137  -8.358  1.00  0.00    -0.246 OA
BRANCH  34  36
ATOM     36  C   UNL     1      -1.445   0.665  -6.340  1.00  0.00     0.060 A 
ATOM     37  C   UNL     1      -1.703  -0.713  -6.297  1.00  0.00     0.016 A 
ATOM     38  C   UNL     1      -0.704   1.259  -5.322  1.00  0.00     0.016 A 
ATOM     39  C   UNL     1      -1.277  -1.481  -5.200  1.00  0.00     0.010 A 
ATOM     40  C   UNL     1      -0.375   0.522  -4.200  1.00  0.00     0.010 A 
ATOM     41  C   UNL     1      -0.633  -0.859  -4.128  1.00  0.00    -0.014 A 
BRANCH  41  42
ATOM     42  C   UNL     1      -0.269  -1.524  -2.836  1.00  0.00     0.031 A 
ATOM     43  C   UNL     1       1.177  -1.248  -2.338  1.00  0.00     0.074 A 
ATOM     44  C   UNL     1      -1.378  -1.646  -2.065  1.00  0.00     0.049 A 
ATOM     45  N   UNL     1       1.754  -1.328  -1.168  1.00  0.00    -0.248 NA
ATOM     46  C   UNL     1       2.143  -0.852  -3.349  1.00  0.00     0.031 C 
ATOM     47  C   UNL     1      -1.848  -0.762  -1.014  1.00  0.00     0.029 A 
ATOM     48  N   UNL     1      -2.537  -2.355  -2.296  1.00  0.00    -0.354 N 
ATOM     49  C   UNL     1       2.937  -0.513  -1.120  1.00  0.00     0.074 A 
ATOM     50  C   UNL     1       3.154  -0.412  -2.606  1.00  0.00     0.031 C 
ATOM     51  C   UNL     1      -2.964  -1.186  -0.422  1.00  0.00     0.029 A 
ATOM     52  C   UNL     1      -3.385  -2.316  -1.176  1.00  0.00     0.049 A 
ATOM     53  H   UNL     1      -2.743  -2.827  -3.135  1.00  0.00     0.167 HD
ATOM     54  C   UNL     1       3.472   0.199   0.176  1.00  0.00     0.031 A 
ATOM     55  C   UNL     1      -3.786  -3.450  -0.569  1.00  0.00     0.031 A 
ATOM     56  C   UNL     1       2.486  -0.765   1.312  1.00  0.00     0.049 A 
ATOM     57  C   UNL     1      -2.752  -3.885   0.461  1.00  0.00     0.074 A 
ATOM     58  C   UNL     1       1.972  -0.643   2.641  1.00  0.00     0.029 A 
ATOM     59  N   UNL     1       2.022  -2.127   1.055  1.00  0.00    -0.354 N 
ATOM     60  N   UNL     1      -1.535  -3.394   0.608  1.00  0.00    -0.248 NA
ATOM     61  C   UNL     1      -3.097  -4.845   1.503  1.00  0.00     0.031 C 
ATOM     62  C   UNL     1       0.968  -1.574   2.919  1.00  0.00     0.029 A 
ATOM     63  C   UNL     1       1.007  -2.532   1.940  1.00  0.00     0.049 A 
ATOM     64  H   UNL     1       2.382  -2.699   0.340  1.00  0.00     0.167 HD
ATOM     65  C   UNL     1      -0.914  -4.027   1.663  1.00  0.00     0.074 A 
ATOM     66  C   UNL     1      -1.964  -4.877   2.219  1.00  0.00     0.031 C 
ATOM     67  C   UNL     1       0.383  -3.852   2.087  1.00  0.00     0.031 A 
BRANCH  54  68
ATOM     68  C   UNL     1       4.824   1.744   0.591  1.00  0.00    -0.014 A 
ATOM     69  C   UNL     1       5.420   2.317   1.927  1.00  0.00     0.010 A 
ATOM     70  C   UNL     1       5.693   2.705  -0.267  1.00  0.00     0.010 A 
ATOM     71  C   UNL     1       6.423   3.282   2.290  1.00  0.00     0.020 A 
ATOM     72  C   UNL     1       6.731   3.694   0.040  1.00  0.00     0.020 A 
ATOM     73  C   UNL     1       7.098   3.961   1.329  1.00  0.00     0.054 A 
BRANCH  73  74
ATOM     74  S   UNL     1       8.423   5.081   1.805  1.00  0.00     0.124 S 
ATOM     75  O   UNL     1       7.694   6.205   2.385  1.00  0.00    -0.237 OA
ATOM     76  O   UNL     1       9.191   4.279   2.756  1.00  0.00    -0.237 OA
ATOM     77  O   UNL     1       9.106   5.359   0.544  1.00  0.00    -0.744 OA
ENDBRANCH  73  74
ENDBRANCH  54  68
BRANCH  55  78
ATOM     78  C   UNL     1      -4.694  -4.157  -1.541  1.00  0.00    -0.014 A 
ATOM     79  C   UNL     1      -5.946  -3.491  -1.692  1.00  0.00     0.010 A 
ATOM     80  C   UNL     1      -4.110  -4.718  -2.696  1.00  0.00     0.010 A 
ATOM     81  C   UNL     1      -6.397  -3.092  -2.961  1.00  0.00     0.020 A 
ATOM     82  C   UNL     1      -4.557  -4.305  -3.969  1.00  0.00     0.020 A 
ATOM     83  C   UNL     1      -5.650  -3.435  -4.087  1.00  0.00     0.054 A 
BRANCH  83  84
ATOM     84  S   UNL     1      -5.880  -2.477  -5.630  1.00  0.00     0.124 S 
ATOM     85  O   UNL     1      -6.831  -3.299  -6.366  1.00  0.00    -0.237 OA
ATOM     86  O   UNL     1      -6.386  -1.190  -5.154  1.00  0.00    -0.237 OA
ATOM     87  O   UNL     1      -4.524  -2.423  -6.171  1.00  0.00    -0.744 OA
ENDBRANCH  83  84
ENDBRANCH  55  78
BRANCH  67  88
ATOM     88  C   UNL     1       1.038  -4.804   3.090  1.00  0.00    -0.014 A 
ATOM     89  C   UNL     1       0.683  -6.158   3.202  1.00  0.00     0.010 A 
ATOM     90  C   UNL     1       2.132  -4.374   3.883  1.00  0.00     0.010 A 
ATOM     91  C   UNL     1       1.342  -7.019   4.089  1.00  0.00     0.020 A 
ATOM     92  C   UNL     1       2.821  -5.230   4.747  1.00  0.00     0.020 A 
ATOM     93  C   UNL     1       2.416  -6.553   4.846  1.00  0.00     0.054 A 
BRANCH  93  94
ATOM     94  S   UNL     1       3.371  -7.723   5.840  1.00  0.00     0.124 S 
ATOM     95  O   UNL     1       2.561  -7.828   7.050  1.00  0.00    -0.237 OA
ATOM     96  O   UNL     1       3.395  -8.915   4.994  1.00  0.00    -0.237 OA
ATOM     97  O   UNL     1       4.663  -7.061   6.005  1.00  0.00    -0.744 OA
ENDBRANCH  93  94
ENDBRANCH  67  88
ENDBRANCH  41  42
ENDBRANCH  34  36
ENDBRANCH  33  34
ENDBRANCH  32  33
ENDBRANCH  31  32
ENDBRANCH  30  31
ENDBRANCH   1  30
TORSDOF 21
