REMARK SMILES Cc1ccc(S(=O)(=O)N[C@@H](Cc2cccc(F)c2)C(=O)OCCOCCOC(=O)c2ccc(-c3c4nc(c(-c5ccc(S(=O)(=O)[O-])cc5)c5ccc([nH]5)c(-c5ccc(S(=O)(=O)[O-])cc5)c5nc(c(-c6ccc(S(=O)(=O)[O-])cc6)c6ccc3[nH]6)C=C5)C=C4)cc2)cc1
REMARK SMILES IDX 24 1 23 2 22 3 21 4 19 5 20 6 10 7 9 8 6 10 7 11 8 12 5 13
REMARK SMILES IDX 1 14 2 15 3 16 91 17 4 18 90 19 11 20 12 21 13 22 18 23
REMARK SMILES IDX 14 24 16 25 15 26 17 27 25 28 26 29 27 30 28 31 29 32 30 33
REMARK SMILES IDX 31 34 89 35 32 36 88 37 33 38 34 39 35 40 82 41 36 42 87 43
REMARK SMILES IDX 81 44 83 45 37 46 86 47 80 48 79 49 38 51 68 52 49 53 67 54
REMARK SMILES IDX 50 55 53 56 66 57 84 58 51 59 52 60 65 62 85 63 54 64 39 65
REMARK SMILES IDX 40 66 48 67 41 68 47 69 42 70 43 71 44 72 45 73 46 74 69 75
REMARK SMILES IDX 70 76 78 77 71 78 77 79 72 80 73 81 74 82 75 83 76 84 55 85
REMARK SMILES IDX 56 86 64 87 57 88 63 89 58 90 59 91 60 92 61 93 62 94
REMARK H PARENT 9 9 83 50 53 61
REMARK Flexibility Score: inf
ROOT
ATOM      1  O   UNL     1      -3.969   4.419   1.229  1.00  0.00    -0.374 OA
ENDROOT
BRANCH   1   2
ATOM      2  C   UNL     1      -5.305   3.905   1.155  1.00  0.00     0.202 C 
BRANCH   2   3
ATOM      3  C   UNL     1      -5.677   3.753  -0.316  1.00  0.00     0.261 C 
BRANCH   3   4
ATOM      4  O   UNL     1      -5.049   2.588  -0.871  1.00  0.00    -0.462 OA
BRANCH   4   5
ATOM      5  C   UNL     1      -3.792   2.756  -1.385  1.00  0.00     0.324 C 
ATOM      6  O   UNL     1      -3.232   3.816  -1.631  1.00  0.00    -0.250 OA
BRANCH   5   7
ATOM      7  C   UNL     1      -3.084   1.392  -1.410  1.00  0.00     0.184 C 
BRANCH   7   8
ATOM      8  N   UNL     1      -3.564   0.723  -0.163  1.00  0.00    -0.197 NA
ATOM      9  H   UNL     1      -3.335   1.372   0.590  1.00  0.00     0.142 HD
BRANCH   8  10
ATOM     10  S   UNL     1      -3.106  -0.756   0.393  1.00  0.00     0.241 S 
ATOM     11  O   UNL     1      -3.405  -1.733  -0.648  1.00  0.00    -0.207 OA
ATOM     12  O   UNL     1      -3.625  -0.897   1.719  1.00  0.00    -0.207 OA
BRANCH  10  13
ATOM     13  C   UNL     1      -1.349  -0.606   0.517  1.00  0.00     0.082 A 
ATOM     14  C   UNL     1       2.870  -0.057   0.058  1.00  0.00     0.044 C 
ATOM     15  C   UNL     1       1.398  -0.253   0.261  1.00  0.00    -0.051 A 
ATOM     16  C   UNL     1       0.817  -1.497  -0.024  1.00  0.00     0.005 A 
ATOM     17  C   UNL     1       0.598   0.793   0.738  1.00  0.00     0.005 A 
ATOM     18  C   UNL     1      -0.559  -1.672   0.089  1.00  0.00     0.022 A 
ATOM     19  C   UNL     1      -0.776   0.617   0.880  1.00  0.00     0.022 A 
ENDBRANCH  10  13
ENDBRANCH   8  10
ENDBRANCH   7   8
BRANCH   7  20
ATOM     20  C   UNL     1      -3.346   0.562  -2.663  1.00  0.00     0.067 C 
BRANCH  20  21
ATOM     21  C   UNL     1      -3.014   1.137  -4.021  1.00  0.00    -0.043 A 
ATOM     22  C   UNL     1      -3.541   0.479  -5.149  1.00  0.00     0.004 A 
ATOM     23  C   UNL     1      -2.215   2.268  -4.225  1.00  0.00     0.043 A 
ATOM     24  C   UNL     1      -3.352   0.985  -6.434  1.00  0.00     0.003 A 
ATOM     25  C   UNL     1      -2.034   2.769  -5.511  1.00  0.00     0.123 A 
ATOM     26  C   UNL     1      -2.605   2.143  -6.611  1.00  0.00     0.039 A 
ATOM     27  F   UNL     1      -1.321   3.889  -5.682  1.00  0.00    -0.207 F 
ENDBRANCH  20  21
ENDBRANCH   7  20
ENDBRANCH   5   7
ENDBRANCH   4   5
ENDBRANCH   3   4
ENDBRANCH   2   3
ENDBRANCH   1   2
BRANCH   1  28
ATOM     28  C   UNL     1      -3.424   4.540   2.538  1.00  0.00     0.202 C 
BRANCH  28  29
ATOM     29  C   UNL     1      -4.183   5.482   3.485  1.00  0.00     0.261 C 
BRANCH  29  30
ATOM     30  O   UNL     1      -4.067   6.842   3.034  1.00  0.00    -0.460 OA
BRANCH  30  31
ATOM     31  C   UNL     1      -5.243   7.398   2.629  1.00  0.00     0.338 C 
ATOM     32  O   UNL     1      -6.151   7.707   3.379  1.00  0.00    -0.246 OA
BRANCH  31  33
ATOM     33  C   UNL     1      -5.248   7.526   1.148  1.00  0.00     0.060 A 
ATOM     34  C   UNL     1      -6.455   7.628   0.438  1.00  0.00     0.016 A 
ATOM     35  C   UNL     1      -4.049   7.370   0.456  1.00  0.00     0.016 A 
ATOM     36  C   UNL     1      -6.467   7.503  -0.964  1.00  0.00     0.010 A 
ATOM     37  C   UNL     1      -4.076   7.172  -0.908  1.00  0.00     0.010 A 
ATOM     38  C   UNL     1      -5.273   7.246  -1.642  1.00  0.00    -0.014 A 
BRANCH  38  39
ATOM     39  C   UNL     1      -5.125   6.874  -3.057  1.00  0.00     0.031 A 
ATOM     40  C   UNL     1      -4.169   7.587  -3.956  1.00  0.00     0.074 A 
ATOM     41  C   UNL     1      -5.461   5.614  -3.415  1.00  0.00     0.049 A 
ATOM     42  N   UNL     1      -4.034   7.351  -5.224  1.00  0.00    -0.248 NA
ATOM     43  C   UNL     1      -3.264   8.626  -3.477  1.00  0.00     0.031 C 
ATOM     44  C   UNL     1      -4.754   4.791  -4.394  1.00  0.00     0.029 A 
ATOM     45  N   UNL     1      -6.533   4.819  -3.027  1.00  0.00    -0.354 N 
ATOM     46  C   UNL     1      -2.828   7.892  -5.616  1.00  0.00     0.074 A 
ATOM     47  C   UNL     1      -2.421   8.729  -4.505  1.00  0.00     0.031 C 
ATOM     48  C   UNL     1      -5.504   3.727  -4.694  1.00  0.00     0.029 A 
ATOM     49  C   UNL     1      -6.782   3.898  -4.044  1.00  0.00     0.049 A 
ATOM     50  H   UNL     1      -7.031   4.894  -2.181  1.00  0.00     0.167 HD
ATOM     51  C   UNL     1      -2.204   7.499  -6.768  1.00  0.00     0.031 A 
ATOM     52  C   UNL     1      -7.981   3.697  -4.647  1.00  0.00     0.031 A 
ATOM     53  C   UNL     1      -2.936   6.474  -7.557  1.00  0.00     0.049 A 
ATOM     54  C   UNL     1      -7.897   3.994  -6.126  1.00  0.00     0.074 A 
ATOM     55  C   UNL     1      -2.564   5.343  -8.268  1.00  0.00     0.029 A 
ATOM     56  N   UNL     1      -4.343   6.481  -7.625  1.00  0.00    -0.354 N 
ATOM     57  N   UNL     1      -6.904   4.641  -6.684  1.00  0.00    -0.248 NA
ATOM     58  C   UNL     1      -8.902   3.583  -7.095  1.00  0.00     0.031 C 
ATOM     59  C   UNL     1      -3.720   4.714  -8.791  1.00  0.00     0.029 A 
ATOM     60  C   UNL     1      -4.825   5.442  -8.398  1.00  0.00     0.049 A 
ATOM     61  H   UNL     1      -4.914   7.145  -7.176  1.00  0.00     0.167 HD
ATOM     62  C   UNL     1      -7.104   4.735  -8.034  1.00  0.00     0.074 A 
ATOM     63  C   UNL     1      -8.375   4.057  -8.239  1.00  0.00     0.031 C 
ATOM     64  C   UNL     1      -6.209   5.347  -8.867  1.00  0.00     0.031 A 
BRANCH  51  65
ATOM     65  C   UNL     1      -0.769   7.966  -7.074  1.00  0.00    -0.014 A 
ATOM     66  C   UNL     1       0.145   7.157  -7.779  1.00  0.00     0.010 A 
ATOM     67  C   UNL     1      -0.257   9.223  -6.681  1.00  0.00     0.010 A 
ATOM     68  C   UNL     1       1.480   7.531  -8.020  1.00  0.00     0.020 A 
ATOM     69  C   UNL     1       1.094   9.588  -6.850  1.00  0.00     0.020 A 
ATOM     70  C   UNL     1       1.958   8.738  -7.528  1.00  0.00     0.054 A 
BRANCH  70  71
ATOM     71  S   UNL     1       3.696   9.172  -7.799  1.00  0.00     0.124 S 
ATOM     72  O   UNL     1       4.405   8.007  -7.275  1.00  0.00    -0.237 OA
ATOM     73  O   UNL     1       3.755   9.341  -9.248  1.00  0.00    -0.237 OA
ATOM     74  O   UNL     1       3.873  10.398  -7.023  1.00  0.00    -0.744 OA
ENDBRANCH  70  71
ENDBRANCH  51  65
BRANCH  52  75
ATOM     75  C   UNL     1      -9.147   3.760  -3.722  1.00  0.00    -0.014 A 
ATOM     76  C   UNL     1      -9.289   2.633  -2.879  1.00  0.00     0.010 A 
ATOM     77  C   UNL     1      -9.621   5.005  -3.269  1.00  0.00     0.010 A 
ATOM     78  C   UNL     1      -9.631   2.791  -1.532  1.00  0.00     0.020 A 
ATOM     79  C   UNL     1      -9.955   5.166  -1.914  1.00  0.00     0.020 A 
ATOM     80  C   UNL     1      -9.878   4.072  -1.042  1.00  0.00     0.054 A 
BRANCH  80  81
ATOM     81  S   UNL     1      -9.739   4.356   0.758  1.00  0.00     0.124 S 
ATOM     82  O   UNL     1     -11.100   4.110   1.218  1.00  0.00    -0.237 OA
ATOM     83  O   UNL     1      -8.740   3.370   1.171  1.00  0.00    -0.237 OA
ATOM     84  O   UNL     1      -9.277   5.740   0.828  1.00  0.00    -0.744 OA
ENDBRANCH  80  81
ENDBRANCH  52  75
BRANCH  64  85
ATOM     85  C   UNL     1      -6.447   5.791 -10.304  1.00  0.00    -0.014 A 
ATOM     86  C   UNL     1      -7.624   5.606 -11.039  1.00  0.00     0.010 A 
ATOM     87  C   UNL     1      -5.418   6.527 -10.953  1.00  0.00     0.010 A 
ATOM     88  C   UNL     1      -7.752   6.085 -12.352  1.00  0.00     0.020 A 
ATOM     89  C   UNL     1      -5.532   7.014 -12.257  1.00  0.00     0.020 A 
ATOM     90  C   UNL     1      -6.705   6.783 -12.954  1.00  0.00     0.054 A 
BRANCH  90  91
ATOM     91  S   UNL     1      -6.928   7.435 -14.623  1.00  0.00     0.124 S 
ATOM     92  O   UNL     1      -6.993   6.214 -15.422  1.00  0.00    -0.237 OA
ATOM     93  O   UNL     1      -8.184   8.172 -14.503  1.00  0.00    -0.237 OA
ATOM     94  O   UNL     1      -5.744   8.262 -14.841  1.00  0.00    -0.744 OA
ENDBRANCH  90  91
ENDBRANCH  64  85
ENDBRANCH  38  39
ENDBRANCH  31  33
ENDBRANCH  30  31
ENDBRANCH  29  30
ENDBRANCH  28  29
ENDBRANCH   1  28
TORSDOF 22
