REMARK SMILES CC(C)C[C@H](NC(=O)c1cc(Cl)nnc1Cl)C(=O)OCCOCCOC(=O)c1ccc(-c2c3nc(c(-c4ccc(S(=O)(=O)[O-])cc4)c4ccc([nH]4)c(-c4ccc(S(=O)(=O)[O-])cc4)c4nc(c(-c5ccc(S(=O)(=O)[O-])cc5)c5ccc2[nH]5)C=C4)C=C3)cc1
REMARK SMILES IDX 23 1 22 2 21 3 20 4 19 5 17 6 18 7 5 8 4 9 2 10 1 11 3 12
REMARK SMILES IDX 6 13 7 14 8 16 9 17 10 18 15 19 11 20 14 21 16 22 12 23
REMARK SMILES IDX 13 24 24 25 25 26 26 27 27 28 28 29 29 30 87 31 30 32 86 33
REMARK SMILES IDX 31 34 32 35 33 36 80 37 34 38 85 39 79 40 81 41 35 42 84 43
REMARK SMILES IDX 78 44 77 45 36 47 66 48 47 49 65 50 48 51 51 52 64 53 82 54
REMARK SMILES IDX 49 55 50 56 63 58 83 59 52 60 37 61 38 62 46 63 39 64 45 65
REMARK SMILES IDX 40 66 41 67 42 68 43 69 44 70 67 71 68 72 76 73 69 74 75 75
REMARK SMILES IDX 70 76 71 77 72 78 73 79 74 80 53 81 54 82 62 83 55 84 61 85
REMARK SMILES IDX 56 86 57 87 58 88 59 89 60 90
REMARK H PARENT 6 15 81 46 51 57
REMARK Flexibility Score: inf
ROOT
ATOM      1  C   UNL     1      -4.084   0.984  -0.399  1.00  0.00     0.202 C 
ENDROOT
BRANCH   1   2
ATOM      2  O   UNL     1      -5.223   0.127  -0.493  1.00  0.00    -0.374 OA
BRANCH   2   3
ATOM      3  C   UNL     1      -5.887  -0.261   0.702  1.00  0.00     0.202 C 
BRANCH   3   4
ATOM      4  C   UNL     1      -5.184  -1.263   1.629  1.00  0.00     0.261 C 
BRANCH   4   5
ATOM      5  O   UNL     1      -3.762  -1.115   1.714  1.00  0.00    -0.462 OA
BRANCH   5   6
ATOM      6  C   UNL     1      -3.086  -1.901   0.826  1.00  0.00     0.328 C 
ATOM      7  O   UNL     1      -3.620  -2.608  -0.021  1.00  0.00    -0.250 OA
BRANCH   6   8
ATOM      8  C   UNL     1      -1.572  -1.918   1.100  1.00  0.00     0.192 C 
BRANCH   8   9
ATOM      9  C   UNL     1      -1.214  -3.087   2.036  1.00  0.00     0.040 C 
BRANCH   9  10
ATOM     10  C   UNL     1      -1.923  -4.428   1.762  1.00  0.00    -0.015 C 
ATOM     11  C   UNL     1      -1.655  -4.971   0.356  1.00  0.00     0.007 C 
ATOM     12  C   UNL     1      -1.486  -5.463   2.800  1.00  0.00     0.007 C 
ENDBRANCH   9  10
ENDBRANCH   8   9
BRANCH   8  13
ATOM     13  N   UNL     1      -1.097  -0.630   1.647  1.00  0.00    -0.338 N 
ATOM     14  C   UNL     1       0.179  -0.147   1.781  1.00  0.00     0.255 C 
ATOM     15  H   UNL     1      -1.806  -0.026   1.965  1.00  0.00     0.164 HD
ATOM     16  O   UNL     1       0.397   0.995   2.168  1.00  0.00    -0.269 OA
BRANCH  14  17
ATOM     17  C   UNL     1       1.320  -1.035   1.565  1.00  0.00     0.082 A 
ATOM     18  C   UNL     1       1.970  -1.537   2.693  1.00  0.00     0.060 A 
ATOM     19  C   UNL     1       1.774  -1.380   0.308  1.00  0.00     0.164 A 
ATOM     20  C   UNL     1       3.001  -2.424   2.486  1.00  0.00     0.152 A 
ATOM     21  N   UNL     1       2.787  -2.257   0.146  1.00  0.00    -0.136 NA
ATOM     22  Cl  UNL     1       1.143  -0.760  -1.160  1.00  0.00    -0.059 Cl
ATOM     23  Cl  UNL     1       3.841  -3.150   3.786  1.00  0.00    -0.060 Cl
ATOM     24  N   UNL     1       3.399  -2.798   1.253  1.00  0.00    -0.137 NA
ENDBRANCH  14  17
ENDBRANCH   8  13
ENDBRANCH   6   8
ENDBRANCH   5   6
ENDBRANCH   4   5
ENDBRANCH   3   4
ENDBRANCH   2   3
ENDBRANCH   1   2
BRANCH   1  25
ATOM     25  C   UNL     1      -4.234   2.303   0.365  1.00  0.00     0.261 C 
BRANCH  25  26
ATOM     26  O   UNL     1      -4.378   2.091   1.783  1.00  0.00    -0.460 OA
BRANCH  26  27
ATOM     27  C   UNL     1      -5.444   2.715   2.337  1.00  0.00     0.338 C 
ATOM     28  O   UNL     1      -6.257   3.436   1.773  1.00  0.00    -0.246 OA
BRANCH  27  29
ATOM     29  C   UNL     1      -5.619   2.289   3.731  1.00  0.00     0.060 A 
ATOM     30  C   UNL     1      -6.712   1.470   4.044  1.00  0.00     0.016 A 
ATOM     31  C   UNL     1      -4.820   2.835   4.736  1.00  0.00     0.016 A 
ATOM     32  C   UNL     1      -7.036   1.228   5.377  1.00  0.00     0.010 A 
ATOM     33  C   UNL     1      -5.160   2.607   6.072  1.00  0.00     0.010 A 
ATOM     34  C   UNL     1      -6.292   1.838   6.394  1.00  0.00    -0.014 A 
BRANCH  34  35
ATOM     35  C   UNL     1      -6.810   1.823   7.780  1.00  0.00     0.031 A 
ATOM     36  C   UNL     1      -7.687   2.956   8.236  1.00  0.00     0.074 A 
ATOM     37  C   UNL     1      -6.530   0.802   8.608  1.00  0.00     0.049 A 
ATOM     38  N   UNL     1      -8.233   3.155   9.407  1.00  0.00    -0.248 NA
ATOM     39  C   UNL     1      -7.996   3.998   7.242  1.00  0.00     0.031 C 
ATOM     40  C   UNL     1      -5.739  -0.376   8.258  1.00  0.00     0.029 A 
ATOM     41  N   UNL     1      -6.884   0.597   9.917  1.00  0.00    -0.354 N 
ATOM     42  C   UNL     1      -8.948   4.341   9.292  1.00  0.00     0.074 A 
ATOM     43  C   UNL     1      -8.755   4.828   7.944  1.00  0.00     0.031 C 
ATOM     44  C   UNL     1      -5.660  -1.181   9.332  1.00  0.00     0.029 A 
ATOM     45  C   UNL     1      -6.372  -0.560  10.449  1.00  0.00     0.049 A 
ATOM     46  H   UNL     1      -7.451   1.220  10.426  1.00  0.00     0.167 HD
ATOM     47  C   UNL     1      -9.698   4.968  10.227  1.00  0.00     0.031 A 
ATOM     48  C   UNL     1      -6.452  -1.055  11.701  1.00  0.00     0.031 A 
ATOM     49  C   UNL     1      -9.875   4.491  11.570  1.00  0.00     0.049 A 
ATOM     50  C   UNL     1      -7.223  -0.300  12.748  1.00  0.00     0.074 A 
ATOM     51  C   UNL     1     -10.623   5.055  12.589  1.00  0.00     0.029 A 
ATOM     52  N   UNL     1      -9.293   3.345  12.085  1.00  0.00    -0.354 N 
ATOM     53  N   UNL     1      -7.893   0.820  12.623  1.00  0.00    -0.248 NA
ATOM     54  C   UNL     1      -7.248  -0.872  14.102  1.00  0.00     0.031 C 
ATOM     55  C   UNL     1     -10.455   4.273  13.735  1.00  0.00     0.029 A 
ATOM     56  C   UNL     1      -9.642   3.196  13.415  1.00  0.00     0.049 A 
ATOM     57  H   UNL     1      -8.715   2.728  11.580  1.00  0.00     0.167 HD
ATOM     58  C   UNL     1      -8.434   1.080  13.877  1.00  0.00     0.074 A 
ATOM     59  C   UNL     1      -8.016  -0.001  14.746  1.00  0.00     0.031 C 
ATOM     60  C   UNL     1      -9.212   2.119  14.268  1.00  0.00     0.031 A 
BRANCH  47  61
ATOM     61  C   UNL     1     -10.367   6.256   9.839  1.00  0.00    -0.014 A 
ATOM     62  C   UNL     1     -11.531   6.257   9.052  1.00  0.00     0.010 A 
ATOM     63  C   UNL     1      -9.864   7.475  10.328  1.00  0.00     0.010 A 
ATOM     64  C   UNL     1     -12.175   7.460   8.749  1.00  0.00     0.020 A 
ATOM     65  C   UNL     1     -10.515   8.678  10.043  1.00  0.00     0.020 A 
ATOM     66  C   UNL     1     -11.666   8.662   9.252  1.00  0.00     0.054 A 
BRANCH  66  67
ATOM     67  S   UNL     1     -12.547  10.200   8.870  1.00  0.00     0.124 S 
ATOM     68  O   UNL     1     -12.460  10.248   7.412  1.00  0.00    -0.237 OA
ATOM     69  O   UNL     1     -13.878   9.943   9.411  1.00  0.00    -0.237 OA
ATOM     70  O   UNL     1     -11.777  11.226   9.569  1.00  0.00    -0.744 OA
ENDBRANCH  66  67
ENDBRANCH  47  61
BRANCH  48  71
ATOM     71  C   UNL     1      -5.763  -2.331  12.021  1.00  0.00    -0.014 A 
ATOM     72  C   UNL     1      -6.494  -3.523  12.157  1.00  0.00     0.010 A 
ATOM     73  C   UNL     1      -4.360  -2.368  12.128  1.00  0.00     0.010 A 
ATOM     74  C   UNL     1      -5.832  -4.734  12.377  1.00  0.00     0.020 A 
ATOM     75  C   UNL     1      -3.694  -3.580  12.330  1.00  0.00     0.020 A 
ATOM     76  C   UNL     1      -4.436  -4.757  12.447  1.00  0.00     0.054 A 
BRANCH  76  77
ATOM     77  S   UNL     1      -3.602  -6.356  12.644  1.00  0.00     0.124 S 
ATOM     78  O   UNL     1      -4.110  -6.813  13.933  1.00  0.00    -0.237 OA
ATOM     79  O   UNL     1      -4.077  -7.095  11.476  1.00  0.00    -0.237 OA
ATOM     80  O   UNL     1      -2.182  -6.010  12.618  1.00  0.00    -0.744 OA
ENDBRANCH  76  77
ENDBRANCH  48  71
BRANCH  60  81
ATOM     81  C   UNL     1      -9.684   2.149  15.695  1.00  0.00    -0.014 A 
ATOM     82  C   UNL     1      -8.831   2.578  16.726  1.00  0.00     0.010 A 
ATOM     83  C   UNL     1     -11.031   1.866  15.985  1.00  0.00     0.010 A 
ATOM     84  C   UNL     1      -9.320   2.726  18.026  1.00  0.00     0.020 A 
ATOM     85  C   UNL     1     -11.528   2.031  17.280  1.00  0.00     0.020 A 
ATOM     86  C   UNL     1     -10.668   2.463  18.293  1.00  0.00     0.054 A 
BRANCH  86  87
ATOM     87  S   UNL     1     -11.287   2.734  19.976  1.00  0.00     0.124 S 
ATOM     88  O   UNL     1     -10.503   1.775  20.750  1.00  0.00    -0.237 OA
ATOM     89  O   UNL     1     -10.967   4.140  20.206  1.00  0.00    -0.237 OA
ATOM     90  O   UNL     1     -12.713   2.430  19.877  1.00  0.00    -0.744 OA
ENDBRANCH  86  87
ENDBRANCH  60  81
ENDBRANCH  34  35
ENDBRANCH  27  29
ENDBRANCH  26  27
ENDBRANCH  25  26
ENDBRANCH   1  25
TORSDOF 21
