REMARK SMILES O=C(OCCOCCOC(=O)[C@@H](NC(=O)c1cscn1)c1ccccc1C(F)(F)F)c1ccc(-c2c3nc(c(-c4ccc(S(=O)(=O)[O-])cc4)c4ccc([nH]4)c(-c4ccc(S(=O)(=O)[O-])cc4)c4nc(c(-c5ccc(S(=O)(=O)[O-])cc5)c5ccc2[nH]5)C=C4)C=C3)cc1
REMARK SMILES IDX 5 1 4 2 3 3 2 4 1 5 31 6 32 7 90 8 33 9 89 10 34 11 35 12
REMARK SMILES IDX 36 13 83 14 37 15 88 16 82 17 84 18 38 19 87 20 81 21 80 22
REMARK SMILES IDX 39 24 69 25 50 26 68 27 51 28 54 29 67 30 85 31 52 32 53 33
REMARK SMILES IDX 66 35 86 36 55 37 40 38 41 39 49 40 42 41 48 42 43 43 44 44
REMARK SMILES IDX 45 45 46 46 47 47 70 48 71 49 79 50 72 51 78 52 73 53 74 54
REMARK SMILES IDX 75 55 76 56 77 57 56 58 57 59 65 60 58 61 64 62 59 63 60 64
REMARK SMILES IDX 61 65 62 66 63 67 6 68 7 69 8 70 9 71 10 72 11 73 12 74
REMARK SMILES IDX 13 75 14 76 15 78 16 79 17 80 20 81 18 82 19 83 21 84 22 85
REMARK SMILES IDX 26 86 23 87 25 88 24 89 27 90 28 91 29 92 30 93
REMARK H PARENT 84 23 54 34 13 77
REMARK Flexibility Score: inf
ROOT
ATOM      1  C   UNL     1       3.887   1.677   0.994  1.00  0.00     0.202 C 
ENDROOT
BRANCH   1   2
ATOM      2  C   UNL     1       3.807   1.783  -0.528  1.00  0.00     0.261 C 
BRANCH   2   3
ATOM      3  O   UNL     1       2.459   1.479  -0.937  1.00  0.00    -0.460 OA
BRANCH   3   4
ATOM      4  C   UNL     1       1.997   0.400  -1.602  1.00  0.00     0.338 C 
ATOM      5  O   UNL     1       0.785   0.288  -1.788  1.00  0.00    -0.246 OA
BRANCH   4   6
ATOM      6  C   UNL     1       2.890  -0.640  -2.177  1.00  0.00     0.060 A 
ATOM      7  C   UNL     1       3.979  -1.207  -1.509  1.00  0.00     0.016 A 
ATOM      8  C   UNL     1       2.515  -1.165  -3.424  1.00  0.00     0.016 A 
ATOM      9  C   UNL     1       4.730  -2.224  -2.106  1.00  0.00     0.010 A 
ATOM     10  C   UNL     1       3.231  -2.216  -4.000  1.00  0.00     0.010 A 
ATOM     11  C   UNL     1       4.353  -2.742  -3.350  1.00  0.00    -0.014 A 
BRANCH  11  12
ATOM     12  C   UNL     1       5.116  -3.849  -3.970  1.00  0.00     0.031 A 
ATOM     13  C   UNL     1       5.993  -3.571  -5.156  1.00  0.00     0.074 A 
ATOM     14  C   UNL     1       4.998  -5.096  -3.478  1.00  0.00     0.049 A 
ATOM     15  N   UNL     1       6.638  -4.414  -5.918  1.00  0.00    -0.248 NA
ATOM     16  C   UNL     1       6.167  -2.159  -5.533  1.00  0.00     0.031 C 
ATOM     17  C   UNL     1       4.203  -5.470  -2.305  1.00  0.00     0.029 A 
ATOM     18  N   UNL     1       5.538  -6.282  -3.905  1.00  0.00    -0.354 N 
ATOM     19  C   UNL     1       7.274  -3.640  -6.880  1.00  0.00     0.074 A 
ATOM     20  C   UNL     1       6.943  -2.259  -6.604  1.00  0.00     0.031 C 
ATOM     21  C   UNL     1       4.312  -6.794  -2.105  1.00  0.00     0.029 A 
ATOM     22  C   UNL     1       5.136  -7.368  -3.164  1.00  0.00     0.049 A 
ATOM     23  H   UNL     1       6.155  -6.348  -4.669  1.00  0.00     0.167 HD
ATOM     24  C   UNL     1       8.053  -4.049  -7.909  1.00  0.00     0.031 A 
ATOM     25  C   UNL     1       5.372  -8.681  -3.345  1.00  0.00     0.031 A 
ATOM     26  C   UNL     1       8.366  -5.424  -8.181  1.00  0.00     0.049 A 
ATOM     27  C   UNL     1       6.184  -9.114  -4.535  1.00  0.00     0.074 A 
ATOM     28  C   UNL     1       9.136  -5.949  -9.203  1.00  0.00     0.029 A 
ATOM     29  N   UNL     1       7.914  -6.496  -7.426  1.00  0.00    -0.354 N 
ATOM     30  N   UNL     1       6.777  -8.370  -5.439  1.00  0.00    -0.248 NA
ATOM     31  C   UNL     1       6.336 -10.560  -4.746  1.00  0.00     0.031 C 
ATOM     32  C   UNL     1       9.117  -7.345  -9.088  1.00  0.00     0.029 A 
ATOM     33  C   UNL     1       8.360  -7.683  -7.976  1.00  0.00     0.049 A 
ATOM     34  H   UNL     1       7.358  -6.422  -6.617  1.00  0.00     0.167 HD
ATOM     35  C   UNL     1       7.359  -9.257  -6.335  1.00  0.00     0.074 A 
ATOM     36  C   UNL     1       7.076 -10.593  -5.846  1.00  0.00     0.031 C 
ATOM     37  C   UNL     1       8.051  -8.995  -7.470  1.00  0.00     0.031 A 
BRANCH  24  38
ATOM     38  C   UNL     1       8.568  -2.991  -8.842  1.00  0.00    -0.014 A 
ATOM     39  C   UNL     1       9.679  -2.200  -8.501  1.00  0.00     0.010 A 
ATOM     40  C   UNL     1       7.931  -2.789 -10.079  1.00  0.00     0.010 A 
ATOM     41  C   UNL     1      10.122  -1.198  -9.369  1.00  0.00     0.020 A 
ATOM     42  C   UNL     1       8.379  -1.796 -10.954  1.00  0.00     0.020 A 
ATOM     43  C   UNL     1       9.461  -0.994 -10.585  1.00  0.00     0.054 A 
BRANCH  43  44
ATOM     44  S   UNL     1      10.047   0.319 -11.693  1.00  0.00     0.124 S 
ATOM     45  O   UNL     1       9.511   1.515 -11.049  1.00  0.00    -0.237 OA
ATOM     46  O   UNL     1      11.499   0.171 -11.632  1.00  0.00    -0.237 OA
ATOM     47  O   UNL     1       9.443  -0.020 -12.979  1.00  0.00    -0.744 OA
ENDBRANCH  43  44
ENDBRANCH  24  38
BRANCH  25  48
ATOM     48  C   UNL     1       4.766  -9.685  -2.428  1.00  0.00    -0.014 A 
ATOM     49  C   UNL     1       5.565 -10.409  -1.527  1.00  0.00     0.010 A 
ATOM     50  C   UNL     1       3.380  -9.923  -2.458  1.00  0.00     0.010 A 
ATOM     51  C   UNL     1       4.989 -11.364  -0.681  1.00  0.00     0.020 A 
ATOM     52  C   UNL     1       2.799 -10.860  -1.599  1.00  0.00     0.020 A 
ATOM     53  C   UNL     1       3.610 -11.586  -0.726  1.00  0.00     0.054 A 
BRANCH  53  54
ATOM     54  S   UNL     1       2.864 -12.793   0.406  1.00  0.00     0.124 S 
ATOM     55  O   UNL     1       3.047 -14.044  -0.323  1.00  0.00    -0.237 OA
ATOM     56  O   UNL     1       3.667 -12.643   1.617  1.00  0.00    -0.237 OA
ATOM     57  O   UNL     1       1.482 -12.331   0.526  1.00  0.00    -0.744 OA
ENDBRANCH  53  54
ENDBRANCH  25  48
BRANCH  37  58
ATOM     58  C   UNL     1       8.526 -10.174  -8.267  1.00  0.00    -0.014 A 
ATOM     59  C   UNL     1       7.642 -10.850  -9.125  1.00  0.00     0.010 A 
ATOM     60  C   UNL     1       9.876 -10.562  -8.215  1.00  0.00     0.010 A 
ATOM     61  C   UNL     1       8.099 -11.905  -9.916  1.00  0.00     0.020 A 
ATOM     62  C   UNL     1      10.339 -11.608  -9.017  1.00  0.00     0.020 A 
ATOM     63  C   UNL     1       9.445 -12.278  -9.857  1.00  0.00     0.054 A 
BRANCH  63  64
ATOM     64  S   UNL     1      10.038 -13.603 -10.945  1.00  0.00     0.124 S 
ATOM     65  O   UNL     1       9.642 -14.800 -10.209  1.00  0.00    -0.237 OA
ATOM     66  O   UNL     1       9.308 -13.358 -12.186  1.00  0.00    -0.237 OA
ATOM     67  O   UNL     1      11.478 -13.364 -11.021  1.00  0.00    -0.744 OA
ENDBRANCH  63  64
ENDBRANCH  37  58
ENDBRANCH  11  12
ENDBRANCH   4   6
ENDBRANCH   3   4
ENDBRANCH   2   3
ENDBRANCH   1   2
BRANCH   1  68
ATOM     68  O   UNL     1       3.819   0.329   1.454  1.00  0.00    -0.374 OA
BRANCH  68  69
ATOM     69  C   UNL     1       2.515  -0.117   1.841  1.00  0.00     0.202 C 
BRANCH  69  70
ATOM     70  C   UNL     1       2.659  -1.341   2.750  1.00  0.00     0.261 C 
BRANCH  70  71
ATOM     71  O   UNL     1       3.324  -0.939   3.963  1.00  0.00    -0.461 OA
BRANCH  71  72
ATOM     72  C   UNL     1       4.687  -0.993   3.917  1.00  0.00     0.333 C 
ATOM     73  O   UNL     1       5.348  -1.495   3.014  1.00  0.00    -0.249 OA
BRANCH  72  74
ATOM     74  C   UNL     1       5.316  -0.231   5.081  1.00  0.00     0.224 C 
BRANCH  74  75
ATOM     75  N   UNL     1       5.012   1.198   4.832  1.00  0.00    -0.334 N 
ATOM     76  C   UNL     1       3.815   1.871   4.938  1.00  0.00     0.271 C 
ATOM     77  H   UNL     1       5.779   1.748   4.551  1.00  0.00     0.165 HD
ATOM     78  O   UNL     1       3.572   2.744   4.102  1.00  0.00    -0.267 OA
BRANCH  76  79
ATOM     79  C   UNL     1       2.883   1.591   6.026  1.00  0.00     0.139 A 
ATOM     80  C   UNL     1       1.523   1.404   5.845  1.00  0.00     0.100 A 
ATOM     81  N   UNL     1       3.266   1.690   7.362  1.00  0.00    -0.240 NA
ATOM     82  S   UNL     1       0.734   1.230   7.359  1.00  0.00    -0.130 S 
ATOM     83  C   UNL     1       2.232   1.487   8.145  1.00  0.00     0.176 A 
ENDBRANCH  76  79
ENDBRANCH  74  75
BRANCH  74  84
ATOM     84  C   UNL     1       5.197  -0.753   6.512  1.00  0.00    -0.002 A 
ATOM     85  C   UNL     1       5.643   0.127   7.529  1.00  0.00     0.007 A 
ATOM     86  C   UNL     1       4.832  -2.067   6.914  1.00  0.00     0.061 A 
ATOM     87  C   UNL     1       5.603  -0.206   8.883  1.00  0.00     0.000 A 
ATOM     88  C   UNL     1       4.774  -2.374   8.296  1.00  0.00     0.013 A 
ATOM     89  C   UNL     1       5.143  -1.452   9.270  1.00  0.00     0.001 A 
BRANCH  86  90
ATOM     90  C   UNL     1       4.546  -3.223   5.972  1.00  0.00     0.416 C 
ATOM     91  F   UNL     1       4.562  -4.439   6.589  1.00  0.00    -0.166 F 
ATOM     92  F   UNL     1       3.326  -3.133   5.381  1.00  0.00    -0.166 F 
ATOM     93  F   UNL     1       5.465  -3.318   4.978  1.00  0.00    -0.166 F 
ENDBRANCH  86  90
ENDBRANCH  74  84
ENDBRANCH  72  74
ENDBRANCH  71  72
ENDBRANCH  70  71
ENDBRANCH  69  70
ENDBRANCH  68  69
ENDBRANCH   1  68
TORSDOF 21
