REMARK SMILES NC(=O)c1c(-c2ccc(Cl)cc2)csc1NC(=O)[C@H]1[C@@H](C(=O)OCCOCCOC(=O)c2ccc(-c3c4nc(c(-c5ccc(S(=O)(=O)[O-])cc5)c5ccc([nH]5)c(-c5ccc(S(=O)(=O)[O-])cc5)c5nc(c(-c6ccc(S(=O)(=O)[O-])cc6)c6ccc3[nH]6)C=C5)C=C4)cc2)[C@@H]2CC[C@H]1O2
REMARK SMILES IDX 26 1 25 2 24 3 23 4 21 5 22 6 20 7 19 8 95 9 92 10 94 11
REMARK SMILES IDX 96 12 93 13 17 14 16 15 18 17 15 18 4 19 5 20 13 21 14 22
REMARK SMILES IDX 2 23 1 24 3 27 6 28 7 29 12 30 8 31 11 32 9 33 10 34 27 35
REMARK SMILES IDX 28 36 29 37 30 38 31 39 32 40 33 41 91 42 34 43 90 44 35 45
REMARK SMILES IDX 36 46 37 47 84 48 38 49 89 50 83 51 85 52 39 53 88 54 82 55
REMARK SMILES IDX 81 56 40 58 70 59 51 60 69 61 52 62 55 63 68 64 86 65 53 66
REMARK SMILES IDX 54 67 67 69 87 70 56 71 41 72 42 73 50 74 43 75 49 76 44 77
REMARK SMILES IDX 45 78 46 79 47 80 48 81 71 82 72 83 80 84 73 85 79 86 74 87
REMARK SMILES IDX 75 88 76 89 77 90 78 91 57 92 58 93 66 94 59 95 65 96 60 97
REMARK SMILES IDX 61 98 62 99 63 100 64 101
REMARK H PARENT 16 16 1 25 1 26 85 57 55 68
REMARK Flexibility Score: inf
ROOT
ATOM      1  O   UNL     1       1.872  -8.220   7.565  1.00  0.00    -0.374 OA
ENDROOT
BRANCH   1   2
ATOM      2  C   UNL     1       1.122  -9.015   6.643  1.00  0.00     0.202 C 
BRANCH   2   3
ATOM      3  C   UNL     1      -0.319  -8.545   6.444  1.00  0.00     0.261 C 
BRANCH   3   4
ATOM      4  O   UNL     1      -0.334  -7.280   5.755  1.00  0.00    -0.463 OA
BRANCH   4   5
ATOM      5  C   UNL     1      -0.953  -6.264   6.386  1.00  0.00     0.312 C 
ATOM      6  O   UNL     1      -1.612  -6.388   7.416  1.00  0.00    -0.252 OA
BRANCH   5   7
ATOM      7  C   UNL     1      -0.803  -4.912   5.723  1.00  0.00     0.143 C 
ATOM      8  C   UNL     1       0.044  -4.619   4.465  1.00  0.00     0.124 C 
ATOM      9  C   UNL     1       1.020  -3.550   5.010  1.00  0.00     0.132 C 
ATOM     10  C   UNL     1      -0.166  -3.980   6.769  1.00  0.00     0.133 C 
ATOM     11  C   UNL     1       0.287  -2.224   5.238  1.00  0.00     0.035 C 
ATOM     12  O   UNL     1       1.222  -3.980   6.374  1.00  0.00    -0.373 OA
ATOM     13  C   UNL     1      -0.543  -2.527   6.485  1.00  0.00     0.036 C 
BRANCH   8  14
ATOM     14  C   UNL     1       0.821  -5.721   3.764  1.00  0.00     0.231 C 
ATOM     15  N   UNL     1       0.253  -6.653   2.953  1.00  0.00    -0.317 N 
ATOM     16  H   UNL     1       0.919  -7.245   2.535  1.00  0.00     0.170 HD
ATOM     17  O   UNL     1       2.053  -5.772   3.863  1.00  0.00    -0.274 OA
BRANCH  15  18
ATOM     18  C   UNL     1      -1.041  -6.965   2.575  1.00  0.00     0.108 A 
ATOM     19  C   UNL     1      -1.408  -8.074   1.816  1.00  0.00     0.082 A 
ATOM     20  C   UNL     1      -2.837  -8.267   1.870  1.00  0.00     0.007 A 
ATOM     21  C   UNL     1      -3.475  -7.184   2.442  1.00  0.00     0.076 A 
ATOM     22  S   UNL     1      -2.375  -6.009   2.978  1.00  0.00    -0.125 S 
BRANCH  19  23
ATOM     23  C   UNL     1      -0.409  -8.928   1.182  1.00  0.00     0.252 C 
ATOM     24  N   UNL     1      -0.811  -9.628   0.087  1.00  0.00    -0.365 N 
ATOM     25  H   UNL     1      -0.177 -10.220  -0.379  1.00  0.00     0.159 HD
ATOM     26  H   UNL     1      -1.736  -9.544  -0.239  1.00  0.00     0.159 HD
ATOM     27  O   UNL     1       0.756  -8.962   1.562  1.00  0.00    -0.269 OA
ENDBRANCH  19  23
BRANCH  20  28
ATOM     28  C   UNL     1      -3.608  -9.476   1.615  1.00  0.00    -0.017 A 
ATOM     29  C   UNL     1      -4.692  -9.478   0.731  1.00  0.00     0.010 A 
ATOM     30  C   UNL     1      -3.341 -10.613   2.393  1.00  0.00     0.010 A 
ATOM     31  C   UNL     1      -5.541 -10.588   0.675  1.00  0.00     0.021 A 
ATOM     32  C   UNL     1      -4.192 -11.715   2.336  1.00  0.00     0.021 A 
ATOM     33  C   UNL     1      -5.304 -11.687   1.500  1.00  0.00     0.041 A 
ATOM     34  Cl  UNL     1      -6.418 -12.991   1.570  1.00  0.00    -0.084 Cl
ENDBRANCH  20  28
ENDBRANCH  15  18
ENDBRANCH   8  14
ENDBRANCH   5   7
ENDBRANCH   4   5
ENDBRANCH   3   4
ENDBRANCH   2   3
ENDBRANCH   1   2
BRANCH   1  35
ATOM     35  C   UNL     1       2.472  -7.043   7.014  1.00  0.00     0.202 C 
BRANCH  35  36
ATOM     36  C   UNL     1       3.834  -7.266   6.346  1.00  0.00     0.261 C 
BRANCH  36  37
ATOM     37  O   UNL     1       3.718  -8.068   5.157  1.00  0.00    -0.460 OA
BRANCH  37  38
ATOM     38  C   UNL     1       4.181  -9.338   5.257  1.00  0.00     0.338 C 
ATOM     39  O   UNL     1       4.769  -9.835   6.195  1.00  0.00    -0.246 OA
BRANCH  38  40
ATOM     40  C   UNL     1       3.703 -10.127   4.096  1.00  0.00     0.060 A 
ATOM     41  C   UNL     1       3.168 -11.395   4.354  1.00  0.00     0.016 A 
ATOM     42  C   UNL     1       3.790  -9.656   2.785  1.00  0.00     0.016 A 
ATOM     43  C   UNL     1       2.748 -12.211   3.300  1.00  0.00     0.010 A 
ATOM     44  C   UNL     1       3.376 -10.480   1.730  1.00  0.00     0.010 A 
ATOM     45  C   UNL     1       2.869 -11.770   1.976  1.00  0.00    -0.014 A 
BRANCH  45  46
ATOM     46  C   UNL     1       2.579 -12.696   0.849  1.00  0.00     0.031 A 
ATOM     47  C   UNL     1       3.730 -13.303   0.090  1.00  0.00     0.074 A 
ATOM     48  C   UNL     1       1.315 -13.010   0.501  1.00  0.00     0.049 A 
ATOM     49  N   UNL     1       3.704 -14.116  -0.936  1.00  0.00    -0.248 NA
ATOM     50  C   UNL     1       5.085 -12.957   0.550  1.00  0.00     0.031 C 
ATOM     51  C   UNL     1       0.103 -12.529   1.164  1.00  0.00     0.029 A 
ATOM     52  N   UNL     1       0.841 -13.795  -0.523  1.00  0.00    -0.354 N 
ATOM     53  C   UNL     1       5.034 -14.388  -1.235  1.00  0.00     0.074 A 
ATOM     54  C   UNL     1       5.842 -13.617  -0.315  1.00  0.00     0.031 C 
ATOM     55  C   UNL     1      -0.972 -12.984   0.495  1.00  0.00     0.029 A 
ATOM     56  C   UNL     1      -0.529 -13.791  -0.635  1.00  0.00     0.049 A 
ATOM     57  H   UNL     1       1.428 -14.312  -1.121  1.00  0.00     0.167 HD
ATOM     58  C   UNL     1       5.541 -15.223  -2.172  1.00  0.00     0.031 A 
ATOM     59  C   UNL     1      -1.337 -14.354  -1.555  1.00  0.00     0.031 A 
ATOM     60  C   UNL     1       4.749 -15.994  -3.092  1.00  0.00     0.049 A 
ATOM     61  C   UNL     1      -0.744 -15.204  -2.647  1.00  0.00     0.074 A 
ATOM     62  C   UNL     1       5.179 -16.908  -4.039  1.00  0.00     0.029 A 
ATOM     63  N   UNL     1       3.370 -15.935  -3.191  1.00  0.00    -0.354 N 
ATOM     64  N   UNL     1       0.513 -15.492  -2.875  1.00  0.00    -0.248 NA
ATOM     65  C   UNL     1      -1.687 -15.822  -3.593  1.00  0.00     0.031 C 
ATOM     66  C   UNL     1       4.062 -17.362  -4.747  1.00  0.00     0.029 A 
ATOM     67  C   UNL     1       2.934 -16.770  -4.206  1.00  0.00     0.049 A 
ATOM     68  H   UNL     1       2.785 -15.382  -2.624  1.00  0.00     0.167 HD
ATOM     69  C   UNL     1       0.509 -16.351  -3.969  1.00  0.00     0.074 A 
ATOM     70  C   UNL     1      -0.873 -16.538  -4.355  1.00  0.00     0.031 C 
ATOM     71  C   UNL     1       1.558 -16.941  -4.591  1.00  0.00     0.031 A 
BRANCH  58  72
ATOM     72  C   UNL     1       7.037 -15.349  -2.255  1.00  0.00    -0.014 A 
ATOM     73  C   UNL     1       7.754 -16.069  -1.283  1.00  0.00     0.010 A 
ATOM     74  C   UNL     1       7.724 -14.802  -3.353  1.00  0.00     0.010 A 
ATOM     75  C   UNL     1       9.138 -16.221  -1.396  1.00  0.00     0.020 A 
ATOM     76  C   UNL     1       9.106 -14.971  -3.481  1.00  0.00     0.020 A 
ATOM     77  C   UNL     1       9.805 -15.671  -2.495  1.00  0.00     0.054 A 
BRANCH  77  78
ATOM     78  S   UNL     1      11.594 -15.927  -2.643  1.00  0.00     0.124 S 
ATOM     79  O   UNL     1      12.113 -15.024  -1.620  1.00  0.00    -0.237 OA
ATOM     80  O   UNL     1      11.739 -17.352  -2.355  1.00  0.00    -0.237 OA
ATOM     81  O   UNL     1      11.887 -15.541  -4.021  1.00  0.00    -0.744 OA
ENDBRANCH  77  78
ENDBRANCH  58  72
BRANCH  59  82
ATOM     82  C   UNL     1      -2.804 -14.103  -1.545  1.00  0.00    -0.014 A 
ATOM     83  C   UNL     1      -3.707 -15.100  -1.138  1.00  0.00     0.010 A 
ATOM     84  C   UNL     1      -3.300 -12.895  -2.066  1.00  0.00     0.010 A 
ATOM     85  C   UNL     1      -5.085 -14.917  -1.308  1.00  0.00     0.020 A 
ATOM     86  C   UNL     1      -4.674 -12.705  -2.224  1.00  0.00     0.020 A 
ATOM     87  C   UNL     1      -5.557 -13.728  -1.870  1.00  0.00     0.054 A 
BRANCH  87  88
ATOM     88  S   UNL     1      -7.336 -13.476  -2.135  1.00  0.00     0.124 S 
ATOM     89  O   UNL     1      -7.474 -13.792  -3.553  1.00  0.00    -0.237 OA
ATOM     90  O   UNL     1      -7.958 -14.424  -1.216  1.00  0.00    -0.237 OA
ATOM     91  O   UNL     1      -7.514 -12.066  -1.788  1.00  0.00    -0.744 OA
ENDBRANCH  87  88
ENDBRANCH  59  82
BRANCH  71  92
ATOM     92  C   UNL     1       1.251 -17.869  -5.734  1.00  0.00    -0.014 A 
ATOM     93  C   UNL     1       0.839 -17.373  -6.983  1.00  0.00     0.010 A 
ATOM     94  C   UNL     1       1.413 -19.256  -5.565  1.00  0.00     0.010 A 
ATOM     95  C   UNL     1       0.564 -18.251  -8.035  1.00  0.00     0.020 A 
ATOM     96  C   UNL     1       1.164 -20.135  -6.621  1.00  0.00     0.020 A 
ATOM     97  C   UNL     1       0.726 -19.627  -7.846  1.00  0.00     0.054 A 
BRANCH  97  98
ATOM     98  S   UNL     1       0.401 -20.746  -9.236  1.00  0.00     0.124 S 
ATOM     99  O   UNL     1      -1.059 -20.769  -9.273  1.00  0.00    -0.237 OA
ATOM    100  O   UNL     1       1.047 -20.065 -10.356  1.00  0.00    -0.237 OA
ATOM    101  O   UNL     1       1.034 -21.998  -8.828  1.00  0.00    -0.744 OA
ENDBRANCH  97  98
ENDBRANCH  71  92
ENDBRANCH  45  46
ENDBRANCH  38  40
ENDBRANCH  37  38
ENDBRANCH  36  37
ENDBRANCH  35  36
ENDBRANCH   1  35
TORSDOF 21
