REMARK SMILES COC(=O)c1sc(SCC(=O)OCCOCCOC(=O)c2ccc(-c3c4nc(c(-c5ccc(S(=O)(=O)[O-])cc5)c5ccc([nH]5)c(-c5ccc(S(=O)(=O)[O-])cc5)c5nc(c(-c6ccc(S(=O)(=O)[O-])cc6)c6ccc3[nH]6)C=C5)C=C4)cc2)c(NC(=O)c2ccccc2)c1O
REMARK SMILES IDX 14 1 13 2 12 3 10 4 11 5 9 6 8 7 7 8 5 9 6 10 91 11 81 12
REMARK SMILES IDX 3 13 4 14 2 15 1 16 92 17 82 19 83 20 84 22 85 23 86 24
REMARK SMILES IDX 90 25 87 26 89 27 88 28 15 29 16 30 17 31 18 32 19 33 20 34
REMARK SMILES IDX 21 35 22 36 80 37 23 38 79 39 24 40 25 41 26 42 73 43 27 44
REMARK SMILES IDX 78 45 72 46 74 47 28 48 77 49 71 50 70 51 29 53 59 54 40 55
REMARK SMILES IDX 58 56 41 57 44 58 57 59 75 60 42 61 43 62 56 64 76 65 45 66
REMARK SMILES IDX 30 67 31 68 39 69 32 70 38 71 33 72 34 73 35 74 36 75 37 76
REMARK SMILES IDX 60 77 61 78 69 79 62 80 68 81 63 82 64 83 65 84 66 85 67 86
REMARK SMILES IDX 46 87 47 88 55 89 48 90 54 91 49 92 50 93 51 94 52 95 53 96
REMARK H PARENT 92 18 82 21 74 52 44 63
REMARK Flexibility Score: inf
ROOT
ATOM      1  C   UNL     1      -2.337   8.299  -2.639  1.00  0.00     0.202 C 
ENDROOT
BRANCH   1   2
ATOM      2  C   UNL     1      -2.564   9.560  -1.798  1.00  0.00     0.261 C 
BRANCH   2   3
ATOM      3  O   UNL     1      -1.726   9.544  -0.618  1.00  0.00    -0.463 OA
BRANCH   3   4
ATOM      4  C   UNL     1      -2.347   9.584   0.606  1.00  0.00     0.316 C 
ATOM      5  O   UNL     1      -3.560   9.689   0.751  1.00  0.00    -0.251 OA
BRANCH   4   6
ATOM      6  C   UNL     1      -1.205   9.676   1.884  1.00  0.00     0.198 C 
BRANCH   6   7
ATOM      7  S   UNL     1      -0.176   7.802   3.337  1.00  0.00    -0.101 SA
BRANCH   7   8
ATOM      8  C   UNL     1      -0.250   6.054   2.757  1.00  0.00     0.089 A 
ATOM      9  C   UNL     1       0.446   3.747   2.077  1.00  0.00     0.157 A 
ATOM     10  S   UNL     1       1.228   5.159   2.663  1.00  0.00    -0.116 S 
ATOM     11  C   UNL     1      -0.920   3.929   2.058  1.00  0.00     0.166 A 
ATOM     12  C   UNL     1      -1.332   5.244   2.419  1.00  0.00     0.109 A 
BRANCH   9  13
ATOM     13  C   UNL     1       1.234   2.598   1.676  1.00  0.00     0.352 C 
ATOM     14  O   UNL     1       2.427   2.423   1.876  1.00  0.00    -0.245 OA
BRANCH  13  15
ATOM     15  O   UNL     1       0.426   1.725   0.994  1.00  0.00    -0.465 OA
ATOM     16  C   UNL     1       1.070   0.584   0.412  1.00  0.00     0.282 C 
ENDBRANCH  13  15
ENDBRANCH   9  13
BRANCH  11  17
ATOM     17  O   UNL     1      -1.807   2.987   1.660  1.00  0.00    -0.504 OA
ATOM     18  H   UNL     1      -1.508   2.130   1.428  1.00  0.00     0.293 HD
ENDBRANCH  11  17
BRANCH  12  19
ATOM     19  N   UNL     1      -2.680   5.579   2.344  1.00  0.00    -0.317 N 
ATOM     20  C   UNL     1      -3.204   6.835   2.378  1.00  0.00     0.255 C 
ATOM     21  H   UNL     1      -3.318   4.834   2.257  1.00  0.00     0.170 HD
ATOM     22  O   UNL     1      -4.400   7.069   2.470  1.00  0.00    -0.269 OA
BRANCH  20  23
ATOM     23  C   UNL     1      -2.224   7.917   2.297  1.00  0.00     0.040 A 
ATOM     24  C   UNL     1      -2.142   9.042   3.687  1.00  0.00     0.014 A 
ATOM     25  C   UNL     1      -0.828   7.825   1.106  1.00  0.00     0.014 A 
ATOM     26  C   UNL     1      -0.666  10.040   3.930  1.00  0.00     0.001 A 
ATOM     27  C   UNL     1       0.644   8.824   1.374  1.00  0.00     0.001 A 
ATOM     28  C   UNL     1       0.711   9.929   2.793  1.00  0.00     0.000 A 
ENDBRANCH  20  23
ENDBRANCH  12  19
ENDBRANCH   7   8
ENDBRANCH   6   7
ENDBRANCH   4   6
ENDBRANCH   3   4
ENDBRANCH   2   3
ENDBRANCH   1   2
BRANCH   1  29
ATOM     29  O   UNL     1      -3.350   7.304  -2.467  1.00  0.00    -0.374 OA
BRANCH  29  30
ATOM     30  C   UNL     1      -3.220   6.457  -1.329  1.00  0.00     0.202 C 
BRANCH  30  31
ATOM     31  C   UNL     1      -2.350   5.222  -1.571  1.00  0.00     0.261 C 
BRANCH  31  32
ATOM     32  O   UNL     1      -0.962   5.560  -1.628  1.00  0.00    -0.460 OA
BRANCH  32  33
ATOM     33  C   UNL     1      -0.418   5.649  -2.865  1.00  0.00     0.338 C 
ATOM     34  O   UNL     1      -1.000   5.570  -3.931  1.00  0.00    -0.246 OA
BRANCH  33  35
ATOM     35  C   UNL     1       1.043   5.785  -2.717  1.00  0.00     0.060 A 
ATOM     36  C   UNL     1       1.828   5.464  -3.825  1.00  0.00     0.016 A 
ATOM     37  C   UNL     1       1.632   6.093  -1.479  1.00  0.00     0.016 A 
ATOM     38  C   UNL     1       3.190   5.307  -3.651  1.00  0.00     0.010 A 
ATOM     39  C   UNL     1       2.994   5.945  -1.306  1.00  0.00     0.010 A 
ATOM     40  C   UNL     1       3.749   5.485  -2.379  1.00  0.00    -0.014 A 
BRANCH  40  41
ATOM     41  C   UNL     1       5.146   5.131  -2.220  1.00  0.00     0.031 A 
ATOM     42  C   UNL     1       6.120   6.059  -2.829  1.00  0.00     0.074 A 
ATOM     43  C   UNL     1       5.540   4.044  -1.534  1.00  0.00     0.049 A 
ATOM     44  N   UNL     1       6.879   5.858  -3.854  1.00  0.00    -0.248 NA
ATOM     45  C   UNL     1       6.179   7.420  -2.280  1.00  0.00     0.031 C 
ATOM     46  C   UNL     1       4.752   3.228  -0.609  1.00  0.00     0.029 A 
ATOM     47  N   UNL     1       6.786   3.506  -1.453  1.00  0.00    -0.354 N 
ATOM     48  C   UNL     1       7.645   7.011  -3.986  1.00  0.00     0.074 A 
ATOM     49  C   UNL     1       7.072   7.986  -3.091  1.00  0.00     0.031 C 
ATOM     50  C   UNL     1       5.589   2.439   0.101  1.00  0.00     0.029 A 
ATOM     51  C   UNL     1       6.938   2.598  -0.419  1.00  0.00     0.049 A 
ATOM     52  H   UNL     1       7.513   3.741  -2.073  1.00  0.00     0.167 HD
ATOM     53  C   UNL     1       8.822   7.031  -4.670  1.00  0.00     0.031 A 
ATOM     54  C   UNL     1       8.109   2.089   0.033  1.00  0.00     0.031 A 
ATOM     55  C   UNL     1       8.996   5.869  -5.497  1.00  0.00     0.049 A 
ATOM     56  C   UNL     1       9.126   2.268  -1.034  1.00  0.00     0.074 A 
ATOM     57  C   UNL     1       8.328   5.337  -6.581  1.00  0.00     0.029 A 
ATOM     58  N   UNL     1       9.811   4.870  -5.018  1.00  0.00    -0.354 N 
ATOM     59  N   UNL     1       9.101   1.645  -2.180  1.00  0.00    -0.248 NA
ATOM     60  C   UNL     1       9.977   3.449  -0.994  1.00  0.00     0.031 C 
ATOM     61  C   UNL     1       8.450   3.925  -6.439  1.00  0.00     0.029 A 
ATOM     62  C   UNL     1       9.202   3.672  -5.289  1.00  0.00     0.049 A 
ATOM     63  H   UNL     1      10.675   4.994  -4.562  1.00  0.00     0.167 HD
ATOM     64  C   UNL     1       9.607   2.553  -3.101  1.00  0.00     0.074 A 
ATOM     65  C   UNL     1      10.231   3.596  -2.297  1.00  0.00     0.031 C 
ATOM     66  C   UNL     1       9.243   2.512  -4.417  1.00  0.00     0.031 A 
BRANCH  53  67
ATOM     67  C   UNL     1       9.970   7.939  -4.314  1.00  0.00    -0.014 A 
ATOM     68  C   UNL     1      11.099   7.987  -5.155  1.00  0.00     0.010 A 
ATOM     69  C   UNL     1      10.089   8.541  -3.044  1.00  0.00     0.010 A 
ATOM     70  C   UNL     1      12.305   8.552  -4.717  1.00  0.00     0.020 A 
ATOM     71  C   UNL     1      11.269   9.150  -2.617  1.00  0.00     0.020 A 
ATOM     72  C   UNL     1      12.384   9.114  -3.442  1.00  0.00     0.054 A 
BRANCH  72  73
ATOM     73  S   UNL     1      13.975   9.714  -2.826  1.00  0.00     0.124 S 
ATOM     74  O   UNL     1      14.719   8.469  -2.662  1.00  0.00    -0.237 OA
ATOM     75  O   UNL     1      14.422  10.584  -3.910  1.00  0.00    -0.237 OA
ATOM     76  O   UNL     1      13.623  10.403  -1.586  1.00  0.00    -0.744 OA
ENDBRANCH  72  73
ENDBRANCH  53  67
BRANCH  54  77
ATOM     77  C   UNL     1       8.444   1.776   1.442  1.00  0.00    -0.014 A 
ATOM     78  C   UNL     1       9.563   0.993   1.771  1.00  0.00     0.010 A 
ATOM     79  C   UNL     1       7.789   2.460   2.489  1.00  0.00     0.010 A 
ATOM     80  C   UNL     1      10.034   0.934   3.094  1.00  0.00     0.020 A 
ATOM     81  C   UNL     1       8.244   2.397   3.808  1.00  0.00     0.020 A 
ATOM     82  C   UNL     1       9.379   1.649   4.102  1.00  0.00     0.054 A 
BRANCH  82  83
ATOM     83  S   UNL     1      10.085   1.692   5.774  1.00  0.00     0.124 S 
ATOM     84  O   UNL     1       9.836   0.335   6.251  1.00  0.00    -0.237 OA
ATOM     85  O   UNL     1      11.483   2.027   5.519  1.00  0.00    -0.237 OA
ATOM     86  O   UNL     1       9.315   2.737   6.447  1.00  0.00    -0.744 OA
ENDBRANCH  82  83
ENDBRANCH  54  77
BRANCH  66  87
ATOM     87  C   UNL     1       8.563   1.270  -4.943  1.00  0.00    -0.014 A 
ATOM     88  C   UNL     1       7.306   0.832  -4.486  1.00  0.00     0.010 A 
ATOM     89  C   UNL     1       9.127   0.639  -6.067  1.00  0.00     0.010 A 
ATOM     90  C   UNL     1       6.632  -0.211  -5.137  1.00  0.00     0.020 A 
ATOM     91  C   UNL     1       8.452  -0.390  -6.731  1.00  0.00     0.020 A 
ATOM     92  C   UNL     1       7.207  -0.810  -6.262  1.00  0.00     0.054 A 
BRANCH  92  93
ATOM     93  S   UNL     1       6.277  -2.083  -7.163  1.00  0.00     0.124 S 
ATOM     94  O   UNL     1       6.359  -3.231  -6.265  1.00  0.00    -0.237 OA
ATOM     95  O   UNL     1       4.951  -1.483  -7.298  1.00  0.00    -0.237 OA
ATOM     96  O   UNL     1       7.011  -2.225  -8.420  1.00  0.00    -0.744 OA
ENDBRANCH  92  93
ENDBRANCH  66  87
ENDBRANCH  40  41
ENDBRANCH  33  35
ENDBRANCH  32  33
ENDBRANCH  31  32
ENDBRANCH  30  31
ENDBRANCH  29  30
ENDBRANCH   1  29
TORSDOF 24
