REMARK SMILES CCc1nc(COC)cc(OCC(=O)OCCOCCOC(=O)c2ccc(-c3c4nc(c(-c5ccc(S(=O)(=O)[O-])cc5)c5ccc([nH]5)c(-c5ccc(S(=O)(=O)[O-])cc5)c5nc(c(-c6ccc(S(=O)(=O)[O-])cc6)c6ccc3[nH]6)C=C5)C=C4)cc2)n1
REMARK SMILES IDX 17 1 16 2 15 3 13 4 14 5 12 6 11 7 10 8 3 9 4 10 84 11 5 12
REMARK SMILES IDX 9 13 2 14 1 15 6 16 7 17 8 18 18 19 19 20 20 21 21 22 22 23
REMARK SMILES IDX 23 24 24 25 25 26 83 27 26 28 82 29 27 30 28 31 29 32 76 33
REMARK SMILES IDX 30 34 81 35 75 36 77 37 31 38 80 39 74 40 73 41 32 43 62 44
REMARK SMILES IDX 43 45 61 46 44 47 47 48 60 49 78 50 45 51 46 52 59 54 79 55
REMARK SMILES IDX 48 56 33 57 34 58 42 59 35 60 41 61 36 62 37 63 38 64 39 65
REMARK SMILES IDX 40 66 63 67 64 68 72 69 65 70 71 71 66 72 67 73 68 74 69 75
REMARK SMILES IDX 70 76 49 77 50 78 58 79 51 80 57 81 52 82 53 83 54 84 55 85
REMARK SMILES IDX 56 86
REMARK H PARENT 77 42 47 53
REMARK Flexibility Score: inf
ROOT
ATOM      1  C   UNL     1       5.114  -7.215   2.055  1.00  0.00     0.202 C 
ENDROOT
BRANCH   1   2
ATOM      2  C   UNL     1       3.900  -8.131   1.871  1.00  0.00     0.261 C 
BRANCH   2   3
ATOM      3  O   UNL     1       2.661  -7.439   1.596  1.00  0.00    -0.461 OA
BRANCH   3   4
ATOM      4  C   UNL     1       1.665  -7.601   2.508  1.00  0.00     0.344 C 
ATOM      5  O   UNL     1       1.771  -8.245   3.548  1.00  0.00    -0.248 OA
BRANCH   4   6
ATOM      6  C   UNL     1       0.338  -6.935   2.115  1.00  0.00     0.353 C 
BRANCH   6   7
ATOM      7  O   UNL     1       0.268  -5.852   1.216  1.00  0.00    -0.466 OA
BRANCH   7   8
ATOM      8  C   UNL     1       0.370  -4.560   1.640  1.00  0.00     0.217 A 
ATOM      9  C   UNL     1       0.507  -2.404   0.841  1.00  0.00     0.132 A 
ATOM     10  N   UNL     1       0.954  -1.927   2.013  1.00  0.00    -0.235 NA
ATOM     11  N   UNL     1       0.222  -3.699   0.621  1.00  0.00    -0.198 NA
ATOM     12  C   UNL     1       1.110  -2.804   3.026  1.00  0.00     0.074 A 
ATOM     13  C   UNL     1       0.756  -4.144   2.897  1.00  0.00     0.094 A 
BRANCH   9  14
ATOM     14  C   UNL     1       0.316  -1.462  -0.320  1.00  0.00     0.074 C 
ATOM     15  C   UNL     1       0.919  -0.078  -0.129  1.00  0.00     0.012 C 
ENDBRANCH   9  14
BRANCH  12  16
ATOM     16  C   UNL     1       1.726  -2.296   4.322  1.00  0.00     0.216 C 
BRANCH  16  17
ATOM     17  O   UNL     1       2.620  -1.182   4.193  1.00  0.00    -0.378 OA
ATOM     18  C   UNL     1       3.941  -1.530   3.796  1.00  0.00     0.195 C 
ENDBRANCH  16  17
ENDBRANCH  12  16
ENDBRANCH   7   8
ENDBRANCH   6   7
ENDBRANCH   4   6
ENDBRANCH   3   4
ENDBRANCH   2   3
ENDBRANCH   1   2
BRANCH   1  19
ATOM     19  O   UNL     1       5.037  -6.207   3.050  1.00  0.00    -0.374 OA
BRANCH  19  20
ATOM     20  C   UNL     1       4.038  -5.207   2.952  1.00  0.00     0.202 C 
BRANCH  20  21
ATOM     21  C   UNL     1       3.668  -4.599   1.596  1.00  0.00     0.261 C 
BRANCH  21  22
ATOM     22  O   UNL     1       4.580  -4.787   0.544  1.00  0.00    -0.460 OA
BRANCH  22  23
ATOM     23  C   UNL     1       5.667  -4.004   0.529  1.00  0.00     0.338 C 
ATOM     24  O   UNL     1       6.045  -3.194   1.349  1.00  0.00    -0.246 OA
BRANCH  23  25
ATOM     25  C   UNL     1       6.312  -4.438  -0.708  1.00  0.00     0.060 A 
ATOM     26  C   UNL     1       7.474  -5.203  -0.625  1.00  0.00     0.016 A 
ATOM     27  C   UNL     1       5.627  -4.252  -1.917  1.00  0.00     0.016 A 
ATOM     28  C   UNL     1       7.984  -5.764  -1.788  1.00  0.00     0.010 A 
ATOM     29  C   UNL     1       6.126  -4.831  -3.071  1.00  0.00     0.010 A 
ATOM     30  C   UNL     1       7.322  -5.561  -3.009  1.00  0.00    -0.014 A 
BRANCH  30  31
ATOM     31  C   UNL     1       7.959  -5.994  -4.262  1.00  0.00     0.031 A 
ATOM     32  C   UNL     1       8.663  -4.956  -5.083  1.00  0.00     0.074 A 
ATOM     33  C   UNL     1       7.904  -7.284  -4.633  1.00  0.00     0.049 A 
ATOM     34  N   UNL     1       9.304  -5.095  -6.210  1.00  0.00    -0.248 NA
ATOM     35  C   UNL     1       8.633  -3.574  -4.568  1.00  0.00     0.031 C 
ATOM     36  C   UNL     1       7.237  -8.352  -3.885  1.00  0.00     0.029 A 
ATOM     37  N   UNL     1       8.418  -7.913  -5.733  1.00  0.00    -0.354 N 
ATOM     38  C   UNL     1       9.752  -3.822  -6.539  1.00  0.00     0.074 A 
ATOM     39  C   UNL     1       9.276  -2.917  -5.520  1.00  0.00     0.031 C 
ATOM     40  C   UNL     1       7.394  -9.511  -4.547  1.00  0.00     0.029 A 
ATOM     41  C   UNL     1       8.142  -9.258  -5.776  1.00  0.00     0.049 A 
ATOM     42  H   UNL     1       8.937  -7.447  -6.428  1.00  0.00     0.167 HD
ATOM     43  C   UNL     1      10.507  -3.450  -7.598  1.00  0.00     0.031 A 
ATOM     44  C   UNL     1       8.453 -10.172  -6.714  1.00  0.00     0.031 A 
ATOM     45  C   UNL     1      10.951  -4.370  -8.607  1.00  0.00     0.049 A 
ATOM     46  C   UNL     1       9.253  -9.724  -7.907  1.00  0.00     0.074 A 
ATOM     47  C   UNL     1      11.737  -4.119  -9.715  1.00  0.00     0.029 A 
ATOM     48  N   UNL     1      10.635  -5.722  -8.630  1.00  0.00    -0.354 N 
ATOM     49  N   UNL     1       9.719  -8.526  -8.183  1.00  0.00    -0.248 NA
ATOM     50  C   UNL     1       9.579 -10.745  -8.910  1.00  0.00     0.031 C 
ATOM     51  C   UNL     1      11.848  -5.310 -10.441  1.00  0.00     0.029 A 
ATOM     52  C   UNL     1      11.185  -6.315  -9.751  1.00  0.00     0.049 A 
ATOM     53  H   UNL     1      10.099  -6.189  -7.950  1.00  0.00     0.167 HD
ATOM     54  C   UNL     1      10.411  -8.654  -9.381  1.00  0.00     0.074 A 
ATOM     55  C   UNL     1      10.317 -10.049  -9.766  1.00  0.00     0.031 C 
ATOM     56  C   UNL     1      11.065  -7.709 -10.101  1.00  0.00     0.031 A 
BRANCH  43  57
ATOM     57  C   UNL     1      10.860  -1.993  -7.721  1.00  0.00    -0.014 A 
ATOM     58  C   UNL     1      11.759  -1.381  -6.828  1.00  0.00     0.010 A 
ATOM     59  C   UNL     1      10.294  -1.225  -8.755  1.00  0.00     0.010 A 
ATOM     60  C   UNL     1      12.059  -0.021  -6.946  1.00  0.00     0.020 A 
ATOM     61  C   UNL     1      10.613   0.129  -8.893  1.00  0.00     0.020 A 
ATOM     62  C   UNL     1      11.483   0.726  -7.978  1.00  0.00     0.054 A 
BRANCH  62  63
ATOM     63  S   UNL     1      11.911   2.482  -8.124  1.00  0.00     0.124 S 
ATOM     64  O   UNL     1      11.203   3.061  -6.986  1.00  0.00    -0.237 OA
ATOM     65  O   UNL     1      13.368   2.465  -8.014  1.00  0.00    -0.237 OA
ATOM     66  O   UNL     1      11.393   2.858  -9.437  1.00  0.00    -0.744 OA
ENDBRANCH  62  63
ENDBRANCH  43  57
BRANCH  44  67
ATOM     67  C   UNL     1       8.003 -11.582  -6.559  1.00  0.00    -0.014 A 
ATOM     68  C   UNL     1       8.926 -12.611  -6.306  1.00  0.00     0.010 A 
ATOM     69  C   UNL     1       6.634 -11.900  -6.642  1.00  0.00     0.010 A 
ATOM     70  C   UNL     1       8.492 -13.932  -6.152  1.00  0.00     0.020 A 
ATOM     71  C   UNL     1       6.193 -13.214  -6.463  1.00  0.00     0.020 A 
ATOM     72  C   UNL     1       7.127 -14.225  -6.229  1.00  0.00     0.054 A 
BRANCH  72  73
ATOM     73  S   UNL     1       6.581 -15.936  -5.973  1.00  0.00     0.124 S 
ATOM     74  O   UNL     1       7.011 -16.580  -7.210  1.00  0.00    -0.237 OA
ATOM     75  O   UNL     1       7.313 -16.323  -4.770  1.00  0.00    -0.237 OA
ATOM     76  O   UNL     1       5.136 -15.812  -5.800  1.00  0.00    -0.744 OA
ENDBRANCH  72  73
ENDBRANCH  44  67
BRANCH  56  77
ATOM     77  C   UNL     1      11.748  -8.158 -11.363  1.00  0.00    -0.014 A 
ATOM     78  C   UNL     1      11.008  -8.479 -12.513  1.00  0.00     0.010 A 
ATOM     79  C   UNL     1      13.154  -8.182 -11.416  1.00  0.00     0.010 A 
ATOM     80  C   UNL     1      11.663  -8.842 -13.691  1.00  0.00     0.020 A 
ATOM     81  C   UNL     1      13.812  -8.516 -12.601  1.00  0.00     0.020 A 
ATOM     82  C   UNL     1      13.061  -8.855 -13.728  1.00  0.00     0.054 A 
BRANCH  82  83
ATOM     83  S   UNL     1      13.887  -9.273 -15.286  1.00  0.00     0.124 S 
ATOM     84  O   UNL     1      13.663 -10.714 -15.371  1.00  0.00    -0.237 OA
ATOM     85  O   UNL     1      13.158  -8.466 -16.261  1.00  0.00    -0.237 OA
ATOM     86  O   UNL     1      15.273  -8.870 -15.063  1.00  0.00    -0.744 OA
ENDBRANCH  82  83
ENDBRANCH  56  77
ENDBRANCH  30  31
ENDBRANCH  23  25
ENDBRANCH  22  23
ENDBRANCH  21  22
ENDBRANCH  20  21
ENDBRANCH  19  20
ENDBRANCH   1  19
TORSDOF 22
