REMARK SMILES CCCc1cc(OC(F)(F)F)cc2c1O[C@@H](C(F)(F)F)C(C(=O)OCCOCCOC(=O)c1ccc(-c3c4nc(c(-c5ccc(S(=O)(=O)[O-])cc5)c5ccc([nH]5)c(-c5ccc(S(=O)(=O)[O-])cc5)c5nc(c(-c6ccc(S(=O)(=O)[O-])cc6)c6ccc3[nH]6)C=C5)C=C4)cc1)=C2
REMARK SMILES IDX 28 1 27 2 26 3 25 4 24 5 22 6 23 7 21 8 4 9 5 10 14 11 6 12
REMARK SMILES IDX 13 13 15 14 12 15 93 16 16 17 3 18 2 19 1 20 7 21 8 22 9 23
REMARK SMILES IDX 10 24 11 25 17 26 18 27 19 28 20 29 29 30 30 31 31 32 32 33
REMARK SMILES IDX 33 34 34 35 92 36 35 37 91 38 36 39 37 40 38 41 85 42 39 43
REMARK SMILES IDX 90 44 84 45 86 46 40 47 89 48 83 49 82 50 41 52 71 53 52 54
REMARK SMILES IDX 70 55 53 56 56 57 69 58 87 59 54 60 55 61 68 63 88 64 57 65
REMARK SMILES IDX 42 66 43 67 51 68 44 69 50 70 45 71 46 72 47 73 48 74 49 75
REMARK SMILES IDX 72 76 73 77 81 78 74 79 80 80 75 81 76 82 77 83 78 84 79 85
REMARK SMILES IDX 58 86 59 87 67 88 60 89 66 90 61 91 62 92 63 93 64 94 65 95
REMARK H PARENT 86 51 56 62
REMARK Flexibility Score: inf
ROOT
ATOM      1  C   UNL     1       1.126  -9.053  -4.097  1.00  0.00     0.202 C 
ENDROOT
BRANCH   1   2
ATOM      2  O   UNL     1       2.260  -9.908  -4.232  1.00  0.00    -0.374 OA
BRANCH   2   3
ATOM      3  C   UNL     1       2.736 -10.576  -3.064  1.00  0.00     0.202 C 
BRANCH   3   4
ATOM      4  C   UNL     1       3.541  -9.739  -2.066  1.00  0.00     0.261 C 
BRANCH   4   5
ATOM      5  O   UNL     1       2.789  -8.607  -1.600  1.00  0.00    -0.460 OA
BRANCH   5   6
ATOM      6  C   UNL     1       3.311  -7.403  -1.929  1.00  0.00     0.338 C 
ATOM      7  O   UNL     1       4.398  -7.195  -2.439  1.00  0.00    -0.246 OA
BRANCH   6   8
ATOM      8  C   UNL     1       2.325  -6.332  -1.713  1.00  0.00     0.087 C 
ATOM      9  C   UNL     1       0.437  -2.684  -0.968  1.00  0.00    -0.002 A 
ATOM     10  C   UNL     1      -0.488  -2.605   0.084  1.00  0.00     0.054 A 
ATOM     11  C   UNL     1       1.055  -3.922  -1.204  1.00  0.00     0.131 A 
ATOM     12  C   UNL     1      -0.716  -3.695   0.933  1.00  0.00     0.130 A 
ATOM     13  C   UNL     1       0.837  -5.028  -0.365  1.00  0.00     0.021 A 
ATOM     14  O   UNL     1       1.935  -3.992  -2.260  1.00  0.00    -0.475 OA
ATOM     15  C   UNL     1      -0.058  -4.908   0.698  1.00  0.00     0.058 A 
ATOM     16  C   UNL     1       1.656  -6.230  -0.552  1.00  0.00     0.027 C 
ATOM     17  C   UNL     1       2.080  -5.325  -2.812  1.00  0.00     0.316 C 
BRANCH   9  18
ATOM     18  C   UNL     1       0.772  -1.505  -1.861  1.00  0.00     0.039 C 
BRANCH  18  19
ATOM     19  C   UNL     1       0.435  -0.094  -1.362  1.00  0.00     0.001 C 
ATOM     20  C   UNL     1       1.228   0.320  -0.129  1.00  0.00     0.004 C 
ENDBRANCH  18  19
ENDBRANCH   9  18
BRANCH  12  21
ATOM     21  O   UNL     1      -1.544  -3.691   2.022  1.00  0.00    -0.406 OA
BRANCH  21  22
ATOM     22  C   UNL     1      -1.879  -2.426   2.573  1.00  0.00     0.573 C 
ATOM     23  F   UNL     1      -0.782  -1.663   2.772  1.00  0.00    -0.132 F 
ATOM     24  F   UNL     1      -2.742  -1.766   1.769  1.00  0.00    -0.132 F 
ATOM     25  F   UNL     1      -2.482  -2.613   3.767  1.00  0.00    -0.132 F 
ENDBRANCH  21  22
ENDBRANCH  12  21
BRANCH  17  26
ATOM     26  C   UNL     1       3.046  -5.259  -4.005  1.00  0.00     0.430 C 
ATOM     27  F   UNL     1       3.103  -6.441  -4.662  1.00  0.00    -0.167 F 
ATOM     28  F   UNL     1       2.587  -4.355  -4.916  1.00  0.00    -0.167 F 
ATOM     29  F   UNL     1       4.293  -4.875  -3.672  1.00  0.00    -0.167 F 
ENDBRANCH  17  26
ENDBRANCH   6   8
ENDBRANCH   5   6
ENDBRANCH   4   5
ENDBRANCH   3   4
ENDBRANCH   2   3
ENDBRANCH   1   2
BRANCH   1  30
ATOM     30  C   UNL     1      -0.244  -9.714  -3.895  1.00  0.00     0.261 C 
BRANCH  30  31
ATOM     31  O   UNL     1      -0.333 -10.435  -2.654  1.00  0.00    -0.460 OA
BRANCH  31  32
ATOM     32  C   UNL     1      -0.456 -11.778  -2.796  1.00  0.00     0.338 C 
ATOM     33  O   UNL     1      -0.571 -12.400  -3.838  1.00  0.00    -0.246 OA
BRANCH  32  34
ATOM     34  C   UNL     1      -0.242 -12.447  -1.499  1.00  0.00     0.060 A 
ATOM     35  C   UNL     1       0.755 -13.430  -1.440  1.00  0.00     0.016 A 
ATOM     36  C   UNL     1      -1.050 -12.187  -0.391  1.00  0.00     0.016 A 
ATOM     37  C   UNL     1       0.913 -14.194  -0.288  1.00  0.00     0.010 A 
ATOM     38  C   UNL     1      -0.895 -12.964   0.764  1.00  0.00     0.010 A 
ATOM     39  C   UNL     1       0.060 -13.996   0.805  1.00  0.00    -0.014 A 
BRANCH  39  40
ATOM     40  C   UNL     1       0.084 -14.970   1.923  1.00  0.00     0.031 A 
ATOM     41  C   UNL     1      -0.954 -16.061   1.964  1.00  0.00     0.074 A 
ATOM     42  C   UNL     1       1.047 -14.917   2.860  1.00  0.00     0.049 A 
ATOM     43  N   UNL     1      -1.099 -17.032   2.828  1.00  0.00    -0.248 NA
ATOM     44  C   UNL     1      -1.958 -16.058   0.887  1.00  0.00     0.031 C 
ATOM     45  C   UNL     1       2.126 -13.930   2.909  1.00  0.00     0.029 A 
ATOM     46  N   UNL     1       1.274 -15.718   3.951  1.00  0.00    -0.354 N 
ATOM     47  C   UNL     1      -2.211 -17.751   2.406  1.00  0.00     0.074 A 
ATOM     48  C   UNL     1      -2.720 -17.088   1.225  1.00  0.00     0.031 C 
ATOM     49  C   UNL     1       2.900 -14.183   3.978  1.00  0.00     0.029 A 
ATOM     50  C   UNL     1       2.358 -15.331   4.703  1.00  0.00     0.049 A 
ATOM     51  H   UNL     1       0.714 -16.495   4.175  1.00  0.00     0.167 HD
ATOM     52  C   UNL     1      -2.755 -18.866   2.947  1.00  0.00     0.031 A 
ATOM     53  C   UNL     1       2.849 -15.837   5.852  1.00  0.00     0.031 A 
ATOM     54  C   UNL     1      -2.251 -19.520   4.125  1.00  0.00     0.049 A 
ATOM     55  C   UNL     1       2.192 -17.045   6.467  1.00  0.00     0.074 A 
ATOM     56  C   UNL     1      -2.718 -20.671   4.736  1.00  0.00     0.029 A 
ATOM     57  N   UNL     1      -1.174 -19.077   4.877  1.00  0.00    -0.354 N 
ATOM     58  N   UNL     1       1.165 -17.736   6.031  1.00  0.00    -0.248 NA
ATOM     59  C   UNL     1       2.767 -17.547   7.722  1.00  0.00     0.031 C 
ATOM     60  C   UNL     1      -1.958 -20.892   5.890  1.00  0.00     0.029 A 
ATOM     61  C   UNL     1      -0.980 -19.913   5.964  1.00  0.00     0.049 A 
ATOM     62  H   UNL     1      -0.627 -18.285   4.669  1.00  0.00     0.167 HD
ATOM     63  C   UNL     1       0.987 -18.768   6.947  1.00  0.00     0.074 A 
ATOM     64  C   UNL     1       2.021 -18.620   7.950  1.00  0.00     0.031 C 
ATOM     65  C   UNL     1       0.051 -19.750   6.957  1.00  0.00     0.031 A 
BRANCH  52  66
ATOM     66  C   UNL     1      -3.983 -19.435   2.287  1.00  0.00    -0.014 A 
ATOM     67  C   UNL     1      -3.906 -20.095   1.047  1.00  0.00     0.010 A 
ATOM     68  C   UNL     1      -5.226 -19.346   2.939  1.00  0.00     0.010 A 
ATOM     69  C   UNL     1      -5.056 -20.626   0.457  1.00  0.00     0.020 A 
ATOM     70  C   UNL     1      -6.374 -19.898   2.365  1.00  0.00     0.020 A 
ATOM     71  C   UNL     1      -6.284 -20.522   1.119  1.00  0.00     0.054 A 
BRANCH  71  72
ATOM     72  S   UNL     1      -7.756 -21.245   0.344  1.00  0.00     0.124 S 
ATOM     73  O   UNL     1      -8.013 -20.306  -0.746  1.00  0.00    -0.237 OA
ATOM     74  O   UNL     1      -7.288 -22.567  -0.064  1.00  0.00    -0.237 OA
ATOM     75  O   UNL     1      -8.750 -21.241   1.415  1.00  0.00    -0.744 OA
ENDBRANCH  71  72
ENDBRANCH  52  66
BRANCH  53  76
ATOM     76  C   UNL     1       4.017 -15.189   6.509  1.00  0.00    -0.014 A 
ATOM     77  C   UNL     1       5.266 -15.830   6.557  1.00  0.00     0.010 A 
ATOM     78  C   UNL     1       3.877 -13.917   7.096  1.00  0.00     0.010 A 
ATOM     79  C   UNL     1       6.350 -15.220   7.197  1.00  0.00     0.020 A 
ATOM     80  C   UNL     1       4.964 -13.293   7.711  1.00  0.00     0.020 A 
ATOM     81  C   UNL     1       6.192 -13.954   7.768  1.00  0.00     0.054 A 
BRANCH  81  82
ATOM     82  S   UNL     1       7.624 -13.158   8.550  1.00  0.00     0.124 S 
ATOM     83  O   UNL     1       7.743 -13.906   9.797  1.00  0.00    -0.237 OA
ATOM     84  O   UNL     1       8.684 -13.384   7.571  1.00  0.00    -0.237 OA
ATOM     85  O   UNL     1       7.204 -11.765   8.691  1.00  0.00    -0.744 OA
ENDBRANCH  81  82
ENDBRANCH  53  76
BRANCH  65  86
ATOM     86  C   UNL     1       0.116 -20.760   8.072  1.00  0.00    -0.014 A 
ATOM     87  C   UNL     1      -0.252 -20.420   9.386  1.00  0.00     0.010 A 
ATOM     88  C   UNL     1       0.500 -22.084   7.789  1.00  0.00     0.010 A 
ATOM     89  C   UNL     1      -0.206 -21.378  10.403  1.00  0.00     0.020 A 
ATOM     90  C   UNL     1       0.521 -23.051   8.797  1.00  0.00     0.020 A 
ATOM     91  C   UNL     1       0.182 -22.688  10.102  1.00  0.00     0.054 A 
BRANCH  91  92
ATOM     92  S   UNL     1       0.196 -23.922  11.431  1.00  0.00     0.124 S 
ATOM     93  O   UNL     1       1.389 -23.544  12.184  1.00  0.00    -0.237 OA
ATOM     94  O   UNL     1      -1.077 -23.681  12.107  1.00  0.00    -0.237 OA
ATOM     95  O   UNL     1       0.285 -25.195  10.720  1.00  0.00    -0.744 OA
ENDBRANCH  91  92
ENDBRANCH  65  86
ENDBRANCH  39  40
ENDBRANCH  32  34
ENDBRANCH  31  32
ENDBRANCH  30  31
ENDBRANCH   1  30
TORSDOF 22
