REMARK SMILES Cc1cc2c(c(C)c1Cl)C=C(C(=O)OCCOCCOC(=O)c1ccc(-c3c4nc(c(-c5ccc(S(=O)(=O)[O-])cc5)c5ccc([nH]5)c(-c5ccc(S(=O)(=O)[O-])cc5)c5nc(c(-c6ccc(S(=O)(=O)[O-])cc6)c6ccc3[nH]6)C=C5)C=C4)cc1)[C@@H](C(F)(F)F)O2
REMARK SMILES IDX 18 1 17 2 16 3 15 4 14 5 12 6 13 7 11 8 1 9 2 10 3 11 8 12
REMARK SMILES IDX 4 13 6 14 9 15 5 16 88 17 7 18 10 19 83 20 84 21 85 22 86 23
REMARK SMILES IDX 87 24 19 25 20 26 21 27 22 28 23 29 24 30 82 31 25 32 81 33
REMARK SMILES IDX 26 34 27 35 28 36 75 37 29 38 80 39 74 40 76 41 30 42 79 43
REMARK SMILES IDX 73 44 72 45 31 47 61 48 42 49 60 50 43 51 46 52 59 53 77 54
REMARK SMILES IDX 44 55 45 56 58 58 78 59 47 60 32 61 33 62 41 63 34 64 40 65
REMARK SMILES IDX 35 66 36 67 37 68 38 69 39 70 62 71 63 72 71 73 64 74 70 75
REMARK SMILES IDX 65 76 66 77 67 78 68 79 69 80 48 81 49 82 57 83 50 84 56 85
REMARK SMILES IDX 51 86 52 87 53 88 54 89 55 90
REMARK H PARENT 76 46 46 57
REMARK Flexibility Score: inf
ROOT
ATOM      1  C   UNL     1       0.526   6.406   6.204  1.00  0.00     0.202 C 
ENDROOT
BRANCH   1   2
ATOM      2  O   UNL     1      -0.299   7.543   6.465  1.00  0.00    -0.374 OA
BRANCH   2   3
ATOM      3  C   UNL     1      -1.484   7.345   7.233  1.00  0.00     0.202 C 
BRANCH   3   4
ATOM      4  C   UNL     1      -2.689   6.737   6.509  1.00  0.00     0.261 C 
BRANCH   4   5
ATOM      5  O   UNL     1      -2.361   5.493   5.871  1.00  0.00    -0.460 OA
BRANCH   5   6
ATOM      6  C   UNL     1      -2.357   5.542   4.519  1.00  0.00     0.338 C 
ATOM      7  O   UNL     1      -2.711   6.477   3.816  1.00  0.00    -0.246 OA
BRANCH   6   8
ATOM      8  C   UNL     1      -1.714   4.331   3.975  1.00  0.00     0.087 C 
ATOM      9  C   UNL     1       0.911  -0.142   0.110  1.00  0.00     0.046 C 
ATOM     10  C   UNL     1       0.561   1.105   0.876  1.00  0.00    -0.028 A 
ATOM     11  C   UNL     1      -0.198   0.988   2.047  1.00  0.00     0.052 A 
ATOM     12  C   UNL     1       0.956   2.386   0.442  1.00  0.00     0.047 A 
ATOM     13  C   UNL     1      -0.617   2.121   2.742  1.00  0.00     0.128 A 
ATOM     14  C   UNL     1       0.560   3.546   1.146  1.00  0.00    -0.021 A 
ATOM     15  Cl  UNL     1       1.927   2.512  -0.995  1.00  0.00    -0.084 Cl
ATOM     16  C   UNL     1      -0.275   3.397   2.282  1.00  0.00     0.022 A 
ATOM     17  O   UNL     1      -1.357   1.876   3.865  1.00  0.00    -0.475 OA
ATOM     18  C   UNL     1       0.994   4.929   0.717  1.00  0.00     0.047 C 
ATOM     19  C   UNL     1      -0.859   4.544   2.968  1.00  0.00     0.027 C 
ATOM     20  C   UNL     1      -2.043   2.976   4.524  1.00  0.00     0.316 C 
BRANCH  20  21
ATOM     21  C   UNL     1      -3.551   2.680   4.515  1.00  0.00     0.430 C 
ATOM     22  F   UNL     1      -3.804   1.430   4.971  1.00  0.00    -0.167 F 
ATOM     23  F   UNL     1      -4.234   3.534   5.309  1.00  0.00    -0.167 F 
ATOM     24  F   UNL     1      -4.072   2.772   3.270  1.00  0.00    -0.167 F 
ENDBRANCH  20  21
ENDBRANCH   6   8
ENDBRANCH   5   6
ENDBRANCH   4   5
ENDBRANCH   3   4
ENDBRANCH   2   3
ENDBRANCH   1   2
BRANCH   1  25
ATOM     25  C   UNL     1       1.301   5.801   7.381  1.00  0.00     0.261 C 
BRANCH  25  26
ATOM     26  O   UNL     1       0.432   5.160   8.334  1.00  0.00    -0.460 OA
BRANCH  26  27
ATOM     27  C   UNL     1       0.436   5.717   9.570  1.00  0.00     0.338 C 
ATOM     28  O   UNL     1       1.132   6.645   9.959  1.00  0.00    -0.246 OA
BRANCH  27  29
ATOM     29  C   UNL     1      -0.678   5.176  10.366  1.00  0.00     0.060 A 
ATOM     30  C   UNL     1      -1.647   6.077  10.826  1.00  0.00     0.016 A 
ATOM     31  C   UNL     1      -0.727   3.829  10.729  1.00  0.00     0.016 A 
ATOM     32  C   UNL     1      -2.652   5.639  11.684  1.00  0.00     0.010 A 
ATOM     33  C   UNL     1      -1.730   3.395  11.603  1.00  0.00     0.010 A 
ATOM     34  C   UNL     1      -2.676   4.304  12.109  1.00  0.00    -0.014 A 
BRANCH  34  35
ATOM     35  C   UNL     1      -3.601   3.909  13.198  1.00  0.00     0.031 A 
ATOM     36  C   UNL     1      -3.082   3.853  14.609  1.00  0.00     0.074 A 
ATOM     37  C   UNL     1      -4.899   3.665  12.943  1.00  0.00     0.049 A 
ATOM     38  N   UNL     1      -3.720   3.564  15.713  1.00  0.00    -0.248 NA
ATOM     39  C   UNL     1      -1.657   4.173  14.802  1.00  0.00     0.031 C 
ATOM     40  C   UNL     1      -5.530   3.743  11.626  1.00  0.00     0.029 A 
ATOM     41  N   UNL     1      -5.922   3.315  13.787  1.00  0.00    -0.354 N 
ATOM     42  C   UNL     1      -2.780   3.674  16.732  1.00  0.00     0.074 A 
ATOM     43  C   UNL     1      -1.520   4.019  16.111  1.00  0.00     0.031 C 
ATOM     44  C   UNL     1      -6.838   3.458  11.752  1.00  0.00     0.029 A 
ATOM     45  C   UNL     1      -7.130   3.149  13.151  1.00  0.00     0.049 A 
ATOM     46  H   UNL     1      -5.803   3.193  14.757  1.00  0.00     0.167 HD
ATOM     47  C   UNL     1      -2.954   3.516  18.065  1.00  0.00     0.031 A 
ATOM     48  C   UNL     1      -8.331   2.783  13.641  1.00  0.00     0.031 A 
ATOM     49  C   UNL     1      -4.204   3.156  18.678  1.00  0.00     0.049 A 
ATOM     50  C   UNL     1      -8.476   2.511  15.116  1.00  0.00     0.074 A 
ATOM     51  C   UNL     1      -4.480   2.971  20.021  1.00  0.00     0.029 A 
ATOM     52  N   UNL     1      -5.385   2.921  17.990  1.00  0.00    -0.354 N 
ATOM     53  N   UNL     1      -7.580   2.632  16.067  1.00  0.00    -0.248 NA
ATOM     54  C   UNL     1      -9.793   2.055  15.583  1.00  0.00     0.031 C 
ATOM     55  C   UNL     1      -5.814   2.569  20.141  1.00  0.00     0.029 A 
ATOM     56  C   UNL     1      -6.384   2.562  18.878  1.00  0.00     0.049 A 
ATOM     57  H   UNL     1      -5.496   2.999  17.015  1.00  0.00     0.167 HD
ATOM     58  C   UNL     1      -8.231   2.286  17.247  1.00  0.00     0.074 A 
ATOM     59  C   UNL     1      -9.599   1.965  16.892  1.00  0.00     0.031 C 
ATOM     60  C   UNL     1      -7.740   2.239  18.510  1.00  0.00     0.031 A 
BRANCH  47  61
ATOM     61  C   UNL     1      -1.755   3.714  18.952  1.00  0.00    -0.014 A 
ATOM     62  C   UNL     1      -1.236   4.999  19.190  1.00  0.00     0.010 A 
ATOM     63  C   UNL     1      -1.170   2.608  19.594  1.00  0.00     0.010 A 
ATOM     64  C   UNL     1      -0.136   5.171  20.033  1.00  0.00     0.020 A 
ATOM     65  C   UNL     1      -0.084   2.779  20.457  1.00  0.00     0.020 A 
ATOM     66  C   UNL     1       0.434   4.060  20.661  1.00  0.00     0.054 A 
BRANCH  66  67
ATOM     67  S   UNL     1       1.844   4.319  21.772  1.00  0.00     0.124 S 
ATOM     68  O   UNL     1       2.904   4.682  20.834  1.00  0.00    -0.237 OA
ATOM     69  O   UNL     1       1.375   5.399  22.637  1.00  0.00    -0.237 OA
ATOM     70  O   UNL     1       2.013   3.026  22.429  1.00  0.00    -0.744 OA
ENDBRANCH  66  67
ENDBRANCH  47  61
BRANCH  48  71
ATOM     71  C   UNL     1      -9.495   2.646  12.723  1.00  0.00    -0.014 A 
ATOM     72  C   UNL     1     -10.560   3.562  12.778  1.00  0.00     0.010 A 
ATOM     73  C   UNL     1      -9.538   1.604  11.779  1.00  0.00     0.010 A 
ATOM     74  C   UNL     1     -11.648   3.436  11.910  1.00  0.00     0.020 A 
ATOM     75  C   UNL     1     -10.612   1.489  10.892  1.00  0.00     0.020 A 
ATOM     76  C   UNL     1     -11.665   2.402  10.969  1.00  0.00     0.054 A 
BRANCH  76  77
ATOM     77  S   UNL     1     -13.061   2.296   9.814  1.00  0.00     0.124 S 
ATOM     78  O   UNL     1     -14.148   1.870  10.690  1.00  0.00    -0.237 OA
ATOM     79  O   UNL     1     -13.153   3.663   9.308  1.00  0.00    -0.237 OA
ATOM     80  O   UNL     1     -12.621   1.305   8.835  1.00  0.00    -0.744 OA
ENDBRANCH  76  77
ENDBRANCH  48  71
BRANCH  60  81
ATOM     81  C   UNL     1      -8.680   1.836  19.615  1.00  0.00    -0.014 A 
ATOM     82  C   UNL     1      -9.076   0.497  19.773  1.00  0.00     0.010 A 
ATOM     83  C   UNL     1      -9.092   2.791  20.563  1.00  0.00     0.010 A 
ATOM     84  C   UNL     1      -9.877   0.121  20.854  1.00  0.00     0.020 A 
ATOM     85  C   UNL     1      -9.873   2.414  21.659  1.00  0.00     0.020 A 
ATOM     86  C   UNL     1     -10.266   1.081  21.794  1.00  0.00     0.054 A 
BRANCH  86  87
ATOM     87  S   UNL     1     -11.245   0.550  23.226  1.00  0.00     0.124 S 
ATOM     88  O   UNL     1     -12.538   0.252  22.617  1.00  0.00    -0.237 OA
ATOM     89  O   UNL     1     -10.497  -0.608  23.712  1.00  0.00    -0.237 OA
ATOM     90  O   UNL     1     -11.226   1.712  24.111  1.00  0.00    -0.744 OA
ENDBRANCH  86  87
ENDBRANCH  60  81
ENDBRANCH  34  35
ENDBRANCH  27  29
ENDBRANCH  26  27
ENDBRANCH  25  26
ENDBRANCH   1  25
TORSDOF 18
