REMARK SMILES CC1(C)[C@H](O)CC[C@@]2(C)[C@@H]1CC[C@@]1(C)Oc3oc(C(=O)OCCOCCOC(=O)c4ccc(-c5c6nc(c(-c7ccc(S(=O)(=O)[O-])cc7)c7ccc([nH]7)c(-c7ccc(S(=O)(=O)[O-])cc7)c7nc(c(-c8ccc(S(=O)(=O)[O-])cc8)c8ccc5[nH]8)C=C7)C=C6)cc4)cc(=O)c3C[C@@H]21
REMARK SMILES IDX 25 1 24 2 23 3 22 4 21 5 19 6 20 7 18 8 1 9 2 10 4 11 10 12
REMARK SMILES IDX 3 13 6 14 8 15 11 16 7 17 95 18 9 19 12 20 13 21 94 22 15 23
REMARK SMILES IDX 14 24 93 25 16 26 91 27 17 28 90 29 92 30 5 31 26 33 27 34
REMARK SMILES IDX 28 35 29 36 30 37 31 38 89 39 32 40 88 41 33 42 34 43 35 44
REMARK SMILES IDX 82 45 36 46 87 47 81 48 83 49 37 50 86 51 80 52 79 53 38 55
REMARK SMILES IDX 68 56 49 57 67 58 50 59 53 60 66 61 84 62 51 63 52 64 65 66
REMARK SMILES IDX 85 67 54 68 39 69 40 70 48 71 41 72 47 73 42 74 43 75 44 76
REMARK SMILES IDX 45 77 46 78 69 79 70 80 78 81 71 82 77 83 72 84 73 85 74 86
REMARK SMILES IDX 75 87 76 88 55 89 56 90 64 91 57 92 63 93 58 94 59 95 60 96
REMARK SMILES IDX 61 97 62 98
REMARK H PARENT 5 32 83 54 53 65
REMARK Flexibility Score: inf
ROOT
ATOM      1  C   UNL     1      -8.830  -0.598  -2.735  1.00  0.00     0.202 C 
ENDROOT
BRANCH   1   2
ATOM      2  O   UNL     1     -10.174  -0.953  -2.404  1.00  0.00    -0.374 OA
BRANCH   2   3
ATOM      3  C   UNL     1     -10.521  -0.990  -1.023  1.00  0.00     0.202 C 
BRANCH   3   4
ATOM      4  C   UNL     1     -10.115  -2.247  -0.252  1.00  0.00     0.261 C 
BRANCH   4   5
ATOM      5  O   UNL     1      -8.737  -2.568  -0.428  1.00  0.00    -0.457 OA
BRANCH   5   6
ATOM      6  C   UNL     1      -8.403  -3.541  -1.330  1.00  0.00     0.374 C 
ATOM      7  O   UNL     1      -9.156  -4.172  -2.043  1.00  0.00    -0.242 OA
BRANCH   6   8
ATOM      8  C   UNL     1      -6.920  -3.670  -1.312  1.00  0.00     0.219 A 
ATOM      9  C   UNL     1       2.255  -0.741  -1.449  1.00  0.00     0.014 C 
ATOM     10  C   UNL     1       1.604  -2.136  -1.184  1.00  0.00    -0.006 C 
ATOM     11  C   UNL     1       0.674  -1.857   0.139  1.00  0.00     0.120 C 
ATOM     12  C   UNL     1       0.681  -2.801  -2.699  1.00  0.00     0.004 C 
ATOM     13  C   UNL     1       2.803  -3.022  -0.722  1.00  0.00     0.014 C 
ATOM     14  C   UNL     1      -0.037  -3.115   0.527  1.00  0.00     0.033 C 
ATOM     15  C   UNL     1      -0.646  -2.647  -1.987  1.00  0.00    -0.022 C 
ATOM     16  C   UNL     1       0.179  -4.187  -3.512  1.00  0.00     0.009 C 
ATOM     17  C   UNL     1      -0.287  -3.723  -0.802  1.00  0.00     0.010 C 
ATOM     18  C   UNL     1      -2.150  -2.865  -2.298  1.00  0.00     0.044 C 
ATOM     19  C   UNL     1      -0.676  -1.084  -2.327  1.00  0.00     0.012 C 
ATOM     20  C   UNL     1      -1.365  -4.679  -3.682  1.00  0.00     0.049 C 
ATOM     21  C   UNL     1      -2.497  -3.620  -3.553  1.00  0.00     0.113 C 
ATOM     22  C   UNL     1      -2.816  -3.405  -1.048  1.00  0.00     0.055 C 
ATOM     23  O   UNL     1      -3.912  -4.111  -3.510  1.00  0.00    -0.458 OA
ATOM     24  C   UNL     1      -2.452  -2.732  -4.820  1.00  0.00     0.057 C 
ATOM     25  C   UNL     1      -4.233  -3.523  -1.218  1.00  0.00     0.081 A 
ATOM     26  C   UNL     1      -4.761  -3.825  -2.400  1.00  0.00     0.292 A 
ATOM     27  C   UNL     1      -4.974  -3.428   0.038  1.00  0.00     0.192 A 
ATOM     28  O   UNL     1      -6.171  -3.924  -2.486  1.00  0.00    -0.418 OA
ATOM     29  C   UNL     1      -6.401  -3.496  -0.089  1.00  0.00     0.107 A 
ATOM     30  O   UNL     1      -4.441  -3.301   1.131  1.00  0.00    -0.289 OA
BRANCH  11  31
ATOM     31  O   UNL     1       1.348  -1.343   1.276  1.00  0.00    -0.393 OA
ATOM     32  H   UNL     1       1.981  -2.002   1.601  1.00  0.00     0.210 HD
ENDBRANCH  11  31
ENDBRANCH   6   8
ENDBRANCH   5   6
ENDBRANCH   4   5
ENDBRANCH   3   4
ENDBRANCH   2   3
ENDBRANCH   1   2
BRANCH   1  33
ATOM     33  C   UNL     1      -8.448   0.879  -2.606  1.00  0.00     0.261 C 
BRANCH  33  34
ATOM     34  O   UNL     1      -8.418   1.321  -1.237  1.00  0.00    -0.460 OA
BRANCH  34  35
ATOM     35  C   UNL     1      -9.337   2.271  -0.937  1.00  0.00     0.338 C 
ATOM     36  O   UNL     1     -10.146   2.784  -1.689  1.00  0.00    -0.246 OA
BRANCH  35  37
ATOM     37  C   UNL     1      -9.323   2.552   0.506  1.00  0.00     0.060 A 
ATOM     38  C   UNL     1     -10.433   2.161   1.266  1.00  0.00     0.016 A 
ATOM     39  C   UNL     1      -8.319   3.348   1.059  1.00  0.00     0.016 A 
ATOM     40  C   UNL     1     -10.568   2.612   2.576  1.00  0.00     0.010 A 
ATOM     41  C   UNL     1      -8.465   3.813   2.368  1.00  0.00     0.010 A 
ATOM     42  C   UNL     1      -9.611   3.482   3.112  1.00  0.00    -0.014 A 
BRANCH  42  43
ATOM     43  C   UNL     1      -9.899   4.192   4.378  1.00  0.00     0.031 A 
ATOM     44  C   UNL     1     -10.524   5.559   4.314  1.00  0.00     0.074 A 
ATOM     45  C   UNL     1      -9.625   3.622   5.563  1.00  0.00     0.049 A 
ATOM     46  N   UNL     1     -10.809   6.381   5.290  1.00  0.00    -0.248 NA
ATOM     47  C   UNL     1     -10.880   6.062   2.976  1.00  0.00     0.031 C 
ATOM     48  C   UNL     1      -9.077   2.280   5.748  1.00  0.00     0.029 A 
ATOM     49  N   UNL     1      -9.771   4.109   6.836  1.00  0.00    -0.354 N 
ATOM     50  C   UNL     1     -11.370   7.500   4.686  1.00  0.00     0.074 A 
ATOM     51  C   UNL     1     -11.374   7.259   3.260  1.00  0.00     0.031 C 
ATOM     52  C   UNL     1      -8.922   2.053   7.063  1.00  0.00     0.029 A 
ATOM     53  C   UNL     1      -9.326   3.245   7.807  1.00  0.00     0.049 A 
ATOM     54  H   UNL     1     -10.156   4.993   7.036  1.00  0.00     0.167 HD
ATOM     55  C   UNL     1     -11.839   8.627   5.269  1.00  0.00     0.031 A 
ATOM     56  C   UNL     1      -9.230   3.409   9.141  1.00  0.00     0.031 A 
ATOM     57  C   UNL     1     -11.817   8.870   6.686  1.00  0.00     0.049 A 
ATOM     58  C   UNL     1      -9.670   4.706   9.760  1.00  0.00     0.074 A 
ATOM     59  C   UNL     1     -12.278   9.978   7.374  1.00  0.00     0.029 A 
ATOM     60  N   UNL     1     -11.298   7.997   7.629  1.00  0.00    -0.354 N 
ATOM     61  N   UNL     1     -10.193   5.758   9.177  1.00  0.00    -0.248 NA
ATOM     62  C   UNL     1      -9.500   4.841  11.213  1.00  0.00     0.031 C 
ATOM     63  C   UNL     1     -11.989   9.797   8.731  1.00  0.00     0.029 A 
ATOM     64  C   UNL     1     -11.395   8.554   8.891  1.00  0.00     0.049 A 
ATOM     65  H   UNL     1     -10.917   7.111   7.430  1.00  0.00     0.167 HD
ATOM     66  C   UNL     1     -10.420   6.680  10.192  1.00  0.00     0.074 A 
ATOM     67  C   UNL     1      -9.990   6.056  11.428  1.00  0.00     0.031 C 
ATOM     68  C   UNL     1     -10.940   7.929  10.107  1.00  0.00     0.031 A 
BRANCH  55  69
ATOM     69  C   UNL     1     -12.381   9.703   4.371  1.00  0.00    -0.014 A 
ATOM     70  C   UNL     1     -13.648   9.582   3.775  1.00  0.00     0.010 A 
ATOM     71  C   UNL     1     -11.633  10.877   4.165  1.00  0.00     0.010 A 
ATOM     72  C   UNL     1     -14.152  10.610   2.974  1.00  0.00     0.020 A 
ATOM     73  C   UNL     1     -12.142  11.915   3.380  1.00  0.00     0.020 A 
ATOM     74  C   UNL     1     -13.397  11.772   2.785  1.00  0.00     0.054 A 
BRANCH  74  75
ATOM     75  S   UNL     1     -14.090  13.098   1.760  1.00  0.00     0.124 S 
ATOM     76  O   UNL     1     -14.247  12.434   0.468  1.00  0.00    -0.237 OA
ATOM     77  O   UNL     1     -15.333  13.416   2.457  1.00  0.00    -0.237 OA
ATOM     78  O   UNL     1     -13.068  14.141   1.799  1.00  0.00    -0.744 OA
ENDBRANCH  74  75
ENDBRANCH  55  69
BRANCH  56  79
ATOM     79  C   UNL     1      -8.667   2.309   9.965  1.00  0.00    -0.014 A 
ATOM     80  C   UNL     1      -9.509   1.494  10.739  1.00  0.00     0.010 A 
ATOM     81  C   UNL     1      -7.288   2.028   9.921  1.00  0.00     0.010 A 
ATOM     82  C   UNL     1      -8.986   0.403  11.438  1.00  0.00     0.020 A 
ATOM     83  C   UNL     1      -6.765   0.928  10.603  1.00  0.00     0.020 A 
ATOM     84  C   UNL     1      -7.619   0.117  11.352  1.00  0.00     0.054 A 
BRANCH  84  85
ATOM     85  S   UNL     1      -6.987  -1.361  12.194  1.00  0.00     0.124 S 
ATOM     86  O   UNL     1      -7.305  -1.080  13.591  1.00  0.00    -0.237 OA
ATOM     87  O   UNL     1      -7.768  -2.425  11.569  1.00  0.00    -0.237 OA
ATOM     88  O   UNL     1      -5.564  -1.362  11.866  1.00  0.00    -0.744 OA
ENDBRANCH  84  85
ENDBRANCH  56  79
BRANCH  68  89
ATOM     89  C   UNL     1     -11.070   8.719  11.380  1.00  0.00    -0.014 A 
ATOM     90  C   UNL     1      -9.945   9.320  11.970  1.00  0.00     0.010 A 
ATOM     91  C   UNL     1     -12.342   8.937  11.941  1.00  0.00     0.010 A 
ATOM     92  C   UNL     1     -10.088  10.117  13.109  1.00  0.00     0.020 A 
ATOM     93  C   UNL     1     -12.492   9.750  13.067  1.00  0.00     0.020 A 
ATOM     94  C   UNL     1     -11.362  10.332  13.646  1.00  0.00     0.054 A 
BRANCH  94  95
ATOM     95  S   UNL     1     -11.518  11.405  15.100  1.00  0.00     0.124 S 
ATOM     96  O   UNL     1     -10.737  10.681  16.101  1.00  0.00    -0.237 OA
ATOM     97  O   UNL     1     -10.932  12.657  14.631  1.00  0.00    -0.237 OA
ATOM     98  O   UNL     1     -12.957  11.447  15.350  1.00  0.00    -0.744 OA
ENDBRANCH  94  95
ENDBRANCH  68  89
ENDBRANCH  42  43
ENDBRANCH  35  37
ENDBRANCH  34  35
ENDBRANCH  33  34
ENDBRANCH   1  33
TORSDOF 18
