REMARK SMILES CC(=O)c1c[nH]c(C(=O)N[C@H]2C=C[C@H](C(=O)OCCOCCOC(=O)c3ccc(-c4c5nc(c(-c6ccc(S(=O)(=O)[O-])cc6)c6ccc([nH]6)c(-c6ccc(S(=O)(=O)[O-])cc6)c6nc(c(-c7ccc(S(=O)(=O)[O-])cc7)c7ccc4[nH]7)C=C6)C=C5)cc3)C2)c1
REMARK SMILES IDX 20 1 19 2 18 3 17 4 15 5 16 6 14 7 11 8 12 9 86 10 13 11
REMARK SMILES IDX 10 12 8 13 9 14 7 16 4 17 5 18 87 19 6 20 2 22 1 23 3 24
REMARK SMILES IDX 21 25 22 26 23 27 24 28 25 29 26 30 27 31 85 32 28 33 84 34
REMARK SMILES IDX 29 35 30 36 31 37 78 38 32 39 83 40 77 41 79 42 33 43 82 44
REMARK SMILES IDX 76 45 75 46 34 48 64 49 45 50 63 51 46 52 49 53 62 54 80 55
REMARK SMILES IDX 47 56 48 57 61 59 81 60 50 61 35 62 36 63 44 64 37 65 43 66
REMARK SMILES IDX 38 67 39 68 40 69 41 70 42 71 65 72 66 73 74 74 67 75 73 76
REMARK SMILES IDX 68 77 69 78 70 79 71 80 72 81 51 82 52 83 60 84 53 85 59 86
REMARK SMILES IDX 54 87 55 88 56 89 57 90 58 91
REMARK H PARENT 10 15 6 21 79 47 49 58
REMARK Flexibility Score: inf
ROOT
ATOM      1  O   UNL     1      -4.404   4.117   2.807  1.00  0.00    -0.374 OA
ENDROOT
BRANCH   1   2
ATOM      2  C   UNL     1      -5.370   3.270   2.181  1.00  0.00     0.202 C 
BRANCH   2   3
ATOM      3  C   UNL     1      -5.137   1.764   2.220  1.00  0.00     0.261 C 
BRANCH   3   4
ATOM      4  O   UNL     1      -5.138   1.280   3.572  1.00  0.00    -0.463 OA
BRANCH   4   5
ATOM      5  C   UNL     1      -4.078   0.487   3.872  1.00  0.00     0.312 C 
ATOM      6  O   UNL     1      -3.299   0.032   3.043  1.00  0.00    -0.252 OA
BRANCH   5   7
ATOM      7  C   UNL     1      -3.936   0.287   5.380  1.00  0.00     0.124 C 
ATOM      8  C   UNL     1      -2.155  -1.329   5.410  1.00  0.00     0.106 C 
ATOM      9  C   UNL     1      -3.439  -1.956   5.865  1.00  0.00    -0.006 C 
ATOM     10  C   UNL     1      -2.447   0.146   5.726  1.00  0.00     0.048 C 
ATOM     11  C   UNL     1      -4.439  -1.061   5.807  1.00  0.00    -0.014 C 
BRANCH   8  12
ATOM     12  N   UNL     1      -1.010  -1.833   6.101  1.00  0.00    -0.345 N 
ATOM     13  C   UNL     1       0.313  -1.805   5.708  1.00  0.00     0.268 C 
ATOM     14  O   UNL     1       1.123  -2.345   6.440  1.00  0.00    -0.268 OA
ATOM     15  H   UNL     1      -1.189  -2.257   6.972  1.00  0.00     0.164 HD
BRANCH  13  16
ATOM     16  C   UNL     1       0.734  -1.188   4.452  1.00  0.00     0.105 A 
ATOM     17  C   UNL     1       1.045  -0.178   2.411  1.00  0.00     0.035 A 
ATOM     18  C   UNL     1       2.230  -0.771   2.790  1.00  0.00     0.094 A 
ATOM     19  C   UNL     1       0.134  -0.408   3.480  1.00  0.00     0.045 A 
ATOM     20  N   UNL     1       2.046  -1.334   4.028  1.00  0.00    -0.356 N 
ATOM     21  H   UNL     1       2.752  -1.782   4.547  1.00  0.00     0.166 HD
BRANCH  17  22
ATOM     22  C   UNL     1       0.750   0.541   1.175  1.00  0.00     0.161 C 
ATOM     23  C   UNL     1       1.329   0.007  -0.109  1.00  0.00     0.093 C 
ATOM     24  O   UNL     1       0.002   1.518   1.167  1.00  0.00    -0.294 OA
ENDBRANCH  17  22
ENDBRANCH  13  16
ENDBRANCH   8  12
ENDBRANCH   5   7
ENDBRANCH   4   5
ENDBRANCH   3   4
ENDBRANCH   2   3
ENDBRANCH   1   2
BRANCH   1  25
ATOM     25  C   UNL     1      -4.026   3.920   4.165  1.00  0.00     0.202 C 
BRANCH  25  26
ATOM     26  C   UNL     1      -5.031   4.212   5.281  1.00  0.00     0.261 C 
BRANCH  26  27
ATOM     27  O   UNL     1      -6.301   3.607   5.094  1.00  0.00    -0.460 OA
BRANCH  27  28
ATOM     28  C   UNL     1      -7.141   4.447   4.450  1.00  0.00     0.338 C 
ATOM     29  O   UNL     1      -6.846   5.462   3.836  1.00  0.00    -0.246 OA
BRANCH  28  30
ATOM     30  C   UNL     1      -8.530   4.074   4.677  1.00  0.00     0.060 A 
ATOM     31  C   UNL     1      -9.446   4.652   3.792  1.00  0.00     0.016 A 
ATOM     32  C   UNL     1      -8.880   3.629   5.956  1.00  0.00     0.016 A 
ATOM     33  C   UNL     1     -10.674   5.016   4.283  1.00  0.00     0.010 A 
ATOM     34  C   UNL     1     -10.098   4.022   6.457  1.00  0.00     0.010 A 
ATOM     35  C   UNL     1     -10.950   4.768   5.632  1.00  0.00    -0.014 A 
BRANCH  35  36
ATOM     36  C   UNL     1     -12.236   5.220   6.153  1.00  0.00     0.031 A 
ATOM     37  C   UNL     1     -13.296   4.130   5.968  1.00  0.00     0.074 A 
ATOM     38  C   UNL     1     -12.245   6.502   6.631  1.00  0.00     0.049 A 
ATOM     39  N   UNL     1     -14.585   4.210   6.036  1.00  0.00    -0.248 NA
ATOM     40  C   UNL     1     -12.867   2.744   5.604  1.00  0.00     0.031 C 
ATOM     41  C   UNL     1     -11.067   7.410   6.695  1.00  0.00     0.029 A 
ATOM     42  N   UNL     1     -13.228   7.314   7.141  1.00  0.00    -0.354 N 
ATOM     43  C   UNL     1     -15.101   2.907   5.890  1.00  0.00     0.074 A 
ATOM     44  C   UNL     1     -14.003   2.049   5.577  1.00  0.00     0.031 C 
ATOM     45  C   UNL     1     -11.425   8.643   7.119  1.00  0.00     0.029 A 
ATOM     46  C   UNL     1     -12.847   8.656   7.399  1.00  0.00     0.049 A 
ATOM     47  H   UNL     1     -14.140   6.986   7.317  1.00  0.00     0.167 HD
ATOM     48  C   UNL     1     -16.409   2.596   6.091  1.00  0.00     0.031 A 
ATOM     49  C   UNL     1     -13.643   9.707   7.760  1.00  0.00     0.031 A 
ATOM     50  C   UNL     1     -17.174   3.777   6.296  1.00  0.00     0.049 A 
ATOM     51  C   UNL     1     -14.982   9.123   7.949  1.00  0.00     0.074 A 
ATOM     52  C   UNL     1     -17.640   4.724   5.422  1.00  0.00     0.029 A 
ATOM     53  N   UNL     1     -17.237   4.274   7.574  1.00  0.00    -0.354 N 
ATOM     54  N   UNL     1     -15.331   8.347   8.929  1.00  0.00    -0.248 NA
ATOM     55  C   UNL     1     -15.992   9.344   6.907  1.00  0.00     0.031 C 
ATOM     56  C   UNL     1     -17.544   5.930   6.149  1.00  0.00     0.029 A 
ATOM     57  C   UNL     1     -17.174   5.646   7.467  1.00  0.00     0.049 A 
ATOM     58  H   UNL     1     -17.313   3.751   8.405  1.00  0.00     0.167 HD
ATOM     59  C   UNL     1     -16.442   7.713   8.432  1.00  0.00     0.074 A 
ATOM     60  C   UNL     1     -16.955   8.554   7.372  1.00  0.00     0.031 C 
ATOM     61  C   UNL     1     -16.585   6.371   8.568  1.00  0.00     0.031 A 
BRANCH  48  62
ATOM     62  C   UNL     1     -17.093   1.274   6.247  1.00  0.00    -0.014 A 
ATOM     63  C   UNL     1     -18.490   1.250   6.026  1.00  0.00     0.010 A 
ATOM     64  C   UNL     1     -16.512   0.179   6.905  1.00  0.00     0.010 A 
ATOM     65  C   UNL     1     -19.299   0.256   6.572  1.00  0.00     0.020 A 
ATOM     66  C   UNL     1     -17.319  -0.847   7.427  1.00  0.00     0.020 A 
ATOM     67  C   UNL     1     -18.710  -0.765   7.308  1.00  0.00     0.054 A 
BRANCH  67  68
ATOM     68  S   UNL     1     -19.803  -1.918   8.181  1.00  0.00     0.124 S 
ATOM     69  O   UNL     1     -20.336  -1.082   9.253  1.00  0.00    -0.237 OA
ATOM     70  O   UNL     1     -20.762  -2.293   7.145  1.00  0.00    -0.237 OA
ATOM     71  O   UNL     1     -18.905  -2.990   8.604  1.00  0.00    -0.744 OA
ENDBRANCH  67  68
ENDBRANCH  48  62
BRANCH  49  72
ATOM     72  C   UNL     1     -13.563  11.214   7.851  1.00  0.00    -0.014 A 
ATOM     73  C   UNL     1     -12.445  12.008   7.569  1.00  0.00     0.010 A 
ATOM     74  C   UNL     1     -14.777  11.922   8.091  1.00  0.00     0.010 A 
ATOM     75  C   UNL     1     -12.575  13.406   7.374  1.00  0.00     0.020 A 
ATOM     76  C   UNL     1     -14.931  13.289   7.848  1.00  0.00     0.020 A 
ATOM     77  C   UNL     1     -13.828  14.025   7.456  1.00  0.00     0.054 A 
BRANCH  77  78
ATOM     78  S   UNL     1     -14.069  15.740   6.903  1.00  0.00     0.124 S 
ATOM     79  O   UNL     1     -13.780  16.503   8.112  1.00  0.00    -0.237 OA
ATOM     80  O   UNL     1     -13.095  15.873   5.822  1.00  0.00    -0.237 OA
ATOM     81  O   UNL     1     -15.466  15.760   6.469  1.00  0.00    -0.744 OA
ENDBRANCH  77  78
ENDBRANCH  49  72
BRANCH  61  82
ATOM     82  C   UNL     1     -15.768   5.734   9.681  1.00  0.00    -0.014 A 
ATOM     83  C   UNL     1     -16.088   6.008  11.020  1.00  0.00     0.010 A 
ATOM     84  C   UNL     1     -14.654   4.904   9.436  1.00  0.00     0.010 A 
ATOM     85  C   UNL     1     -15.341   5.459  12.073  1.00  0.00     0.020 A 
ATOM     86  C   UNL     1     -13.899   4.348  10.482  1.00  0.00     0.020 A 
ATOM     87  C   UNL     1     -14.255   4.624  11.800  1.00  0.00     0.054 A 
BRANCH  87  88
ATOM     88  S   UNL     1     -13.326   3.911  13.191  1.00  0.00     0.124 S 
ATOM     89  O   UNL     1     -12.883   5.094  13.924  1.00  0.00    -0.237 OA
ATOM     90  O   UNL     1     -14.340   3.104  13.863  1.00  0.00    -0.237 OA
ATOM     91  O   UNL     1     -12.256   3.150  12.547  1.00  0.00    -0.744 OA
ENDBRANCH  87  88
ENDBRANCH  61  82
ENDBRANCH  35  36
ENDBRANCH  28  30
ENDBRANCH  27  28
ENDBRANCH  26  27
ENDBRANCH  25  26
ENDBRANCH   1  25
TORSDOF 20
