REMARK SMILES Cc1[nH]c(=O)sc1S(=O)(=O)NC1(CC(=O)OCCOCCOC(=O)c2ccc(-c3c4nc(c(-c5ccc(S(=O)(=O)[O-])cc5)c5ccc([nH]5)c(-c5ccc(S(=O)(=O)[O-])cc5)c5nc(c(-c6ccc(S(=O)(=O)[O-])cc6)c6ccc3[nH]6)C=C5)C=C4)cc2)CCC1
REMARK SMILES IDX 18 1 17 2 16 3 14 4 15 5 13 6 12 7 85 8 87 9 86 10 11 11
REMARK SMILES IDX 8 13 9 14 10 15 7 16 1 17 2 18 3 19 4 20 6 22 5 23 19 24
REMARK SMILES IDX 20 25 21 26 22 27 23 28 24 29 25 30 26 31 84 32 27 33 83 34
REMARK SMILES IDX 28 35 29 36 30 37 77 38 31 39 82 40 76 41 78 42 32 43 81 44
REMARK SMILES IDX 75 45 74 46 33 48 63 49 44 50 62 51 45 52 48 53 61 54 79 55
REMARK SMILES IDX 46 56 47 57 60 59 80 60 49 61 34 62 35 63 43 64 36 65 42 66
REMARK SMILES IDX 37 67 38 68 39 69 40 70 41 71 64 72 65 73 73 74 66 75 72 76
REMARK SMILES IDX 67 77 68 78 69 79 70 80 71 81 50 82 51 83 59 84 52 85 58 86
REMARK SMILES IDX 53 87 54 88 55 89 56 90 57 91
REMARK H PARENT 11 12 3 21 78 47 48 58
REMARK Flexibility Score: inf
ROOT
ATOM      1  C   UNL     1       3.337   2.250   1.613  1.00  0.00     0.202 C 
ENDROOT
BRANCH   1   2
ATOM      2  C   UNL     1       2.891   2.261   0.144  1.00  0.00     0.261 C 
BRANCH   2   3
ATOM      3  O   UNL     1       1.486   1.992  -0.074  1.00  0.00    -0.463 OA
BRANCH   3   4
ATOM      4  C   UNL     1       1.226   1.411  -1.277  1.00  0.00     0.307 C 
ATOM      5  O   UNL     1       2.087   1.193  -2.128  1.00  0.00    -0.252 OA
BRANCH   4   6
ATOM      6  C   UNL     1      -0.195   0.953  -1.513  1.00  0.00     0.146 C 
BRANCH   6   7
ATOM      7  C   UNL     1      -1.296   1.242  -0.488  1.00  0.00     0.044 C 
ATOM      8  C   UNL     1      -2.752   1.083  -1.057  1.00  0.00     0.024 C 
ATOM      9  C   UNL     1      -1.659   2.766  -0.389  1.00  0.00     0.024 C 
ATOM     10  C   UNL     1      -2.677   2.547  -1.526  1.00  0.00     0.004 C 
BRANCH   7  11
ATOM     11  N   UNL     1      -0.999   0.537   0.819  1.00  0.00    -0.204 NA
ATOM     12  H   UNL     1       0.008   0.380   0.788  1.00  0.00     0.142 HD
BRANCH  11  13
ATOM     13  S   UNL     1      -1.615  -0.906   1.476  1.00  0.00     0.252 S 
ATOM     14  O   UNL     1      -2.999  -0.969   1.056  1.00  0.00    -0.206 OA
ATOM     15  O   UNL     1      -1.314  -0.743   2.887  1.00  0.00    -0.206 OA
BRANCH  13  16
ATOM     16  C   UNL     1      -0.829  -2.372   0.956  1.00  0.00     0.158 A 
ATOM     17  C   UNL     1       1.467  -1.565   0.044  1.00  0.00     0.067 C 
ATOM     18  C   UNL     1       0.400  -2.523   0.426  1.00  0.00     0.046 A 
ATOM     19  N   UNL     1       0.740  -3.851   0.245  1.00  0.00    -0.315 N 
ATOM     20  C   UNL     1      -0.160  -4.787   0.648  1.00  0.00     0.305 A 
ATOM     21  H   UNL     1       1.600  -4.108  -0.160  1.00  0.00     0.170 HD
ATOM     22  S   UNL     1      -1.568  -3.958   1.258  1.00  0.00    -0.061 S 
ATOM     23  O   UNL     1      -0.014  -6.008   0.599  1.00  0.00    -0.257 OA
ENDBRANCH  13  16
ENDBRANCH  11  13
ENDBRANCH   7  11
ENDBRANCH   6   7
ENDBRANCH   4   6
ENDBRANCH   3   4
ENDBRANCH   2   3
ENDBRANCH   1   2
BRANCH   1  24
ATOM     24  O   UNL     1       3.118   1.053   2.356  1.00  0.00    -0.374 OA
BRANCH  24  25
ATOM     25  C   UNL     1       1.783   0.748   2.749  1.00  0.00     0.202 C 
BRANCH  25  26
ATOM     26  C   UNL     1       1.136   1.622   3.811  1.00  0.00     0.261 C 
BRANCH  26  27
ATOM     27  O   UNL     1       0.752   2.862   3.226  1.00  0.00    -0.460 OA
BRANCH  27  28
ATOM     28  C   UNL     1       1.459   3.942   3.623  1.00  0.00     0.338 C 
ATOM     29  O   UNL     1       2.456   3.958   4.325  1.00  0.00    -0.246 OA
BRANCH  28  30
ATOM     30  C   UNL     1       0.760   5.134   3.135  1.00  0.00     0.060 A 
ATOM     31  C   UNL     1       1.133   6.345   3.712  1.00  0.00     0.016 A 
ATOM     32  C   UNL     1      -0.410   5.000   2.371  1.00  0.00     0.016 A 
ATOM     33  C   UNL     1       0.192   7.343   3.758  1.00  0.00     0.010 A 
ATOM     34  C   UNL     1      -1.356   5.991   2.427  1.00  0.00     0.010 A 
ATOM     35  C   UNL     1      -1.074   7.101   3.211  1.00  0.00    -0.014 A 
BRANCH  35  36
ATOM     36  C   UNL     1      -2.098   8.083   3.461  1.00  0.00     0.031 A 
ATOM     37  C   UNL     1      -1.947   9.288   2.633  1.00  0.00     0.074 A 
ATOM     38  C   UNL     1      -3.105   7.885   4.326  1.00  0.00     0.049 A 
ATOM     39  N   UNL     1      -1.463  10.426   2.995  1.00  0.00    -0.248 NA
ATOM     40  C   UNL     1      -2.157   9.138   1.187  1.00  0.00     0.031 C 
ATOM     41  C   UNL     1      -3.527   6.640   4.970  1.00  0.00     0.029 A 
ATOM     42  N   UNL     1      -4.043   8.778   4.726  1.00  0.00    -0.354 N 
ATOM     43  C   UNL     1      -1.519  11.217   1.859  1.00  0.00     0.074 A 
ATOM     44  C   UNL     1      -1.723  10.319   0.749  1.00  0.00     0.031 C 
ATOM     45  C   UNL     1      -4.768   6.814   5.484  1.00  0.00     0.029 A 
ATOM     46  C   UNL     1      -5.156   8.207   5.321  1.00  0.00     0.049 A 
ATOM     47  H   UNL     1      -3.942   9.750   4.604  1.00  0.00     0.167 HD
ATOM     48  C   UNL     1      -1.683  12.564   1.939  1.00  0.00     0.031 A 
ATOM     49  C   UNL     1      -6.333   8.836   5.559  1.00  0.00     0.031 A 
ATOM     50  C   UNL     1      -1.460  13.057   3.274  1.00  0.00     0.049 A 
ATOM     51  C   UNL     1      -6.065  10.300   5.539  1.00  0.00     0.074 A 
ATOM     52  C   UNL     1      -0.390  13.047   4.146  1.00  0.00     0.029 A 
ATOM     53  N   UNL     1      -2.576  13.317   4.037  1.00  0.00    -0.354 N 
ATOM     54  N   UNL     1      -5.340  10.910   6.434  1.00  0.00    -0.248 NA
ATOM     55  C   UNL     1      -6.225  11.019   4.282  1.00  0.00     0.031 C 
ATOM     56  C   UNL     1      -0.963  12.860   5.437  1.00  0.00     0.029 A 
ATOM     57  C   UNL     1      -2.352  12.818   5.295  1.00  0.00     0.049 A 
ATOM     58  H   UNL     1      -3.391  13.778   3.733  1.00  0.00     0.167 HD
ATOM     59  C   UNL     1      -4.614  11.861   5.727  1.00  0.00     0.074 A 
ATOM     60  C   UNL     1      -5.279  11.952   4.430  1.00  0.00     0.031 C 
ATOM     61  C   UNL     1      -3.385  12.275   6.156  1.00  0.00     0.031 A 
BRANCH  48  62
ATOM     62  C   UNL     1      -2.455  13.346   0.910  1.00  0.00    -0.014 A 
ATOM     63  C   UNL     1      -2.484  14.749   1.002  1.00  0.00     0.010 A 
ATOM     64  C   UNL     1      -3.365  12.740   0.018  1.00  0.00     0.010 A 
ATOM     65  C   UNL     1      -3.420  15.499   0.278  1.00  0.00     0.020 A 
ATOM     66  C   UNL     1      -4.264  13.479  -0.745  1.00  0.00     0.020 A 
ATOM     67  C   UNL     1      -4.311  14.854  -0.582  1.00  0.00     0.054 A 
BRANCH  67  68
ATOM     68  S   UNL     1      -5.585  15.813  -1.430  1.00  0.00     0.124 S 
ATOM     69  O   UNL     1      -6.430  16.233  -0.317  1.00  0.00    -0.237 OA
ATOM     70  O   UNL     1      -4.803  16.867  -2.070  1.00  0.00    -0.237 OA
ATOM     71  O   UNL     1      -6.186  14.847  -2.346  1.00  0.00    -0.744 OA
ENDBRANCH  67  68
ENDBRANCH  48  62
BRANCH  49  72
ATOM     72  C   UNL     1      -7.697   8.264   5.436  1.00  0.00    -0.014 A 
ATOM     73  C   UNL     1      -8.822   8.979   5.886  1.00  0.00     0.010 A 
ATOM     74  C   UNL     1      -7.922   7.135   4.621  1.00  0.00     0.010 A 
ATOM     75  C   UNL     1     -10.117   8.620   5.476  1.00  0.00     0.020 A 
ATOM     76  C   UNL     1      -9.209   6.764   4.218  1.00  0.00     0.020 A 
ATOM     77  C   UNL     1     -10.300   7.527   4.625  1.00  0.00     0.054 A 
BRANCH  77  78
ATOM     78  S   UNL     1     -11.949   7.189   3.941  1.00  0.00     0.124 S 
ATOM     79  O   UNL     1     -12.669   6.680   5.104  1.00  0.00    -0.237 OA
ATOM     80  O   UNL     1     -12.368   8.503   3.461  1.00  0.00    -0.237 OA
ATOM     81  O   UNL     1     -11.690   6.205   2.891  1.00  0.00    -0.744 OA
ENDBRANCH  77  78
ENDBRANCH  49  72
BRANCH  61  82
ATOM     82  C   UNL     1      -2.965  11.931   7.568  1.00  0.00    -0.014 A 
ATOM     83  C   UNL     1      -2.823  10.613   8.043  1.00  0.00     0.010 A 
ATOM     84  C   UNL     1      -2.557  12.990   8.398  1.00  0.00     0.010 A 
ATOM     85  C   UNL     1      -2.311  10.365   9.326  1.00  0.00     0.020 A 
ATOM     86  C   UNL     1      -2.029  12.750   9.668  1.00  0.00     0.020 A 
ATOM     87  C   UNL     1      -1.917  11.439  10.131  1.00  0.00     0.054 A 
BRANCH  87  88
ATOM     88  S   UNL     1      -1.208  11.113  11.770  1.00  0.00     0.124 S 
ATOM     89  O   UNL     1      -2.358  10.618  12.521  1.00  0.00    -0.237 OA
ATOM     90  O   UNL     1      -0.170  10.125  11.484  1.00  0.00    -0.237 OA
ATOM     91  O   UNL     1      -0.705  12.418  12.198  1.00  0.00    -0.744 OA
ENDBRANCH  87  88
ENDBRANCH  61  82
ENDBRANCH  35  36
ENDBRANCH  28  30
ENDBRANCH  27  28
ENDBRANCH  26  27
ENDBRANCH  25  26
ENDBRANCH  24  25
ENDBRANCH   1  24
TORSDOF 21
