REMARK SMILES Cc1cnn(C2(C(=O)OCCOCCOC(=O)c3ccc(-c4c5nc(c(-c6ccc(S(=O)(=O)[O-])cc6)c6ccc([nH]6)c(-c6ccc(S(=O)(=O)[O-])cc6)c6nc(c(-c7ccc(S(=O)(=O)[O-])cc7)c7ccc4[nH]7)C=C6)C=C5)cc3)CCN(C(=O)c3cc4ccccc4[nH]3)CC2)c1
REMARK SMILES IDX 13 1 12 2 11 3 10 4 9 5 7 6 8 7 6 8 78 9 93 10 79 11 92 12
REMARK SMILES IDX 80 13 81 14 82 15 5 16 1 17 2 18 3 19 94 20 4 21 83 22 84 23
REMARK SMILES IDX 91 24 85 25 90 26 86 28 89 29 87 30 88 31 14 32 15 33 16 34
REMARK SMILES IDX 17 35 18 36 19 37 77 38 20 39 76 40 21 41 22 42 23 43 70 44
REMARK SMILES IDX 24 45 75 46 69 47 71 48 25 49 74 50 68 51 67 52 26 54 56 55
REMARK SMILES IDX 37 56 55 57 38 58 41 59 54 60 72 61 39 62 40 63 53 65 73 66
REMARK SMILES IDX 42 67 27 68 28 69 36 70 29 71 35 72 30 73 31 74 32 75 33 76
REMARK SMILES IDX 34 77 57 78 58 79 66 80 59 81 65 82 60 83 61 84 62 85 63 86
REMARK SMILES IDX 64 87 43 88 44 89 52 90 45 91 51 92 46 93 47 94 48 95 49 96
REMARK SMILES IDX 50 97
REMARK H PARENT 91 27 71 53 41 64
REMARK Flexibility Score: inf
ROOT
ATOM      1  C   UNL     1       0.446   1.617  -6.305  1.00  0.00     0.202 C 
ENDROOT
BRANCH   1   2
ATOM      2  O   UNL     1      -0.552   1.973  -7.259  1.00  0.00    -0.374 OA
BRANCH   2   3
ATOM      3  C   UNL     1      -0.874   3.344  -7.485  1.00  0.00     0.202 C 
BRANCH   3   4
ATOM      4  C   UNL     1      -1.466   4.161  -6.338  1.00  0.00     0.261 C 
BRANCH   4   5
ATOM      5  O   UNL     1      -0.614   4.183  -5.183  1.00  0.00    -0.461 OA
BRANCH   5   6
ATOM      6  C   UNL     1      -1.126   3.581  -4.070  1.00  0.00     0.334 C 
ATOM      7  O   UNL     1      -2.283   3.172  -3.996  1.00  0.00    -0.249 OA
BRANCH   6   8
ATOM      8  C   UNL     1      -0.159   3.615  -2.865  1.00  0.00     0.163 C 
ATOM      9  C   UNL     1       1.242   4.193  -3.192  1.00  0.00     0.064 C 
ATOM     10  C   UNL     1      -0.931   4.578  -1.946  1.00  0.00     0.064 C 
ATOM     11  C   UNL     1       1.989   4.711  -1.961  1.00  0.00     0.123 C 
ATOM     12  C   UNL     1      -0.156   5.123  -0.777  1.00  0.00     0.123 C 
ATOM     13  N   UNL     1       1.163   5.609  -1.156  1.00  0.00    -0.337 N 
ATOM     14  C   UNL     1       1.682   6.850  -0.761  1.00  0.00     0.270 C 
ATOM     15  O   UNL     1       2.708   7.308  -1.259  1.00  0.00    -0.267 OA
BRANCH   8  16
ATOM     16  N   UNL     1      -0.026   2.254  -2.305  1.00  0.00    -0.255 N 
ATOM     17  C   UNL     1       0.879  -0.374   0.078  1.00  0.00     0.048 C 
ATOM     18  C   UNL     1       0.452   0.498  -1.036  1.00  0.00    -0.013 A 
ATOM     19  C   UNL     1      -0.011   0.125  -2.309  1.00  0.00     0.138 A 
ATOM     20  C   UNL     1       0.451   1.875  -1.076  1.00  0.00     0.113 A 
ATOM     21  N   UNL     1      -0.246   1.177  -3.091  1.00  0.00    -0.180 NA
ENDBRANCH   8  16
BRANCH  14  22
ATOM     22  C   UNL     1       0.916   7.621   0.197  1.00  0.00     0.105 A 
ATOM     23  C   UNL     1       0.213   7.244   1.330  1.00  0.00     0.042 A 
ATOM     24  N   UNL     1       0.774   8.988   0.100  1.00  0.00    -0.351 N 
ATOM     25  C   UNL     1      -0.626   8.325   1.699  1.00  0.00     0.000 A 
ATOM     26  C   UNL     1      -0.232   9.421   0.935  1.00  0.00     0.046 A 
ATOM     27  H   UNL     1       1.313   9.571  -0.482  1.00  0.00     0.167 HD
ATOM     28  C   UNL     1      -1.701   8.463   2.595  1.00  0.00     0.010 A 
ATOM     29  C   UNL     1      -0.827  10.679   1.066  1.00  0.00     0.026 A 
ATOM     30  C   UNL     1      -2.337   9.702   2.707  1.00  0.00     0.001 A 
ATOM     31  C   UNL     1      -1.893  10.796   1.965  1.00  0.00     0.002 A 
ENDBRANCH  14  22
ENDBRANCH   6   8
ENDBRANCH   5   6
ENDBRANCH   4   5
ENDBRANCH   3   4
ENDBRANCH   2   3
ENDBRANCH   1   2
BRANCH   1  32
ATOM     32  C   UNL     1       1.905   1.906  -6.628  1.00  0.00     0.261 C 
BRANCH  32  33
ATOM     33  O   UNL     1       2.129   3.302  -6.755  1.00  0.00    -0.460 OA
BRANCH  33  34
ATOM     34  C   UNL     1       2.179   3.728  -8.040  1.00  0.00     0.338 C 
ATOM     35  O   UNL     1       1.927   3.089  -9.038  1.00  0.00    -0.246 OA
BRANCH  34  36
ATOM     36  C   UNL     1       2.707   5.098  -8.050  1.00  0.00     0.060 A 
ATOM     37  C   UNL     1       3.099   5.554  -9.308  1.00  0.00     0.016 A 
ATOM     38  C   UNL     1       3.168   5.677  -6.858  1.00  0.00     0.016 A 
ATOM     39  C   UNL     1       4.222   6.335  -9.369  1.00  0.00     0.010 A 
ATOM     40  C   UNL     1       4.289   6.461  -6.921  1.00  0.00     0.010 A 
ATOM     41  C   UNL     1       4.867   6.658  -8.171  1.00  0.00    -0.014 A 
BRANCH  41  42
ATOM     42  C   UNL     1       6.179   7.243  -8.264  1.00  0.00     0.031 A 
ATOM     43  C   UNL     1       6.123   8.651  -8.686  1.00  0.00     0.074 A 
ATOM     44  C   UNL     1       7.294   6.571  -7.926  1.00  0.00     0.049 A 
ATOM     45  N   UNL     1       6.401   9.133  -9.850  1.00  0.00    -0.248 NA
ATOM     46  C   UNL     1       5.447   9.590  -7.777  1.00  0.00     0.031 C 
ATOM     47  C   UNL     1       7.421   5.275  -7.253  1.00  0.00     0.029 A 
ATOM     48  N   UNL     1       8.579   6.986  -8.027  1.00  0.00    -0.354 N 
ATOM     49  C   UNL     1       6.159  10.493  -9.735  1.00  0.00     0.074 A 
ATOM     50  C   UNL     1       5.347  10.664  -8.556  1.00  0.00     0.031 C 
ATOM     51  C   UNL     1       8.685   5.144  -6.784  1.00  0.00     0.029 A 
ATOM     52  C   UNL     1       9.476   6.274  -7.246  1.00  0.00     0.049 A 
ATOM     53  H   UNL     1       8.854   7.733  -8.607  1.00  0.00     0.167 HD
ATOM     54  C   UNL     1       6.910  11.402 -10.411  1.00  0.00     0.031 A 
ATOM     55  C   UNL     1      10.743   6.657  -6.938  1.00  0.00     0.031 A 
ATOM     56  C   UNL     1       7.645  10.798 -11.493  1.00  0.00     0.049 A 
ATOM     57  C   UNL     1      11.146   7.667  -7.955  1.00  0.00     0.074 A 
ATOM     58  C   UNL     1       7.293  10.097 -12.630  1.00  0.00     0.029 A 
ATOM     59  N   UNL     1       8.973  10.512 -11.266  1.00  0.00    -0.354 N 
ATOM     60  N   UNL     1      11.282   7.385  -9.223  1.00  0.00    -0.248 NA
ATOM     61  C   UNL     1      10.905   9.073  -7.659  1.00  0.00     0.031 C 
ATOM     62  C   UNL     1       8.278   9.073 -12.753  1.00  0.00     0.029 A 
ATOM     63  C   UNL     1       9.211   9.241 -11.726  1.00  0.00     0.049 A 
ATOM     64  H   UNL     1       9.632  11.112 -10.849  1.00  0.00     0.167 HD
ATOM     65  C   UNL     1      10.728   8.467  -9.897  1.00  0.00     0.074 A 
ATOM     66  C   UNL     1      10.594   9.513  -8.883  1.00  0.00     0.031 C 
ATOM     67  C   UNL     1      10.165   8.322 -11.134  1.00  0.00     0.031 A 
BRANCH  54  68
ATOM     68  C   UNL     1       7.308  12.716  -9.791  1.00  0.00    -0.014 A 
ATOM     69  C   UNL     1       7.994  13.661 -10.573  1.00  0.00     0.010 A 
ATOM     70  C   UNL     1       7.272  12.941  -8.396  1.00  0.00     0.010 A 
ATOM     71  C   UNL     1       8.658  14.741  -9.977  1.00  0.00     0.020 A 
ATOM     72  C   UNL     1       7.885  14.037  -7.798  1.00  0.00     0.020 A 
ATOM     73  C   UNL     1       8.607  14.912  -8.592  1.00  0.00     0.054 A 
BRANCH  73  74
ATOM     74  S   UNL     1       9.559  16.239  -7.819  1.00  0.00     0.124 S 
ATOM     75  O   UNL     1      10.930  15.819  -8.092  1.00  0.00    -0.237 OA
ATOM     76  O   UNL     1       9.095  17.415  -8.550  1.00  0.00    -0.237 OA
ATOM     77  O   UNL     1       9.152  16.181  -6.417  1.00  0.00    -0.744 OA
ENDBRANCH  73  74
ENDBRANCH  54  68
BRANCH  55  78
ATOM     78  C   UNL     1      11.413   6.508  -5.618  1.00  0.00    -0.014 A 
ATOM     79  C   UNL     1      12.799   6.688  -5.461  1.00  0.00     0.010 A 
ATOM     80  C   UNL     1      10.631   6.434  -4.445  1.00  0.00     0.010 A 
ATOM     81  C   UNL     1      13.374   6.817  -4.180  1.00  0.00     0.020 A 
ATOM     82  C   UNL     1      11.194   6.558  -3.169  1.00  0.00     0.020 A 
ATOM     83  C   UNL     1      12.564   6.764  -3.042  1.00  0.00     0.054 A 
BRANCH  83  84
ATOM     84  S   UNL     1      13.288   7.060  -1.399  1.00  0.00     0.124 S 
ATOM     85  O   UNL     1      14.116   5.873  -1.205  1.00  0.00    -0.237 OA
ATOM     86  O   UNL     1      14.013   8.312  -1.591  1.00  0.00    -0.237 OA
ATOM     87  O   UNL     1      12.123   7.151  -0.519  1.00  0.00    -0.744 OA
ENDBRANCH  83  84
ENDBRANCH  55  78
BRANCH  67  88
ATOM     88  C   UNL     1      10.350   7.002 -11.855  1.00  0.00    -0.014 A 
ATOM     89  C   UNL     1       9.802   5.784 -11.401  1.00  0.00     0.010 A 
ATOM     90  C   UNL     1      10.945   7.030 -13.128  1.00  0.00     0.010 A 
ATOM     91  C   UNL     1       9.860   4.627 -12.195  1.00  0.00     0.020 A 
ATOM     92  C   UNL     1      10.993   5.885 -13.930  1.00  0.00     0.020 A 
ATOM     93  C   UNL     1      10.454   4.687 -13.459  1.00  0.00     0.054 A 
BRANCH  93  94
ATOM     94  S   UNL     1      10.469   3.208 -14.514  1.00  0.00     0.124 S 
ATOM     95  O   UNL     1      11.394   2.324 -13.811  1.00  0.00    -0.237 OA
ATOM     96  O   UNL     1       9.069   2.788 -14.507  1.00  0.00    -0.237 OA
ATOM     97  O   UNL     1      10.949   3.705 -15.803  1.00  0.00    -0.744 OA
ENDBRANCH  93  94
ENDBRANCH  67  88
ENDBRANCH  41  42
ENDBRANCH  34  36
ENDBRANCH  33  34
ENDBRANCH  32  33
ENDBRANCH   1  32
TORSDOF 19
