REMARK SMILES Cc1c(I)cccc1[C@H]([NH3+])C(=O)OCCOCCOC(=O)c1ccc(-c2c3nc(c(-c4ccc(S(=O)(=O)[O-])cc4)c4ccc([nH]4)c(-c4ccc(S(=O)(=O)[O-])cc4)c4nc(c(-c5ccc(S(=O)(=O)[O-])cc5)c5ccc2[nH]5)C=C4)C=C3)cc1
REMARK SMILES IDX 17 1 16 2 15 3 14 4 13 5 11 6 12 7 9 8 8 9 1 10 2 11 3 12
REMARK SMILES IDX 4 13 5 14 7 15 6 16 10 17 18 21 19 22 20 23 21 24 22 25
REMARK SMILES IDX 23 26 81 27 24 28 80 29 25 30 26 31 27 32 74 33 28 34 79 35
REMARK SMILES IDX 73 36 75 37 29 38 78 39 72 40 71 41 30 43 60 44 41 45 59 46
REMARK SMILES IDX 42 47 45 48 58 49 76 50 43 51 44 52 57 54 77 55 46 56 31 57
REMARK SMILES IDX 32 58 40 59 33 60 39 61 34 62 35 63 36 64 37 65 38 66 61 67
REMARK SMILES IDX 62 68 70 69 63 70 69 71 64 72 65 73 66 74 67 75 68 76 47 77
REMARK SMILES IDX 48 78 56 79 49 80 55 81 50 82 51 83 52 84 53 85 54 86
REMARK H PARENT 10 18 10 19 10 20 75 42 45 53
REMARK Flexibility Score: inf
ROOT
ATOM      1  C   UNL     1      -1.861  -0.324   2.992  1.00  0.00     0.202 C 
ENDROOT
BRANCH   1   2
ATOM      2  O   UNL     1      -3.163   0.030   3.451  1.00  0.00    -0.374 OA
BRANCH   2   3
ATOM      3  C   UNL     1      -4.266  -0.760   3.014  1.00  0.00     0.202 C 
BRANCH   3   4
ATOM      4  C   UNL     1      -4.730  -0.613   1.562  1.00  0.00     0.261 C 
BRANCH   4   5
ATOM      5  O   UNL     1      -3.705  -0.970   0.626  1.00  0.00    -0.459 OA
BRANCH   5   6
ATOM      6  C   UNL     1      -3.155   0.066  -0.067  1.00  0.00     0.369 C 
ATOM      7  O   UNL     1      -3.501   1.240   0.035  1.00  0.00    -0.245 OA
BRANCH   6   8
ATOM      8  C   UNL     1      -2.017  -0.372  -1.004  1.00  0.00     0.323 C 
BRANCH   8   9
ATOM      9  C   UNL     1      -2.552  -0.782  -2.366  1.00  0.00     0.025 A 
ATOM     10  C   UNL     1      -2.744  -3.260  -1.804  1.00  0.00     0.046 C 
ATOM     11  C   UNL     1      -2.870  -2.108  -2.774  1.00  0.00    -0.028 A 
ATOM     12  C   UNL     1      -3.317  -2.297  -4.101  1.00  0.00     0.016 A 
ATOM     13  I   UNL     1      -3.694  -4.188  -4.961  1.00  0.00    -0.044 I 
ATOM     14  C   UNL     1      -3.528  -1.209  -4.960  1.00  0.00     0.015 A 
ATOM     15  C   UNL     1      -2.790   0.294  -3.252  1.00  0.00     0.011 A 
ATOM     16  C   UNL     1      -3.283   0.087  -4.530  1.00  0.00     0.002 A 
ENDBRANCH   8   9
BRANCH   8  17
ATOM     17  N   UNL     1      -1.052  -1.318  -0.399  1.00  0.00    -0.342 N 
ATOM     18  H   UNL     1      -1.524  -2.197  -0.189  1.00  0.00     0.345 HD
ATOM     19  H   UNL     1      -0.678  -0.918   0.462  1.00  0.00     0.345 HD
ATOM     20  H   UNL     1      -0.288  -1.489  -1.053  1.00  0.00     0.345 HD
ENDBRANCH   8  17
ENDBRANCH   6   8
ENDBRANCH   5   6
ENDBRANCH   4   5
ENDBRANCH   3   4
ENDBRANCH   2   3
ENDBRANCH   1   2
BRANCH   1  21
ATOM     21  C   UNL     1      -1.206  -1.598   3.543  1.00  0.00     0.261 C 
BRANCH  21  22
ATOM     22  O   UNL     1      -1.919  -2.801   3.218  1.00  0.00    -0.460 OA
BRANCH  22  23
ATOM     23  C   UNL     1      -2.572  -3.377   4.257  1.00  0.00     0.338 C 
ATOM     24  O   UNL     1      -2.583  -2.998   5.420  1.00  0.00    -0.246 OA
BRANCH  23  25
ATOM     25  C   UNL     1      -3.459  -4.442   3.754  1.00  0.00     0.060 A 
ATOM     26  C   UNL     1      -2.964  -5.513   3.010  1.00  0.00     0.016 A 
ATOM     27  C   UNL     1      -4.819  -4.373   4.083  1.00  0.00     0.016 A 
ATOM     28  C   UNL     1      -3.837  -6.534   2.619  1.00  0.00     0.010 A 
ATOM     29  C   UNL     1      -5.688  -5.390   3.689  1.00  0.00     0.010 A 
ATOM     30  C   UNL     1      -5.199  -6.490   2.971  1.00  0.00    -0.014 A 
BRANCH  30  31
ATOM     31  C   UNL     1      -6.092  -7.644   2.692  1.00  0.00     0.031 A 
ATOM     32  C   UNL     1      -7.145  -7.573   1.624  1.00  0.00     0.074 A 
ATOM     33  C   UNL     1      -5.954  -8.760   3.435  1.00  0.00     0.049 A 
ATOM     34  N   UNL     1      -7.976  -8.505   1.235  1.00  0.00    -0.248 NA
ATOM     35  C   UNL     1      -7.289  -6.299   0.901  1.00  0.00     0.031 C 
ATOM     36  C   UNL     1      -4.973  -8.933   4.510  1.00  0.00     0.029 A 
ATOM     37  N   UNL     1      -6.619  -9.961   3.398  1.00  0.00    -0.354 N 
ATOM     38  C   UNL     1      -8.723  -7.945   0.206  1.00  0.00     0.074 A 
ATOM     39  C   UNL     1      -8.286  -6.573   0.067  1.00  0.00     0.031 C 
ATOM     40  C   UNL     1      -5.071 -10.180   4.996  1.00  0.00     0.029 A 
ATOM     41  C   UNL     1      -6.147 -10.883   4.304  1.00  0.00     0.049 A 
ATOM     42  H   UNL     1      -7.364 -10.145   2.780  1.00  0.00     0.167 HD
ATOM     43  C   UNL     1      -9.665  -8.536  -0.566  1.00  0.00     0.031 A 
ATOM     44  C   UNL     1      -6.529 -12.154   4.548  1.00  0.00     0.031 A 
ATOM     45  C   UNL     1     -10.094  -9.905  -0.412  1.00  0.00     0.049 A 
ATOM     46  C   UNL     1      -7.629 -12.759   3.718  1.00  0.00     0.074 A 
ATOM     47  C   UNL     1     -11.028 -10.594  -1.167  1.00  0.00     0.029 A 
ATOM     48  N   UNL     1      -9.626 -10.790   0.547  1.00  0.00    -0.354 N 
ATOM     49  N   UNL     1      -8.277 -12.235   2.705  1.00  0.00    -0.248 NA
ATOM     50  C   UNL     1      -8.042 -14.131   4.049  1.00  0.00     0.031 C 
ATOM     51  C   UNL     1     -11.182 -11.867  -0.619  1.00  0.00     0.029 A 
ATOM     52  C   UNL     1     -10.277 -12.007   0.421  1.00  0.00     0.049 A 
ATOM     53  H   UNL     1      -8.935 -10.585   1.217  1.00  0.00     0.167 HD
ATOM     54  C   UNL     1      -9.146 -13.225   2.257  1.00  0.00     0.074 A 
ATOM     55  C   UNL     1      -8.931 -14.384   3.096  1.00  0.00     0.031 C 
ATOM     56  C   UNL     1     -10.042 -13.171   1.242  1.00  0.00     0.031 A 
BRANCH  43  57
ATOM     57  C   UNL     1     -10.287  -7.746  -1.690  1.00  0.00    -0.014 A 
ATOM     58  C   UNL     1     -11.668  -7.473  -1.679  1.00  0.00     0.010 A 
ATOM     59  C   UNL     1      -9.542  -7.454  -2.847  1.00  0.00     0.010 A 
ATOM     60  C   UNL     1     -12.303  -6.984  -2.825  1.00  0.00     0.020 A 
ATOM     61  C   UNL     1     -10.169  -6.936  -3.984  1.00  0.00     0.020 A 
ATOM     62  C   UNL     1     -11.551  -6.737  -3.976  1.00  0.00     0.054 A 
BRANCH  62  63
ATOM     63  S   UNL     1     -12.410  -6.198  -5.481  1.00  0.00     0.124 S 
ATOM     64  O   UNL     1     -13.144  -7.400  -5.865  1.00  0.00    -0.237 OA
ATOM     65  O   UNL     1     -13.225  -5.086  -4.999  1.00  0.00    -0.237 OA
ATOM     66  O   UNL     1     -11.322  -5.818  -6.380  1.00  0.00    -0.744 OA
ENDBRANCH  62  63
ENDBRANCH  43  57
BRANCH  44  67
ATOM     67  C   UNL     1      -5.822 -12.953   5.591  1.00  0.00    -0.014 A 
ATOM     68  C   UNL     1      -5.876 -12.579   6.947  1.00  0.00     0.010 A 
ATOM     69  C   UNL     1      -5.053 -14.074   5.228  1.00  0.00     0.010 A 
ATOM     70  C   UNL     1      -5.144 -13.279   7.910  1.00  0.00     0.020 A 
ATOM     71  C   UNL     1      -4.351 -14.802   6.194  1.00  0.00     0.020 A 
ATOM     72  C   UNL     1      -4.380 -14.384   7.525  1.00  0.00     0.054 A 
BRANCH  72  73
ATOM     73  S   UNL     1      -3.426 -15.266   8.791  1.00  0.00     0.124 S 
ATOM     74  O   UNL     1      -2.334 -14.331   9.048  1.00  0.00    -0.237 OA
ATOM     75  O   UNL     1      -4.396 -15.415   9.873  1.00  0.00    -0.237 OA
ATOM     76  O   UNL     1      -3.042 -16.509   8.127  1.00  0.00    -0.744 OA
ENDBRANCH  72  73
ENDBRANCH  44  67
BRANCH  56  77
ATOM     77  C   UNL     1     -10.866 -14.398   0.936  1.00  0.00    -0.014 A 
ATOM     78  C   UNL     1     -10.726 -15.035  -0.314  1.00  0.00     0.010 A 
ATOM     79  C   UNL     1     -11.887 -14.820   1.805  1.00  0.00     0.010 A 
ATOM     80  C   UNL     1     -11.626 -16.026  -0.712  1.00  0.00     0.020 A 
ATOM     81  C   UNL     1     -12.766 -15.839   1.425  1.00  0.00     0.020 A 
ATOM     82  C   UNL     1     -12.651 -16.411   0.156  1.00  0.00     0.054 A 
BRANCH  82  83
ATOM     83  S   UNL     1     -13.853 -17.647  -0.408  1.00  0.00     0.124 S 
ATOM     84  O   UNL     1     -14.636 -16.892  -1.382  1.00  0.00    -0.237 OA
ATOM     85  O   UNL     1     -12.999 -18.695  -0.963  1.00  0.00    -0.237 OA
ATOM     86  O   UNL     1     -14.566 -18.016   0.813  1.00  0.00    -0.744 OA
ENDBRANCH  82  83
ENDBRANCH  56  77
ENDBRANCH  30  31
ENDBRANCH  23  25
ENDBRANCH  22  23
ENDBRANCH  21  22
ENDBRANCH   1  21
TORSDOF 19
