REMARK SMILES Cc1cccc(-c2ncc(C[NH+]3CCC4(CC3)NC(=O)C[C@H]4C(=O)OCCOCCOC(=O)c3ccc(-c4c5nc(c(-c6ccc(S(=O)(=O)[O-])cc6)c6ccc([nH]6)c(-c6ccc(S(=O)(=O)[O-])cc6)c6nc(c(-c7ccc(S(=O)(=O)[O-])cc7)c7ccc4[nH]7)C=C6)C=C5)cc3)cn2)c1
REMARK SMILES IDX 28 1 27 2 26 3 25 4 23 5 24 6 22 7 12 8 13 9 17 10 14 12
REMARK SMILES IDX 16 13 15 14 18 15 19 16 21 18 20 19 11 20 10 21 7 22 8 23
REMARK SMILES IDX 95 24 9 25 94 26 6 27 1 28 2 29 3 30 96 31 4 32 5 33 29 34
REMARK SMILES IDX 30 35 31 36 32 37 33 38 34 39 35 40 93 41 36 42 92 43 37 44
REMARK SMILES IDX 38 45 39 46 86 47 40 48 91 49 85 50 87 51 41 52 90 53 84 54
REMARK SMILES IDX 83 55 42 57 72 58 53 59 71 60 54 61 57 62 70 63 88 64 55 65
REMARK SMILES IDX 56 66 69 68 89 69 58 70 43 71 44 72 52 73 45 74 51 75 46 76
REMARK SMILES IDX 47 77 48 78 49 79 50 80 73 81 74 82 82 83 75 84 81 85 76 86
REMARK SMILES IDX 77 87 78 88 79 89 80 90 59 91 60 92 68 93 61 94 67 95 62 96
REMARK SMILES IDX 63 97 64 98 65 99 66 100
REMARK H PARENT 12 11 18 17 87 56 57 67
REMARK Flexibility Score: inf
ROOT
ATOM      1  O   UNL     1      -1.940   7.243  -3.013  1.00  0.00    -0.374 OA
ENDROOT
BRANCH   1   2
ATOM      2  C   UNL     1      -2.064   5.841  -3.174  1.00  0.00     0.202 C 
BRANCH   2   3
ATOM      3  C   UNL     1      -0.682   5.252  -3.111  1.00  0.00     0.261 C 
BRANCH   3   4
ATOM      4  O   UNL     1       0.168   5.516  -1.941  1.00  0.00    -0.463 OA
BRANCH   4   5
ATOM      5  C   UNL     1       0.475   6.745  -1.451  1.00  0.00     0.311 C 
ATOM      6  O   UNL     1       0.598   7.770  -2.104  1.00  0.00    -0.252 OA
BRANCH   5   7
ATOM      7  C   UNL     1       0.666   6.703   0.078  1.00  0.00     0.134 C 
ATOM      8  N   UNL     1      -3.223   6.674   1.260  1.00  0.00    -0.331 N 
ATOM      9  C   UNL     1      -2.213   6.992   2.273  1.00  0.00     0.264 C 
ATOM     10  C   UNL     1      -2.576   6.537  -0.029  1.00  0.00     0.264 C 
ATOM     11  H   UNL     1      -3.835   7.488   1.321  1.00  0.00     0.348 HD
ATOM     12  C   UNL     1      -0.842   6.255   2.232  1.00  0.00     0.091 C 
ATOM     13  C   UNL     1      -1.556   5.420   0.057  1.00  0.00     0.091 C 
ATOM     14  C   UNL     1      -0.325   5.790   0.837  1.00  0.00     0.064 C 
ATOM     15  N   UNL     1       0.462   4.585   1.046  1.00  0.00    -0.349 N 
ATOM     16  C   UNL     1       1.799   4.706   0.758  1.00  0.00     0.221 C 
ATOM     17  H   UNL     1       0.066   3.745   1.370  1.00  0.00     0.164 HD
ATOM     18  C   UNL     1       2.060   6.150   0.419  1.00  0.00     0.117 C 
ATOM     19  O   UNL     1       2.610   3.816   0.851  1.00  0.00    -0.275 OA
BRANCH   8  20
ATOM     20  C   UNL     1      -4.292   5.663   1.494  1.00  0.00     0.302 C 
BRANCH  20  21
ATOM     21  C   UNL     1      -3.969   4.198   1.268  1.00  0.00     0.043 A 
ATOM     22  C   UNL     1      -2.596   1.902   0.687  1.00  0.00     0.159 A 
ATOM     23  N   UNL     1      -2.576   2.348   1.963  1.00  0.00    -0.236 NA
ATOM     24  N   UNL     1      -3.362   2.435  -0.278  1.00  0.00    -0.236 NA
ATOM     25  C   UNL     1      -3.293   3.466   2.226  1.00  0.00     0.124 A 
ATOM     26  C   UNL     1      -4.027   3.577   0.023  1.00  0.00     0.124 A 
BRANCH  22  27
ATOM     27  C   UNL     1      -1.688   0.794   0.346  1.00  0.00     0.019 A 
ATOM     28  C   UNL     1       2.077   0.047   0.034  1.00  0.00     0.044 C 
ATOM     29  C   UNL     1       0.584  -0.132   0.066  1.00  0.00    -0.050 A 
ATOM     30  C   UNL     1       0.038  -1.407  -0.087  1.00  0.00     0.003 A 
ATOM     31  C   UNL     1      -0.285   0.956   0.273  1.00  0.00     0.015 A 
ATOM     32  C   UNL     1      -1.345  -1.583  -0.072  1.00  0.00     0.001 A 
ATOM     33  C   UNL     1      -2.197  -0.493   0.133  1.00  0.00     0.012 A 
ENDBRANCH  22  27
ENDBRANCH  20  21
ENDBRANCH   8  20
ENDBRANCH   5   7
ENDBRANCH   4   5
ENDBRANCH   3   4
ENDBRANCH   2   3
ENDBRANCH   1   2
BRANCH   1  34
ATOM     34  C   UNL     1      -3.105   8.042  -3.088  1.00  0.00     0.202 C 
BRANCH  34  35
ATOM     35  C   UNL     1      -4.263   7.520  -3.950  1.00  0.00     0.261 C 
BRANCH  35  36
ATOM     36  O   UNL     1      -4.195   7.951  -5.330  1.00  0.00    -0.460 OA
BRANCH  36  37
ATOM     37  C   UNL     1      -3.756   7.048  -6.260  1.00  0.00     0.338 C 
ATOM     38  O   UNL     1      -4.502   6.409  -6.979  1.00  0.00    -0.246 OA
BRANCH  37  39
ATOM     39  C   UNL     1      -2.275   7.084  -6.386  1.00  0.00     0.060 A 
ATOM     40  C   UNL     1      -1.532   6.000  -6.883  1.00  0.00     0.016 A 
ATOM     41  C   UNL     1      -1.619   8.169  -5.824  1.00  0.00     0.016 A 
ATOM     42  C   UNL     1      -0.142   5.949  -6.679  1.00  0.00     0.010 A 
ATOM     43  C   UNL     1      -0.309   8.020  -5.451  1.00  0.00     0.010 A 
ATOM     44  C   UNL     1       0.454   6.926  -5.890  1.00  0.00    -0.014 A 
BRANCH  44  45
ATOM     45  C   UNL     1       1.850   7.015  -5.456  1.00  0.00     0.031 A 
ATOM     46  C   UNL     1       2.562   8.217  -5.941  1.00  0.00     0.074 A 
ATOM     47  C   UNL     1       2.350   6.272  -4.433  1.00  0.00     0.049 A 
ATOM     48  N   UNL     1       3.785   8.463  -5.668  1.00  0.00    -0.248 NA
ATOM     49  C   UNL     1       1.963   9.268  -6.773  1.00  0.00     0.031 C 
ATOM     50  C   UNL     1       3.476   6.537  -3.532  1.00  0.00     0.029 A 
ATOM     51  N   UNL     1       1.941   5.012  -3.994  1.00  0.00    -0.354 N 
ATOM     52  C   UNL     1       4.012   9.791  -5.919  1.00  0.00     0.074 A 
ATOM     53  C   UNL     1       2.892  10.224  -6.709  1.00  0.00     0.031 C 
ATOM     54  C   UNL     1       3.849   5.387  -2.929  1.00  0.00     0.029 A 
ATOM     55  C   UNL     1       3.047   4.317  -3.507  1.00  0.00     0.049 A 
ATOM     56  H   UNL     1       1.019   4.669  -4.023  1.00  0.00     0.167 HD
ATOM     57  C   UNL     1       5.073  10.360  -5.288  1.00  0.00     0.031 A 
ATOM     58  C   UNL     1       3.438   3.208  -4.185  1.00  0.00     0.031 A 
ATOM     59  C   UNL     1       5.922   9.310  -4.677  1.00  0.00     0.049 A 
ATOM     60  C   UNL     1       4.745   3.550  -4.859  1.00  0.00     0.074 A 
ATOM     61  C   UNL     1       6.255   8.931  -3.388  1.00  0.00     0.029 A 
ATOM     62  N   UNL     1       6.267   8.215  -5.478  1.00  0.00    -0.354 N 
ATOM     63  N   UNL     1       5.203   4.772  -4.965  1.00  0.00    -0.248 NA
ATOM     64  C   UNL     1       5.682   2.575  -5.381  1.00  0.00     0.031 C 
ATOM     65  C   UNL     1       6.748   7.577  -3.437  1.00  0.00     0.029 A 
ATOM     66  C   UNL     1       6.749   7.140  -4.755  1.00  0.00     0.049 A 
ATOM     67  H   UNL     1       6.176   8.211  -6.458  1.00  0.00     0.167 HD
ATOM     68  C   UNL     1       6.480   4.782  -5.425  1.00  0.00     0.074 A 
ATOM     69  C   UNL     1       6.703   3.374  -5.750  1.00  0.00     0.031 C 
ATOM     70  C   UNL     1       7.222   5.939  -5.477  1.00  0.00     0.031 A 
BRANCH  57  71
ATOM     71  C   UNL     1       5.238  11.856  -5.107  1.00  0.00    -0.014 A 
ATOM     72  C   UNL     1       6.304  12.352  -4.335  1.00  0.00     0.010 A 
ATOM     73  C   UNL     1       4.351  12.833  -5.616  1.00  0.00     0.010 A 
ATOM     74  C   UNL     1       6.483  13.730  -4.104  1.00  0.00     0.020 A 
ATOM     75  C   UNL     1       4.525  14.211  -5.413  1.00  0.00     0.020 A 
ATOM     76  C   UNL     1       5.597  14.655  -4.657  1.00  0.00     0.054 A 
BRANCH  76  77
ATOM     77  S   UNL     1       5.862  16.427  -4.388  1.00  0.00     0.124 S 
ATOM     78  O   UNL     1       5.752  16.546  -2.937  1.00  0.00    -0.237 OA
ATOM     79  O   UNL     1       7.199  16.633  -4.939  1.00  0.00    -0.237 OA
ATOM     80  O   UNL     1       4.781  17.061  -5.142  1.00  0.00    -0.744 OA
ENDBRANCH  76  77
ENDBRANCH  57  71
BRANCH  58  81
ATOM     81  C   UNL     1       2.244   2.400  -4.662  1.00  0.00    -0.014 A 
ATOM     82  C   UNL     1       1.436   1.787  -3.661  1.00  0.00     0.010 A 
ATOM     83  C   UNL     1       1.635   2.640  -5.908  1.00  0.00     0.010 A 
ATOM     84  C   UNL     1       0.051   1.587  -3.836  1.00  0.00     0.020 A 
ATOM     85  C   UNL     1       0.245   2.438  -6.088  1.00  0.00     0.020 A 
ATOM     86  C   UNL     1      -0.549   1.974  -5.033  1.00  0.00     0.054 A 
BRANCH  86  87
ATOM     87  S   UNL     1      -2.376   2.127  -5.105  1.00  0.00     0.124 S 
ATOM     88  O   UNL     1      -2.814   0.737  -5.130  1.00  0.00    -0.237 OA
ATOM     89  O   UNL     1      -2.693   2.872  -3.886  1.00  0.00    -0.237 OA
ATOM     90  O   UNL     1      -2.604   2.881  -6.334  1.00  0.00    -0.744 OA
ENDBRANCH  86  87
ENDBRANCH  58  81
BRANCH  70  91
ATOM     91  C   UNL     1       8.476   6.090  -6.310  1.00  0.00    -0.014 A 
ATOM     92  C   UNL     1       9.281   5.033  -6.737  1.00  0.00     0.010 A 
ATOM     93  C   UNL     1       8.859   7.383  -6.748  1.00  0.00     0.010 A 
ATOM     94  C   UNL     1      10.315   5.229  -7.657  1.00  0.00     0.020 A 
ATOM     95  C   UNL     1       9.893   7.601  -7.653  1.00  0.00     0.020 A 
ATOM     96  C   UNL     1      10.599   6.511  -8.124  1.00  0.00     0.054 A 
BRANCH  96  97
ATOM     97  S   UNL     1      11.933   6.726  -9.312  1.00  0.00     0.124 S 
ATOM     98  O   UNL     1      13.061   6.110  -8.617  1.00  0.00    -0.237 OA
ATOM     99  O   UNL     1      11.431   5.991 -10.470  1.00  0.00    -0.237 OA
ATOM    100  O   UNL     1      12.022   8.173  -9.482  1.00  0.00    -0.744 OA
ENDBRANCH  96  97
ENDBRANCH  70  91
ENDBRANCH  44  45
ENDBRANCH  37  39
ENDBRANCH  36  37
ENDBRANCH  35  36
ENDBRANCH  34  35
ENDBRANCH   1  34
TORSDOF 20
