REMARK SMILES Cc1ccc2nc(C(=O)OCCOCCOC(=O)c3ccc(-c4c5nc(c(-c6ccc(S(=O)(=O)[O-])cc6)c6ccc([nH]6)c(-c6ccc(S(=O)(=O)[O-])cc6)c6nc(c(-c7ccc(S(=O)(=O)[O-])cc7)c7ccc4[nH]7)C=C6)C=C5)cc3)cc(N3CCOCC3)c2c1
REMARK SMILES IDX 14 1 13 2 12 3 11 4 10 5 8 6 9 7 7 8 1 9 2 10 3 11 88 12
REMARK SMILES IDX 4 13 87 14 5 15 80 16 6 17 79 18 81 19 82 20 86 21 83 22
REMARK SMILES IDX 85 23 84 24 15 25 16 26 17 27 18 28 19 29 20 30 78 31 21 32
REMARK SMILES IDX 77 33 22 34 23 35 24 36 71 37 25 38 76 39 70 40 72 41 26 42
REMARK SMILES IDX 75 43 69 44 68 45 27 47 57 48 38 49 56 50 39 51 42 52 55 53
REMARK SMILES IDX 73 54 40 55 41 56 54 58 74 59 43 60 28 61 29 62 37 63 30 64
REMARK SMILES IDX 36 65 31 66 32 67 33 68 34 69 35 70 58 71 59 72 67 73 60 74
REMARK SMILES IDX 66 75 61 76 62 77 63 78 64 79 65 80 44 81 45 82 53 83 46 84
REMARK SMILES IDX 52 85 47 86 48 87 49 88 50 89 51 90
REMARK H PARENT 72 46 42 57
REMARK Flexibility Score: inf
ROOT
ATOM      1  C   UNL     1      -4.679   2.029   1.734  1.00  0.00     0.202 C 
ENDROOT
BRANCH   1   2
ATOM      2  O   UNL     1      -5.801   2.521   0.999  1.00  0.00    -0.374 OA
BRANCH   2   3
ATOM      3  C   UNL     1      -6.646   1.554   0.375  1.00  0.00     0.202 C 
BRANCH   3   4
ATOM      4  C   UNL     1      -6.149   0.977  -0.954  1.00  0.00     0.261 C 
BRANCH   4   5
ATOM      5  O   UNL     1      -4.927   0.239  -0.775  1.00  0.00    -0.459 OA
BRANCH   5   6
ATOM      6  C   UNL     1      -3.844   0.792  -1.380  1.00  0.00     0.357 C 
ATOM      7  O   UNL     1      -3.859   1.716  -2.179  1.00  0.00    -0.244 OA
BRANCH   6   8
ATOM      8  C   UNL     1      -2.584   0.204  -0.838  1.00  0.00     0.151 A 
ATOM      9  C   UNL     1       3.728  -0.575   0.086  1.00  0.00     0.044 C 
ATOM     10  C   UNL     1       2.301  -0.127   0.003  1.00  0.00    -0.050 A 
ATOM     11  C   UNL     1       1.971   1.220  -0.086  1.00  0.00     0.005 A 
ATOM     12  C   UNL     1       1.270  -1.075  -0.032  1.00  0.00     0.016 A 
ATOM     13  C   UNL     1       0.641   1.594  -0.276  1.00  0.00     0.029 A 
ATOM     14  C   UNL     1      -0.093  -0.710  -0.172  1.00  0.00     0.024 A 
ATOM     15  C   UNL     1      -0.377   0.657  -0.365  1.00  0.00     0.073 A 
ATOM     16  C   UNL     1      -1.182  -1.638  -0.200  1.00  0.00     0.049 A 
ATOM     17  N   UNL     1      -1.588   1.107  -0.680  1.00  0.00    -0.241 NA
ATOM     18  C   UNL     1      -2.444  -1.150  -0.565  1.00  0.00     0.062 A 
BRANCH  16  19
ATOM     19  N   UNL     1      -0.987  -2.988   0.080  1.00  0.00    -0.366 N 
ATOM     20  C   UNL     1      -0.427  -3.401   1.383  1.00  0.00     0.145 C 
ATOM     21  C   UNL     1      -1.783  -4.049  -0.559  1.00  0.00     0.145 C 
ATOM     22  C   UNL     1       0.405  -4.678   1.180  1.00  0.00     0.181 C 
ATOM     23  C   UNL     1      -0.918  -5.319  -0.673  1.00  0.00     0.181 C 
ATOM     24  O   UNL     1      -0.385  -5.729   0.599  1.00  0.00    -0.378 OA
ENDBRANCH  16  19
ENDBRANCH   6   8
ENDBRANCH   5   6
ENDBRANCH   4   5
ENDBRANCH   3   4
ENDBRANCH   2   3
ENDBRANCH   1   2
BRANCH   1  25
ATOM     25  C   UNL     1      -4.972   1.483   3.137  1.00  0.00     0.261 C 
BRANCH  25  26
ATOM     26  O   UNL     1      -5.761   0.280   3.098  1.00  0.00    -0.460 OA
BRANCH  26  27
ATOM     27  C   UNL     1      -7.032   0.418   3.545  1.00  0.00     0.338 C 
ATOM     28  O   UNL     1      -7.533   1.416   4.045  1.00  0.00    -0.246 OA
BRANCH  27  29
ATOM     29  C   UNL     1      -7.827  -0.770   3.182  1.00  0.00     0.060 A 
ATOM     30  C   UNL     1      -9.038  -0.558   2.511  1.00  0.00     0.016 A 
ATOM     31  C   UNL     1      -7.433  -2.061   3.541  1.00  0.00     0.016 A 
ATOM     32  C   UNL     1      -9.884  -1.631   2.239  1.00  0.00     0.010 A 
ATOM     33  C   UNL     1      -8.288  -3.136   3.275  1.00  0.00     0.010 A 
ATOM     34  C   UNL     1      -9.532  -2.922   2.653  1.00  0.00    -0.014 A 
BRANCH  34  35
ATOM     35  C   UNL     1     -10.525  -4.019   2.557  1.00  0.00     0.031 A 
ATOM     36  C   UNL     1     -11.307  -4.408   3.783  1.00  0.00     0.074 A 
ATOM     37  C   UNL     1     -10.750  -4.645   1.388  1.00  0.00     0.049 A 
ATOM     38  N   UNL     1     -12.210  -5.343   3.926  1.00  0.00    -0.248 NA
ATOM     39  C   UNL     1     -11.033  -3.640   5.008  1.00  0.00     0.031 C 
ATOM     40  C   UNL     1     -10.090  -4.332   0.121  1.00  0.00     0.029 A 
ATOM     41  N   UNL     1     -11.599  -5.678   1.080  1.00  0.00    -0.354 N 
ATOM     42  C   UNL     1     -12.608  -5.283   5.257  1.00  0.00     0.074 A 
ATOM     43  C   UNL     1     -11.826  -4.239   5.885  1.00  0.00     0.031 C 
ATOM     44  C   UNL     1     -10.557  -5.161  -0.829  1.00  0.00     0.029 A 
ATOM     45  C   UNL     1     -11.523  -6.081  -0.232  1.00  0.00     0.049 A 
ATOM     46  H   UNL     1     -12.205  -6.092   1.736  1.00  0.00     0.167 HD
ATOM     47  C   UNL     1     -13.542  -6.025   5.899  1.00  0.00     0.031 A 
ATOM     48  C   UNL     1     -12.148  -7.088  -0.874  1.00  0.00     0.031 A 
ATOM     49  C   UNL     1     -14.306  -7.074   5.279  1.00  0.00     0.049 A 
ATOM     50  C   UNL     1     -13.129  -7.949  -0.123  1.00  0.00     0.074 A 
ATOM     51  C   UNL     1     -15.287  -7.873   5.841  1.00  0.00     0.029 A 
ATOM     52  N   UNL     1     -14.169  -7.479   3.959  1.00  0.00    -0.354 N 
ATOM     53  N   UNL     1     -13.511  -7.863   1.129  1.00  0.00    -0.248 NA
ATOM     54  C   UNL     1     -13.767  -9.039  -0.875  1.00  0.00     0.031 C 
ATOM     55  C   UNL     1     -15.704  -8.797   4.877  1.00  0.00     0.029 A 
ATOM     56  C   UNL     1     -15.025  -8.536   3.697  1.00  0.00     0.049 A 
ATOM     57  H   UNL     1     -13.554  -7.075   3.306  1.00  0.00     0.167 HD
ATOM     58  C   UNL     1     -14.453  -8.871   1.308  1.00  0.00     0.074 A 
ATOM     59  C   UNL     1     -14.590  -9.547   0.033  1.00  0.00     0.031 C 
ATOM     60  C   UNL     1     -15.146  -9.205   2.425  1.00  0.00     0.031 A 
BRANCH  47  61
ATOM     61  C   UNL     1     -13.756  -5.749   7.364  1.00  0.00    -0.014 A 
ATOM     62  C   UNL     1     -14.388  -4.571   7.801  1.00  0.00     0.010 A 
ATOM     63  C   UNL     1     -13.333  -6.693   8.318  1.00  0.00     0.010 A 
ATOM     64  C   UNL     1     -14.549  -4.319   9.166  1.00  0.00     0.020 A 
ATOM     65  C   UNL     1     -13.517  -6.457   9.683  1.00  0.00     0.020 A 
ATOM     66  C   UNL     1     -14.106  -5.262  10.099  1.00  0.00     0.054 A 
BRANCH  66  67
ATOM     67  S   UNL     1     -14.328  -4.912  11.865  1.00  0.00     0.124 S 
ATOM     68  O   UNL     1     -13.304  -3.898  12.101  1.00  0.00    -0.237 OA
ATOM     69  O   UNL     1     -15.708  -4.438  11.928  1.00  0.00    -0.237 OA
ATOM     70  O   UNL     1     -14.086  -6.202  12.507  1.00  0.00    -0.744 OA
ENDBRANCH  66  67
ENDBRANCH  47  61
BRANCH  48  71
ATOM     71  C   UNL     1     -11.853  -7.343  -2.310  1.00  0.00    -0.014 A 
ATOM     72  C   UNL     1     -12.808  -7.059  -3.301  1.00  0.00     0.010 A 
ATOM     73  C   UNL     1     -10.600  -7.857  -2.694  1.00  0.00     0.010 A 
ATOM     74  C   UNL     1     -12.519  -7.290  -4.649  1.00  0.00     0.020 A 
ATOM     75  C   UNL     1     -10.299  -8.066  -4.042  1.00  0.00     0.020 A 
ATOM     76  C   UNL     1     -11.264  -7.787  -5.011  1.00  0.00     0.054 A 
BRANCH  76  77
ATOM     77  S   UNL     1     -10.884  -8.013  -6.771  1.00  0.00     0.124 S 
ATOM     78  O   UNL     1     -11.655  -9.208  -7.098  1.00  0.00    -0.237 OA
ATOM     79  O   UNL     1     -11.366  -6.766  -7.360  1.00  0.00    -0.237 OA
ATOM     80  O   UNL     1      -9.432  -8.179  -6.788  1.00  0.00    -0.744 OA
ENDBRANCH  76  77
ENDBRANCH  48  71
BRANCH  60  81
ATOM     81  C   UNL     1     -16.137 -10.334   2.318  1.00  0.00    -0.014 A 
ATOM     82  C   UNL     1     -15.712 -11.670   2.218  1.00  0.00     0.010 A 
ATOM     83  C   UNL     1     -17.515 -10.055   2.376  1.00  0.00     0.010 A 
ATOM     84  C   UNL     1     -16.649 -12.706   2.147  1.00  0.00     0.020 A 
ATOM     85  C   UNL     1     -18.454 -11.089   2.332  1.00  0.00     0.020 A 
ATOM     86  C   UNL     1     -18.015 -12.408   2.204  1.00  0.00     0.054 A 
BRANCH  86  87
ATOM     87  S   UNL     1     -19.210 -13.772   2.153  1.00  0.00     0.124 S 
ATOM     88  O   UNL     1     -19.168 -14.160   0.746  1.00  0.00    -0.237 OA
ATOM     89  O   UNL     1     -18.637 -14.736   3.089  1.00  0.00    -0.237 OA
ATOM     90  O   UNL     1     -20.459 -13.154   2.592  1.00  0.00    -0.744 OA
ENDBRANCH  86  87
ENDBRANCH  60  81
ENDBRANCH  34  35
ENDBRANCH  27  29
ENDBRANCH  26  27
ENDBRANCH  25  26
ENDBRANCH   1  25
TORSDOF 18
