REMARK SMILES CC1=CC[C@@H]2C(=O)N(c3ccc(Cl)c(C(=O)OCCOCCOC(=O)c4ccc(-c5c6nc(c(-c7ccc(S(=O)(=O)[O-])cc7)c7ccc([nH]7)c(-c7ccc(S(=O)(=O)[O-])cc7)c7nc(c(-c8ccc(S(=O)(=O)[O-])cc8)c8ccc5[nH]8)C=C7)C=C6)cc4)c3)C(=O)[C@H]2C1
REMARK SMILES IDX 21 1 20 2 19 3 18 4 17 5 15 6 16 7 14 8 9 9 10 10 86 11
REMARK SMILES IDX 11 12 12 13 13 14 8 15 1 16 2 17 3 18 90 19 4 20 89 21 5 22
REMARK SMILES IDX 87 23 6 24 88 25 7 26 22 27 23 28 24 29 25 30 26 31 27 32
REMARK SMILES IDX 85 33 28 34 84 35 29 36 30 37 31 38 78 39 32 40 83 41 77 42
REMARK SMILES IDX 79 43 33 44 82 45 76 46 75 47 34 49 64 50 45 51 63 52 46 53
REMARK SMILES IDX 49 54 62 55 80 56 47 57 48 58 61 60 81 61 50 62 35 63 36 64
REMARK SMILES IDX 44 65 37 66 43 67 38 68 39 69 40 70 41 71 42 72 65 73 66 74
REMARK SMILES IDX 74 75 67 76 73 77 68 78 69 79 70 80 71 81 72 82 51 83 52 84
REMARK SMILES IDX 60 85 53 86 59 87 54 88 55 89 56 90 57 91 58 92
REMARK H PARENT 79 48 49 59
REMARK Flexibility Score: inf
ROOT
ATOM      1  C   UNL     1       2.871  -7.570   7.000  1.00  0.00     0.202 C 
ENDROOT
BRANCH   1   2
ATOM      2  O   UNL     1       3.863  -7.534   8.027  1.00  0.00    -0.374 OA
BRANCH   2   3
ATOM      3  C   UNL     1       3.427  -7.778   9.368  1.00  0.00     0.202 C 
BRANCH   3   4
ATOM      4  C   UNL     1       2.719  -6.605  10.047  1.00  0.00     0.261 C 
BRANCH   4   5
ATOM      5  O   UNL     1       1.452  -6.367   9.413  1.00  0.00    -0.460 OA
BRANCH   5   6
ATOM      6  C   UNL     1       1.232  -5.102   8.997  1.00  0.00     0.339 C 
ATOM      7  O   UNL     1       1.934  -4.126   9.209  1.00  0.00    -0.246 OA
BRANCH   6   8
ATOM      8  C   UNL     1       0.111  -5.060   8.037  1.00  0.00     0.080 A 
ATOM      9  C   UNL     1      -0.691  -4.069   5.968  1.00  0.00     0.053 A 
ATOM     10  C   UNL     1      -1.953  -4.618   6.200  1.00  0.00     0.028 A 
ATOM     11  C   UNL     1       0.345  -4.308   6.871  1.00  0.00     0.044 A 
ATOM     12  C   UNL     1      -2.167  -5.428   7.320  1.00  0.00     0.023 A 
ATOM     13  C   UNL     1      -1.143  -5.641   8.252  1.00  0.00     0.055 A 
ATOM     14  Cl  UNL     1      -1.534  -6.563   9.656  1.00  0.00    -0.083 Cl
BRANCH   9  15
ATOM     15  N   UNL     1      -0.493  -3.166   4.915  1.00  0.00    -0.250 N 
ATOM     16  C   UNL     1       1.120  -0.096  -0.075  1.00  0.00     0.039 C 
ATOM     17  C   UNL     1       0.648  -0.438   1.309  1.00  0.00    -0.076 C 
ATOM     18  C   UNL     1       0.140   0.502   2.139  1.00  0.00    -0.027 C 
ATOM     19  C   UNL     1       0.780  -1.906   1.717  1.00  0.00     0.044 C 
ATOM     20  C   UNL     1      -0.437   0.198   3.506  1.00  0.00     0.041 C 
ATOM     21  C   UNL     1       0.579  -2.033   3.217  1.00  0.00     0.096 C 
ATOM     22  C   UNL     1      -0.693  -1.292   3.602  1.00  0.00     0.096 C 
ATOM     23  C   UNL     1       0.364  -3.379   3.851  1.00  0.00     0.238 C 
ATOM     24  C   UNL     1      -1.020  -1.887   4.935  1.00  0.00     0.238 C 
ATOM     25  O   UNL     1       0.922  -4.412   3.518  1.00  0.00    -0.274 OA
ATOM     26  O   UNL     1      -1.665  -1.339   5.808  1.00  0.00    -0.274 OA
ENDBRANCH   9  15
ENDBRANCH   6   8
ENDBRANCH   5   6
ENDBRANCH   4   5
ENDBRANCH   3   4
ENDBRANCH   2   3
ENDBRANCH   1   2
BRANCH   1  27
ATOM     27  C   UNL     1       2.452  -8.958   6.503  1.00  0.00     0.261 C 
BRANCH  27  28
ATOM     28  O   UNL     1       1.821  -9.744   7.530  1.00  0.00    -0.460 OA
BRANCH  28  29
ATOM     29  C   UNL     1       2.595 -10.748   8.011  1.00  0.00     0.338 C 
ATOM     30  O   UNL     1       3.704 -11.071   7.615  1.00  0.00    -0.246 OA
BRANCH  29  31
ATOM     31  C   UNL     1       1.994 -11.343   9.222  1.00  0.00     0.060 A 
ATOM     32  C   UNL     1       2.849 -11.562  10.309  1.00  0.00     0.016 A 
ATOM     33  C   UNL     1       0.667 -11.779   9.266  1.00  0.00     0.016 A 
ATOM     34  C   UNL     1       2.407 -12.295  11.407  1.00  0.00     0.010 A 
ATOM     35  C   UNL     1       0.225 -12.519  10.371  1.00  0.00     0.010 A 
ATOM     36  C   UNL     1       1.111 -12.826  11.420  1.00  0.00    -0.014 A 
BRANCH  36  37
ATOM     37  C   UNL     1       0.782 -13.858  12.436  1.00  0.00     0.031 A 
ATOM     38  C   UNL     1       0.876 -15.312  12.048  1.00  0.00     0.074 A 
ATOM     39  C   UNL     1       0.504 -13.515  13.707  1.00  0.00     0.049 A 
ATOM     40  N   UNL     1       0.713 -16.379  12.787  1.00  0.00    -0.248 NA
ATOM     41  C   UNL     1       1.205 -15.601  10.641  1.00  0.00     0.031 C 
ATOM     42  C   UNL     1       0.418 -12.148  14.217  1.00  0.00     0.029 A 
ATOM     43  N   UNL     1       0.257 -14.301  14.805  1.00  0.00    -0.354 N 
ATOM     44  C   UNL     1       0.932 -17.462  11.943  1.00  0.00     0.074 A 
ATOM     45  C   UNL     1       1.194 -16.926  10.625  1.00  0.00     0.031 C 
ATOM     46  C   UNL     1       0.137 -12.190  15.532  1.00  0.00     0.029 A 
ATOM     47  C   UNL     1       0.010 -13.584  15.952  1.00  0.00     0.049 A 
ATOM     48  H   UNL     1       0.256 -15.285  14.775  1.00  0.00     0.167 HD
ATOM     49  C   UNL     1       0.936 -18.784  12.236  1.00  0.00     0.031 A 
ATOM     50  C   UNL     1      -0.289 -14.005  17.197  1.00  0.00     0.031 A 
ATOM     51  C   UNL     1       0.662 -19.324  13.541  1.00  0.00     0.049 A 
ATOM     52  C   UNL     1      -0.336 -15.484  17.486  1.00  0.00     0.074 A 
ATOM     53  C   UNL     1       0.623 -20.651  13.934  1.00  0.00     0.029 A 
ATOM     54  N   UNL     1       0.384 -18.565  14.667  1.00  0.00    -0.354 N 
ATOM     55  N   UNL     1      -0.115 -16.492  16.675  1.00  0.00    -0.248 NA
ATOM     56  C   UNL     1      -0.656 -15.880  18.865  1.00  0.00     0.031 C 
ATOM     57  C   UNL     1       0.284 -20.695  15.291  1.00  0.00     0.029 A 
ATOM     58  C   UNL     1       0.162 -19.394  15.753  1.00  0.00     0.049 A 
ATOM     59  H   UNL     1       0.349 -17.581  14.690  1.00  0.00     0.167 HD
ATOM     60  C   UNL     1      -0.246 -17.639  17.453  1.00  0.00     0.074 A 
ATOM     61  C   UNL     1      -0.542 -17.199  18.800  1.00  0.00     0.031 C 
ATOM     62  C   UNL     1      -0.134 -18.940  17.087  1.00  0.00     0.031 A 
BRANCH  49  63
ATOM     63  C   UNL     1       1.240 -19.742  11.116  1.00  0.00    -0.014 A 
ATOM     64  C   UNL     1       2.550 -19.876  10.620  1.00  0.00     0.010 A 
ATOM     65  C   UNL     1       0.219 -20.548  10.583  1.00  0.00     0.010 A 
ATOM     66  C   UNL     1       2.828 -20.780   9.592  1.00  0.00     0.020 A 
ATOM     67  C   UNL     1       0.497 -21.470   9.570  1.00  0.00     0.020 A 
ATOM     68  C   UNL     1       1.798 -21.571   9.072  1.00  0.00     0.054 A 
BRANCH  68  69
ATOM     69  S   UNL     1       2.194 -22.762   7.762  1.00  0.00     0.124 S 
ATOM     70  O   UNL     1       2.384 -21.888   6.607  1.00  0.00    -0.237 OA
ATOM     71  O   UNL     1       3.403 -23.407   8.268  1.00  0.00    -0.237 OA
ATOM     72  O   UNL     1       1.012 -23.619   7.705  1.00  0.00    -0.744 OA
ENDBRANCH  68  69
ENDBRANCH  49  63
BRANCH  50  73
ATOM     73  C   UNL     1      -0.592 -13.018  18.269  1.00  0.00    -0.014 A 
ATOM     74  C   UNL     1       0.279 -12.839  19.358  1.00  0.00     0.010 A 
ATOM     75  C   UNL     1      -1.787 -12.277  18.220  1.00  0.00     0.010 A 
ATOM     76  C   UNL     1      -0.057 -11.964  20.396  1.00  0.00     0.020 A 
ATOM     77  C   UNL     1      -2.113 -11.381  19.241  1.00  0.00     0.020 A 
ATOM     78  C   UNL     1      -1.254 -11.245  20.334  1.00  0.00     0.054 A 
BRANCH  78  79
ATOM     79  S   UNL     1      -1.668 -10.102  21.681  1.00  0.00     0.124 S 
ATOM     80  O   UNL     1      -2.121 -11.016  22.724  1.00  0.00    -0.237 OA
ATOM     81  O   UNL     1      -0.394  -9.433  21.933  1.00  0.00    -0.237 OA
ATOM     82  O   UNL     1      -2.704  -9.251  21.098  1.00  0.00    -0.744 OA
ENDBRANCH  78  79
ENDBRANCH  50  73
BRANCH  62  83
ATOM     83  C   UNL     1      -0.303 -19.977  18.165  1.00  0.00    -0.014 A 
ATOM     84  C   UNL     1      -1.565 -20.249  18.723  1.00  0.00     0.010 A 
ATOM     85  C   UNL     1       0.816 -20.706  18.610  1.00  0.00     0.010 A 
ATOM     86  C   UNL     1      -1.697 -21.198  19.741  1.00  0.00     0.020 A 
ATOM     87  C   UNL     1       0.682 -21.674  19.609  1.00  0.00     0.020 A 
ATOM     88  C   UNL     1      -0.570 -21.898  20.183  1.00  0.00     0.054 A 
BRANCH  88  89
ATOM     89  S   UNL     1      -0.766 -23.134  21.497  1.00  0.00     0.124 S 
ATOM     90  O   UNL     1      -0.877 -22.295  22.687  1.00  0.00    -0.237 OA
ATOM     91  O   UNL     1      -1.988 -23.832  21.105  1.00  0.00    -0.237 OA
ATOM     92  O   UNL     1       0.455 -23.931  21.406  1.00  0.00    -0.744 OA
ENDBRANCH  88  89
ENDBRANCH  62  83
ENDBRANCH  36  37
ENDBRANCH  29  31
ENDBRANCH  28  29
ENDBRANCH  27  28
ENDBRANCH   1  27
TORSDOF 18
