REMARK SMILES CNc1nc(C(=O)N2C[C@@H](C(=O)OCCOCCOC(=O)c3ccc(-c4c5nc(c(-c6ccc(S(=O)(=O)[O-])cc6)c6ccc([nH]6)c(-c6ccc(S(=O)(=O)[O-])cc6)c6nc(c(-c7ccc(S(=O)(=O)[O-])cc7)c7ccc4[nH]7)C=C6)C=C5)cc3)[C@H](c3ccccc3C)C2)cs1
REMARK SMILES IDX 16 1 15 2 14 3 13 4 11 5 12 6 10 7 8 8 9 9 90 10 82 11 6 12
REMARK SMILES IDX 7 13 5 14 3 15 4 16 92 17 91 18 2 19 1 20 83 22 84 23 88 24
REMARK SMILES IDX 85 25 87 26 89 27 86 28 17 29 18 30 19 31 20 32 21 33 22 34
REMARK SMILES IDX 23 35 81 36 24 37 80 38 25 39 26 40 27 41 74 42 28 43 79 44
REMARK SMILES IDX 73 45 75 46 29 47 78 48 72 49 71 50 30 52 60 53 41 54 59 55
REMARK SMILES IDX 42 56 45 57 58 58 76 59 43 60 44 61 57 63 77 64 46 65 31 66
REMARK SMILES IDX 32 67 40 68 33 69 39 70 34 71 35 72 36 73 37 74 38 75 61 76
REMARK SMILES IDX 62 77 70 78 63 79 69 80 64 81 65 82 66 83 67 84 68 85 47 86
REMARK SMILES IDX 48 87 56 88 49 89 55 90 50 91 51 92 52 93 53 94 54 95
REMARK H PARENT 2 21 75 51 45 62
REMARK Flexibility Score: inf
ROOT
ATOM      1  O   UNL     1      -5.335   3.283  -1.259  1.00  0.00    -0.374 OA
ENDROOT
BRANCH   1   2
ATOM      2  C   UNL     1      -5.998   4.057  -0.251  1.00  0.00     0.202 C 
BRANCH   2   3
ATOM      3  C   UNL     1      -6.871   3.223   0.700  1.00  0.00     0.261 C 
BRANCH   3   4
ATOM      4  O   UNL     1      -6.027   2.751   1.765  1.00  0.00    -0.463 OA
BRANCH   4   5
ATOM      5  C   UNL     1      -5.820   1.422   1.907  1.00  0.00     0.311 C 
ATOM      6  O   UNL     1      -6.547   0.554   1.449  1.00  0.00    -0.252 OA
BRANCH   5   7
ATOM      7  C   UNL     1      -4.469   1.199   2.577  1.00  0.00     0.128 C 
ATOM      8  N   UNL     1      -3.503  -0.790   3.388  1.00  0.00    -0.336 N 
ATOM      9  C   UNL     1      -3.937  -0.174   2.164  1.00  0.00     0.136 C 
ATOM     10  C   UNL     1      -4.245  -0.227   4.496  1.00  0.00     0.129 C 
ATOM     11  C   UNL     1      -4.509   1.264   4.124  1.00  0.00     0.055 C 
BRANCH   8  12
ATOM     12  C   UNL     1      -2.805  -1.986   3.479  1.00  0.00     0.273 C 
ATOM     13  O   UNL     1      -2.896  -2.708   4.472  1.00  0.00    -0.267 OA
BRANCH  12  14
ATOM     14  C   UNL     1      -1.937  -2.366   2.349  1.00  0.00     0.141 A 
ATOM     15  C   UNL     1      -0.435  -2.021   0.730  1.00  0.00     0.183 A 
ATOM     16  N   UNL     1      -1.249  -1.430   1.572  1.00  0.00    -0.215 NA
ATOM     17  S   UNL     1      -0.529  -3.740   0.728  1.00  0.00    -0.105 S 
ATOM     18  C   UNL     1      -1.640  -3.679   2.028  1.00  0.00     0.102 A 
BRANCH  15  19
ATOM     19  N   UNL     1       0.450  -1.395  -0.070  1.00  0.00    -0.365 N 
ATOM     20  C   UNL     1       0.704   0.018   0.057  1.00  0.00     0.142 C 
ATOM     21  H   UNL     1       0.932  -1.913  -0.754  1.00  0.00     0.162 HD
ENDBRANCH  15  19
ENDBRANCH  12  14
ENDBRANCH   8  12
BRANCH  11  22
ATOM     22  C   UNL     1      -3.607   2.342   4.797  1.00  0.00    -0.039 A 
ATOM     23  C   UNL     1      -2.880   2.001   5.963  1.00  0.00     0.004 A 
ATOM     24  C   UNL     1      -3.569   3.721   4.433  1.00  0.00    -0.048 A 
ATOM     25  C   UNL     1      -2.166   2.938   6.722  1.00  0.00     0.000 A 
ATOM     26  C   UNL     1      -2.841   4.652   5.216  1.00  0.00     0.004 A 
ATOM     27  C   UNL     1      -4.304   4.352   3.285  1.00  0.00     0.044 C 
ATOM     28  C   UNL     1      -2.150   4.268   6.352  1.00  0.00     0.000 A 
ENDBRANCH  11  22
ENDBRANCH   5   7
ENDBRANCH   4   5
ENDBRANCH   3   4
ENDBRANCH   2   3
ENDBRANCH   1   2
BRANCH   1  29
ATOM     29  C   UNL     1      -4.153   2.596  -0.857  1.00  0.00     0.202 C 
BRANCH  29  30
ATOM     30  C   UNL     1      -2.843   3.365  -1.050  1.00  0.00     0.261 C 
BRANCH  30  31
ATOM     31  O   UNL     1      -2.791   4.550  -0.238  1.00  0.00    -0.460 OA
BRANCH  31  32
ATOM     32  C   UNL     1      -3.084   5.690  -0.903  1.00  0.00     0.338 C 
ATOM     33  O   UNL     1      -3.341   5.798  -2.098  1.00  0.00    -0.246 OA
BRANCH  32  34
ATOM     34  C   UNL     1      -3.195   6.824   0.029  1.00  0.00     0.060 A 
ATOM     35  C   UNL     1      -4.306   7.662  -0.116  1.00  0.00     0.016 A 
ATOM     36  C   UNL     1      -2.199   7.125   0.964  1.00  0.00     0.016 A 
ATOM     37  C   UNL     1      -4.400   8.832   0.634  1.00  0.00     0.010 A 
ATOM     38  C   UNL     1      -2.296   8.303   1.717  1.00  0.00     0.010 A 
ATOM     39  C   UNL     1      -3.380   9.179   1.531  1.00  0.00    -0.014 A 
BRANCH  39  40
ATOM     40  C   UNL     1      -3.418  10.513   2.182  1.00  0.00     0.031 A 
ATOM     41  C   UNL     1      -2.562  11.630   1.645  1.00  0.00     0.074 A 
ATOM     42  C   UNL     1      -4.265  10.746   3.202  1.00  0.00     0.049 A 
ATOM     43  N   UNL     1      -2.487  12.875   2.041  1.00  0.00    -0.248 NA
ATOM     44  C   UNL     1      -1.679  11.304   0.513  1.00  0.00     0.031 C 
ATOM     45  C   UNL     1      -5.167   9.758   3.794  1.00  0.00     0.029 A 
ATOM     46  N   UNL     1      -4.509  11.893   3.915  1.00  0.00    -0.354 N 
ATOM     47  C   UNL     1      -1.560  13.485   1.202  1.00  0.00     0.074 A 
ATOM     48  C   UNL     1      -1.069  12.463   0.303  1.00  0.00     0.031 C 
ATOM     49  C   UNL     1      -5.867  10.342   4.781  1.00  0.00     0.029 A 
ATOM     50  C   UNL     1      -5.447  11.736   4.907  1.00  0.00     0.049 A 
ATOM     51  H   UNL     1      -4.055  12.747   3.732  1.00  0.00     0.167 HD
ATOM     52  C   UNL     1      -1.163  14.780   1.173  1.00  0.00     0.031 A 
ATOM     53  C   UNL     1      -5.907  12.613   5.822  1.00  0.00     0.031 A 
ATOM     54  C   UNL     1      -1.637  15.796   2.076  1.00  0.00     0.049 A 
ATOM     55  C   UNL     1      -5.401  14.031   5.810  1.00  0.00     0.074 A 
ATOM     56  C   UNL     1      -1.289  17.136   2.123  1.00  0.00     0.029 A 
ATOM     57  N   UNL     1      -2.559  15.589   3.089  1.00  0.00    -0.354 N 
ATOM     58  N   UNL     1      -4.540  14.593   4.995  1.00  0.00    -0.248 NA
ATOM     59  C   UNL     1      -5.941  14.938   6.834  1.00  0.00     0.031 C 
ATOM     60  C   UNL     1      -1.965  17.727   3.195  1.00  0.00     0.029 A 
ATOM     61  C   UNL     1      -2.777  16.770   3.780  1.00  0.00     0.049 A 
ATOM     62  H   UNL     1      -2.995  14.729   3.289  1.00  0.00     0.167 HD
ATOM     63  C   UNL     1      -4.452  15.923   5.396  1.00  0.00     0.074 A 
ATOM     64  C   UNL     1      -5.363  16.086   6.509  1.00  0.00     0.031 C 
ATOM     65  C   UNL     1      -3.683  16.919   4.889  1.00  0.00     0.031 A 
BRANCH  52  66
ATOM     66  C   UNL     1      -0.152  15.177   0.130  1.00  0.00    -0.014 A 
ATOM     67  C   UNL     1      -0.518  15.291  -1.223  1.00  0.00     0.010 A 
ATOM     68  C   UNL     1       1.161  15.504   0.515  1.00  0.00     0.010 A 
ATOM     69  C   UNL     1       0.417  15.703  -2.176  1.00  0.00     0.020 A 
ATOM     70  C   UNL     1       2.093  15.938  -0.433  1.00  0.00     0.020 A 
ATOM     71  C   UNL     1       1.717  16.024  -1.775  1.00  0.00     0.054 A 
BRANCH  71  72
ATOM     72  S   UNL     1       2.898  16.596  -3.028  1.00  0.00     0.124 S 
ATOM     73  O   UNL     1       3.185  15.363  -3.756  1.00  0.00    -0.237 OA
ATOM     74  O   UNL     1       2.126  17.594  -3.764  1.00  0.00    -0.237 OA
ATOM     75  O   UNL     1       4.008  17.128  -2.242  1.00  0.00    -0.744 OA
ENDBRANCH  71  72
ENDBRANCH  52  66
BRANCH  53  76
ATOM     76  C   UNL     1      -6.882  12.168   6.855  1.00  0.00    -0.014 A 
ATOM     77  C   UNL     1      -8.206  12.641   6.854  1.00  0.00     0.010 A 
ATOM     78  C   UNL     1      -6.474  11.280   7.867  1.00  0.00     0.010 A 
ATOM     79  C   UNL     1      -9.094  12.259   7.865  1.00  0.00     0.020 A 
ATOM     80  C   UNL     1      -7.366  10.873   8.861  1.00  0.00     0.020 A 
ATOM     81  C   UNL     1      -8.667  11.380   8.864  1.00  0.00     0.054 A 
BRANCH  81  82
ATOM     82  S   UNL     1      -9.840  10.874  10.152  1.00  0.00     0.124 S 
ATOM     83  O   UNL     1      -9.882  12.057  11.004  1.00  0.00    -0.237 OA
ATOM     84  O   UNL     1     -11.054  10.601   9.385  1.00  0.00    -0.237 OA
ATOM     85  O   UNL     1      -9.209   9.696  10.742  1.00  0.00    -0.744 OA
ENDBRANCH  81  82
ENDBRANCH  53  76
BRANCH  65  86
ATOM     86  C   UNL     1      -3.815  18.281   5.518  1.00  0.00    -0.014 A 
ATOM     87  C   UNL     1      -3.301  18.544   6.801  1.00  0.00     0.010 A 
ATOM     88  C   UNL     1      -4.433  19.322   4.802  1.00  0.00     0.010 A 
ATOM     89  C   UNL     1      -3.441  19.812   7.372  1.00  0.00     0.020 A 
ATOM     90  C   UNL     1      -4.551  20.599   5.359  1.00  0.00     0.020 A 
ATOM     91  C   UNL     1      -4.069  20.830   6.649  1.00  0.00     0.054 A 
BRANCH  91  92
ATOM     92  S   UNL     1      -4.220  22.474   7.403  1.00  0.00     0.124 S 
ATOM     93  O   UNL     1      -5.294  22.267   8.370  1.00  0.00    -0.237 OA
ATOM     94  O   UNL     1      -2.893  22.689   7.974  1.00  0.00    -0.237 OA
ATOM     95  O   UNL     1      -4.554  23.342   6.276  1.00  0.00    -0.744 OA
ENDBRANCH  91  92
ENDBRANCH  65  86
ENDBRANCH  39  40
ENDBRANCH  32  34
ENDBRANCH  31  32
ENDBRANCH  30  31
ENDBRANCH  29  30
ENDBRANCH   1  29
TORSDOF 21
