REMARK SMILES C[C@@H](c1ccccc1)[C@@H](CC(=O)Nc1ccccc1I)C(=O)OCCOCCOC(=O)c1ccc(-c2c3nc(c(-c4ccc(S(=O)(=O)[O-])cc4)c4ccc([nH]4)c(-c4ccc(S(=O)(=O)[O-])cc4)c4nc(c(-c5ccc(S(=O)(=O)[O-])cc5)c5ccc2[nH]5)C=C4)C=C3)cc1
REMARK SMILES IDX 26 1 25 2 24 3 23 4 21 5 22 6 9 7 2 8 1 9 3 10 4 11 8 12
REMARK SMILES IDX 5 13 7 14 6 15 10 16 11 17 12 18 13 19 14 21 15 22 19 23
REMARK SMILES IDX 16 24 18 25 20 26 17 27 27 28 28 29 29 30 30 31 31 32 32 33
REMARK SMILES IDX 33 34 91 35 34 36 90 37 35 38 36 39 37 40 84 41 38 42 89 43
REMARK SMILES IDX 83 44 85 45 39 46 88 47 82 48 81 49 40 51 70 52 51 53 69 54
REMARK SMILES IDX 52 55 55 56 68 57 86 58 53 59 54 60 67 62 87 63 56 64 41 65
REMARK SMILES IDX 42 66 50 67 43 68 49 69 44 70 45 71 46 72 47 73 48 74 71 75
REMARK SMILES IDX 72 76 80 77 73 78 79 79 74 80 75 81 76 82 77 83 78 84 57 85
REMARK SMILES IDX 58 86 66 87 59 88 65 89 60 90 61 91 62 92 63 93 64 94
REMARK H PARENT 13 20 85 50 55 61
REMARK Flexibility Score: inf
ROOT
ATOM      1  O   UNL     1      -2.224  -1.012  -5.633  1.00  0.00    -0.374 OA
ENDROOT
BRANCH   1   2
ATOM      2  C   UNL     1      -2.057   0.406  -5.617  1.00  0.00     0.202 C 
BRANCH   2   3
ATOM      3  C   UNL     1      -2.569   1.089  -4.350  1.00  0.00     0.261 C 
BRANCH   3   4
ATOM      4  O   UNL     1      -1.694   0.856  -3.223  1.00  0.00    -0.463 OA
BRANCH   4   5
ATOM      5  C   UNL     1      -2.182   0.065  -2.240  1.00  0.00     0.310 C 
ATOM      6  O   UNL     1      -3.211  -0.598  -2.316  1.00  0.00    -0.252 OA
BRANCH   5   7
ATOM      7  C   UNL     1      -1.358   0.120  -0.965  1.00  0.00     0.116 C 
BRANCH   7   8
ATOM      8  C   UNL     1       0.052  -0.506  -0.995  1.00  0.00     0.031 C 
ATOM      9  C   UNL     1       0.558  -0.729   0.447  1.00  0.00     0.013 C 
BRANCH   8  10
ATOM     10  C   UNL     1       0.395  -1.785  -1.748  1.00  0.00    -0.044 A 
ATOM     11  C   UNL     1      -0.258  -3.006  -1.551  1.00  0.00     0.004 A 
ATOM     12  C   UNL     1       1.571  -1.787  -2.530  1.00  0.00     0.004 A 
ATOM     13  C   UNL     1       0.280  -4.188  -2.086  1.00  0.00     0.000 A 
ATOM     14  C   UNL     1       2.109  -2.960  -3.053  1.00  0.00     0.000 A 
ATOM     15  C   UNL     1       1.466  -4.167  -2.823  1.00  0.00     0.000 A 
ENDBRANCH   8  10
ENDBRANCH   7   8
BRANCH   7  16
ATOM     16  C   UNL     1      -1.383   1.548  -0.347  1.00  0.00     0.116 C 
BRANCH  16  17
ATOM     17  C   UNL     1      -0.792   2.756  -1.083  1.00  0.00     0.225 C 
ATOM     18  O   UNL     1      -1.469   3.367  -1.914  1.00  0.00    -0.275 OA
ATOM     19  N   UNL     1       0.405   3.316  -0.681  1.00  0.00    -0.325 N 
ATOM     20  H   UNL     1       0.407   4.286  -0.514  1.00  0.00     0.169 HD
BRANCH  19  21
ATOM     21  C   UNL     1       1.628   2.635  -0.484  1.00  0.00     0.054 A 
ATOM     22  C   UNL     1       2.262   2.739   0.755  1.00  0.00     0.027 A 
ATOM     23  C   UNL     1       2.324   2.016  -1.533  1.00  0.00     0.037 A 
ATOM     24  C   UNL     1       3.472   2.072   0.989  1.00  0.00     0.002 A 
ATOM     25  C   UNL     1       3.488   1.279  -1.281  1.00  0.00     0.017 A 
ATOM     26  I   UNL     1       1.740   2.263  -3.519  1.00  0.00    -0.042 I 
ATOM     27  C   UNL     1       4.049   1.288  -0.008  1.00  0.00     0.001 A 
ENDBRANCH  19  21
ENDBRANCH  16  17
ENDBRANCH   7  16
ENDBRANCH   5   7
ENDBRANCH   4   5
ENDBRANCH   3   4
ENDBRANCH   2   3
ENDBRANCH   1   2
BRANCH   1  28
ATOM     28  C   UNL     1      -1.192  -1.750  -4.975  1.00  0.00     0.202 C 
BRANCH  28  29
ATOM     29  C   UNL     1       0.020  -2.042  -5.864  1.00  0.00     0.261 C 
BRANCH  29  30
ATOM     30  O   UNL     1       0.802  -0.848  -6.076  1.00  0.00    -0.460 OA
BRANCH  30  31
ATOM     31  C   UNL     1       0.793  -0.382  -7.346  1.00  0.00     0.338 C 
ATOM     32  O   UNL     1       0.330  -0.939  -8.332  1.00  0.00    -0.246 OA
BRANCH  31  33
ATOM     33  C   UNL     1       1.265   1.015  -7.380  1.00  0.00     0.060 A 
ATOM     34  C   UNL     1       0.442   1.959  -8.006  1.00  0.00     0.016 A 
ATOM     35  C   UNL     1       2.503   1.396  -6.861  1.00  0.00     0.016 A 
ATOM     36  C   UNL     1       0.878   3.274  -8.170  1.00  0.00     0.010 A 
ATOM     37  C   UNL     1       2.922   2.727  -6.994  1.00  0.00     0.010 A 
ATOM     38  C   UNL     1       2.139   3.663  -7.698  1.00  0.00    -0.014 A 
BRANCH  38  39
ATOM     39  C   UNL     1       2.736   4.955  -8.142  1.00  0.00     0.031 A 
ATOM     40  C   UNL     1       3.895   4.901  -9.110  1.00  0.00     0.074 A 
ATOM     41  C   UNL     1       2.243   6.149  -7.757  1.00  0.00     0.049 A 
ATOM     42  N   UNL     1       4.625   5.874  -9.589  1.00  0.00    -0.248 NA
ATOM     43  C   UNL     1       4.292   3.565  -9.591  1.00  0.00     0.031 C 
ATOM     44  C   UNL     1       1.092   6.354  -6.877  1.00  0.00     0.029 A 
ATOM     45  N   UNL     1       2.651   7.425  -8.070  1.00  0.00    -0.354 N 
ATOM     46  C   UNL     1       5.574   5.265 -10.405  1.00  0.00     0.074 A 
ATOM     47  C   UNL     1       5.366   3.840 -10.312  1.00  0.00     0.031 C 
ATOM     48  C   UNL     1       0.878   7.676  -6.736  1.00  0.00     0.029 A 
ATOM     49  C   UNL     1       1.902   8.413  -7.473  1.00  0.00     0.049 A 
ATOM     50  H   UNL     1       3.411   7.614  -8.668  1.00  0.00     0.167 HD
ATOM     51  C   UNL     1       6.520   5.836 -11.186  1.00  0.00     0.031 A 
ATOM     52  C   UNL     1       2.037   9.756  -7.505  1.00  0.00     0.031 A 
ATOM     53  C   UNL     1       6.718   7.254 -11.303  1.00  0.00     0.049 A 
ATOM     54  C   UNL     1       3.156  10.368  -8.316  1.00  0.00     0.074 A 
ATOM     55  C   UNL     1       7.651   7.930 -12.068  1.00  0.00     0.029 A 
ATOM     56  N   UNL     1       5.963   8.213 -10.647  1.00  0.00    -0.354 N 
ATOM     57  N   UNL     1       4.050   9.775  -9.072  1.00  0.00    -0.248 NA
ATOM     58  C   UNL     1       3.281  11.834  -8.282  1.00  0.00     0.031 C 
ATOM     59  C   UNL     1       7.495   9.298 -11.832  1.00  0.00     0.029 A 
ATOM     60  C   UNL     1       6.418   9.476 -10.978  1.00  0.00     0.049 A 
ATOM     61  H   UNL     1       5.214   8.023 -10.036  1.00  0.00     0.167 HD
ATOM     62  C   UNL     1       4.807  10.797  -9.640  1.00  0.00     0.074 A 
ATOM     63  C   UNL     1       4.268  12.044  -9.143  1.00  0.00     0.031 C 
ATOM     64  C   UNL     1       5.851  10.710 -10.501  1.00  0.00     0.031 A 
BRANCH  51  65
ATOM     65  C   UNL     1       7.425   4.920 -11.968  1.00  0.00    -0.014 A 
ATOM     66  C   UNL     1       6.939   4.168 -13.054  1.00  0.00     0.010 A 
ATOM     67  C   UNL     1       8.789   4.840 -11.636  1.00  0.00     0.010 A 
ATOM     68  C   UNL     1       7.794   3.328 -13.771  1.00  0.00     0.020 A 
ATOM     69  C   UNL     1       9.655   4.027 -12.372  1.00  0.00     0.020 A 
ATOM     70  C   UNL     1       9.148   3.265 -13.427  1.00  0.00     0.054 A 
BRANCH  70  71
ATOM     71  S   UNL     1      10.241   2.196 -14.400  1.00  0.00     0.124 S 
ATOM     72  O   UNL     1       9.797   0.863 -13.998  1.00  0.00    -0.237 OA
ATOM     73  O   UNL     1       9.920   2.577 -15.773  1.00  0.00    -0.237 OA
ATOM     74  O   UNL     1      11.581   2.566 -13.950  1.00  0.00    -0.744 OA
ENDBRANCH  70  71
ENDBRANCH  51  65
BRANCH  52  75
ATOM     75  C   UNL     1       1.107  10.633  -6.734  1.00  0.00    -0.014 A 
ATOM     76  C   UNL     1       0.242  11.526  -7.394  1.00  0.00     0.010 A 
ATOM     77  C   UNL     1       1.117  10.618  -5.327  1.00  0.00     0.010 A 
ATOM     78  C   UNL     1      -0.565  12.408  -6.666  1.00  0.00     0.020 A 
ATOM     79  C   UNL     1       0.287  11.474  -4.595  1.00  0.00     0.020 A 
ATOM     80  C   UNL     1      -0.535  12.377  -5.270  1.00  0.00     0.054 A 
BRANCH  80  81
ATOM     81  S   UNL     1      -1.598  13.521  -4.345  1.00  0.00     0.124 S 
ATOM     82  O   UNL     1      -0.943  14.803  -4.581  1.00  0.00    -0.237 OA
ATOM     83  O   UNL     1      -2.894  13.341  -4.994  1.00  0.00    -0.237 OA
ATOM     84  O   UNL     1      -1.522  13.024  -2.972  1.00  0.00    -0.744 OA
ENDBRANCH  80  81
ENDBRANCH  52  75
BRANCH  64  85
ATOM     85  C   UNL     1       6.441  11.991 -11.035  1.00  0.00    -0.014 A 
ATOM     86  C   UNL     1       7.222  12.837 -10.230  1.00  0.00     0.010 A 
ATOM     87  C   UNL     1       6.284  12.297 -12.401  1.00  0.00     0.010 A 
ATOM     88  C   UNL     1       7.819  13.977 -10.778  1.00  0.00     0.020 A 
ATOM     89  C   UNL     1       6.904  13.417 -12.958  1.00  0.00     0.020 A 
ATOM     90  C   UNL     1       7.662  14.256 -12.140  1.00  0.00     0.054 A 
BRANCH  90  91
ATOM     91  S   UNL     1       8.506  15.701 -12.838  1.00  0.00     0.124 S 
ATOM     92  O   UNL     1       7.740  16.806 -12.269  1.00  0.00    -0.237 OA
ATOM     93  O   UNL     1       9.867  15.552 -12.330  1.00  0.00    -0.237 OA
ATOM     94  O   UNL     1       8.364  15.524 -14.282  1.00  0.00    -0.744 OA
ENDBRANCH  90  91
ENDBRANCH  64  85
ENDBRANCH  38  39
ENDBRANCH  31  33
ENDBRANCH  30  31
ENDBRANCH  29  30
ENDBRANCH  28  29
ENDBRANCH   1  28
TORSDOF 22
