REMARK SMILES CCc1c(C(=O)NCC(=O)OCCOCCOC(=O)c2ccc(-c3c4nc(c(-c5ccc(S(=O)(=O)[O-])cc5)c5ccc([nH]5)c(-c5ccc(S(=O)(=O)[O-])cc5)c5nc(c(-c6ccc(S(=O)(=O)[O-])cc6)c6ccc3[nH]6)C=C5)C=C4)cc2)nnn1-c1ccc(Cl)cc1Cl
REMARK SMILES IDX 14 1 13 2 12 3 11 4 9 5 10 6 8 7 7 8 5 9 6 10 4 12 3 13
REMARK SMILES IDX 82 14 80 15 81 16 2 17 1 18 83 19 84 20 89 21 85 22 88 23
REMARK SMILES IDX 90 24 86 25 87 26 15 27 16 28 17 29 18 30 19 31 20 32 21 33
REMARK SMILES IDX 79 34 22 35 78 36 23 37 24 38 25 39 72 40 26 41 77 42 71 43
REMARK SMILES IDX 73 44 27 45 76 46 70 47 69 48 28 50 58 51 39 52 57 53 40 54
REMARK SMILES IDX 43 55 56 56 74 57 41 58 42 59 55 61 75 62 44 63 29 64 30 65
REMARK SMILES IDX 38 66 31 67 37 68 32 69 33 70 34 71 35 72 36 73 59 74 60 75
REMARK SMILES IDX 68 76 61 77 67 78 62 79 63 80 64 81 65 82 66 83 45 84 46 85
REMARK SMILES IDX 54 86 47 87 53 88 48 89 49 90 50 91 51 92 52 93
REMARK H PARENT 7 11 73 49 43 60
REMARK Flexibility Score: inf
ROOT
ATOM      1  O   UNL     1       1.405   4.072   2.769  1.00  0.00    -0.374 OA
ENDROOT
BRANCH   1   2
ATOM      2  C   UNL     1       0.517   3.059   3.229  1.00  0.00     0.202 C 
BRANCH   2   3
ATOM      3  C   UNL     1       0.193   1.841   2.360  1.00  0.00     0.261 C 
BRANCH   3   4
ATOM      4  O   UNL     1       1.321   1.044   1.965  1.00  0.00    -0.462 OA
BRANCH   4   5
ATOM      5  C   UNL     1       1.708   1.175   0.666  1.00  0.00     0.325 C 
ATOM      6  O   UNL     1       1.264   2.012  -0.114  1.00  0.00    -0.250 OA
BRANCH   5   7
ATOM      7  C   UNL     1       2.850   0.242   0.286  1.00  0.00     0.239 C 
BRANCH   7   8
ATOM      8  N   UNL     1       3.071  -0.875   1.167  1.00  0.00    -0.340 N 
ATOM      9  C   UNL     1       2.661  -2.176   1.218  1.00  0.00     0.274 C 
ATOM     10  O   UNL     1       3.161  -2.788   2.170  1.00  0.00    -0.267 OA
ATOM     11  H   UNL     1       3.664  -0.644   1.918  1.00  0.00     0.164 HD
BRANCH   9  12
ATOM     12  C   UNL     1       1.736  -2.874   0.305  1.00  0.00     0.174 A 
ATOM     13  C   UNL     1       0.885  -2.567  -0.767  1.00  0.00     0.077 A 
ATOM     14  N   UNL     1       0.304  -3.801  -1.092  1.00  0.00    -0.215 N 
ATOM     15  N   UNL     1       1.558  -4.219   0.598  1.00  0.00    -0.124 NA
ATOM     16  N   UNL     1       0.633  -4.729  -0.184  1.00  0.00    -0.061 NA
BRANCH  13  17
ATOM     17  C   UNL     1       0.451  -1.316  -1.458  1.00  0.00     0.055 C 
ATOM     18  C   UNL     1      -0.536  -0.503  -0.642  1.00  0.00     0.011 C 
ENDBRANCH  13  17
BRANCH  14  19
ATOM     19  C   UNL     1      -0.728  -4.079  -2.017  1.00  0.00     0.085 A 
ATOM     20  C   UNL     1      -1.926  -4.612  -1.512  1.00  0.00     0.031 A 
ATOM     21  C   UNL     1      -0.611  -3.782  -3.380  1.00  0.00     0.068 A 
ATOM     22  C   UNL     1      -3.039  -4.722  -2.344  1.00  0.00     0.023 A 
ATOM     23  C   UNL     1      -1.732  -3.885  -4.206  1.00  0.00     0.043 A 
ATOM     24  Cl  UNL     1       0.897  -3.383  -4.130  1.00  0.00    -0.082 Cl
ATOM     25  C   UNL     1      -2.945  -4.328  -3.678  1.00  0.00     0.042 A 
ATOM     26  Cl  UNL     1      -4.339  -4.391  -4.684  1.00  0.00    -0.084 Cl
ENDBRANCH  14  19
ENDBRANCH   9  12
ENDBRANCH   7   8
ENDBRANCH   5   7
ENDBRANCH   4   5
ENDBRANCH   3   4
ENDBRANCH   2   3
ENDBRANCH   1   2
BRANCH   1  27
ATOM     27  C   UNL     1       2.724   3.788   2.323  1.00  0.00     0.202 C 
BRANCH  27  28
ATOM     28  C   UNL     1       3.743   3.125   3.244  1.00  0.00     0.261 C 
BRANCH  28  29
ATOM     29  O   UNL     1       3.218   2.009   3.937  1.00  0.00    -0.460 OA
BRANCH  29  30
ATOM     30  C   UNL     1       2.762   2.328   5.168  1.00  0.00     0.338 C 
ATOM     31  O   UNL     1       2.601   3.461   5.618  1.00  0.00    -0.246 OA
BRANCH  30  32
ATOM     32  C   UNL     1       2.624   1.109   5.969  1.00  0.00     0.060 A 
ATOM     33  C   UNL     1       2.549   1.356   7.338  1.00  0.00     0.016 A 
ATOM     34  C   UNL     1       3.112  -0.097   5.443  1.00  0.00     0.016 A 
ATOM     35  C   UNL     1       3.333   0.583   8.150  1.00  0.00     0.010 A 
ATOM     36  C   UNL     1       3.907  -0.864   6.257  1.00  0.00     0.010 A 
ATOM     37  C   UNL     1       4.098  -0.433   7.566  1.00  0.00    -0.014 A 
BRANCH  37  38
ATOM     38  C   UNL     1       5.098  -1.036   8.410  1.00  0.00     0.031 A 
ATOM     39  C   UNL     1       4.531  -1.979   9.384  1.00  0.00     0.074 A 
ATOM     40  C   UNL     1       6.412  -0.795   8.284  1.00  0.00     0.049 A 
ATOM     41  N   UNL     1       4.418  -1.831  10.661  1.00  0.00    -0.248 NA
ATOM     42  C   UNL     1       3.833  -3.146   8.829  1.00  0.00     0.031 C 
ATOM     43  C   UNL     1       7.120  -0.157   7.172  1.00  0.00     0.029 A 
ATOM     44  N   UNL     1       7.415  -1.214   9.096  1.00  0.00    -0.354 N 
ATOM     45  C   UNL     1       3.803  -2.994  11.101  1.00  0.00     0.074 A 
ATOM     46  C   UNL     1       3.282  -3.652   9.929  1.00  0.00     0.031 C 
ATOM     47  C   UNL     1       8.433  -0.473   7.261  1.00  0.00     0.029 A 
ATOM     48  C   UNL     1       8.658  -1.227   8.487  1.00  0.00     0.049 A 
ATOM     49  H   UNL     1       7.272  -1.485  10.032  1.00  0.00     0.167 HD
ATOM     50  C   UNL     1       3.991  -3.477  12.358  1.00  0.00     0.031 A 
ATOM     51  C   UNL     1       9.733  -1.936   8.912  1.00  0.00     0.031 A 
ATOM     52  C   UNL     1       4.550  -2.490  13.245  1.00  0.00     0.049 A 
ATOM     53  C   UNL     1       9.493  -2.311  10.334  1.00  0.00     0.074 A 
ATOM     54  C   UNL     1       4.163  -1.231  13.662  1.00  0.00     0.029 A 
ATOM     55  N   UNL     1       5.887  -2.597  13.557  1.00  0.00    -0.354 N 
ATOM     56  N   UNL     1       9.467  -1.458  11.320  1.00  0.00    -0.248 NA
ATOM     57  C   UNL     1       8.853  -3.591  10.608  1.00  0.00     0.031 C 
ATOM     58  C   UNL     1       5.373  -0.486  13.774  1.00  0.00     0.029 A 
ATOM     59  C   UNL     1       6.429  -1.341  13.454  1.00  0.00     0.049 A 
ATOM     60  H   UNL     1       6.364  -3.421  13.807  1.00  0.00     0.167 HD
ATOM     61  C   UNL     1       8.476  -1.921  12.176  1.00  0.00     0.074 A 
ATOM     62  C   UNL     1       8.202  -3.286  11.734  1.00  0.00     0.031 C 
ATOM     63  C   UNL     1       7.772  -1.071  12.984  1.00  0.00     0.031 A 
BRANCH  50  64
ATOM     64  C   UNL     1       4.045  -4.955  12.646  1.00  0.00    -0.014 A 
ATOM     65  C   UNL     1       4.165  -5.384  13.980  1.00  0.00     0.010 A 
ATOM     66  C   UNL     1       4.258  -5.922  11.639  1.00  0.00     0.010 A 
ATOM     67  C   UNL     1       4.558  -6.694  14.283  1.00  0.00     0.020 A 
ATOM     68  C   UNL     1       4.595  -7.240  11.929  1.00  0.00     0.020 A 
ATOM     69  C   UNL     1       4.788  -7.606  13.251  1.00  0.00     0.054 A 
BRANCH  69  70
ATOM     70  S   UNL     1       5.433  -9.248  13.638  1.00  0.00     0.124 S 
ATOM     71  O   UNL     1       6.790  -8.937  14.074  1.00  0.00    -0.237 OA
ATOM     72  O   UNL     1       4.518  -9.703  14.681  1.00  0.00    -0.237 OA
ATOM     73  O   UNL     1       5.328  -9.964  12.368  1.00  0.00    -0.744 OA
ENDBRANCH  69  70
ENDBRANCH  50  64
BRANCH  51  74
ATOM     74  C   UNL     1      10.740  -2.622   8.063  1.00  0.00    -0.014 A 
ATOM     75  C   UNL     1      11.887  -3.197   8.638  1.00  0.00     0.010 A 
ATOM     76  C   UNL     1      10.447  -2.949   6.722  1.00  0.00     0.010 A 
ATOM     77  C   UNL     1      12.672  -4.115   7.921  1.00  0.00     0.020 A 
ATOM     78  C   UNL     1      11.233  -3.848   5.995  1.00  0.00     0.020 A 
ATOM     79  C   UNL     1      12.327  -4.449   6.608  1.00  0.00     0.054 A 
BRANCH  79  80
ATOM     80  S   UNL     1      13.234  -5.768   5.752  1.00  0.00     0.124 S 
ATOM     81  O   UNL     1      14.529  -5.143   5.503  1.00  0.00    -0.237 OA
ATOM     82  O   UNL     1      13.230  -6.846   6.736  1.00  0.00    -0.237 OA
ATOM     83  O   UNL     1      12.428  -6.021   4.558  1.00  0.00    -0.744 OA
ENDBRANCH  79  80
ENDBRANCH  51  74
BRANCH  63  84
ATOM     84  C   UNL     1       8.285   0.337  13.182  1.00  0.00    -0.014 A 
ATOM     85  C   UNL     1       8.504   1.241  12.126  1.00  0.00     0.010 A 
ATOM     86  C   UNL     1       8.410   0.809  14.502  1.00  0.00     0.010 A 
ATOM     87  C   UNL     1       8.874   2.569  12.382  1.00  0.00     0.020 A 
ATOM     88  C   UNL     1       8.759   2.136  14.765  1.00  0.00     0.020 A 
ATOM     89  C   UNL     1       9.001   3.008  13.703  1.00  0.00     0.054 A 
BRANCH  89  90
ATOM     90  S   UNL     1       9.437   4.739  14.027  1.00  0.00     0.124 S 
ATOM     91  O   UNL     1      10.827   4.804  13.584  1.00  0.00    -0.237 OA
ATOM     92  O   UNL     1       8.479   5.475  13.204  1.00  0.00    -0.237 OA
ATOM     93  O   UNL     1       9.240   4.885  15.469  1.00  0.00    -0.744 OA
ENDBRANCH  89  90
ENDBRANCH  63  84
ENDBRANCH  37  38
ENDBRANCH  30  32
ENDBRANCH  29  30
ENDBRANCH  28  29
ENDBRANCH  27  28
ENDBRANCH   1  27
TORSDOF 21
