REMARK SMILES C[C@]12CCC[C@](C)(C(=O)OCCOCCOC(=O)c3ccc(-c4c5nc(c(-c6ccc(S(=O)(=O)[O-])cc6)c6ccc([nH]6)c(-c6ccc(S(=O)(=O)[O-])cc6)c6nc(c(-c7ccc(S(=O)(=O)[O-])cc7)c7ccc4[nH]7)C=C6)C=C5)cc3)[C@@H]1CC[C@]13C=C(CO)[C@H](CC[C@H]12)C3
REMARK SMILES IDX 14 1 13 2 12 3 11 4 10 5 8 6 9 7 6 8 1 9 2 10 3 11 79 12
REMARK SMILES IDX 90 13 4 14 80 15 82 16 89 17 5 18 7 19 81 20 83 21 91 22
REMARK SMILES IDX 88 23 84 24 87 25 85 26 86 27 15 29 16 30 17 31 18 32 19 33
REMARK SMILES IDX 20 34 78 35 21 36 77 37 22 38 23 39 24 40 71 41 25 42 76 43
REMARK SMILES IDX 70 44 72 45 26 46 75 47 69 48 68 49 27 51 57 52 38 53 56 54
REMARK SMILES IDX 39 55 42 56 55 57 73 58 40 59 41 60 54 62 74 63 43 64 28 65
REMARK SMILES IDX 29 66 37 67 30 68 36 69 31 70 32 71 33 72 34 73 35 74 58 75
REMARK SMILES IDX 59 76 67 77 60 78 66 79 61 80 62 81 63 82 64 83 65 84 44 85
REMARK SMILES IDX 45 86 53 87 46 88 52 89 47 90 48 91 49 92 50 93 51 94
REMARK H PARENT 86 28 72 50 42 61
REMARK Flexibility Score: inf
ROOT
ATOM      1  C   UNL     1       2.829   0.604  -3.059  1.00  0.00     0.202 C 
ENDROOT
BRANCH   1   2
ATOM      2  O   UNL     1       3.966   0.526  -2.203  1.00  0.00    -0.374 OA
BRANCH   2   3
ATOM      3  C   UNL     1       4.660  -0.715  -2.091  1.00  0.00     0.202 C 
BRANCH   3   4
ATOM      4  C   UNL     1       3.885  -1.986  -1.674  1.00  0.00     0.261 C 
BRANCH   4   5
ATOM      5  O   UNL     1       2.484  -1.881  -2.008  1.00  0.00    -0.463 OA
BRANCH   5   6
ATOM      6  C   UNL     1       1.617  -2.540  -1.198  1.00  0.00     0.312 C 
ATOM      7  O   UNL     1       1.938  -3.582  -0.639  1.00  0.00    -0.252 OA
BRANCH   6   8
ATOM      8  C   UNL     1       0.228  -1.773  -0.999  1.00  0.00     0.069 C 
ATOM      9  C   UNL     1       2.307  -1.011   0.943  1.00  0.00     0.012 C 
ATOM     10  C   UNL     1       0.836  -0.644   1.285  1.00  0.00    -0.025 C 
ATOM     11  C   UNL     1       0.110  -1.786   2.027  1.00  0.00     0.007 C 
ATOM     12  C   UNL     1       0.099  -0.416  -0.059  1.00  0.00     0.012 C 
ATOM     13  C   UNL     1       0.990   0.579   2.222  1.00  0.00     0.005 C 
ATOM     14  C   UNL     1      -0.232  -3.039   1.222  1.00  0.00     0.002 C 
ATOM     15  C   UNL     1       0.334   1.011  -0.636  1.00  0.00     0.006 C 
ATOM     16  C   UNL     1       1.278   1.983   1.560  1.00  0.00    -0.008 C 
ATOM     17  C   UNL     1       0.372   0.774   3.600  1.00  0.00     0.006 C 
ATOM     18  C   UNL     1      -0.659  -2.809  -0.235  1.00  0.00     0.019 C 
ATOM     19  C   UNL     1      -0.361  -1.588  -2.411  1.00  0.00     0.024 C 
ATOM     20  C   UNL     1       0.333   2.193   0.383  1.00  0.00     0.012 C 
ATOM     21  C   UNL     1       2.753   2.015   1.275  1.00  0.00    -0.018 C 
ATOM     22  C   UNL     1       1.349   3.102   2.643  1.00  0.00     0.019 C 
ATOM     23  C   UNL     1       1.553   1.416   4.432  1.00  0.00     0.008 C 
ATOM     24  C   UNL     1       3.387   2.021   2.471  1.00  0.00    -0.045 C 
ATOM     25  C   UNL     1       2.397   2.459   3.589  1.00  0.00     0.018 C 
BRANCH  24  26
ATOM     26  C   UNL     1       4.795   1.538   2.596  1.00  0.00     0.187 C 
BRANCH  26  27
ATOM     27  O   UNL     1       4.812   0.168   2.974  1.00  0.00    -0.392 OA
ATOM     28  H   UNL     1       4.367   0.064   3.830  1.00  0.00     0.211 HD
ENDBRANCH  26  27
ENDBRANCH  24  26
ENDBRANCH   6   8
ENDBRANCH   5   6
ENDBRANCH   4   5
ENDBRANCH   3   4
ENDBRANCH   2   3
ENDBRANCH   1   2
BRANCH   1  29
ATOM     29  C   UNL     1       2.901   0.171  -4.523  1.00  0.00     0.261 C 
BRANCH  29  30
ATOM     30  O   UNL     1       3.292  -1.200  -4.684  1.00  0.00    -0.460 OA
BRANCH  30  31
ATOM     31  C   UNL     1       4.474  -1.381  -5.316  1.00  0.00     0.338 C 
ATOM     32  O   UNL     1       5.167  -0.519  -5.843  1.00  0.00    -0.246 OA
BRANCH  31  33
ATOM     33  C   UNL     1       4.958  -2.747  -5.061  1.00  0.00     0.060 A 
ATOM     34  C   UNL     1       6.217  -2.880  -4.457  1.00  0.00     0.016 A 
ATOM     35  C   UNL     1       4.215  -3.871  -5.421  1.00  0.00     0.016 A 
ATOM     36  C   UNL     1       6.754  -4.140  -4.235  1.00  0.00     0.010 A 
ATOM     37  C   UNL     1       4.773  -5.137  -5.234  1.00  0.00     0.010 A 
ATOM     38  C   UNL     1       6.056  -5.270  -4.671  1.00  0.00    -0.014 A 
BRANCH  38  39
ATOM     39  C   UNL     1       6.763  -6.566  -4.721  1.00  0.00     0.031 A 
ATOM     40  C   UNL     1       7.415  -6.967  -6.013  1.00  0.00     0.074 A 
ATOM     41  C   UNL     1       6.847  -7.348  -3.633  1.00  0.00     0.049 A 
ATOM     42  N   UNL     1       8.050  -8.068  -6.313  1.00  0.00    -0.248 NA
ATOM     43  C   UNL     1       7.336  -5.993  -7.116  1.00  0.00     0.031 C 
ATOM     44  C   UNL     1       6.299  -7.024  -2.317  1.00  0.00     0.029 A 
ATOM     45  N   UNL     1       7.415  -8.584  -3.471  1.00  0.00    -0.354 N 
ATOM     46  C   UNL     1       8.427  -7.931  -7.644  1.00  0.00     0.074 A 
ATOM     47  C   UNL     1       7.938  -6.648  -8.097  1.00  0.00     0.031 C 
ATOM     48  C   UNL     1       6.536  -8.053  -1.485  1.00  0.00     0.029 A 
ATOM     49  C   UNL     1       7.213  -9.118  -2.222  1.00  0.00     0.049 A 
ATOM     50  H   UNL     1       7.919  -9.045  -4.181  1.00  0.00     0.167 HD
ATOM     51  C   UNL     1       9.113  -8.803  -8.419  1.00  0.00     0.031 A 
ATOM     52  C   UNL     1       7.506 -10.344  -1.744  1.00  0.00     0.031 A 
ATOM     53  C   UNL     1       9.570 -10.086  -7.957  1.00  0.00     0.049 A 
ATOM     54  C   UNL     1       8.198 -11.332  -2.644  1.00  0.00     0.074 A 
ATOM     55  C   UNL     1      10.302 -11.037  -8.644  1.00  0.00     0.029 A 
ATOM     56  N   UNL     1       9.317 -10.608  -6.696  1.00  0.00    -0.354 N 
ATOM     57  N   UNL     1       8.596 -11.176  -3.886  1.00  0.00    -0.248 NA
ATOM     58  C   UNL     1       8.484 -12.658  -2.083  1.00  0.00     0.031 C 
ATOM     59  C   UNL     1      10.423 -12.165  -7.826  1.00  0.00     0.029 A 
ATOM     60  C   UNL     1       9.832 -11.889  -6.601  1.00  0.00     0.049 A 
ATOM     61  H   UNL     1       8.842 -10.136  -5.974  1.00  0.00     0.167 HD
ATOM     62  C   UNL     1       9.185 -12.382  -4.252  1.00  0.00     0.074 A 
ATOM     63  C   UNL     1       9.113 -13.248  -3.092  1.00  0.00     0.031 C 
ATOM     64  C   UNL     1       9.733 -12.741  -5.441  1.00  0.00     0.031 A 
BRANCH  51  65
ATOM     65  C   UNL     1       9.338  -8.424  -9.859  1.00  0.00    -0.014 A 
ATOM     66  C   UNL     1      10.197  -7.371 -10.222  1.00  0.00     0.010 A 
ATOM     67  C   UNL     1       8.671  -9.140 -10.870  1.00  0.00     0.010 A 
ATOM     68  C   UNL     1      10.344  -7.008 -11.565  1.00  0.00     0.020 A 
ATOM     69  C   UNL     1       8.839  -8.801 -12.215  1.00  0.00     0.020 A 
ATOM     70  C   UNL     1       9.658  -7.723 -12.552  1.00  0.00     0.054 A 
BRANCH  70  71
ATOM     71  S   UNL     1       9.861  -7.228 -14.285  1.00  0.00     0.124 S 
ATOM     72  O   UNL     1       9.128  -5.965 -14.327  1.00  0.00    -0.237 OA
ATOM     73  O   UNL     1      11.312  -7.116 -14.417  1.00  0.00    -0.237 OA
ATOM     74  O   UNL     1       9.253  -8.325 -15.034  1.00  0.00    -0.744 OA
ENDBRANCH  70  71
ENDBRANCH  51  65
BRANCH  52  75
ATOM     75  C   UNL     1       7.093 -10.705  -0.360  1.00  0.00    -0.014 A 
ATOM     76  C   UNL     1       8.043 -10.872   0.659  1.00  0.00     0.010 A 
ATOM     77  C   UNL     1       5.725 -10.832  -0.047  1.00  0.00     0.010 A 
ATOM     78  C   UNL     1       7.635 -11.152   1.968  1.00  0.00     0.020 A 
ATOM     79  C   UNL     1       5.312 -11.084   1.264  1.00  0.00     0.020 A 
ATOM     80  C   UNL     1       6.271 -11.245   2.264  1.00  0.00     0.054 A 
BRANCH  80  81
ATOM     81  S   UNL     1       5.766 -11.519   3.985  1.00  0.00     0.124 S 
ATOM     82  O   UNL     1       6.168 -12.905   4.204  1.00  0.00    -0.237 OA
ATOM     83  O   UNL     1       6.545 -10.513   4.704  1.00  0.00    -0.237 OA
ATOM     84  O   UNL     1       4.324 -11.281   3.963  1.00  0.00    -0.744 OA
ENDBRANCH  80  81
ENDBRANCH  52  75
BRANCH  64  85
ATOM     85  C   UNL     1      10.300 -14.132  -5.554  1.00  0.00    -0.014 A 
ATOM     86  C   UNL     1       9.457 -15.255  -5.622  1.00  0.00     0.010 A 
ATOM     87  C   UNL     1      11.690 -14.310  -5.683  1.00  0.00     0.010 A 
ATOM     88  C   UNL     1       9.995 -16.532  -5.800  1.00  0.00     0.020 A 
ATOM     89  C   UNL     1      12.229 -15.582  -5.892  1.00  0.00     0.020 A 
ATOM     90  C   UNL     1      11.377 -16.687  -5.941  1.00  0.00     0.054 A 
BRANCH  90  91
ATOM     91  S   UNL     1      12.041 -18.348  -6.241  1.00  0.00     0.124 S 
ATOM     92  O   UNL     1      11.843 -18.994  -4.947  1.00  0.00    -0.237 OA
ATOM     93  O   UNL     1      11.194 -18.838  -7.326  1.00  0.00    -0.237 OA
ATOM     94  O   UNL     1      13.435 -18.104  -6.608  1.00  0.00    -0.744 OA
ENDBRANCH  90  91
ENDBRANCH  64  85
ENDBRANCH  38  39
ENDBRANCH  31  33
ENDBRANCH  30  31
ENDBRANCH  29  30
ENDBRANCH   1  29
TORSDOF 19
