REMARK SMILES O=C(OCCOCCOC(=O)c1cc(S(=O)(=O)Nc2cc(F)ccc2F)cc2c1OCCO2)c1ccc(-c2c3nc(c(-c4ccc(S(=O)(=O)[O-])cc4)c4ccc([nH]4)c(-c4ccc(S(=O)(=O)[O-])cc4)c4nc(c(-c5ccc(S(=O)(=O)[O-])cc5)c5ccc2[nH]5)C=C4)C=C3)cc1
REMARK SMILES IDX 6 1 5 2 4 3 3 4 2 5 1 6 34 7 35 8 93 9 36 10 92 11 37 12
REMARK SMILES IDX 38 13 39 14 86 15 40 16 91 17 85 18 87 19 41 20 90 21 84 22
REMARK SMILES IDX 83 23 42 25 72 26 53 27 71 28 54 29 57 30 70 31 88 32 55 33
REMARK SMILES IDX 56 34 69 36 89 37 58 38 43 39 44 40 52 41 45 42 51 43 46 44
REMARK SMILES IDX 47 45 48 46 49 47 50 48 73 49 74 50 82 51 75 52 81 53 76 54
REMARK SMILES IDX 77 55 78 56 79 57 80 58 59 59 60 60 68 61 61 62 67 63 62 64
REMARK SMILES IDX 63 65 64 66 65 67 66 68 7 69 8 70 9 71 10 72 11 73 12 74
REMARK SMILES IDX 13 75 29 76 14 77 28 78 30 79 27 80 33 81 31 82 32 83 15 84
REMARK SMILES IDX 16 85 17 86 18 87 19 89 20 90 25 91 21 92 24 93 26 94 22 95
REMARK SMILES IDX 23 96
REMARK H PARENT 87 24 57 35 18 88
REMARK Flexibility Score: inf
ROOT
ATOM      1  O   UNL     1       3.561  -1.815   0.409  1.00  0.00    -0.374 OA
ENDROOT
BRANCH   1   2
ATOM      2  C   UNL     1       3.467  -1.078   1.625  1.00  0.00     0.202 C 
BRANCH   2   3
ATOM      3  C   UNL     1       3.020   0.362   1.395  1.00  0.00     0.261 C 
BRANCH   3   4
ATOM      4  O   UNL     1       1.755   0.381   0.722  1.00  0.00    -0.460 OA
BRANCH   4   5
ATOM      5  C   UNL     1       1.507   0.804  -0.539  1.00  0.00     0.338 C 
ATOM      6  O   UNL     1       0.338   1.061  -0.828  1.00  0.00    -0.246 OA
BRANCH   5   7
ATOM      7  C   UNL     1       2.536   0.916  -1.632  1.00  0.00     0.060 A 
ATOM      8  C   UNL     1       3.810   0.340  -1.640  1.00  0.00     0.016 A 
ATOM      9  C   UNL     1       2.119   1.563  -2.809  1.00  0.00     0.016 A 
ATOM     10  C   UNL     1       4.618   0.351  -2.778  1.00  0.00     0.010 A 
ATOM     11  C   UNL     1       2.919   1.576  -3.958  1.00  0.00     0.010 A 
ATOM     12  C   UNL     1       4.168   0.950  -3.950  1.00  0.00    -0.014 A 
BRANCH  12  13
ATOM     13  C   UNL     1       5.025   0.947  -5.153  1.00  0.00     0.031 A 
ATOM     14  C   UNL     1       5.759   2.197  -5.524  1.00  0.00     0.074 A 
ATOM     15  C   UNL     1       5.151  -0.177  -5.883  1.00  0.00     0.049 A 
ATOM     16  N   UNL     1       6.491   2.441  -6.576  1.00  0.00    -0.248 NA
ATOM     17  C   UNL     1       5.659   3.320  -4.577  1.00  0.00     0.031 C 
ATOM     18  C   UNL     1       4.534  -1.467  -5.561  1.00  0.00     0.029 A 
ATOM     19  N   UNL     1       5.839  -0.418  -7.044  1.00  0.00    -0.354 N 
ATOM     20  C   UNL     1       6.917   3.756  -6.438  1.00  0.00     0.074 A 
ATOM     21  C   UNL     1       6.360   4.256  -5.199  1.00  0.00     0.031 C 
ATOM     22  C   UNL     1       4.873  -2.362  -6.504  1.00  0.00     0.029 A 
ATOM     23  C   UNL     1       5.684  -1.699  -7.521  1.00  0.00     0.049 A 
ATOM     24  H   UNL     1       6.392   0.262  -7.493  1.00  0.00     0.167 HD
ATOM     25  C   UNL     1       7.690   4.481  -7.279  1.00  0.00     0.031 A 
ATOM     26  C   UNL     1       6.120  -2.259  -8.666  1.00  0.00     0.031 A 
ATOM     27  C   UNL     1       8.206   3.974  -8.521  1.00  0.00     0.049 A 
ATOM     28  C   UNL     1       6.921  -1.410  -9.619  1.00  0.00     0.074 A 
ATOM     29  C   UNL     1       8.968   4.629  -9.471  1.00  0.00     0.029 A 
ATOM     30  N   UNL     1       8.003   2.682  -8.989  1.00  0.00    -0.354 N 
ATOM     31  N   UNL     1       7.301  -0.160  -9.488  1.00  0.00    -0.248 NA
ATOM     32  C   UNL     1       7.347  -2.041 -10.875  1.00  0.00     0.031 C 
ATOM     33  C   UNL     1       9.185   3.746 -10.535  1.00  0.00     0.029 A 
ATOM     34  C   UNL     1       8.608   2.524 -10.222  1.00  0.00     0.049 A 
ATOM     35  H   UNL     1       7.501   1.982  -8.512  1.00  0.00     0.167 HD
ATOM     36  C   UNL     1       8.021   0.141 -10.637  1.00  0.00     0.074 A 
ATOM     37  C   UNL     1       8.042  -1.064 -11.443  1.00  0.00     0.031 C 
ATOM     38  C   UNL     1       8.609   1.309 -10.999  1.00  0.00     0.031 A 
BRANCH  25  39
ATOM     39  C   UNL     1       7.947   5.914  -6.901  1.00  0.00    -0.014 A 
ATOM     40  C   UNL     1       8.797   6.249  -5.832  1.00  0.00     0.010 A 
ATOM     41  C   UNL     1       7.296   6.941  -7.608  1.00  0.00     0.010 A 
ATOM     42  C   UNL     1       8.946   7.582  -5.440  1.00  0.00     0.020 A 
ATOM     43  C   UNL     1       7.462   8.278  -7.234  1.00  0.00     0.020 A 
ATOM     44  C   UNL     1       8.267   8.587  -6.136  1.00  0.00     0.054 A 
BRANCH  44  45
ATOM     45  S   UNL     1       8.452  10.307  -5.590  1.00  0.00     0.124 S 
ATOM     46  O   UNL     1       7.640  10.324  -4.375  1.00  0.00    -0.237 OA
ATOM     47  O   UNL     1       9.893  10.424  -5.382  1.00  0.00    -0.237 OA
ATOM     48  O   UNL     1       7.921  11.085  -6.706  1.00  0.00    -0.744 OA
ENDBRANCH  44  45
ENDBRANCH  25  39
BRANCH  26  49
ATOM     49  C   UNL     1       5.772  -3.671  -8.992  1.00  0.00    -0.014 A 
ATOM     50  C   UNL     1       6.760  -4.670  -9.026  1.00  0.00     0.010 A 
ATOM     51  C   UNL     1       4.437  -4.027  -9.262  1.00  0.00     0.010 A 
ATOM     52  C   UNL     1       6.422  -5.993  -9.335  1.00  0.00     0.020 A 
ATOM     53  C   UNL     1       4.090  -5.352  -9.544  1.00  0.00     0.020 A 
ATOM     54  C   UNL     1       5.088  -6.326  -9.590  1.00  0.00     0.054 A 
BRANCH  54  55
ATOM     55  S   UNL     1       4.663  -8.057  -9.935  1.00  0.00     0.124 S 
ATOM     56  O   UNL     1       5.154  -8.224 -11.299  1.00  0.00    -0.237 OA
ATOM     57  O   UNL     1       5.404  -8.777  -8.902  1.00  0.00    -0.237 OA
ATOM     58  O   UNL     1       3.210  -8.088  -9.783  1.00  0.00    -0.744 OA
ENDBRANCH  54  55
ENDBRANCH  26  49
BRANCH  38  59
ATOM     59  C   UNL     1       9.347   1.331 -12.310  1.00  0.00    -0.014 A 
ATOM     60  C   UNL     1       8.655   1.361 -13.533  1.00  0.00     0.010 A 
ATOM     61  C   UNL     1      10.752   1.398 -12.310  1.00  0.00     0.010 A 
ATOM     62  C   UNL     1       9.359   1.436 -14.737  1.00  0.00     0.020 A 
ATOM     63  C   UNL     1      11.457   1.499 -13.511  1.00  0.00     0.020 A 
ATOM     64  C   UNL     1      10.756   1.507 -14.718  1.00  0.00     0.054 A 
BRANCH  64  65
ATOM     65  S   UNL     1      11.645   1.668 -16.291  1.00  0.00     0.124 S 
ATOM     66  O   UNL     1      11.557   0.313 -16.829  1.00  0.00    -0.237 OA
ATOM     67  O   UNL     1      10.863   2.678 -17.000  1.00  0.00    -0.237 OA
ATOM     68  O   UNL     1      12.983   2.095 -15.889  1.00  0.00    -0.744 OA
ENDBRANCH  64  65
ENDBRANCH  38  59
ENDBRANCH  12  13
ENDBRANCH   5   7
ENDBRANCH   4   5
ENDBRANCH   3   4
ENDBRANCH   2   3
ENDBRANCH   1   2
BRANCH   1  69
ATOM     69  C   UNL     1       2.423  -2.623   0.089  1.00  0.00     0.202 C 
BRANCH  69  70
ATOM     70  C   UNL     1       2.880  -4.078  -0.004  1.00  0.00     0.261 C 
BRANCH  70  71
ATOM     71  O   UNL     1       3.484  -4.429   1.251  1.00  0.00    -0.460 OA
BRANCH  71  72
ATOM     72  C   UNL     1       4.830  -4.256   1.345  1.00  0.00     0.342 C 
ATOM     73  O   UNL     1       5.618  -4.089   0.436  1.00  0.00    -0.246 OA
BRANCH  72  74
ATOM     74  C   UNL     1       5.188  -4.042   2.772  1.00  0.00     0.107 A 
ATOM     75  C   UNL     1       6.157  -3.054   3.050  1.00  0.00     0.042 A 
ATOM     76  C   UNL     1       4.512  -4.681   3.820  1.00  0.00     0.175 A 
ATOM     77  C   UNL     1       6.396  -2.675   4.372  1.00  0.00     0.092 A 
ATOM     78  C   UNL     1       4.816  -4.342   5.143  1.00  0.00     0.163 A 
ATOM     79  O   UNL     1       3.564  -5.631   3.527  1.00  0.00    -0.485 OA
ATOM     80  C   UNL     1       5.740  -3.337   5.418  1.00  0.00     0.072 A 
ATOM     81  O   UNL     1       4.210  -4.917   6.232  1.00  0.00    -0.486 OA
ATOM     82  C   UNL     1       2.640  -5.790   4.604  1.00  0.00     0.271 C 
ATOM     83  C   UNL     1       3.418  -6.058   5.876  1.00  0.00     0.271 C 
BRANCH  77  84
ATOM     84  S   UNL     1       7.445  -1.318   4.848  1.00  0.00     0.262 S 
ATOM     85  O   UNL     1       6.560  -0.212   5.144  1.00  0.00    -0.201 OA
ATOM     86  O   UNL     1       8.338  -1.849   5.857  1.00  0.00    -0.201 OA
BRANCH  84  87
ATOM     87  N   UNL     1       8.424  -0.932   3.565  1.00  0.00    -0.277 N 
ATOM     88  H   UNL     1       9.376  -1.165   3.659  1.00  0.00     0.180 HD
BRANCH  87  89
ATOM     89  C   UNL     1       8.045  -0.305   2.344  1.00  0.00     0.087 A 
ATOM     90  C   UNL     1       7.024   0.634   2.226  1.00  0.00     0.069 A 
ATOM     91  C   UNL     1       8.818  -0.607   1.213  1.00  0.00     0.147 A 
ATOM     92  C   UNL     1       6.769   1.210   0.980  1.00  0.00     0.125 A 
ATOM     93  C   UNL     1       8.549  -0.045  -0.031  1.00  0.00     0.044 A 
ATOM     94  F   UNL     1       9.843  -1.466   1.332  1.00  0.00    -0.205 F 
ATOM     95  F   UNL     1       5.788   2.115   0.869  1.00  0.00    -0.207 F 
ATOM     96  C   UNL     1       7.507   0.869  -0.149  1.00  0.00     0.042 A 
ENDBRANCH  87  89
ENDBRANCH  84  87
ENDBRANCH  77  84
ENDBRANCH  72  74
ENDBRANCH  71  72
ENDBRANCH  70  71
ENDBRANCH  69  70
ENDBRANCH   1  69
TORSDOF 20
