REMARK SMILES Cc1ccccc1[C@@H]1[NH2+][C@@H](C(=O)OCCOCCOC(=O)c2ccc(-c3c4nc(c(-c5ccc(S(=O)(=O)[O-])cc5)c5ccc([nH]5)c(-c5ccc(S(=O)(=O)[O-])cc5)c5nc(c(-c6ccc(S(=O)(=O)[O-])cc6)c6ccc3[nH]6)C=C5)C=C4)cc2)CC2=c3ccccc3=N[C@H]21
REMARK SMILES IDX 17 1 16 2 15 3 14 4 13 5 11 6 12 7 10 8 8 9 9 10 91 11 83 14
REMARK SMILES IDX 90 15 82 16 84 17 89 18 85 19 88 20 86 21 87 22 7 23 1 24
REMARK SMILES IDX 2 25 3 26 4 27 6 28 5 29 18 30 19 31 20 32 21 33 22 34 23 35
REMARK SMILES IDX 81 36 24 37 80 38 25 39 26 40 27 41 74 42 28 43 79 44 73 45
REMARK SMILES IDX 75 46 29 47 78 48 72 49 71 50 30 52 60 53 41 54 59 55 42 56
REMARK SMILES IDX 45 57 58 58 76 59 43 60 44 61 57 63 77 64 46 65 31 66 32 67
REMARK SMILES IDX 40 68 33 69 39 70 34 71 35 72 36 73 37 74 38 75 61 76 62 77
REMARK SMILES IDX 70 78 63 79 69 80 64 81 65 82 66 83 67 84 68 85 47 86 48 87
REMARK SMILES IDX 56 88 49 89 55 90 50 91 51 92 52 93 53 94 54 95
REMARK H PARENT 9 12 9 13 75 51 45 62
REMARK Flexibility Score: inf
ROOT
ATOM      1  C   UNL     1       0.119   5.269  -3.347  1.00  0.00     0.202 C 
ENDROOT
BRANCH   1   2
ATOM      2  O   UNL     1      -0.330   4.325  -4.312  1.00  0.00    -0.374 OA
BRANCH   2   3
ATOM      3  C   UNL     1      -1.724   4.153  -4.479  1.00  0.00     0.202 C 
BRANCH   3   4
ATOM      4  C   UNL     1      -2.610   3.890  -3.260  1.00  0.00     0.261 C 
BRANCH   4   5
ATOM      5  O   UNL     1      -1.958   3.989  -2.011  1.00  0.00    -0.459 OA
BRANCH   5   6
ATOM      6  C   UNL     1      -1.801   2.824  -1.325  1.00  0.00     0.365 C 
ATOM      7  O   UNL     1      -2.366   1.776  -1.533  1.00  0.00    -0.245 OA
BRANCH   6   8
ATOM      8  C   UNL     1      -0.700   3.076  -0.302  1.00  0.00     0.298 C 
ATOM      9  C   UNL     1       0.989   1.994   1.085  1.00  0.00     0.243 C 
ATOM     10  N   UNL     1      -0.112   1.790   0.120  1.00  0.00    -0.326 N 
ATOM     11  C   UNL     1       0.734   3.068   2.205  1.00  0.00     0.196 C 
ATOM     12  H   UNL     1      -0.837   1.221   0.558  1.00  0.00     0.347 HD
ATOM     13  H   UNL     1       0.265   1.323  -0.704  1.00  0.00     0.347 HD
ATOM     14  C   UNL     1      -0.704   3.507   2.131  1.00  0.00    -0.024 C 
ATOM     15  N   UNL     1       0.862   2.416   3.546  1.00  0.00    -0.270 NA
ATOM     16  C   UNL     1      -1.202   4.011   0.820  1.00  0.00     0.111 C 
ATOM     17  C   UNL     1      -1.391   3.092   3.187  1.00  0.00     0.002 A 
ATOM     18  C   UNL     1      -0.364   2.395   3.974  1.00  0.00     0.066 A 
ATOM     19  C   UNL     1      -2.773   3.043   3.528  1.00  0.00     0.010 A 
ATOM     20  C   UNL     1      -0.835   1.656   5.161  1.00  0.00     0.028 A 
ATOM     21  C   UNL     1      -3.137   2.316   4.597  1.00  0.00     0.001 A 
ATOM     22  C   UNL     1      -2.154   1.613   5.409  1.00  0.00     0.002 A 
BRANCH   9  23
ATOM     23  C   UNL     1       2.357   1.998   0.400  1.00  0.00     0.015 A 
ATOM     24  C   UNL     1       2.697   4.547   0.046  1.00  0.00     0.045 C 
ATOM     25  C   UNL     1       3.151   3.113   0.061  1.00  0.00    -0.042 A 
ATOM     26  C   UNL     1       4.501   2.898  -0.289  1.00  0.00     0.004 A 
ATOM     27  C   UNL     1       5.030   1.615  -0.418  1.00  0.00     0.000 A 
ATOM     28  C   UNL     1       2.882   0.710   0.133  1.00  0.00     0.010 A 
ATOM     29  C   UNL     1       4.202   0.517  -0.261  1.00  0.00     0.001 A 
ENDBRANCH   9  23
ENDBRANCH   6   8
ENDBRANCH   5   6
ENDBRANCH   4   5
ENDBRANCH   3   4
ENDBRANCH   2   3
ENDBRANCH   1   2
BRANCH   1  30
ATOM     30  C   UNL     1      -0.463   6.699  -3.262  1.00  0.00     0.261 C 
BRANCH  30  31
ATOM     31  O   UNL     1      -1.895   6.801  -3.350  1.00  0.00    -0.460 OA
BRANCH  31  32
ATOM     32  C   UNL     1      -2.395   7.720  -4.241  1.00  0.00     0.338 C 
ATOM     33  O   UNL     1      -1.761   8.462  -4.966  1.00  0.00    -0.246 OA
BRANCH  32  34
ATOM     34  C   UNL     1      -3.814   7.348  -4.460  1.00  0.00     0.060 A 
ATOM     35  C   UNL     1      -4.774   7.522  -3.476  1.00  0.00     0.016 A 
ATOM     36  C   UNL     1      -4.073   6.473  -5.506  1.00  0.00     0.016 A 
ATOM     37  C   UNL     1      -5.798   6.591  -3.345  1.00  0.00     0.010 A 
ATOM     38  C   UNL     1      -5.061   5.511  -5.330  1.00  0.00     0.010 A 
ATOM     39  C   UNL     1      -5.723   5.430  -4.099  1.00  0.00    -0.014 A 
BRANCH  39  40
ATOM     40  C   UNL     1      -5.882   4.105  -3.420  1.00  0.00     0.031 A 
ATOM     41  C   UNL     1      -6.227   2.910  -4.198  1.00  0.00     0.074 A 
ATOM     42  C   UNL     1      -5.544   3.895  -2.121  1.00  0.00     0.049 A 
ATOM     43  N   UNL     1      -7.338   2.255  -4.119  1.00  0.00    -0.248 NA
ATOM     44  C   UNL     1      -5.311   2.424  -5.228  1.00  0.00     0.031 C 
ATOM     45  C   UNL     1      -5.480   2.635  -1.381  1.00  0.00     0.029 A 
ATOM     46  N   UNL     1      -5.217   4.837  -1.156  1.00  0.00    -0.354 N 
ATOM     47  C   UNL     1      -7.139   1.144  -4.917  1.00  0.00     0.074 A 
ATOM     48  C   UNL     1      -6.079   1.515  -5.823  1.00  0.00     0.031 C 
ATOM     49  C   UNL     1      -5.407   2.905  -0.062  1.00  0.00     0.029 A 
ATOM     50  C   UNL     1      -5.506   4.347   0.114  1.00  0.00     0.049 A 
ATOM     51  H   UNL     1      -4.835   5.725  -1.343  1.00  0.00     0.167 HD
ATOM     52  C   UNL     1      -7.458  -0.120  -4.502  1.00  0.00     0.031 A 
ATOM     53  C   UNL     1      -6.464   5.003   0.838  1.00  0.00     0.031 A 
ATOM     54  C   UNL     1      -7.760  -0.139  -3.065  1.00  0.00     0.049 A 
ATOM     55  C   UNL     1      -7.774   4.226   0.815  1.00  0.00     0.074 A 
ATOM     56  C   UNL     1      -7.073  -0.657  -1.977  1.00  0.00     0.029 A 
ATOM     57  N   UNL     1      -8.733   0.701  -2.539  1.00  0.00    -0.354 N 
ATOM     58  N   UNL     1      -7.979   3.193   0.037  1.00  0.00    -0.248 NA
ATOM     59  C   UNL     1      -8.921   4.472   1.685  1.00  0.00     0.031 C 
ATOM     60  C   UNL     1      -7.611  -0.072  -0.794  1.00  0.00     0.029 A 
ATOM     61  C   UNL     1      -8.645   0.774  -1.161  1.00  0.00     0.049 A 
ATOM     62  H   UNL     1      -9.400   1.184  -3.079  1.00  0.00     0.167 HD
ATOM     63  C   UNL     1      -9.202   2.633   0.277  1.00  0.00     0.074 A 
ATOM     64  C   UNL     1      -9.752   3.471   1.329  1.00  0.00     0.031 C 
ATOM     65  C   UNL     1      -9.645   1.534  -0.410  1.00  0.00     0.031 A 
BRANCH  52  66
ATOM     66  C   UNL     1      -7.157  -1.382  -5.309  1.00  0.00    -0.014 A 
ATOM     67  C   UNL     1      -7.398  -2.656  -4.757  1.00  0.00     0.010 A 
ATOM     68  C   UNL     1      -6.707  -1.386  -6.648  1.00  0.00     0.010 A 
ATOM     69  C   UNL     1      -7.154  -3.844  -5.477  1.00  0.00     0.020 A 
ATOM     70  C   UNL     1      -6.407  -2.553  -7.360  1.00  0.00     0.020 A 
ATOM     71  C   UNL     1      -6.644  -3.784  -6.774  1.00  0.00     0.054 A 
BRANCH  71  72
ATOM     72  S   UNL     1      -6.365  -5.304  -7.718  1.00  0.00     0.124 S 
ATOM     73  O   UNL     1      -5.389  -6.012  -6.895  1.00  0.00    -0.237 OA
ATOM     74  O   UNL     1      -7.700  -5.893  -7.768  1.00  0.00    -0.237 OA
ATOM     75  O   UNL     1      -5.854  -4.827  -9.003  1.00  0.00    -0.744 OA
ENDBRANCH  71  72
ENDBRANCH  52  66
BRANCH  53  76
ATOM     76  C   UNL     1      -6.187   6.487   0.880  1.00  0.00    -0.014 A 
ATOM     77  C   UNL     1      -4.949   6.845   1.476  1.00  0.00     0.010 A 
ATOM     78  C   UNL     1      -6.778   7.431   0.020  1.00  0.00     0.010 A 
ATOM     79  C   UNL     1      -4.233   7.981   1.074  1.00  0.00     0.020 A 
ATOM     80  C   UNL     1      -6.069   8.600  -0.366  1.00  0.00     0.020 A 
ATOM     81  C   UNL     1      -4.777   8.836   0.121  1.00  0.00     0.054 A 
BRANCH  81  82
ATOM     82  S   UNL     1      -3.668  10.096  -0.625  1.00  0.00     0.124 S 
ATOM     83  O   UNL     1      -3.768  11.197   0.324  1.00  0.00    -0.237 OA
ATOM     84  O   UNL     1      -2.382   9.398  -0.656  1.00  0.00    -0.237 OA
ATOM     85  O   UNL     1      -4.255  10.344  -1.937  1.00  0.00    -0.744 OA
ENDBRANCH  81  82
ENDBRANCH  53  76
BRANCH  65  86
ATOM     86  C   UNL     1     -11.069   1.009  -0.449  1.00  0.00    -0.014 A 
ATOM     87  C   UNL     1     -12.185   1.715   0.013  1.00  0.00     0.010 A 
ATOM     88  C   UNL     1     -11.332  -0.212  -1.129  1.00  0.00     0.010 A 
ATOM     89  C   UNL     1     -13.485   1.220  -0.160  1.00  0.00     0.020 A 
ATOM     90  C   UNL     1     -12.624  -0.684  -1.365  1.00  0.00     0.020 A 
ATOM     91  C   UNL     1     -13.697   0.030  -0.856  1.00  0.00     0.054 A 
BRANCH  91  92
ATOM     92  S   UNL     1     -15.390  -0.540  -1.125  1.00  0.00     0.124 S 
ATOM     93  O   UNL     1     -15.744  -1.056   0.195  1.00  0.00    -0.237 OA
ATOM     94  O   UNL     1     -16.078   0.686  -1.524  1.00  0.00    -0.237 OA
ATOM     95  O   UNL     1     -15.259  -1.545  -2.176  1.00  0.00    -0.744 OA
ENDBRANCH  91  92
ENDBRANCH  65  86
ENDBRANCH  39  40
ENDBRANCH  32  34
ENDBRANCH  31  32
ENDBRANCH  30  31
ENDBRANCH   1  30
TORSDOF 18
