REMARK SMILES Cc1ccc(-c2nc(NC(=O)[C@H]3[C@@H](C(=O)OCCOCCOC(=O)c4ccc(-c5c6nc(c(-c7ccc(S(=O)(=O)[O-])cc7)c7ccc([nH]7)c(-c7ccc(S(=O)(=O)[O-])cc7)c7nc(c(-c8ccc(S(=O)(=O)[O-])cc8)c8ccc5[nH]8)C=C7)C=C6)cc4)[C@@H]4CC[C@H]3O4)sc2C)cc1
REMARK SMILES IDX 19 1 18 2 17 3 16 4 14 5 15 6 13 7 12 8 88 9 85 10 87 11
REMARK SMILES IDX 89 12 86 13 10 14 9 15 11 17 8 18 6 19 7 20 91 21 90 22
REMARK SMILES IDX 92 23 5 24 1 25 2 26 3 27 94 28 4 29 93 30 20 31 21 32 22 33
REMARK SMILES IDX 23 34 24 35 25 36 26 37 84 38 27 39 83 40 28 41 29 42 30 43
REMARK SMILES IDX 77 44 31 45 82 46 76 47 78 48 32 49 81 50 75 51 74 52 33 54
REMARK SMILES IDX 63 55 44 56 62 57 45 58 48 59 61 60 79 61 46 62 47 63 60 65
REMARK SMILES IDX 80 66 49 67 34 68 35 69 43 70 36 71 42 72 37 73 38 74 39 75
REMARK SMILES IDX 40 76 41 77 64 78 65 79 73 80 66 81 72 82 67 83 68 84 69 85
REMARK SMILES IDX 70 86 71 87 50 88 51 89 59 90 52 91 58 92 53 93 54 94 55 95
REMARK SMILES IDX 56 96 57 97
REMARK H PARENT 9 16 78 53 48 64
REMARK Flexibility Score: inf
ROOT
ATOM      1  O   UNL     1      -7.829   2.323  -2.570  1.00  0.00    -0.374 OA
ENDROOT
BRANCH   1   2
ATOM      2  C   UNL     1      -7.062   1.273  -1.965  1.00  0.00     0.202 C 
BRANCH   2   3
ATOM      3  C   UNL     1      -7.125   1.296  -0.410  1.00  0.00     0.261 C 
BRANCH   3   4
ATOM      4  O   UNL     1      -8.342   1.262   0.472  1.00  0.00    -0.463 OA
BRANCH   4   5
ATOM      5  C   UNL     1      -9.293   0.552   1.108  1.00  0.00     0.312 C 
ATOM      6  O   UNL     1      -9.793   0.915   2.175  1.00  0.00    -0.252 OA
BRANCH   5   7
ATOM      7  C   UNL     1      -9.791  -0.711   0.546  1.00  0.00     0.143 C 
ATOM      8  C   UNL     1      -9.489  -0.854  -0.892  1.00  0.00     0.124 C 
ATOM      9  C   UNL     1     -10.437  -2.008  -1.228  1.00  0.00     0.132 C 
ATOM     10  C   UNL     1     -11.315  -1.059   0.521  1.00  0.00     0.133 C 
ATOM     11  C   UNL     1     -10.567  -3.158  -0.189  1.00  0.00     0.035 C 
ATOM     12  O   UNL     1     -11.640  -1.262  -0.902  1.00  0.00    -0.373 OA
ATOM     13  C   UNL     1     -11.502  -2.528   0.868  1.00  0.00     0.036 C 
BRANCH   8  14
ATOM     14  C   UNL     1      -9.899   0.316  -1.843  1.00  0.00     0.232 C 
ATOM     15  N   UNL     1     -10.120   1.644  -1.633  1.00  0.00    -0.302 N 
ATOM     16  H   UNL     1      -9.992   2.083  -2.504  1.00  0.00     0.172 HD
ATOM     17  O   UNL     1      -9.819  -0.000  -3.052  1.00  0.00    -0.274 OA
BRANCH  15  18
ATOM     18  C   UNL     1     -10.443   2.647  -0.741  1.00  0.00     0.190 A 
ATOM     19  C   UNL     1     -10.275   4.718   0.135  1.00  0.00     0.086 A 
ATOM     20  N   UNL     1      -9.879   3.834  -0.869  1.00  0.00    -0.220 NA
ATOM     21  C   UNL     1     -11.393   4.282   0.817  1.00  0.00     0.031 A 
ATOM     22  S   UNL     1     -11.762   2.638   0.331  1.00  0.00    -0.101 S 
ATOM     23  C   UNL     1     -12.163   4.975   1.879  1.00  0.00     0.059 C 
BRANCH  19  24
ATOM     24  C   UNL     1      -9.373   5.832   0.549  1.00  0.00     0.001 A 
ATOM     25  C   UNL     1      -5.465   8.804   1.699  1.00  0.00     0.044 C 
ATOM     26  C   UNL     1      -6.208   7.552   1.260  1.00  0.00    -0.051 A 
ATOM     27  C   UNL     1      -6.939   7.625  -0.385  1.00  0.00     0.004 A 
ATOM     28  C   UNL     1      -7.000   6.583   2.563  1.00  0.00     0.004 A 
ATOM     29  C   UNL     1      -8.486   6.717  -0.749  1.00  0.00     0.010 A 
ATOM     30  C   UNL     1      -8.669   5.857   2.239  1.00  0.00     0.010 A 
ENDBRANCH  19  24
ENDBRANCH  15  18
ENDBRANCH   8  14
ENDBRANCH   5   7
ENDBRANCH   4   5
ENDBRANCH   3   4
ENDBRANCH   2   3
ENDBRANCH   1   2
BRANCH   1  31
ATOM     31  C   UNL     1      -7.989   2.337  -3.992  1.00  0.00     0.202 C 
BRANCH  31  32
ATOM     32  C   UNL     1      -6.756   2.122  -4.875  1.00  0.00     0.261 C 
BRANCH  32  33
ATOM     33  O   UNL     1      -5.984   3.315  -5.162  1.00  0.00    -0.460 OA
BRANCH  33  34
ATOM     34  C   UNL     1      -4.859   3.570  -4.418  1.00  0.00     0.338 C 
ATOM     35  O   UNL     1      -3.730   3.398  -4.846  1.00  0.00    -0.246 OA
BRANCH  34  36
ATOM     36  C   UNL     1      -5.189   4.343  -3.184  1.00  0.00     0.060 A 
ATOM     37  C   UNL     1      -4.377   4.483  -2.048  1.00  0.00     0.016 A 
ATOM     38  C   UNL     1      -6.457   4.851  -3.130  1.00  0.00     0.016 A 
ATOM     39  C   UNL     1      -4.903   5.058  -0.847  1.00  0.00     0.010 A 
ATOM     40  C   UNL     1      -7.012   5.011  -1.888  1.00  0.00     0.010 A 
ATOM     41  C   UNL     1      -6.287   5.297  -0.724  1.00  0.00    -0.014 A 
BRANCH  41  42
ATOM     42  C   UNL     1      -7.203   5.693   0.658  1.00  0.00     0.031 A 
ATOM     43  C   UNL     1      -8.286   7.495   1.155  1.00  0.00     0.074 A 
ATOM     44  C   UNL     1      -7.147   4.334   1.231  1.00  0.00     0.049 A 
ATOM     45  N   UNL     1      -8.459   8.109   2.390  1.00  0.00    -0.248 NA
ATOM     46  C   UNL     1      -9.236   8.605   0.334  1.00  0.00     0.031 C 
ATOM     47  C   UNL     1      -8.173   3.559   2.017  1.00  0.00     0.029 A 
ATOM     48  N   UNL     1      -6.026   3.513   1.498  1.00  0.00    -0.354 N 
ATOM     49  C   UNL     1      -9.635   8.752   2.550  1.00  0.00     0.074 A 
ATOM     50  C   UNL     1     -10.013   9.187   1.246  1.00  0.00     0.031 C 
ATOM     51  C   UNL     1      -7.638   2.714   2.878  1.00  0.00     0.029 A 
ATOM     52  C   UNL     1      -6.242   2.729   2.630  1.00  0.00     0.049 A 
ATOM     53  H   UNL     1      -5.204   3.497   0.957  1.00  0.00     0.167 HD
ATOM     54  C   UNL     1     -10.267   8.751   3.760  1.00  0.00     0.031 A 
ATOM     55  C   UNL     1      -5.412   2.281   3.582  1.00  0.00     0.031 A 
ATOM     56  C   UNL     1      -9.899   7.633   4.675  1.00  0.00     0.049 A 
ATOM     57  C   UNL     1      -5.784   2.976   4.868  1.00  0.00     0.074 A 
ATOM     58  C   UNL     1     -10.608   6.502   5.064  1.00  0.00     0.029 A 
ATOM     59  N   UNL     1      -8.596   7.423   5.159  1.00  0.00    -0.354 N 
ATOM     60  N   UNL     1      -6.565   4.042   4.893  1.00  0.00    -0.248 NA
ATOM     61  C   UNL     1      -5.368   2.559   6.199  1.00  0.00     0.031 C 
ATOM     62  C   UNL     1      -9.716   5.584   5.693  1.00  0.00     0.029 A 
ATOM     63  C   UNL     1      -8.456   6.161   5.767  1.00  0.00     0.049 A 
ATOM     64  H   UNL     1      -7.868   8.081   5.082  1.00  0.00     0.167 HD
ATOM     65  C   UNL     1      -6.672   4.506   6.171  1.00  0.00     0.074 A 
ATOM     66  C   UNL     1      -5.925   3.524   6.953  1.00  0.00     0.031 C 
ATOM     67  C   UNL     1      -7.242   5.713   6.490  1.00  0.00     0.031 A 
BRANCH  54  68
ATOM     68  C   UNL     1     -11.450   9.669   3.938  1.00  0.00    -0.014 A 
ATOM     69  C   UNL     1     -12.474   9.430   4.864  1.00  0.00     0.010 A 
ATOM     70  C   UNL     1     -11.522  10.883   3.213  1.00  0.00     0.010 A 
ATOM     71  C   UNL     1     -13.554  10.323   4.997  1.00  0.00     0.020 A 
ATOM     72  C   UNL     1     -12.619  11.738   3.278  1.00  0.00     0.020 A 
ATOM     73  C   UNL     1     -13.627  11.460   4.186  1.00  0.00     0.054 A 
BRANCH  73  74
ATOM     74  S   UNL     1     -15.028  12.596   4.327  1.00  0.00     0.124 S 
ATOM     75  O   UNL     1     -16.173  11.691   4.381  1.00  0.00    -0.237 OA
ATOM     76  O   UNL     1     -14.722  13.307   5.564  1.00  0.00    -0.237 OA
ATOM     77  O   UNL     1     -14.942  13.400   3.108  1.00  0.00    -0.744 OA
ENDBRANCH  73  74
ENDBRANCH  54  68
BRANCH  55  78
ATOM     78  C   UNL     1      -4.327   1.438   3.040  1.00  0.00    -0.014 A 
ATOM     79  C   UNL     1      -4.723   0.135   2.628  1.00  0.00     0.010 A 
ATOM     80  C   UNL     1      -3.302   2.075   2.323  1.00  0.00     0.010 A 
ATOM     81  C   UNL     1      -4.280  -0.403   1.410  1.00  0.00     0.020 A 
ATOM     82  C   UNL     1      -2.890   1.558   1.085  1.00  0.00     0.020 A 
ATOM     83  C   UNL     1      -3.430   0.357   0.608  1.00  0.00     0.054 A 
BRANCH  83  84
ATOM     84  S   UNL     1      -3.320  -0.024  -1.177  1.00  0.00     0.124 S 
ATOM     85  O   UNL     1      -2.134  -0.869  -1.242  1.00  0.00    -0.237 OA
ATOM     86  O   UNL     1      -4.593  -0.696  -1.451  1.00  0.00    -0.237 OA
ATOM     87  O   UNL     1      -3.203   1.300  -1.779  1.00  0.00    -0.744 OA
ENDBRANCH  83  84
ENDBRANCH  55  78
BRANCH  67  88
ATOM     88  C   UNL     1      -6.721   6.512   7.661  1.00  0.00    -0.014 A 
ATOM     89  C   UNL     1      -5.456   6.285   8.238  1.00  0.00     0.010 A 
ATOM     90  C   UNL     1      -7.436   7.638   8.116  1.00  0.00     0.010 A 
ATOM     91  C   UNL     1      -4.966   7.082   9.274  1.00  0.00     0.020 A 
ATOM     92  C   UNL     1      -6.926   8.484   9.103  1.00  0.00     0.020 A 
ATOM     93  C   UNL     1      -5.707   8.179   9.700  1.00  0.00     0.054 A 
BRANCH  93  94
ATOM     94  S   UNL     1      -5.034   9.226  11.008  1.00  0.00     0.124 S 
ATOM     95  O   UNL     1      -5.364   8.454  12.204  1.00  0.00    -0.237 OA
ATOM     96  O   UNL     1      -3.613   9.286  10.674  1.00  0.00    -0.237 OA
ATOM     97  O   UNL     1      -5.759  10.483  10.849  1.00  0.00    -0.744 OA
ENDBRANCH  93  94
ENDBRANCH  67  88
ENDBRANCH  41  42
ENDBRANCH  34  36
ENDBRANCH  33  34
ENDBRANCH  32  33
ENDBRANCH  31  32
ENDBRANCH   1  31
TORSDOF 20
