REMARK SMILES NC(=[NH2+])N1CCC[C@H]1C(=O)OCCOCCOC(=O)c1ccc(-c2c3nc(c(-c4ccc(S(=O)(=O)[O-])cc4)c4ccc([nH]4)c(-c4ccc(S(=O)(=O)[O-])cc4)c4nc(c(-c5ccc(S(=O)(=O)[O-])cc5)c5ccc2[nH]5)C=C4)C=C3)cc1
REMARK SMILES IDX 15 1 14 2 13 3 12 4 11 5 9 6 10 7 8 8 4 9 5 10 6 11 7 12
REMARK SMILES IDX 2 13 3 14 1 17 16 20 17 21 18 22 19 23 20 24 21 25 79 26
REMARK SMILES IDX 22 27 78 28 23 29 24 30 25 31 72 32 26 33 77 34 71 35 73 36
REMARK SMILES IDX 27 37 76 38 70 39 69 40 28 42 58 43 39 44 57 45 40 46 43 47
REMARK SMILES IDX 56 48 74 49 41 50 42 51 55 53 75 54 44 55 29 56 30 57 38 58
REMARK SMILES IDX 31 59 37 60 32 61 33 62 34 63 35 64 36 65 59 66 60 67 68 68
REMARK SMILES IDX 61 69 67 70 62 71 63 72 64 73 65 74 66 75 45 76 46 77 54 78
REMARK SMILES IDX 47 79 53 80 48 81 49 82 50 83 51 84 52 85
REMARK H PARENT 3 15 3 16 1 18 1 19 73 41 43 52
REMARK Flexibility Score: inf
ROOT
ATOM      1  C   UNL     1      -1.084   3.515  -4.213  1.00  0.00     0.202 C 
ENDROOT
BRANCH   1   2
ATOM      2  O   UNL     1      -1.821   4.729  -4.065  1.00  0.00    -0.374 OA
BRANCH   2   3
ATOM      3  C   UNL     1      -1.614   5.492  -2.877  1.00  0.00     0.202 C 
BRANCH   3   4
ATOM      4  C   UNL     1      -2.340   5.009  -1.619  1.00  0.00     0.261 C 
BRANCH   4   5
ATOM      5  O   UNL     1      -1.943   3.676  -1.258  1.00  0.00    -0.461 OA
BRANCH   5   6
ATOM      6  C   UNL     1      -2.896   2.715  -1.445  1.00  0.00     0.343 C 
ATOM      7  O   UNL     1      -4.032   2.942  -1.852  1.00  0.00    -0.248 OA
BRANCH   6   8
ATOM      8  C   UNL     1      -2.349   1.297  -1.244  1.00  0.00     0.257 C 
ATOM      9  N   UNL     1      -1.378   1.172  -0.136  1.00  0.00    -0.252 N 
ATOM     10  C   UNL     1      -2.032   0.527   0.998  1.00  0.00     0.201 C 
ATOM     11  C   UNL     1      -3.000  -0.437   0.336  1.00  0.00     0.042 C 
ATOM     12  C   UNL     1      -3.497   0.339  -0.872  1.00  0.00     0.057 C 
BRANCH   9  13
ATOM     13  C   UNL     1      -0.038   1.054  -0.341  1.00  0.00     0.341 C 
ATOM     14  N   UNL     1       0.700   0.180   0.247  1.00  0.00    -0.291 N 
ATOM     15  H   UNL     1       1.665   0.143   0.058  1.00  0.00     0.256 HD
ATOM     16  H   UNL     1       0.299  -0.452   0.887  1.00  0.00     0.256 HD
ATOM     17  N   UNL     1       0.479   1.929  -1.219  1.00  0.00    -0.291 N 
ATOM     18  H   UNL     1       1.441   1.911  -1.424  1.00  0.00     0.256 HD
ATOM     19  H   UNL     1      -0.105   2.589  -1.658  1.00  0.00     0.256 HD
ENDBRANCH   9  13
ENDBRANCH   6   8
ENDBRANCH   5   6
ENDBRANCH   4   5
ENDBRANCH   3   4
ENDBRANCH   2   3
ENDBRANCH   1   2
BRANCH   1  20
ATOM     20  C   UNL     1       0.406   3.644  -4.554  1.00  0.00     0.261 C 
BRANCH  20  21
ATOM     21  O   UNL     1       1.167   4.187  -3.458  1.00  0.00    -0.460 OA
BRANCH  21  22
ATOM     22  C   UNL     1       1.694   5.414  -3.688  1.00  0.00     0.338 C 
ATOM     23  O   UNL     1       1.646   6.052  -4.732  1.00  0.00    -0.246 OA
BRANCH  22  24
ATOM     24  C   UNL     1       2.184   5.997  -2.426  1.00  0.00     0.060 A 
ATOM     25  C   UNL     1       1.719   7.273  -2.082  1.00  0.00     0.016 A 
ATOM     26  C   UNL     1       3.129   5.347  -1.630  1.00  0.00     0.016 A 
ATOM     27  C   UNL     1       2.239   7.929  -0.970  1.00  0.00     0.010 A 
ATOM     28  C   UNL     1       3.657   6.011  -0.517  1.00  0.00     0.010 A 
ATOM     29  C   UNL     1       3.243   7.319  -0.206  1.00  0.00    -0.014 A 
BRANCH  29  30
ATOM     30  C   UNL     1       3.968   8.121   0.809  1.00  0.00     0.031 A 
ATOM     31  C   UNL     1       5.301   8.720   0.445  1.00  0.00     0.074 A 
ATOM     32  C   UNL     1       3.430   8.352   2.020  1.00  0.00     0.049 A 
ATOM     33  N   UNL     1       6.102   9.458   1.169  1.00  0.00    -0.248 NA
ATOM     34  C   UNL     1       5.793   8.454  -0.917  1.00  0.00     0.031 C 
ATOM     35  C   UNL     1       2.129   7.864   2.475  1.00  0.00     0.029 A 
ATOM     36  N   UNL     1       3.917   9.062   3.088  1.00  0.00    -0.354 N 
ATOM     37  C   UNL     1       7.195   9.738   0.356  1.00  0.00     0.074 A 
ATOM     38  C   UNL     1       6.967   9.068  -0.906  1.00  0.00     0.031 C 
ATOM     39  C   UNL     1       1.922   8.287   3.735  1.00  0.00     0.029 A 
ATOM     40  C   UNL     1       3.086   9.050   4.183  1.00  0.00     0.049 A 
ATOM     41  H   UNL     1       4.780   9.536   3.073  1.00  0.00     0.167 HD
ATOM     42  C   UNL     1       8.286  10.491   0.631  1.00  0.00     0.031 A 
ATOM     43  C   UNL     1       3.252   9.581   5.411  1.00  0.00     0.031 A 
ATOM     44  C   UNL     1       8.517  11.148   1.890  1.00  0.00     0.049 A 
ATOM     45  C   UNL     1       4.505  10.358   5.716  1.00  0.00     0.074 A 
ATOM     46  C   UNL     1       9.586  11.944   2.262  1.00  0.00     0.029 A 
ATOM     47  N   UNL     1       7.669  11.079   2.985  1.00  0.00    -0.354 N 
ATOM     48  N   UNL     1       5.517  10.635   4.928  1.00  0.00    -0.248 NA
ATOM     49  C   UNL     1       4.634  10.903   7.075  1.00  0.00     0.031 C 
ATOM     50  C   UNL     1       9.409  12.314   3.599  1.00  0.00     0.029 A 
ATOM     51  C   UNL     1       8.202  11.798   4.041  1.00  0.00     0.049 A 
ATOM     52  H   UNL     1       6.814  10.592   3.007  1.00  0.00     0.167 HD
ATOM     53  C   UNL     1       6.389  11.409   5.687  1.00  0.00     0.074 A 
ATOM     54  C   UNL     1       5.780  11.566   6.992  1.00  0.00     0.031 C 
ATOM     55  C   UNL     1       7.584  11.945   5.335  1.00  0.00     0.031 A 
BRANCH  42  56
ATOM     56  C   UNL     1       9.332  10.615  -0.444  1.00  0.00    -0.014 A 
ATOM     57  C   UNL     1       9.104  11.388  -1.597  1.00  0.00     0.010 A 
ATOM     58  C   UNL     1      10.574   9.975  -0.283  1.00  0.00     0.010 A 
ATOM     59  C   UNL     1      10.085  11.486  -2.587  1.00  0.00     0.020 A 
ATOM     60  C   UNL     1      11.567  10.092  -1.259  1.00  0.00     0.020 A 
ATOM     61  C   UNL     1      11.310  10.834  -2.414  1.00  0.00     0.054 A 
BRANCH  61  62
ATOM     62  S   UNL     1      12.572  10.991  -3.706  1.00  0.00     0.124 S 
ATOM     63  O   UNL     1      12.030  10.139  -4.762  1.00  0.00    -0.237 OA
ATOM     64  O   UNL     1      12.564  12.424  -3.990  1.00  0.00    -0.237 OA
ATOM     65  O   UNL     1      13.788  10.493  -3.067  1.00  0.00    -0.744 OA
ENDBRANCH  61  62
ENDBRANCH  42  56
BRANCH  43  66
ATOM     66  C   UNL     1       2.207   9.383   6.452  1.00  0.00    -0.014 A 
ATOM     67  C   UNL     1       1.414  10.458   6.889  1.00  0.00     0.010 A 
ATOM     68  C   UNL     1       2.000   8.108   7.011  1.00  0.00     0.010 A 
ATOM     69  C   UNL     1       0.444  10.266   7.878  1.00  0.00     0.020 A 
ATOM     70  C   UNL     1       1.013   7.907   7.980  1.00  0.00     0.020 A 
ATOM     71  C   UNL     1       0.248   8.990   8.416  1.00  0.00     0.054 A 
BRANCH  71  72
ATOM     72  S   UNL     1      -1.053   8.752   9.658  1.00  0.00     0.124 S 
ATOM     73  O   UNL     1      -0.455   9.357  10.844  1.00  0.00    -0.237 OA
ATOM     74  O   UNL     1      -2.180   9.477   9.077  1.00  0.00    -0.237 OA
ATOM     75  O   UNL     1      -1.215   7.301   9.708  1.00  0.00    -0.744 OA
ENDBRANCH  71  72
ENDBRANCH  43  66
BRANCH  55  76
ATOM     76  C   UNL     1       8.301  12.784   6.360  1.00  0.00    -0.014 A 
ATOM     77  C   UNL     1       8.928  12.198   7.473  1.00  0.00     0.010 A 
ATOM     78  C   UNL     1       8.397  14.175   6.171  1.00  0.00     0.010 A 
ATOM     79  C   UNL     1       9.614  12.993   8.396  1.00  0.00     0.020 A 
ATOM     80  C   UNL     1       9.104  14.970   7.077  1.00  0.00     0.020 A 
ATOM     81  C   UNL     1       9.696  14.375   8.192  1.00  0.00     0.054 A 
BRANCH  81  82
ATOM     82  S   UNL     1      10.629  15.380   9.380  1.00  0.00     0.124 S 
ATOM     83  O   UNL     1       9.719  15.425  10.521  1.00  0.00    -0.237 OA
ATOM     84  O   UNL     1      11.847  14.598   9.578  1.00  0.00    -0.237 OA
ATOM     85  O   UNL     1      10.818  16.651   8.684  1.00  0.00    -0.744 OA
ENDBRANCH  81  82
ENDBRANCH  55  76
ENDBRANCH  29  30
ENDBRANCH  22  24
ENDBRANCH  21  22
ENDBRANCH  20  21
ENDBRANCH   1  20
TORSDOF 18
