REMARK SMILES CC[C@@H](C(=O)Nc1ccc(OC(C)=O)cc1C(=O)OCCOCCOC(=O)c1ccc(-c2c3nc(c(-c4ccc(S(=O)(=O)[O-])cc4)c4ccc([nH]4)c(-c4ccc(S(=O)(=O)[O-])cc4)c4nc(c(-c5ccc(S(=O)(=O)[O-])cc5)c5ccc2[nH]5)C=C4)C=C3)cc1)c1ccccc1
REMARK SMILES IDX 22 1 21 2 20 3 19 4 17 5 18 6 16 7 7 8 8 9 9 10 15 11 10 12
REMARK SMILES IDX 6 13 4 14 5 15 3 17 2 18 1 19 88 20 89 21 93 22 90 23 92 24
REMARK SMILES IDX 91 25 11 26 12 27 13 28 14 29 23 30 24 31 25 32 26 33 27 34
REMARK SMILES IDX 28 35 29 36 87 37 30 38 86 39 31 40 32 41 33 42 80 43 34 44
REMARK SMILES IDX 85 45 79 46 81 47 35 48 84 49 78 50 77 51 36 53 66 54 47 55
REMARK SMILES IDX 65 56 48 57 51 58 64 59 82 60 49 61 50 62 63 64 83 65 52 66
REMARK SMILES IDX 37 67 38 68 46 69 39 70 45 71 40 72 41 73 42 74 43 75 44 76
REMARK SMILES IDX 67 77 68 78 76 79 69 80 75 81 70 82 71 83 72 84 73 85 74 86
REMARK SMILES IDX 53 87 54 88 62 89 55 90 61 91 56 92 57 93 58 94 59 95 60 96
REMARK H PARENT 6 16 81 52 51 63
REMARK Flexibility Score: inf
ROOT
ATOM      1  O   UNL     1      -2.693   1.682  -0.846  1.00  0.00    -0.374 OA
ENDROOT
BRANCH   1   2
ATOM      2  C   UNL     1      -2.745   0.467  -1.579  1.00  0.00     0.202 C 
BRANCH   2   3
ATOM      3  C   UNL     1      -1.497  -0.418  -1.646  1.00  0.00     0.261 C 
BRANCH   3   4
ATOM      4  O   UNL     1      -0.767  -0.581  -0.423  1.00  0.00    -0.460 OA
BRANCH   4   5
ATOM      5  C   UNL     1       0.289   0.246  -0.312  1.00  0.00     0.340 C 
ATOM      6  O   UNL     1       0.504   1.257  -0.974  1.00  0.00    -0.246 OA
BRANCH   5   7
ATOM      7  C   UNL     1       1.187  -0.116   0.792  1.00  0.00     0.087 A 
ATOM      8  C   UNL     1       1.889  -1.329   0.928  1.00  0.00     0.056 A 
ATOM      9  C   UNL     1       2.847  -1.433   1.955  1.00  0.00     0.031 A 
ATOM     10  C   UNL     1       3.222  -0.315   2.703  1.00  0.00     0.049 A 
ATOM     11  C   UNL     1       1.494   0.972   1.624  1.00  0.00     0.065 A 
ATOM     12  C   UNL     1       2.578   0.895   2.480  1.00  0.00     0.131 A 
BRANCH   8  13
ATOM     13  N   UNL     1       1.844  -2.442   0.064  1.00  0.00    -0.325 N 
ATOM     14  C   UNL     1       1.178  -2.562  -1.129  1.00  0.00     0.231 C 
ATOM     15  O   UNL     1       0.108  -3.172  -1.138  1.00  0.00    -0.274 OA
ATOM     16  H   UNL     1       2.355  -3.232   0.353  1.00  0.00     0.169 HD
BRANCH  14  17
ATOM     17  C   UNL     1       2.011  -2.267  -2.417  1.00  0.00     0.108 C 
BRANCH  17  18
ATOM     18  C   UNL     1       2.472  -0.808  -2.647  1.00  0.00     0.015 C 
ATOM     19  C   UNL     1       3.664  -0.321  -1.837  1.00  0.00     0.005 C 
ENDBRANCH  17  18
BRANCH  17  20
ATOM     20  C   UNL     1       1.249  -2.792  -3.644  1.00  0.00    -0.036 A 
ATOM     21  C   UNL     1       0.479  -1.962  -4.479  1.00  0.00     0.004 A 
ATOM     22  C   UNL     1       1.259  -4.172  -3.908  1.00  0.00     0.004 A 
ATOM     23  C   UNL     1      -0.247  -2.494  -5.546  1.00  0.00     0.000 A 
ATOM     24  C   UNL     1       0.525  -4.702  -4.970  1.00  0.00     0.000 A 
ATOM     25  C   UNL     1      -0.226  -3.864  -5.789  1.00  0.00     0.000 A 
ENDBRANCH  17  20
ENDBRANCH  14  17
ENDBRANCH   8  13
BRANCH  12  26
ATOM     26  O   UNL     1       3.085   2.038   3.128  1.00  0.00    -0.427 OA
BRANCH  26  27
ATOM     27  C   UNL     1       3.623   3.143   2.457  1.00  0.00     0.308 C 
ATOM     28  C   UNL     1       3.226   3.349   1.020  1.00  0.00     0.139 C 
ATOM     29  O   UNL     1       4.346   3.943   3.047  1.00  0.00    -0.252 OA
ENDBRANCH  26  27
ENDBRANCH  12  26
ENDBRANCH   5   7
ENDBRANCH   4   5
ENDBRANCH   3   4
ENDBRANCH   2   3
ENDBRANCH   1   2
BRANCH   1  30
ATOM     30  C   UNL     1      -2.545   1.624   0.571  1.00  0.00     0.202 C 
BRANCH  30  31
ATOM     31  C   UNL     1      -3.540   0.803   1.397  1.00  0.00     0.261 C 
BRANCH  31  32
ATOM     32  O   UNL     1      -3.498  -0.608   1.101  1.00  0.00    -0.460 OA
BRANCH  32  33
ATOM     33  C   UNL     1      -4.660  -1.112   0.634  1.00  0.00     0.338 C 
ATOM     34  O   UNL     1      -5.715  -0.509   0.481  1.00  0.00    -0.246 OA
BRANCH  33  35
ATOM     35  C   UNL     1      -4.488  -2.491   0.148  1.00  0.00     0.060 A 
ATOM     36  C   UNL     1      -4.907  -2.772  -1.164  1.00  0.00     0.016 A 
ATOM     37  C   UNL     1      -4.100  -3.520   1.008  1.00  0.00     0.016 A 
ATOM     38  C   UNL     1      -5.020  -4.089  -1.589  1.00  0.00     0.010 A 
ATOM     39  C   UNL     1      -4.233  -4.845   0.581  1.00  0.00     0.010 A 
ATOM     40  C   UNL     1      -4.748  -5.132  -0.694  1.00  0.00    -0.014 A 
BRANCH  40  41
ATOM     41  C   UNL     1      -5.243  -6.493  -1.012  1.00  0.00     0.031 A 
ATOM     42  C   UNL     1      -6.610  -6.886  -0.518  1.00  0.00     0.074 A 
ATOM     43  C   UNL     1      -4.518  -7.341  -1.760  1.00  0.00     0.049 A 
ATOM     44  N   UNL     1      -7.251  -8.018  -0.659  1.00  0.00    -0.248 NA
ATOM     45  C   UNL     1      -7.359  -5.862   0.233  1.00  0.00     0.031 C 
ATOM     46  C   UNL     1      -3.210  -7.052  -2.344  1.00  0.00     0.029 A 
ATOM     47  N   UNL     1      -4.791  -8.626  -2.154  1.00  0.00    -0.354 N 
ATOM     48  C   UNL     1      -8.471  -7.844  -0.016  1.00  0.00     0.074 A 
ATOM     49  C   UNL     1      -8.475  -6.507   0.536  1.00  0.00     0.031 C 
ATOM     50  C   UNL     1      -2.788  -8.137  -3.017  1.00  0.00     0.029 A 
ATOM     51  C   UNL     1      -3.782  -9.201  -2.887  1.00  0.00     0.049 A 
ATOM     52  H   UNL     1      -5.630  -9.092  -1.932  1.00  0.00     0.167 HD
ATOM     53  C   UNL     1      -9.499  -8.716   0.105  1.00  0.00     0.031 A 
ATOM     54  C   UNL     1      -3.669 -10.451  -3.378  1.00  0.00     0.031 A 
ATOM     55  C   UNL     1      -9.485 -10.053  -0.422  1.00  0.00     0.049 A 
ATOM     56  C   UNL     1      -4.790 -11.434  -3.161  1.00  0.00     0.074 A 
ATOM     57  C   UNL     1     -10.470 -11.021  -0.345  1.00  0.00     0.029 A 
ATOM     58  N   UNL     1      -8.425 -10.612  -1.119  1.00  0.00    -0.354 N 
ATOM     59  N   UNL     1      -5.940 -11.255  -2.554  1.00  0.00    -0.248 NA
ATOM     60  C   UNL     1      -4.598 -12.789  -3.699  1.00  0.00     0.031 C 
ATOM     61  C   UNL     1      -9.987 -12.183  -0.959  1.00  0.00     0.029 A 
ATOM     62  C   UNL     1      -8.721 -11.920  -1.460  1.00  0.00     0.049 A 
ATOM     63  H   UNL     1      -7.586 -10.147  -1.340  1.00  0.00     0.167 HD
ATOM     64  C   UNL     1      -6.617 -12.465  -2.658  1.00  0.00     0.074 A 
ATOM     65  C   UNL     1      -5.753 -13.366  -3.393  1.00  0.00     0.031 C 
ATOM     66  C   UNL     1      -7.846 -12.800  -2.191  1.00  0.00     0.031 A 
BRANCH  53  67
ATOM     67  C   UNL     1     -10.706  -8.255   0.876  1.00  0.00    -0.014 A 
ATOM     68  C   UNL     1     -11.608  -7.326   0.327  1.00  0.00     0.010 A 
ATOM     69  C   UNL     1     -10.943  -8.762   2.166  1.00  0.00     0.010 A 
ATOM     70  C   UNL     1     -12.703  -6.880   1.072  1.00  0.00     0.020 A 
ATOM     71  C   UNL     1     -12.049  -8.335   2.906  1.00  0.00     0.020 A 
ATOM     72  C   UNL     1     -12.912  -7.382   2.361  1.00  0.00     0.054 A 
BRANCH  72  73
ATOM     73  S   UNL     1     -14.341  -6.791   3.309  1.00  0.00     0.124 S 
ATOM     74  O   UNL     1     -13.896  -5.464   3.729  1.00  0.00    -0.237 OA
ATOM     75  O   UNL     1     -15.416  -6.809   2.320  1.00  0.00    -0.237 OA
ATOM     76  O   UNL     1     -14.473  -7.772   4.384  1.00  0.00    -0.744 OA
ENDBRANCH  72  73
ENDBRANCH  53  67
BRANCH  54  77
ATOM     77  C   UNL     1      -2.435 -10.850  -4.105  1.00  0.00    -0.014 A 
ATOM     78  C   UNL     1      -2.454 -11.058  -5.494  1.00  0.00     0.010 A 
ATOM     79  C   UNL     1      -1.226 -11.016  -3.403  1.00  0.00     0.010 A 
ATOM     80  C   UNL     1      -1.287 -11.433  -6.169  1.00  0.00     0.020 A 
ATOM     81  C   UNL     1      -0.054 -11.369  -4.077  1.00  0.00     0.020 A 
ATOM     82  C   UNL     1      -0.094 -11.584  -5.455  1.00  0.00     0.054 A 
BRANCH  82  83
ATOM     83  S   UNL     1       1.423 -12.007  -6.357  1.00  0.00     0.124 S 
ATOM     84  O   UNL     1       1.242 -13.433  -6.604  1.00  0.00    -0.237 OA
ATOM     85  O   UNL     1       1.344 -11.144  -7.533  1.00  0.00    -0.237 OA
ATOM     86  O   UNL     1       2.485 -11.662  -5.414  1.00  0.00    -0.744 OA
ENDBRANCH  82  83
ENDBRANCH  54  77
BRANCH  66  87
ATOM     87  C   UNL     1      -8.344 -14.189  -2.484  1.00  0.00    -0.014 A 
ATOM     88  C   UNL     1      -7.852 -15.301  -1.779  1.00  0.00     0.010 A 
ATOM     89  C   UNL     1      -9.366 -14.373  -3.433  1.00  0.00     0.010 A 
ATOM     90  C   UNL     1      -8.357 -16.578  -2.036  1.00  0.00     0.020 A 
ATOM     91  C   UNL     1      -9.889 -15.645  -3.677  1.00  0.00     0.020 A 
ATOM     92  C   UNL     1      -9.371 -16.742  -2.986  1.00  0.00     0.054 A 
BRANCH  92  93
ATOM     93  S   UNL     1     -10.047 -18.402  -3.269  1.00  0.00     0.124 S 
ATOM     94  O   UNL     1      -9.009 -19.016  -4.092  1.00  0.00    -0.237 OA
ATOM     95  O   UNL     1     -10.173 -18.936  -1.915  1.00  0.00    -0.237 OA
ATOM     96  O   UNL     1     -11.314 -18.147  -3.950  1.00  0.00    -0.744 OA
ENDBRANCH  92  93
ENDBRANCH  66  87
ENDBRANCH  40  41
ENDBRANCH  33  35
ENDBRANCH  32  33
ENDBRANCH  31  32
ENDBRANCH  30  31
ENDBRANCH   1  30
TORSDOF 23
