REMARK SMILES Cc1nc(C(=O)OCCOCCOC(=O)c2ccc(-c3c4nc(c(-c5ccc(S(=O)(=O)[O-])cc5)c5ccc([nH]5)c(-c5ccc(S(=O)(=O)[O-])cc5)c5nc(c(-c6ccc(S(=O)(=O)[O-])cc6)c6ccc3[nH]6)C=C5)C=C4)cc2)nn1-c1cccc(C(F)(F)F)c1
REMARK SMILES IDX 11 1 10 2 9 3 8 4 7 5 5 6 6 7 4 8 1 9 2 10 3 11 77 12 76 13
REMARK SMILES IDX 78 14 79 15 87 16 80 17 82 18 81 19 83 20 84 21 85 22 86 23
REMARK SMILES IDX 12 24 13 25 14 26 15 27 16 28 17 29 75 30 18 31 74 32 19 33
REMARK SMILES IDX 20 34 21 35 68 36 22 37 73 38 67 39 69 40 23 41 72 42 66 43
REMARK SMILES IDX 65 44 24 46 54 47 35 48 53 49 36 50 39 51 52 52 70 53 37 54
REMARK SMILES IDX 38 55 51 57 71 58 40 59 25 60 26 61 34 62 27 63 33 64 28 65
REMARK SMILES IDX 29 66 30 67 31 68 32 69 55 70 56 71 64 72 57 73 63 74 58 75
REMARK SMILES IDX 59 76 60 77 61 78 62 79 41 80 42 81 50 82 43 83 49 84 44 85
REMARK SMILES IDX 45 86 46 87 47 88 48 89
REMARK H PARENT 69 45 39 56
REMARK Flexibility Score: inf
ROOT
ATOM      1  C   UNL     1       0.205  -1.934  -6.444  1.00  0.00     0.202 C 
ENDROOT
BRANCH   1   2
ATOM      2  O   UNL     1      -0.827  -1.941  -7.426  1.00  0.00    -0.374 OA
BRANCH   2   3
ATOM      3  C   UNL     1      -1.385  -0.706  -7.874  1.00  0.00     0.202 C 
BRANCH   3   4
ATOM      4  C   UNL     1      -2.341   0.023  -6.928  1.00  0.00     0.261 C 
BRANCH   4   5
ATOM      5  O   UNL     1      -1.686   0.529  -5.756  1.00  0.00    -0.457 OA
BRANCH   5   6
ATOM      6  C   UNL     1      -1.899  -0.176  -4.600  1.00  0.00     0.378 C 
ATOM      7  O   UNL     1      -2.631  -1.158  -4.515  1.00  0.00    -0.242 OA
BRANCH   6   8
ATOM      8  C   UNL     1      -1.057   0.305  -3.492  1.00  0.00     0.260 A 
ATOM      9  C   UNL     1       0.883  -0.147  -0.527  1.00  0.00     0.090 C 
ATOM     10  C   UNL     1       0.217   0.267  -1.785  1.00  0.00     0.130 A 
ATOM     11  N   UNL     1      -0.460  -0.539  -2.579  1.00  0.00    -0.206 NA
ATOM     12  N   UNL     1       0.056   1.572  -2.218  1.00  0.00    -0.217 N 
ATOM     13  N   UNL     1      -0.796   1.602  -3.270  1.00  0.00    -0.138 NA
BRANCH  12  14
ATOM     14  C   UNL     1       0.585   2.785  -1.715  1.00  0.00     0.067 A 
ATOM     15  C   UNL     1      -0.205   3.940  -1.817  1.00  0.00     0.028 A 
ATOM     16  C   UNL     1       1.875   2.867  -1.175  1.00  0.00     0.041 A 
ATOM     17  C   UNL     1       0.268   5.161  -1.346  1.00  0.00     0.003 A 
ATOM     18  C   UNL     1       2.379   4.112  -0.750  1.00  0.00     0.058 A 
ATOM     19  C   UNL     1       1.554   5.248  -0.821  1.00  0.00     0.013 A 
BRANCH  18  20
ATOM     20  C   UNL     1       3.803   4.268  -0.266  1.00  0.00     0.416 C 
ATOM     21  F   UNL     1       4.526   5.107  -1.053  1.00  0.00    -0.166 F 
ATOM     22  F   UNL     1       3.865   4.779   0.995  1.00  0.00    -0.166 F 
ATOM     23  F   UNL     1       4.489   3.093  -0.228  1.00  0.00    -0.166 F 
ENDBRANCH  18  20
ENDBRANCH  12  14
ENDBRANCH   6   8
ENDBRANCH   5   6
ENDBRANCH   4   5
ENDBRANCH   3   4
ENDBRANCH   2   3
ENDBRANCH   1   2
BRANCH   1  24
ATOM     24  C   UNL     1       1.590  -1.459  -6.855  1.00  0.00     0.261 C 
BRANCH  24  25
ATOM     25  O   UNL     1       1.575  -0.119  -7.319  1.00  0.00    -0.460 OA
BRANCH  25  26
ATOM     26  C   UNL     1       1.615   0.001  -8.669  1.00  0.00     0.338 C 
ATOM     27  O   UNL     1       1.407  -0.866  -9.492  1.00  0.00    -0.246 OA
BRANCH  26  28
ATOM     28  C   UNL     1       2.103   1.349  -8.984  1.00  0.00     0.060 A 
ATOM     29  C   UNL     1       2.375   1.608 -10.328  1.00  0.00     0.016 A 
ATOM     30  C   UNL     1       2.575   2.173  -7.952  1.00  0.00     0.016 A 
ATOM     31  C   UNL     1       3.349   2.534 -10.619  1.00  0.00     0.010 A 
ATOM     32  C   UNL     1       3.554   3.085  -8.242  1.00  0.00     0.010 A 
ATOM     33  C   UNL     1       4.000   3.169  -9.557  1.00  0.00    -0.014 A 
BRANCH  33  34
ATOM     34  C   UNL     1       5.133   4.013  -9.848  1.00  0.00     0.031 A 
ATOM     35  C   UNL     1       4.716   5.307 -10.420  1.00  0.00     0.074 A 
ATOM     36  C   UNL     1       6.391   3.674  -9.508  1.00  0.00     0.049 A 
ATOM     37  N   UNL     1       4.786   5.671 -11.656  1.00  0.00    -0.248 NA
ATOM     38  C   UNL     1       3.904   6.196  -9.570  1.00  0.00     0.031 C 
ATOM     39  C   UNL     1       6.850   2.535  -8.706  1.00  0.00     0.029 A 
ATOM     40  N   UNL     1       7.539   4.358  -9.737  1.00  0.00    -0.354 N 
ATOM     41  C   UNL     1       4.260   6.955 -11.679  1.00  0.00     0.074 A 
ATOM     42  C   UNL     1       3.510   7.107 -10.459  1.00  0.00     0.031 C 
ATOM     43  C   UNL     1       8.131   2.748  -8.320  1.00  0.00     0.029 A 
ATOM     44  C   UNL     1       8.621   3.956  -8.963  1.00  0.00     0.049 A 
ATOM     45  H   UNL     1       7.602   5.082 -10.401  1.00  0.00     0.167 HD
ATOM     46  C   UNL     1       4.763   7.901 -12.517  1.00  0.00     0.031 A 
ATOM     47  C   UNL     1       9.803   4.615  -8.826  1.00  0.00     0.031 A 
ATOM     48  C   UNL     1       5.562   7.313 -13.563  1.00  0.00     0.049 A 
ATOM     49  C   UNL     1       9.920   5.526  -9.995  1.00  0.00     0.074 A 
ATOM     50  C   UNL     1       5.325   6.412 -14.580  1.00  0.00     0.029 A 
ATOM     51  N   UNL     1       6.926   7.331 -13.377  1.00  0.00    -0.354 N 
ATOM     52  N   UNL     1      10.022   5.094 -11.222  1.00  0.00    -0.248 NA
ATOM     53  C   UNL     1       9.418   6.884  -9.855  1.00  0.00     0.031 C 
ATOM     54  C   UNL     1       6.500   5.607 -14.645  1.00  0.00     0.029 A 
ATOM     55  C   UNL     1       7.423   6.098 -13.718  1.00  0.00     0.049 A 
ATOM     56  H   UNL     1       7.455   8.097 -13.056  1.00  0.00     0.167 HD
ATOM     57  C   UNL     1       9.202   5.933 -11.967  1.00  0.00     0.074 A 
ATOM     58  C   UNL     1       8.930   7.070 -11.087  1.00  0.00     0.031 C 
ATOM     59  C   UNL     1       8.591   5.492 -13.108  1.00  0.00     0.031 A 
BRANCH  46  60
ATOM     60  C   UNL     1       4.915   9.342 -12.100  1.00  0.00    -0.014 A 
ATOM     61  C   UNL     1       5.380  10.275 -13.044  1.00  0.00     0.010 A 
ATOM     62  C   UNL     1       4.884   9.758 -10.750  1.00  0.00     0.010 A 
ATOM     63  C   UNL     1       5.847  11.534 -12.645  1.00  0.00     0.020 A 
ATOM     64  C   UNL     1       5.303  11.023 -10.348  1.00  0.00     0.020 A 
ATOM     65  C   UNL     1       5.813  11.894 -11.296  1.00  0.00     0.054 A 
BRANCH  65  66
ATOM     66  S   UNL     1       6.506  13.480 -10.778  1.00  0.00     0.124 S 
ATOM     67  O   UNL     1       7.920  13.305 -11.091  1.00  0.00    -0.237 OA
ATOM     68  O   UNL     1       5.778  14.422 -11.624  1.00  0.00    -0.237 OA
ATOM     69  O   UNL     1       6.180  13.547  -9.355  1.00  0.00    -0.744 OA
ENDBRANCH  65  66
ENDBRANCH  46  60
BRANCH  47  70
ATOM     70  C   UNL     1      10.607   4.779  -7.584  1.00  0.00    -0.014 A 
ATOM     71  C   UNL     1      11.940   5.236  -7.610  1.00  0.00     0.010 A 
ATOM     72  C   UNL     1       9.962   4.740  -6.330  1.00  0.00     0.010 A 
ATOM     73  C   UNL     1      12.588   5.663  -6.432  1.00  0.00     0.020 A 
ATOM     74  C   UNL     1      10.598   5.163  -5.155  1.00  0.00     0.020 A 
ATOM     75  C   UNL     1      11.906   5.636  -5.212  1.00  0.00     0.054 A 
BRANCH  75  76
ATOM     76  S   UNL     1      12.697   6.307  -3.716  1.00  0.00     0.124 S 
ATOM     77  O   UNL     1      13.761   5.339  -3.465  1.00  0.00    -0.237 OA
ATOM     78  O   UNL     1      13.136   7.630  -4.151  1.00  0.00    -0.237 OA
ATOM     79  O   UNL     1      11.619   6.310  -2.728  1.00  0.00    -0.744 OA
ENDBRANCH  75  76
ENDBRANCH  47  70
BRANCH  59  80
ATOM     80  C   UNL     1       9.019   4.154 -13.676  1.00  0.00    -0.014 A 
ATOM     81  C   UNL     1       8.795   2.919 -13.032  1.00  0.00     0.010 A 
ATOM     82  C   UNL     1       9.517   4.140 -14.989  1.00  0.00     0.010 A 
ATOM     83  C   UNL     1       9.074   1.706 -13.686  1.00  0.00     0.020 A 
ATOM     84  C   UNL     1       9.782   2.938 -15.650  1.00  0.00     0.020 A 
ATOM     85  C   UNL     1       9.564   1.726 -14.996  1.00  0.00     0.054 A 
BRANCH  85  86
ATOM     86  S   UNL     1       9.868   0.160 -15.866  1.00  0.00     0.124 S 
ATOM     87  O   UNL     1      11.010  -0.391 -15.141  1.00  0.00    -0.237 OA
ATOM     88  O   UNL     1       8.608  -0.559 -15.693  1.00  0.00    -0.237 OA
ATOM     89  O   UNL     1      10.150   0.574 -17.240  1.00  0.00    -0.744 OA
ENDBRANCH  85  86
ENDBRANCH  59  80
ENDBRANCH  33  34
ENDBRANCH  26  28
ENDBRANCH  25  26
ENDBRANCH  24  25
ENDBRANCH   1  24
TORSDOF 19
