REMARK SMILES C[C@]12C(=O)N(c3ccc(C(=O)OCCOCCOC(=O)c4ccc(-c5c6nc(c(-c7ccc(S(=O)(=O)[O-])cc7)c7ccc([nH]7)c(-c7ccc(S(=O)(=O)[O-])cc7)c7nc(c(-c8ccc(S(=O)(=O)[O-])cc8)c8ccc5[nH]8)C=C7)C=C6)cc4)cc3)C(=O)[C@H]1[C@H]1c3ccccc3[C@@H]2c2ccccc21
REMARK SMILES IDX 16 1 15 2 14 3 13 4 12 5 10 6 11 7 9 8 6 9 7 10 82 11 8 12
REMARK SMILES IDX 81 13 5 14 1 15 2 16 3 17 85 18 93 19 4 20 83 21 86 22 92 23
REMARK SMILES IDX 94 24 84 25 87 26 99 27 91 28 95 29 88 30 98 31 90 32 96 33
REMARK SMILES IDX 89 34 97 35 17 36 18 37 19 38 20 39 21 40 22 41 80 42 23 43
REMARK SMILES IDX 79 44 24 45 25 46 26 47 73 48 27 49 78 50 72 51 74 52 28 53
REMARK SMILES IDX 77 54 71 55 70 56 29 58 59 59 40 60 58 61 41 62 44 63 57 64
REMARK SMILES IDX 75 65 42 66 43 67 56 69 76 70 45 71 30 72 31 73 39 74 32 75
REMARK SMILES IDX 38 76 33 77 34 78 35 79 36 80 37 81 60 82 61 83 69 84 62 85
REMARK SMILES IDX 68 86 63 87 64 88 65 89 66 90 67 91 46 92 47 93 55 94 48 95
REMARK SMILES IDX 54 96 49 97 50 98 51 99 52 100 53 101
REMARK H PARENT 74 57 44 68
REMARK Flexibility Score: inf
ROOT
ATOM      1  C   UNL     1       5.748   8.363  -0.534  1.00  0.00     0.202 C 
ENDROOT
BRANCH   1   2
ATOM      2  O   UNL     1       5.814   9.638  -1.173  1.00  0.00    -0.374 OA
BRANCH   2   3
ATOM      3  C   UNL     1       5.049  10.702  -0.598  1.00  0.00     0.202 C 
BRANCH   3   4
ATOM      4  C   UNL     1       3.535  10.628  -0.818  1.00  0.00     0.261 C 
BRANCH   4   5
ATOM      5  O   UNL     1       2.976   9.520  -0.090  1.00  0.00    -0.460 OA
BRANCH   5   6
ATOM      6  C   UNL     1       2.042   8.823  -0.773  1.00  0.00     0.338 C 
ATOM      7  O   UNL     1       1.492   9.131  -1.817  1.00  0.00    -0.246 OA
BRANCH   6   8
ATOM      8  C   UNL     1       1.949   7.469  -0.209  1.00  0.00     0.060 A 
ATOM      9  C   UNL     1       1.478   4.784   0.476  1.00  0.00     0.052 A 
ATOM     10  C   UNL     1       2.391   5.128  -0.541  1.00  0.00     0.028 A 
ATOM     11  C   UNL     1       0.909   5.826   1.224  1.00  0.00     0.028 A 
ATOM     12  C   UNL     1       2.591   6.454  -0.911  1.00  0.00     0.018 A 
ATOM     13  C   UNL     1       1.154   7.171   0.895  1.00  0.00     0.018 A 
BRANCH   9  14
ATOM     14  N   UNL     1       1.005   3.439   0.536  1.00  0.00    -0.250 N 
ATOM     15  C   UNL     1       1.147  -0.023  -0.113  1.00  0.00     0.024 C 
ATOM     16  C   UNL     1       0.653   1.376  -0.507  1.00  0.00     0.071 C 
ATOM     17  C   UNL     1       1.663   2.395  -0.068  1.00  0.00     0.241 C 
ATOM     18  C   UNL     1      -0.636   1.761   0.272  1.00  0.00     0.107 C 
ATOM     19  C   UNL     1       0.427   1.566  -2.053  1.00  0.00     0.066 C 
ATOM     20  O   UNL     1       2.865   2.266  -0.271  1.00  0.00    -0.273 OA
ATOM     21  C   UNL     1      -0.250   3.057   0.973  1.00  0.00     0.238 C 
ATOM     22  C   UNL     1      -1.819   1.978  -0.732  1.00  0.00     0.063 C 
ATOM     23  C   UNL     1      -0.192   2.953  -2.306  1.00  0.00    -0.036 A 
ATOM     24  C   UNL     1      -0.662   0.564  -2.407  1.00  0.00    -0.036 A 
ATOM     25  O   UNL     1      -1.006   3.630   1.745  1.00  0.00    -0.274 OA
ATOM     26  C   UNL     1      -1.412   3.163  -1.608  1.00  0.00    -0.036 A 
ATOM     27  C   UNL     1      -1.864   0.759  -1.670  1.00  0.00    -0.036 A 
ATOM     28  C   UNL     1       0.343   3.964  -3.090  1.00  0.00     0.005 A 
ATOM     29  C   UNL     1      -0.547  -0.434  -3.364  1.00  0.00     0.005 A 
ATOM     30  C   UNL     1      -2.085   4.375  -1.684  1.00  0.00     0.004 A 
ATOM     31  C   UNL     1      -2.956  -0.061  -1.908  1.00  0.00     0.004 A 
ATOM     32  C   UNL     1      -0.330   5.189  -3.155  1.00  0.00     0.000 A 
ATOM     33  C   UNL     1      -1.647  -1.256  -3.592  1.00  0.00     0.000 A 
ATOM     34  C   UNL     1      -1.532   5.392  -2.459  1.00  0.00     0.000 A 
ATOM     35  C   UNL     1      -2.838  -1.072  -2.871  1.00  0.00     0.000 A 
ENDBRANCH   9  14
ENDBRANCH   6   8
ENDBRANCH   5   6
ENDBRANCH   4   5
ENDBRANCH   3   4
ENDBRANCH   2   3
ENDBRANCH   1   2
BRANCH   1  36
ATOM     36  C   UNL     1       6.590   8.186   0.734  1.00  0.00     0.261 C 
BRANCH  36  37
ATOM     37  O   UNL     1       6.147   9.044   1.797  1.00  0.00    -0.460 OA
BRANCH  37  38
ATOM     38  C   UNL     1       7.009  10.041   2.119  1.00  0.00     0.338 C 
ATOM     39  O   UNL     1       8.135  10.205   1.677  1.00  0.00    -0.246 OA
BRANCH  38  40
ATOM     40  C   UNL     1       6.328  11.044   2.966  1.00  0.00     0.060 A 
ATOM     41  C   UNL     1       5.505  10.686   4.036  1.00  0.00     0.016 A 
ATOM     42  C   UNL     1       6.564  12.395   2.677  1.00  0.00     0.016 A 
ATOM     43  C   UNL     1       4.966  11.687   4.852  1.00  0.00     0.010 A 
ATOM     44  C   UNL     1       6.022  13.392   3.489  1.00  0.00     0.010 A 
ATOM     45  C   UNL     1       5.245  13.043   4.601  1.00  0.00    -0.014 A 
BRANCH  45  46
ATOM     46  C   UNL     1       4.892  14.080   5.602  1.00  0.00     0.031 A 
ATOM     47  C   UNL     1       3.728  15.004   5.414  1.00  0.00     0.074 A 
ATOM     48  C   UNL     1       5.678  14.194   6.691  1.00  0.00     0.049 A 
ATOM     49  N   UNL     1       3.256  15.898   6.245  1.00  0.00    -0.248 NA
ATOM     50  C   UNL     1       3.001  14.924   4.138  1.00  0.00     0.031 C 
ATOM     51  C   UNL     1       6.864  13.376   6.958  1.00  0.00     0.029 A 
ATOM     52  N   UNL     1       5.598  15.029   7.777  1.00  0.00    -0.354 N 
ATOM     53  C   UNL     1       2.162  16.470   5.610  1.00  0.00     0.074 A 
ATOM     54  C   UNL     1       2.066  15.855   4.303  1.00  0.00     0.031 C 
ATOM     55  C   UNL     1       7.376  13.723   8.149  1.00  0.00     0.029 A 
ATOM     56  C   UNL     1       6.573  14.800   8.719  1.00  0.00     0.049 A 
ATOM     57  H   UNL     1       4.908  15.725   7.873  1.00  0.00     0.167 HD
ATOM     58  C   UNL     1       1.308  17.405   6.089  1.00  0.00     0.031 A 
ATOM     59  C   UNL     1       6.791  15.377   9.916  1.00  0.00     0.031 A 
ATOM     60  C   UNL     1       1.423  18.023   7.387  1.00  0.00     0.049 A 
ATOM     61  C   UNL     1       5.852  16.444  10.400  1.00  0.00     0.074 A 
ATOM     62  C   UNL     1       0.565  18.938   7.977  1.00  0.00     0.029 A 
ATOM     63  N   UNL     1       2.453  17.807   8.289  1.00  0.00    -0.354 N 
ATOM     64  N   UNL     1       4.772  16.909   9.822  1.00  0.00    -0.248 NA
ATOM     65  C   UNL     1       6.154  17.055  11.702  1.00  0.00     0.031 C 
ATOM     66  C   UNL     1       1.109  19.321   9.206  1.00  0.00     0.029 A 
ATOM     67  C   UNL     1       2.272  18.598   9.412  1.00  0.00     0.049 A 
ATOM     68  H   UNL     1       3.202  17.183   8.152  1.00  0.00     0.167 HD
ATOM     69  C   UNL     1       4.257  17.860  10.695  1.00  0.00     0.074 A 
ATOM     70  C   UNL     1       5.131  17.887  11.850  1.00  0.00     0.031 C 
ATOM     71  C   UNL     1       3.158  18.639  10.549  1.00  0.00     0.031 A 
BRANCH  58  72
ATOM     72  C   UNL     1       0.134  17.813   5.239  1.00  0.00    -0.014 A 
ATOM     73  C   UNL     1       0.059  19.119   4.720  1.00  0.00     0.010 A 
ATOM     74  C   UNL     1      -0.975  16.958   5.108  1.00  0.00     0.010 A 
ATOM     75  C   UNL     1      -1.119  19.577   4.122  1.00  0.00     0.020 A 
ATOM     76  C   UNL     1      -2.148  17.407   4.493  1.00  0.00     0.020 A 
ATOM     77  C   UNL     1      -2.221  18.722   4.029  1.00  0.00     0.054 A 
BRANCH  77  78
ATOM     78  S   UNL     1      -3.765  19.355   3.315  1.00  0.00     0.124 S 
ATOM     79  O   UNL     1      -4.274  20.206   4.386  1.00  0.00    -0.237 OA
ATOM     80  O   UNL     1      -3.299  20.054   2.119  1.00  0.00    -0.237 OA
ATOM     81  O   UNL     1      -4.542  18.145   3.054  1.00  0.00    -0.744 OA
ENDBRANCH  77  78
ENDBRANCH  58  72
BRANCH  59  82
ATOM     82  C   UNL     1       7.922  14.905  10.759  1.00  0.00    -0.014 A 
ATOM     83  C   UNL     1       9.252  15.169  10.387  1.00  0.00     0.010 A 
ATOM     84  C   UNL     1       7.670  14.137  11.909  1.00  0.00     0.010 A 
ATOM     85  C   UNL     1      10.312  14.644  11.130  1.00  0.00     0.020 A 
ATOM     86  C   UNL     1       8.728  13.633  12.670  1.00  0.00     0.020 A 
ATOM     87  C   UNL     1      10.043  13.870  12.262  1.00  0.00     0.054 A 
BRANCH  87  88
ATOM     88  S   UNL     1      11.430  13.182  13.206  1.00  0.00     0.124 S 
ATOM     89  O   UNL     1      11.788  12.016  12.403  1.00  0.00    -0.237 OA
ATOM     90  O   UNL     1      12.400  14.274  13.196  1.00  0.00    -0.237 OA
ATOM     91  O   UNL     1      10.842  12.888  14.510  1.00  0.00    -0.744 OA
ENDBRANCH  87  88
ENDBRANCH  59  82
BRANCH  71  92
ATOM     92  C   UNL     1       2.835  19.610  11.653  1.00  0.00    -0.014 A 
ATOM     93  C   UNL     1       1.695  19.412  12.453  1.00  0.00     0.010 A 
ATOM     94  C   UNL     1       3.610  20.769  11.840  1.00  0.00     0.010 A 
ATOM     95  C   UNL     1       1.324  20.364  13.407  1.00  0.00     0.020 A 
ATOM     96  C   UNL     1       3.258  21.709  12.812  1.00  0.00     0.020 A 
ATOM     97  C   UNL     1       2.104  21.510  13.575  1.00  0.00     0.054 A 
BRANCH  97  98
ATOM     98  S   UNL     1       1.612  22.737  14.818  1.00  0.00     0.124 S 
ATOM     99  O   UNL     1       0.566  23.478  14.121  1.00  0.00    -0.237 OA
ATOM    100  O   UNL     1       1.160  21.906  15.932  1.00  0.00    -0.237 OA
ATOM    101  O   UNL     1       2.845  23.480  15.069  1.00  0.00    -0.744 OA
ENDBRANCH  97  98
ENDBRANCH  71  92
ENDBRANCH  45  46
ENDBRANCH  38  40
ENDBRANCH  37  38
ENDBRANCH  36  37
ENDBRANCH   1  36
TORSDOF 18
