REMARK SMILES Cc1noc2c1-c1c(c(C(=O)OCCOCCOC(=O)c3ccc(-c4c5nc(c(-c6ccc(S(=O)(=O)[O-])cc6)c6ccc([nH]6)c(-c6ccc(S(=O)(=O)[O-])cc6)c6nc(c(-c7ccc(S(=O)(=O)[O-])cc7)c7ccc4[nH]7)C=C6)C=C5)cc3)nn1C)CC2
REMARK SMILES IDX 16 1 15 2 14 3 13 4 12 5 10 6 11 7 9 8 1 9 2 10 3 11 6 12
REMARK SMILES IDX 4 13 5 14 7 15 85 16 8 17 82 18 84 19 81 20 83 21 17 22
REMARK SMILES IDX 18 23 19 24 20 25 21 26 22 27 80 28 23 29 79 30 24 31 25 32
REMARK SMILES IDX 26 33 73 34 27 35 78 36 72 37 74 38 28 39 77 40 71 41 70 42
REMARK SMILES IDX 29 44 59 45 40 46 58 47 41 48 44 49 57 50 75 51 42 52 43 53
REMARK SMILES IDX 56 55 76 56 45 57 30 58 31 59 39 60 32 61 38 62 33 63 34 64
REMARK SMILES IDX 35 65 36 66 37 67 60 68 61 69 69 70 62 71 68 72 63 73 64 74
REMARK SMILES IDX 65 75 66 76 67 77 46 78 47 79 55 80 48 81 54 82 49 83 50 84
REMARK SMILES IDX 51 85 52 86 53 87
REMARK H PARENT 74 43 44 54
REMARK Flexibility Score: inf
ROOT
ATOM      1  C   UNL     1       4.155   6.087   4.110  1.00  0.00     0.202 C 
ENDROOT
BRANCH   1   2
ATOM      2  O   UNL     1       5.008   7.212   3.930  1.00  0.00    -0.374 OA
BRANCH   2   3
ATOM      3  C   UNL     1       4.759   8.123   2.861  1.00  0.00     0.202 C 
BRANCH   3   4
ATOM      4  C   UNL     1       5.115   7.662   1.446  1.00  0.00     0.261 C 
BRANCH   4   5
ATOM      5  O   UNL     1       4.298   6.562   1.021  1.00  0.00    -0.458 OA
BRANCH   5   6
ATOM      6  C   UNL     1       4.932   5.349   0.995  1.00  0.00     0.359 C 
ATOM      7  O   UNL     1       6.137   5.202   1.162  1.00  0.00    -0.244 OA
BRANCH   6   8
ATOM      8  C   UNL     1       3.990   4.225   0.849  1.00  0.00     0.174 A 
ATOM      9  C   UNL     1       0.645  -0.168  -0.256  1.00  0.00     0.071 C 
ATOM     10  C   UNL     1       0.539   1.175  -0.863  1.00  0.00     0.090 A 
ATOM     11  N   UNL     1      -0.348   1.367  -1.857  1.00  0.00    -0.084 NA
ATOM     12  C   UNL     1       1.244   2.362  -0.594  1.00  0.00     0.066 A 
ATOM     13  O   UNL     1      -0.218   2.693  -2.249  1.00  0.00    -0.360 OA
ATOM     14  C   UNL     1       0.729   3.273  -1.484  1.00  0.00     0.146 A 
ATOM     15  C   UNL     1       2.361   2.837   0.246  1.00  0.00     0.077 A 
ATOM     16  C   UNL     1       1.161   4.672  -1.741  1.00  0.00     0.084 C 
ATOM     17  C   UNL     1       2.727   4.176   0.196  1.00  0.00     0.014 A 
ATOM     18  N   UNL     1       3.243   2.229   1.078  1.00  0.00    -0.267 N 
ATOM     19  C   UNL     1       1.907   5.231  -0.503  1.00  0.00     0.048 C 
ATOM     20  N   UNL     1       4.278   3.026   1.400  1.00  0.00    -0.165 NA
ATOM     21  C   UNL     1       3.240   0.882   1.587  1.00  0.00     0.174 C 
ENDBRANCH   6   8
ENDBRANCH   5   6
ENDBRANCH   4   5
ENDBRANCH   3   4
ENDBRANCH   2   3
ENDBRANCH   1   2
BRANCH   1  22
ATOM     22  C   UNL     1       2.740   6.321   4.617  1.00  0.00     0.261 C 
BRANCH  22  23
ATOM     23  O   UNL     1       1.979   7.157   3.759  1.00  0.00    -0.460 OA
BRANCH  23  24
ATOM     24  C   UNL     1       1.863   8.428   4.215  1.00  0.00     0.338 C 
ATOM     25  O   UNL     1       2.583   8.990   5.016  1.00  0.00    -0.246 OA
BRANCH  24  26
ATOM     26  C   UNL     1       0.617   8.998   3.695  1.00  0.00     0.060 A 
ATOM     27  C   UNL     1       0.347  10.327   4.029  1.00  0.00     0.016 A 
ATOM     28  C   UNL     1      -0.358   8.152   3.149  1.00  0.00     0.016 A 
ATOM     29  C   UNL     1      -0.962  10.753   3.999  1.00  0.00     0.010 A 
ATOM     30  C   UNL     1      -1.665   8.572   3.137  1.00  0.00     0.010 A 
ATOM     31  C   UNL     1      -1.957   9.837   3.640  1.00  0.00    -0.014 A 
BRANCH  31  32
ATOM     32  C   UNL     1      -3.335  10.271   3.674  1.00  0.00     0.031 A 
ATOM     33  C   UNL     1      -3.657  11.171   2.547  1.00  0.00     0.074 A 
ATOM     34  C   UNL     1      -4.223   9.795   4.567  1.00  0.00     0.049 A 
ATOM     35  N   UNL     1      -3.840  12.447   2.599  1.00  0.00    -0.248 NA
ATOM     36  C   UNL     1      -3.530  10.635   1.179  1.00  0.00     0.031 C 
ATOM     37  C   UNL     1      -4.043   8.709   5.535  1.00  0.00     0.029 A 
ATOM     38  N   UNL     1      -5.534  10.116   4.719  1.00  0.00    -0.354 N 
ATOM     39  C   UNL     1      -4.122  12.824   1.294  1.00  0.00     0.074 A 
ATOM     40  C   UNL     1      -3.670  11.745   0.455  1.00  0.00     0.031 C 
ATOM     41  C   UNL     1      -5.256   8.303   5.978  1.00  0.00     0.029 A 
ATOM     42  C   UNL     1      -6.279   9.179   5.429  1.00  0.00     0.049 A 
ATOM     43  H   UNL     1      -5.926  10.943   4.356  1.00  0.00     0.167 HD
ATOM     44  C   UNL     1      -5.001  13.830   1.033  1.00  0.00     0.031 A 
ATOM     45  C   UNL     1      -7.636   9.096   5.481  1.00  0.00     0.031 A 
ATOM     46  C   UNL     1      -5.253  14.628   2.207  1.00  0.00     0.049 A 
ATOM     47  C   UNL     1      -8.167  10.423   5.075  1.00  0.00     0.074 A 
ATOM     48  C   UNL     1      -4.466  15.373   3.064  1.00  0.00     0.029 A 
ATOM     49  N   UNL     1      -6.427  14.382   2.881  1.00  0.00    -0.354 N 
ATOM     50  N   UNL     1      -7.994  11.505   5.780  1.00  0.00    -0.248 NA
ATOM     51  C   UNL     1      -8.457  10.641   3.665  1.00  0.00     0.031 C 
ATOM     52  C   UNL     1      -5.012  15.143   4.360  1.00  0.00     0.029 A 
ATOM     53  C   UNL     1      -6.149  14.343   4.222  1.00  0.00     0.049 A 
ATOM     54  H   UNL     1      -7.312  14.255   2.471  1.00  0.00     0.167 HD
ATOM     55  C   UNL     1      -7.693  12.489   4.849  1.00  0.00     0.074 A 
ATOM     56  C   UNL     1      -8.087  11.921   3.559  1.00  0.00     0.031 C 
ATOM     57  C   UNL     1      -6.887  13.544   5.177  1.00  0.00     0.031 A 
BRANCH  44  58
ATOM     58  C   UNL     1      -5.965  13.786  -0.128  1.00  0.00    -0.014 A 
ATOM     59  C   UNL     1      -6.827  14.881  -0.328  1.00  0.00     0.010 A 
ATOM     60  C   UNL     1      -6.252  12.608  -0.851  1.00  0.00     0.010 A 
ATOM     61  C   UNL     1      -7.955  14.775  -1.151  1.00  0.00     0.020 A 
ATOM     62  C   UNL     1      -7.346  12.506  -1.709  1.00  0.00     0.020 A 
ATOM     63  C   UNL     1      -8.210  13.582  -1.828  1.00  0.00     0.054 A 
BRANCH  63  64
ATOM     64  S   UNL     1      -9.710  13.429  -2.823  1.00  0.00     0.124 S 
ATOM     65  O   UNL     1     -10.753  13.507  -1.805  1.00  0.00    -0.237 OA
ATOM     66  O   UNL     1      -9.604  14.581  -3.715  1.00  0.00    -0.237 OA
ATOM     67  O   UNL     1      -9.558  12.129  -3.471  1.00  0.00    -0.744 OA
ENDBRANCH  63  64
ENDBRANCH  44  58
BRANCH  45  68
ATOM     68  C   UNL     1      -8.479   7.868   5.471  1.00  0.00    -0.014 A 
ATOM     69  C   UNL     1      -9.877   7.944   5.641  1.00  0.00     0.010 A 
ATOM     70  C   UNL     1      -7.950   6.653   4.991  1.00  0.00     0.010 A 
ATOM     71  C   UNL     1     -10.715   6.878   5.263  1.00  0.00     0.020 A 
ATOM     72  C   UNL     1      -8.777   5.585   4.620  1.00  0.00     0.020 A 
ATOM     73  C   UNL     1     -10.159   5.713   4.729  1.00  0.00     0.054 A 
BRANCH  73  74
ATOM     74  S   UNL     1     -11.245   4.426   4.039  1.00  0.00     0.124 S 
ATOM     75  O   UNL     1     -11.830   3.836   5.239  1.00  0.00    -0.237 OA
ATOM     76  O   UNL     1     -12.161   5.196   3.202  1.00  0.00    -0.237 OA
ATOM     77  O   UNL     1     -10.325   3.557   3.307  1.00  0.00    -0.744 OA
ENDBRANCH  73  74
ENDBRANCH  45  68
BRANCH  57  78
ATOM     78  C   UNL     1      -6.585  13.784   6.640  1.00  0.00    -0.014 A 
ATOM     79  C   UNL     1      -5.945  12.857   7.487  1.00  0.00     0.010 A 
ATOM     80  C   UNL     1      -6.865  15.065   7.145  1.00  0.00     0.010 A 
ATOM     81  C   UNL     1      -5.643  13.191   8.818  1.00  0.00     0.020 A 
ATOM     82  C   UNL     1      -6.550  15.411   8.460  1.00  0.00     0.020 A 
ATOM     83  C   UNL     1      -5.957  14.466   9.297  1.00  0.00     0.054 A 
BRANCH  83  84
ATOM     84  S   UNL     1      -5.580  14.898  11.019  1.00  0.00     0.124 S 
ATOM     85  O   UNL     1      -6.494  14.042  11.769  1.00  0.00    -0.237 OA
ATOM     86  O   UNL     1      -4.163  14.562  11.136  1.00  0.00    -0.237 OA
ATOM     87  O   UNL     1      -5.875  16.329  11.092  1.00  0.00    -0.744 OA
ENDBRANCH  83  84
ENDBRANCH  57  78
ENDBRANCH  31  32
ENDBRANCH  24  26
ENDBRANCH  23  24
ENDBRANCH  22  23
ENDBRANCH   1  22
TORSDOF 17
