REMARK SMILES Cc1cccc(OCC(=O)Nc2cc(C(=O)OCCOCCOC(=O)c3ccc(-c4c5nc(c(-c6ccc(S(=O)(=O)[O-])cc6)c6ccc([nH]6)c(-c6ccc(S(=O)(=O)[O-])cc6)c6nc(c(-c7ccc(S(=O)(=O)[O-])cc7)c7ccc4[nH]7)C=C6)C=C5)cc3)c(Cl)cc2Cl)c1
REMARK SMILES IDX 19 1 18 2 17 3 15 4 16 5 14 6 12 7 13 8 89 9 88 10 90 11
REMARK SMILES IDX 86 12 87 13 11 14 9 15 10 16 8 18 7 19 6 20 1 21 2 22 3 23
REMARK SMILES IDX 91 24 4 25 5 26 20 27 21 28 22 29 23 30 24 31 25 32 26 33
REMARK SMILES IDX 27 34 85 35 28 36 84 37 29 38 30 39 31 40 78 41 32 42 83 43
REMARK SMILES IDX 77 44 79 45 33 46 82 47 76 48 75 49 34 51 64 52 45 53 63 54
REMARK SMILES IDX 46 55 49 56 62 57 80 58 47 59 48 60 61 62 81 63 50 64 35 65
REMARK SMILES IDX 36 66 44 67 37 68 43 69 38 70 39 71 40 72 41 73 42 74 65 75
REMARK SMILES IDX 66 76 74 77 67 78 73 79 68 80 69 81 70 82 71 83 72 84 51 85
REMARK SMILES IDX 52 86 60 87 53 88 59 89 54 90 55 91 56 92 57 93 58 94
REMARK H PARENT 11 17 79 50 49 61
REMARK Flexibility Score: inf
ROOT
ATOM      1  C   UNL     1      -4.803  -0.686   2.160  1.00  0.00     0.202 C 
ENDROOT
BRANCH   1   2
ATOM      2  C   UNL     1      -4.813   0.297   1.063  1.00  0.00     0.261 C 
BRANCH   2   3
ATOM      3  O   UNL     1      -4.245   1.528   1.512  1.00  0.00    -0.460 OA
BRANCH   3   4
ATOM      4  C   UNL     1      -5.104   2.495   1.952  1.00  0.00     0.339 C 
ATOM      5  O   UNL     1      -6.295   2.545   1.818  1.00  0.00    -0.246 OA
BRANCH   4   6
ATOM      6  C   UNL     1      -4.244   3.478   2.648  1.00  0.00     0.080 A 
ATOM      7  C   UNL     1      -1.961   4.241   3.051  1.00  0.00     0.061 A 
ATOM      8  C   UNL     1      -2.870   3.522   2.301  1.00  0.00     0.045 A 
ATOM      9  C   UNL     1      -2.464   4.950   4.164  1.00  0.00     0.066 A 
ATOM     10  C   UNL     1      -3.833   4.976   4.469  1.00  0.00     0.044 A 
ATOM     11  Cl  UNL     1      -1.400   5.802   5.229  1.00  0.00    -0.082 Cl
ATOM     12  C   UNL     1      -4.735   4.237   3.709  1.00  0.00     0.057 A 
ATOM     13  Cl  UNL     1      -6.386   4.258   4.215  1.00  0.00    -0.083 Cl
BRANCH   7  14
ATOM     14  N   UNL     1      -0.569   4.169   2.841  1.00  0.00    -0.322 N 
ATOM     15  C   UNL     1       0.278   3.768   1.837  1.00  0.00     0.262 C 
ATOM     16  O   UNL     1       1.469   3.701   2.169  1.00  0.00    -0.271 OA
ATOM     17  H   UNL     1      -0.069   4.493   3.625  1.00  0.00     0.170 HD
BRANCH  15  18
ATOM     18  C   UNL     1      -0.143   3.623   0.340  1.00  0.00     0.329 C 
BRANCH  18  19
ATOM     19  O   UNL     1       0.535   2.923  -0.708  1.00  0.00    -0.484 OA
BRANCH  19  20
ATOM     20  C   UNL     1       0.994   1.661  -0.471  1.00  0.00     0.120 A 
ATOM     21  C   UNL     1       4.044  -0.074   0.870  1.00  0.00     0.044 C 
ATOM     22  C   UNL     1       2.630   0.127   0.431  1.00  0.00    -0.047 A 
ATOM     23  C   UNL     1       1.939  -0.966  -0.092  1.00  0.00     0.003 A 
ATOM     24  C   UNL     1       2.098   1.423   0.323  1.00  0.00     0.049 A 
ATOM     25  C   UNL     1       0.932  -0.719  -1.000  1.00  0.00     0.004 A 
ATOM     26  C   UNL     1       0.564   0.606  -1.271  1.00  0.00     0.046 A 
ENDBRANCH  19  20
ENDBRANCH  18  19
ENDBRANCH  15  18
ENDBRANCH   7  14
ENDBRANCH   4   6
ENDBRANCH   3   4
ENDBRANCH   2   3
ENDBRANCH   1   2
BRANCH   1  27
ATOM     27  O   UNL     1      -5.934  -0.284   2.918  1.00  0.00    -0.374 OA
BRANCH  27  28
ATOM     28  C   UNL     1      -6.162  -1.044   4.074  1.00  0.00     0.202 C 
BRANCH  28  29
ATOM     29  C   UNL     1      -6.188  -2.552   3.804  1.00  0.00     0.261 C 
BRANCH  29  30
ATOM     30  O   UNL     1      -7.315  -2.874   2.956  1.00  0.00    -0.460 OA
BRANCH  30  31
ATOM     31  C   UNL     1      -7.031  -3.368   1.712  1.00  0.00     0.338 C 
ATOM     32  O   UNL     1      -6.602  -4.488   1.506  1.00  0.00    -0.246 OA
BRANCH  31  33
ATOM     33  C   UNL     1      -7.347  -2.346   0.667  1.00  0.00     0.060 A 
ATOM     34  C   UNL     1      -6.728  -2.370  -0.600  1.00  0.00     0.016 A 
ATOM     35  C   UNL     1      -8.115  -1.244   1.034  1.00  0.00     0.016 A 
ATOM     36  C   UNL     1      -6.757  -1.237  -1.433  1.00  0.00     0.010 A 
ATOM     37  C   UNL     1      -8.102  -0.116   0.240  1.00  0.00     0.010 A 
ATOM     38  C   UNL     1      -7.393  -0.088  -0.978  1.00  0.00    -0.014 A 
BRANCH  38  39
ATOM     39  C   UNL     1      -7.397   1.232  -1.617  1.00  0.00     0.031 A 
ATOM     40  C   UNL     1      -8.682   1.692  -2.148  1.00  0.00     0.074 A 
ATOM     41  C   UNL     1      -6.394   2.118  -1.409  1.00  0.00     0.049 A 
ATOM     42  N   UNL     1      -8.830   2.753  -2.853  1.00  0.00    -0.248 NA
ATOM     43  C   UNL     1      -9.936   0.965  -1.947  1.00  0.00     0.031 C 
ATOM     44  C   UNL     1      -6.363   3.579  -1.415  1.00  0.00     0.029 A 
ATOM     45  N   UNL     1      -5.063   1.823  -1.196  1.00  0.00    -0.354 N 
ATOM     46  C   UNL     1     -10.155   3.087  -2.731  1.00  0.00     0.074 A 
ATOM     47  C   UNL     1     -10.821   1.858  -2.391  1.00  0.00     0.031 C 
ATOM     48  C   UNL     1      -5.091   4.006  -1.578  1.00  0.00     0.029 A 
ATOM     49  C   UNL     1      -4.286   2.816  -1.778  1.00  0.00     0.049 A 
ATOM     50  H   UNL     1      -4.721   1.037  -0.711  1.00  0.00     0.167 HD
ATOM     51  C   UNL     1     -10.475   4.410  -2.679  1.00  0.00     0.031 A 
ATOM     52  C   UNL     1      -3.446   2.459  -2.783  1.00  0.00     0.031 A 
ATOM     53  C   UNL     1      -9.292   5.254  -2.937  1.00  0.00     0.049 A 
ATOM     54  C   UNL     1      -3.895   3.253  -3.963  1.00  0.00     0.074 A 
ATOM     55  C   UNL     1      -8.580   6.177  -2.189  1.00  0.00     0.029 A 
ATOM     56  N   UNL     1      -8.490   4.961  -4.042  1.00  0.00    -0.354 N 
ATOM     57  N   UNL     1      -5.158   3.515  -4.186  1.00  0.00    -0.248 NA
ATOM     58  C   UNL     1      -2.979   4.065  -4.757  1.00  0.00     0.031 C 
ATOM     59  C   UNL     1      -7.319   6.386  -2.833  1.00  0.00     0.029 A 
ATOM     60  C   UNL     1      -7.262   5.583  -3.965  1.00  0.00     0.049 A 
ATOM     61  H   UNL     1      -8.768   4.379  -4.787  1.00  0.00     0.167 HD
ATOM     62  C   UNL     1      -5.222   4.648  -4.946  1.00  0.00     0.074 A 
ATOM     63  C   UNL     1      -3.842   4.911  -5.343  1.00  0.00     0.031 C 
ATOM     64  C   UNL     1      -6.316   5.453  -5.068  1.00  0.00     0.031 A 
BRANCH  51  65
ATOM     65  C   UNL     1     -11.796   4.943  -2.163  1.00  0.00    -0.014 A 
ATOM     66  C   UNL     1     -11.966   6.333  -2.015  1.00  0.00     0.010 A 
ATOM     67  C   UNL     1     -12.901   4.150  -1.786  1.00  0.00     0.010 A 
ATOM     68  C   UNL     1     -13.163   6.894  -1.543  1.00  0.00     0.020 A 
ATOM     69  C   UNL     1     -14.108   4.693  -1.325  1.00  0.00     0.020 A 
ATOM     70  C   UNL     1     -14.236   6.069  -1.217  1.00  0.00     0.054 A 
BRANCH  70  71
ATOM     71  S   UNL     1     -15.801   6.811  -0.700  1.00  0.00     0.124 S 
ATOM     72  O   UNL     1     -15.423   7.525   0.516  1.00  0.00    -0.237 OA
ATOM     73  O   UNL     1     -16.141   7.649  -1.846  1.00  0.00    -0.237 OA
ATOM     74  O   UNL     1     -16.681   5.661  -0.493  1.00  0.00    -0.744 OA
ENDBRANCH  70  71
ENDBRANCH  51  65
BRANCH  52  75
ATOM     75  C   UNL     1      -2.982   1.039  -2.609  1.00  0.00    -0.014 A 
ATOM     76  C   UNL     1      -2.366   0.775  -1.359  1.00  0.00     0.010 A 
ATOM     77  C   UNL     1      -3.412  -0.079  -3.336  1.00  0.00     0.010 A 
ATOM     78  C   UNL     1      -2.221  -0.509  -0.825  1.00  0.00     0.020 A 
ATOM     79  C   UNL     1      -3.276  -1.390  -2.797  1.00  0.00     0.020 A 
ATOM     80  C   UNL     1      -2.692  -1.594  -1.540  1.00  0.00     0.054 A 
BRANCH  80  81
ATOM     81  S   UNL     1      -2.695  -3.209  -0.702  1.00  0.00     0.124 S 
ATOM     82  O   UNL     1      -1.377  -3.732  -1.047  1.00  0.00    -0.237 OA
ATOM     83  O   UNL     1      -2.874  -2.843   0.705  1.00  0.00    -0.237 OA
ATOM     84  O   UNL     1      -3.830  -3.892  -1.309  1.00  0.00    -0.744 OA
ENDBRANCH  80  81
ENDBRANCH  52  75
BRANCH  64  85
ATOM     85  C   UNL     1      -6.631   6.143  -6.366  1.00  0.00    -0.014 A 
ATOM     86  C   UNL     1      -5.838   6.034  -7.516  1.00  0.00     0.010 A 
ATOM     87  C   UNL     1      -7.891   6.773  -6.506  1.00  0.00     0.010 A 
ATOM     88  C   UNL     1      -6.257   6.564  -8.733  1.00  0.00     0.020 A 
ATOM     89  C   UNL     1      -8.349   7.245  -7.731  1.00  0.00     0.020 A 
ATOM     90  C   UNL     1      -7.512   7.160  -8.833  1.00  0.00     0.054 A 
BRANCH  90  91
ATOM     91  S   UNL     1      -8.038   7.789 -10.434  1.00  0.00     0.124 S 
ATOM     92  O   UNL     1      -7.217   8.991 -10.560  1.00  0.00    -0.237 OA
ATOM     93  O   UNL     1      -7.690   6.693 -11.336  1.00  0.00    -0.237 OA
ATOM     94  O   UNL     1      -9.470   8.021 -10.265  1.00  0.00    -0.744 OA
ENDBRANCH  90  91
ENDBRANCH  64  85
ENDBRANCH  38  39
ENDBRANCH  31  33
ENDBRANCH  30  31
ENDBRANCH  29  30
ENDBRANCH  28  29
ENDBRANCH  27  28
ENDBRANCH   1  27
TORSDOF 21
