REMARK SMILES C[NH+]1CCC(NC(=O)N[C@H]2C=C[C@H](C(=O)OCCOCCOC(=O)c3ccc(-c4c5nc(c(-c6ccc(S(=O)(=O)[O-])cc6)c6ccc([nH]6)c(-c6ccc(S(=O)(=O)[O-])cc6)c6nc(c(-c7ccc(S(=O)(=O)[O-])cc7)c7ccc4[nH]7)C=C6)C=C5)cc3)C2)CC1
REMARK SMILES IDX 20 1 19 2 18 3 17 4 16 5 14 6 15 7 13 8 10 9 11 10 85 11
REMARK SMILES IDX 12 12 9 13 6 14 7 15 8 17 5 19 1 20 2 21 3 22 87 23 4 25
REMARK SMILES IDX 86 26 21 27 22 28 23 29 24 30 25 31 26 32 84 33 27 34 83 35
REMARK SMILES IDX 28 36 29 37 30 38 77 39 31 40 82 41 76 42 78 43 32 44 81 45
REMARK SMILES IDX 75 46 74 47 33 49 63 50 44 51 62 52 45 53 48 54 61 55 79 56
REMARK SMILES IDX 46 57 47 58 60 60 80 61 49 62 34 63 35 64 43 65 36 66 42 67
REMARK SMILES IDX 37 68 38 69 39 70 40 71 41 72 64 73 65 74 73 75 66 76 72 77
REMARK SMILES IDX 67 78 68 79 69 80 70 81 71 82 50 83 51 84 59 85 52 86 58 87
REMARK SMILES IDX 53 88 54 89 55 90 56 91 57 92
REMARK H PARENT 6 16 9 18 2 24 78 48 48 59
REMARK Flexibility Score: inf
ROOT
ATOM      1  C   UNL     1      -0.477   3.103  -3.532  1.00  0.00     0.202 C 
ENDROOT
BRANCH   1   2
ATOM      2  O   UNL     1      -1.542   2.904  -4.463  1.00  0.00    -0.374 OA
BRANCH   2   3
ATOM      3  C   UNL     1      -2.731   2.326  -3.919  1.00  0.00     0.202 C 
BRANCH   3   4
ATOM      4  C   UNL     1      -2.768   0.797  -3.978  1.00  0.00     0.261 C 
BRANCH   4   5
ATOM      5  O   UNL     1      -1.687   0.252  -3.213  1.00  0.00    -0.463 OA
BRANCH   5   6
ATOM      6  C   UNL     1      -0.576  -0.163  -3.895  1.00  0.00     0.312 C 
ATOM      7  O   UNL     1      -0.472  -0.289  -5.104  1.00  0.00    -0.252 OA
BRANCH   6   8
ATOM      8  C   UNL     1       0.531  -0.374  -2.877  1.00  0.00     0.124 C 
ATOM      9  C   UNL     1       2.985  -0.348  -2.901  1.00  0.00     0.107 C 
ATOM     10  C   UNL     1       2.447  -1.730  -2.788  1.00  0.00    -0.006 C 
ATOM     11  C   UNL     1       1.754   0.550  -3.056  1.00  0.00     0.048 C 
ATOM     12  C   UNL     1       1.110  -1.753  -2.840  1.00  0.00    -0.014 C 
BRANCH   9  13
ATOM     13  N   UNL     1       3.981  -0.044  -1.880  1.00  0.00    -0.332 N 
ATOM     14  N   UNL     1       3.228  -0.039   0.385  1.00  0.00    -0.335 N 
ATOM     15  C   UNL     1       4.166   0.037  -0.561  1.00  0.00     0.315 C 
ATOM     16  H   UNL     1       3.592  -0.117   1.297  1.00  0.00     0.165 HD
ATOM     17  O   UNL     1       5.332   0.194  -0.183  1.00  0.00    -0.249 OA
ATOM     18  H   UNL     1       4.826   0.187  -2.328  1.00  0.00     0.165 HD
BRANCH  14  19
ATOM     19  C   UNL     1       1.788  -0.031   0.335  1.00  0.00     0.095 C 
ATOM     20  C   UNL     1      -2.406   0.040   0.711  1.00  0.00     0.332 C 
ATOM     21  N   UNL     1      -1.003   0.033   1.149  1.00  0.00    -0.337 N 
ATOM     22  C   UNL     1      -0.328   1.245   0.671  1.00  0.00     0.264 C 
ATOM     23  C   UNL     1      -0.365  -1.229   0.746  1.00  0.00     0.264 C 
ATOM     24  H   UNL     1      -0.935   0.063   2.166  1.00  0.00     0.347 HD
ATOM     25  C   UNL     1       1.180   1.234   0.931  1.00  0.00     0.086 C 
ATOM     26  C   UNL     1       1.149  -1.253   0.978  1.00  0.00     0.086 C 
ENDBRANCH  14  19
ENDBRANCH   9  13
ENDBRANCH   6   8
ENDBRANCH   5   6
ENDBRANCH   4   5
ENDBRANCH   3   4
ENDBRANCH   2   3
ENDBRANCH   1   2
BRANCH   1  27
ATOM     27  C   UNL     1      -0.461   4.465  -2.835  1.00  0.00     0.261 C 
BRANCH  27  28
ATOM     28  O   UNL     1      -1.554   4.579  -1.911  1.00  0.00    -0.460 OA
BRANCH  28  29
ATOM     29  C   UNL     1      -2.631   5.234  -2.410  1.00  0.00     0.338 C 
ATOM     30  O   UNL     1      -2.721   5.788  -3.489  1.00  0.00    -0.246 OA
BRANCH  29  31
ATOM     31  C   UNL     1      -3.784   5.029  -1.516  1.00  0.00     0.060 A 
ATOM     32  C   UNL     1      -4.992   4.643  -2.108  1.00  0.00     0.016 A 
ATOM     33  C   UNL     1      -3.705   5.268  -0.142  1.00  0.00     0.016 A 
ATOM     34  C   UNL     1      -6.146   4.559  -1.338  1.00  0.00     0.010 A 
ATOM     35  C   UNL     1      -4.867   5.185   0.630  1.00  0.00     0.010 A 
ATOM     36  C   UNL     1      -6.098   4.873   0.026  1.00  0.00    -0.014 A 
BRANCH  36  37
ATOM     37  C   UNL     1      -7.364   5.021   0.782  1.00  0.00     0.031 A 
ATOM     38  C   UNL     1      -7.879   6.404   1.076  1.00  0.00     0.074 A 
ATOM     39  C   UNL     1      -8.061   3.937   1.164  1.00  0.00     0.049 A 
ATOM     40  N   UNL     1      -8.951   6.765   1.732  1.00  0.00    -0.248 NA
ATOM     41  C   UNL     1      -7.080   7.530   0.563  1.00  0.00     0.031 C 
ATOM     42  C   UNL     1      -7.683   2.550   0.893  1.00  0.00     0.029 A 
ATOM     43  N   UNL     1      -9.238   3.836   1.861  1.00  0.00    -0.354 N 
ATOM     44  C   UNL     1      -8.951   8.155   1.720  1.00  0.00     0.074 A 
ATOM     45  C   UNL     1      -7.755   8.573   1.023  1.00  0.00     0.031 C 
ATOM     46  C   UNL     1      -8.614   1.735   1.418  1.00  0.00     0.029 A 
ATOM     47  C   UNL     1      -9.628   2.540   2.095  1.00  0.00     0.049 A 
ATOM     48  H   UNL     1      -9.754   4.618   2.164  1.00  0.00     0.167 HD
ATOM     49  C   UNL     1      -9.869   9.006   2.237  1.00  0.00     0.031 A 
ATOM     50  C   UNL     1     -10.675   2.058   2.794  1.00  0.00     0.031 A 
ATOM     51  C   UNL     1     -11.050   8.581   2.941  1.00  0.00     0.049 A 
ATOM     52  C   UNL     1     -11.640   3.025   3.428  1.00  0.00     0.074 A 
ATOM     53  C   UNL     1     -12.050   9.362   3.494  1.00  0.00     0.029 A 
ATOM     54  N   UNL     1     -11.388   7.260   3.197  1.00  0.00    -0.354 N 
ATOM     55  N   UNL     1     -11.638   4.337   3.391  1.00  0.00    -0.248 NA
ATOM     56  C   UNL     1     -12.755   2.445   4.189  1.00  0.00     0.031 C 
ATOM     57  C   UNL     1     -12.957   8.516   4.141  1.00  0.00     0.029 A 
ATOM     58  C   UNL     1     -12.564   7.205   3.926  1.00  0.00     0.049 A 
ATOM     59  H   UNL     1     -10.867   6.477   2.904  1.00  0.00     0.167 HD
ATOM     60  C   UNL     1     -12.768   4.738   4.098  1.00  0.00     0.074 A 
ATOM     61  C   UNL     1     -13.435   3.529   4.535  1.00  0.00     0.031 C 
ATOM     62  C   UNL     1     -13.214   5.992   4.358  1.00  0.00     0.031 A 
BRANCH  49  63
ATOM     63  C   UNL     1      -9.612  10.484   2.091  1.00  0.00    -0.014 A 
ATOM     64  C   UNL     1      -9.685  11.121   0.839  1.00  0.00     0.010 A 
ATOM     65  C   UNL     1      -9.331  11.257   3.234  1.00  0.00     0.010 A 
ATOM     66  C   UNL     1      -9.444  12.494   0.727  1.00  0.00     0.020 A 
ATOM     67  C   UNL     1      -9.120  12.635   3.131  1.00  0.00     0.020 A 
ATOM     68  C   UNL     1      -9.163  13.242   1.874  1.00  0.00     0.054 A 
BRANCH  68  69
ATOM     69  S   UNL     1      -8.880  15.025   1.701  1.00  0.00     0.124 S 
ATOM     70  O   UNL     1      -7.582  15.060   1.031  1.00  0.00    -0.237 OA
ATOM     71  O   UNL     1     -10.017  15.451   0.891  1.00  0.00    -0.237 OA
ATOM     72  O   UNL     1      -8.881  15.513   3.078  1.00  0.00    -0.744 OA
ENDBRANCH  68  69
ENDBRANCH  49  63
BRANCH  50  73
ATOM     73  C   UNL     1     -10.855   0.588   2.941  1.00  0.00    -0.014 A 
ATOM     74  C   UNL     1     -11.938  -0.068   2.330  1.00  0.00     0.010 A 
ATOM     75  C   UNL     1      -9.936  -0.167   3.694  1.00  0.00     0.010 A 
ATOM     76  C   UNL     1     -12.107  -1.448   2.482  1.00  0.00     0.020 A 
ATOM     77  C   UNL     1     -10.083  -1.550   3.821  1.00  0.00     0.020 A 
ATOM     78  C   UNL     1     -11.175  -2.181   3.223  1.00  0.00     0.054 A 
BRANCH  78  79
ATOM     79  S   UNL     1     -11.384  -3.977   3.359  1.00  0.00     0.124 S 
ATOM     80  O   UNL     1     -12.543  -4.082   4.240  1.00  0.00    -0.237 OA
ATOM     81  O   UNL     1     -11.606  -4.372   1.970  1.00  0.00    -0.237 OA
ATOM     82  O   UNL     1     -10.117  -4.427   3.931  1.00  0.00    -0.744 OA
ENDBRANCH  78  79
ENDBRANCH  50  73
BRANCH  62  83
ATOM     83  C   UNL     1     -14.509   6.125   5.119  1.00  0.00    -0.014 A 
ATOM     84  C   UNL     1     -14.598   5.792   6.482  1.00  0.00     0.010 A 
ATOM     85  C   UNL     1     -15.645   6.638   4.465  1.00  0.00     0.010 A 
ATOM     86  C   UNL     1     -15.808   5.934   7.167  1.00  0.00     0.020 A 
ATOM     87  C   UNL     1     -16.848   6.813   5.154  1.00  0.00     0.020 A 
ATOM     88  C   UNL     1     -16.926   6.444   6.498  1.00  0.00     0.054 A 
BRANCH  88  89
ATOM     89  S   UNL     1     -18.474   6.651   7.419  1.00  0.00     0.124 S 
ATOM     90  O   UNL     1     -18.909   5.268   7.598  1.00  0.00    -0.237 OA
ATOM     91  O   UNL     1     -18.035   7.334   8.633  1.00  0.00    -0.237 OA
ATOM     92  O   UNL     1     -19.305   7.454   6.525  1.00  0.00    -0.744 OA
ENDBRANCH  88  89
ENDBRANCH  62  83
ENDBRANCH  36  37
ENDBRANCH  29  31
ENDBRANCH  28  29
ENDBRANCH  27  28
ENDBRANCH   1  27
TORSDOF 19
