REMARK SMILES Nc1ccc(SCc2ccc(C(=O)OCCOCCOC(=O)c3ccc(-c4c5nc(c(-c6ccc(S(=O)(=O)[O-])cc6)c6ccc([nH]6)c(-c6ccc(S(=O)(=O)[O-])cc6)c6nc(c(-c7ccc(S(=O)(=O)[O-])cc7)c7ccc4[nH]7)C=C6)C=C5)cc3)o2)cc1
REMARK SMILES IDX 16 1 15 2 14 3 12 4 13 5 11 6 8 7 9 8 83 9 10 10 7 11 6 12
REMARK SMILES IDX 5 13 2 14 3 15 85 16 4 17 84 18 1 19 17 22 18 23 19 24 20 25
REMARK SMILES IDX 21 26 22 27 23 28 24 29 82 30 25 31 81 32 26 33 27 34 28 35
REMARK SMILES IDX 75 36 29 37 80 38 74 39 76 40 30 41 79 42 73 43 72 44 31 46
REMARK SMILES IDX 61 47 42 48 60 49 43 50 46 51 59 52 77 53 44 54 45 55 58 57
REMARK SMILES IDX 78 58 47 59 32 60 33 61 41 62 34 63 40 64 35 65 36 66 37 67
REMARK SMILES IDX 38 68 39 69 62 70 63 71 71 72 64 73 70 74 65 75 66 76 67 77
REMARK SMILES IDX 68 78 69 79 48 80 49 81 57 82 50 83 56 84 51 85 52 86 53 87
REMARK SMILES IDX 54 88 55 89
REMARK H PARENT 1 20 1 21 76 45 46 56
REMARK Flexibility Score: inf
ROOT
ATOM      1  C   UNL     1      -1.973   2.641   7.171  1.00  0.00     0.202 C 
ENDROOT
BRANCH   1   2
ATOM      2  C   UNL     1      -0.910   3.115   6.176  1.00  0.00     0.261 C 
BRANCH   2   3
ATOM      3  O   UNL     1      -1.549   3.598   4.982  1.00  0.00    -0.457 OA
BRANCH   3   4
ATOM      4  C   UNL     1      -1.364   2.837   3.866  1.00  0.00     0.374 C 
ATOM      5  O   UNL     1      -0.523   1.954   3.753  1.00  0.00    -0.242 OA
BRANCH   4   6
ATOM      6  C   UNL     1      -2.387   3.156   2.898  1.00  0.00     0.211 A 
ATOM      7  C   UNL     1      -3.669   2.670   1.162  1.00  0.00     0.115 A 
ATOM      8  C   UNL     1      -4.077   3.908   1.617  1.00  0.00     0.047 A 
ATOM      9  O   UNL     1      -2.653   2.219   1.944  1.00  0.00    -0.453 OA
ATOM     10  C   UNL     1      -3.259   4.217   2.736  1.00  0.00     0.058 A 
BRANCH   7  11
ATOM     11  C   UNL     1      -4.081   1.832  -0.002  1.00  0.00     0.150 C 
BRANCH  11  12
ATOM     12  S   UNL     1      -3.588   0.074   0.042  1.00  0.00    -0.118 SA
BRANCH  12  13
ATOM     13  C   UNL     1      -1.800   0.090  -0.106  1.00  0.00     0.008 A 
ATOM     14  C   UNL     1       1.030  -0.071  -0.138  1.00  0.00     0.031 A 
ATOM     15  C   UNL     1       0.254  -1.221  -0.002  1.00  0.00     0.026 A 
ATOM     16  C   UNL     1       0.380   1.143  -0.348  1.00  0.00     0.026 A 
ATOM     17  C   UNL     1      -1.144  -1.140   0.035  1.00  0.00     0.017 A 
ATOM     18  C   UNL     1      -1.018   1.224  -0.335  1.00  0.00     0.017 A 
BRANCH  14  19
ATOM     19  N   UNL     1       2.413  -0.151  -0.217  1.00  0.00    -0.399 N 
ATOM     20  H   UNL     1       2.866  -1.012  -0.067  1.00  0.00     0.156 HD
ATOM     21  H   UNL     1       2.942   0.654  -0.421  1.00  0.00     0.156 HD
ENDBRANCH  14  19
ENDBRANCH  12  13
ENDBRANCH  11  12
ENDBRANCH   7  11
ENDBRANCH   4   6
ENDBRANCH   3   4
ENDBRANCH   2   3
ENDBRANCH   1   2
BRANCH   1  22
ATOM     22  O   UNL     1      -2.609   1.412   6.806  1.00  0.00    -0.374 OA
BRANCH  22  23
ATOM     23  C   UNL     1      -3.744   1.518   5.942  1.00  0.00     0.202 C 
BRANCH  23  24
ATOM     24  C   UNL     1      -5.073   1.780   6.656  1.00  0.00     0.261 C 
BRANCH  24  25
ATOM     25  O   UNL     1      -5.119   3.118   7.184  1.00  0.00    -0.460 OA
BRANCH  25  26
ATOM     26  C   UNL     1      -5.024   3.203   8.533  1.00  0.00     0.338 C 
ATOM     27  O   UNL     1      -5.017   2.279   9.328  1.00  0.00    -0.246 OA
BRANCH  26  28
ATOM     28  C   UNL     1      -4.745   4.600   8.929  1.00  0.00     0.060 A 
ATOM     29  C   UNL     1      -3.745   4.806   9.887  1.00  0.00     0.016 A 
ATOM     30  C   UNL     1      -5.467   5.682   8.417  1.00  0.00     0.016 A 
ATOM     31  C   UNL     1      -3.496   6.087  10.374  1.00  0.00     0.010 A 
ATOM     32  C   UNL     1      -5.219   6.968   8.912  1.00  0.00     0.010 A 
ATOM     33  C   UNL     1      -4.256   7.171   9.916  1.00  0.00    -0.014 A 
BRANCH  33  34
ATOM     34  C   UNL     1      -4.126   8.486  10.590  1.00  0.00     0.031 A 
ATOM     35  C   UNL     1      -5.121   8.866  11.653  1.00  0.00     0.074 A 
ATOM     36  C   UNL     1      -3.111   9.316  10.290  1.00  0.00     0.049 A 
ATOM     37  N   UNL     1      -5.178   9.950  12.382  1.00  0.00    -0.248 NA
ATOM     38  C   UNL     1      -6.191   7.894  11.931  1.00  0.00     0.031 C 
ATOM     39  C   UNL     1      -2.064   9.050   9.303  1.00  0.00     0.029 A 
ATOM     40  N   UNL     1      -2.795  10.553  10.791  1.00  0.00    -0.354 N 
ATOM     41  C   UNL     1      -6.287   9.794  13.204  1.00  0.00     0.074 A 
ATOM     42  C   UNL     1      -6.891   8.524  12.864  1.00  0.00     0.031 C 
ATOM     43  C   UNL     1      -1.223  10.098   9.269  1.00  0.00     0.029 A 
ATOM     44  C   UNL     1      -1.683  11.115  10.213  1.00  0.00     0.049 A 
ATOM     45  H   UNL     1      -3.317  10.997  11.498  1.00  0.00     0.167 HD
ATOM     46  C   UNL     1      -6.758  10.628  14.162  1.00  0.00     0.031 A 
ATOM     47  C   UNL     1      -1.107  12.317  10.413  1.00  0.00     0.031 A 
ATOM     48  C   UNL     1      -6.170  11.899  14.492  1.00  0.00     0.049 A 
ATOM     49  C   UNL     1      -1.685  13.255  11.438  1.00  0.00     0.074 A 
ATOM     50  C   UNL     1      -6.565  12.805  15.461  1.00  0.00     0.029 A 
ATOM     51  N   UNL     1      -5.068  12.449  13.856  1.00  0.00    -0.354 N 
ATOM     52  N   UNL     1      -2.715  13.077  12.231  1.00  0.00    -0.248 NA
ATOM     53  C   UNL     1      -1.017  14.555  11.600  1.00  0.00     0.031 C 
ATOM     54  C   UNL     1      -5.731  13.925  15.378  1.00  0.00     0.029 A 
ATOM     55  C   UNL     1      -4.786  13.694  14.391  1.00  0.00     0.049 A 
ATOM     56  H   UNL     1      -4.561  12.017  13.131  1.00  0.00     0.167 HD
ATOM     57  C   UNL     1      -2.807  14.233  12.999  1.00  0.00     0.074 A 
ATOM     58  C   UNL     1      -1.720  15.098  12.585  1.00  0.00     0.031 C 
ATOM     59  C   UNL     1      -3.708  14.549  13.962  1.00  0.00     0.031 A 
BRANCH  46  60
ATOM     60  C   UNL     1      -7.997  10.199  14.900  1.00  0.00    -0.014 A 
ATOM     61  C   UNL     1      -7.953   9.169  15.857  1.00  0.00     0.010 A 
ATOM     62  C   UNL     1      -9.219  10.848  14.646  1.00  0.00     0.010 A 
ATOM     63  C   UNL     1      -9.117   8.768  16.517  1.00  0.00     0.020 A 
ATOM     64  C   UNL     1     -10.381  10.464  15.320  1.00  0.00     0.020 A 
ATOM     65  C   UNL     1     -10.326   9.413  16.238  1.00  0.00     0.054 A 
BRANCH  65  66
ATOM     66  S   UNL     1     -11.823   8.879  17.111  1.00  0.00     0.124 S 
ATOM     67  O   UNL     1     -12.140   7.628  16.425  1.00  0.00    -0.237 OA
ATOM     68  O   UNL     1     -11.361   8.738  18.490  1.00  0.00    -0.237 OA
ATOM     69  O   UNL     1     -12.766   9.971  16.883  1.00  0.00    -0.744 OA
ENDBRANCH  65  66
ENDBRANCH  46  60
BRANCH  47  70
ATOM     70  C   UNL     1       0.082  12.709   9.610  1.00  0.00    -0.014 A 
ATOM     71  C   UNL     1       1.357  12.770  10.196  1.00  0.00     0.010 A 
ATOM     72  C   UNL     1      -0.061  13.014   8.244  1.00  0.00     0.010 A 
ATOM     73  C   UNL     1       2.469  13.137   9.433  1.00  0.00     0.020 A 
ATOM     74  C   UNL     1       1.052  13.360   7.472  1.00  0.00     0.020 A 
ATOM     75  C   UNL     1       2.309  13.427   8.074  1.00  0.00     0.054 A 
BRANCH  75  76
ATOM     76  S   UNL     1       3.774  13.837   7.085  1.00  0.00     0.124 S 
ATOM     77  O   UNL     1       4.034  15.216   7.483  1.00  0.00    -0.237 OA
ATOM     78  O   UNL     1       4.751  12.851   7.540  1.00  0.00    -0.237 OA
ATOM     79  O   UNL     1       3.315  13.655   5.709  1.00  0.00    -0.744 OA
ENDBRANCH  75  76
ENDBRANCH  47  70
BRANCH  59  80
ATOM     80  C   UNL     1      -3.550  15.880  14.648  1.00  0.00    -0.014 A 
ATOM     81  C   UNL     1      -3.891  17.078  13.996  1.00  0.00     0.010 A 
ATOM     82  C   UNL     1      -3.098  15.927  15.979  1.00  0.00     0.010 A 
ATOM     83  C   UNL     1      -3.753  18.303  14.653  1.00  0.00     0.020 A 
ATOM     84  C   UNL     1      -2.982  17.149  16.648  1.00  0.00     0.020 A 
ATOM     85  C   UNL     1      -3.296  18.332  15.974  1.00  0.00     0.054 A 
BRANCH  85  86
ATOM     86  S   UNL     1      -3.159  19.930  16.821  1.00  0.00     0.124 S 
ATOM     87  O   UNL     1      -1.933  20.475  16.245  1.00  0.00    -0.237 OA
ATOM     88  O   UNL     1      -4.392  20.610  16.430  1.00  0.00    -0.237 OA
ATOM     89  O   UNL     1      -3.077  19.567  18.234  1.00  0.00    -0.744 OA
ENDBRANCH  85  86
ENDBRANCH  59  80
ENDBRANCH  33  34
ENDBRANCH  26  28
ENDBRANCH  25  26
ENDBRANCH  24  25
ENDBRANCH  23  24
ENDBRANCH  22  23
ENDBRANCH   1  22
TORSDOF 21
