REMARK SMILES O=C(C[C@]12CSc3[nH]c(=O)sc3[C@@H]1c1cc(Cl)ccc1OC2=O)OCCOCCOC(=O)c1ccc(-c2c3nc(c(-c4ccc(S(=O)(=O)[O-])cc4)c4ccc([nH]4)c(-c4ccc(S(=O)(=O)[O-])cc4)c4nc(c(-c5ccc(S(=O)(=O)[O-])cc5)c5ccc2[nH]5)C=C4)C=C3)cc1
REMARK SMILES IDX 28 1 27 2 26 3 25 4 24 5 2 6 1 7 3 8 4 9 5 10 13 11 22 12
REMARK SMILES IDX 6 13 12 14 14 15 21 16 23 17 7 18 11 19 15 20 20 21 8 22
REMARK SMILES IDX 9 23 16 24 19 25 10 27 17 28 18 29 29 30 30 31 31 32 32 33
REMARK SMILES IDX 33 34 34 35 92 36 35 37 91 38 36 39 37 40 38 41 85 42 39 43
REMARK SMILES IDX 90 44 84 45 86 46 40 47 89 48 83 49 82 50 41 52 71 53 52 54
REMARK SMILES IDX 70 55 53 56 56 57 69 58 87 59 54 60 55 61 68 63 88 64 57 65
REMARK SMILES IDX 42 66 43 67 51 68 44 69 50 70 45 71 46 72 47 73 48 74 49 75
REMARK SMILES IDX 72 76 73 77 81 78 74 79 80 80 75 81 76 82 77 83 78 84 79 85
REMARK SMILES IDX 58 86 59 87 67 88 60 89 66 90 61 91 62 92 63 93 64 94 65 95
REMARK H PARENT 8 26 86 51 56 62
REMARK Flexibility Score: inf
ROOT
ATOM      1  C   UNL     1       3.116  -2.681   0.790  1.00  0.00     0.202 C 
ENDROOT
BRANCH   1   2
ATOM      2  O   UNL     1       4.329  -2.195   0.203  1.00  0.00    -0.374 OA
BRANCH   2   3
ATOM      3  C   UNL     1       4.986  -1.090   0.816  1.00  0.00     0.202 C 
BRANCH   3   4
ATOM      4  C   UNL     1       4.410   0.324   0.831  1.00  0.00     0.261 C 
BRANCH   4   5
ATOM      5  O   UNL     1       3.057   0.414   0.488  1.00  0.00    -0.463 OA
BRANCH   5   6
ATOM      6  C   UNL     1       2.602   0.004  -0.699  1.00  0.00     0.307 C 
ATOM      7  O   UNL     1       1.386  -0.131  -0.767  1.00  0.00    -0.252 OA
BRANCH   6   8
ATOM      8  C   UNL     1       3.575  -0.326  -1.874  1.00  0.00     0.143 C 
BRANCH   8   9
ATOM      9  C   UNL     1       3.960   0.844  -2.865  1.00  0.00     0.100 C 
ATOM     10  C   UNL     1       5.397   1.274  -2.400  1.00  0.00     0.097 C 
ATOM     11  C   UNL     1       2.697   1.773  -3.077  1.00  0.00     0.085 C 
ATOM     12  C   UNL     1       4.320   0.740  -4.380  1.00  0.00     0.319 C 
ATOM     13  S   UNL     1       5.639   3.041  -2.285  1.00  0.00    -0.106 SA
ATOM     14  C   UNL     1       2.951   2.824  -1.920  1.00  0.00     0.049 A 
ATOM     15  C   UNL     1       1.764   0.500  -3.734  1.00  0.00     0.006 A 
ATOM     16  O   UNL     1       3.654  -0.140  -5.152  1.00  0.00    -0.426 OA
ATOM     17  O   UNL     1       5.114   1.490  -4.947  1.00  0.00    -0.251 OA
ATOM     18  C   UNL     1       4.147   3.334  -1.542  1.00  0.00     0.090 A 
ATOM     19  S   UNL     1       1.754   3.368  -0.709  1.00  0.00    -0.077 S 
ATOM     20  C   UNL     1       0.562  -0.018  -3.190  1.00  0.00     0.028 A 
ATOM     21  C   UNL     1       2.423  -0.405  -4.609  1.00  0.00     0.134 A 
ATOM     22  N   UNL     1       4.192   3.965  -0.342  1.00  0.00    -0.307 N 
ATOM     23  C   UNL     1       3.014   4.056   0.348  1.00  0.00     0.305 A 
ATOM     24  C   UNL     1       0.257  -1.405  -3.301  1.00  0.00     0.041 A 
ATOM     25  C   UNL     1       2.054  -1.740  -4.824  1.00  0.00     0.049 A 
ATOM     26  H   UNL     1       5.029   4.339   0.015  1.00  0.00     0.171 HD
ATOM     27  O   UNL     1       2.872   4.377   1.506  1.00  0.00    -0.257 OA
ATOM     28  Cl  UNL     1      -0.950  -2.120  -2.292  1.00  0.00    -0.084 Cl
ATOM     29  C   UNL     1       1.012  -2.267  -4.096  1.00  0.00     0.024 A 
ENDBRANCH   8   9
ENDBRANCH   6   8
ENDBRANCH   5   6
ENDBRANCH   4   5
ENDBRANCH   3   4
ENDBRANCH   2   3
ENDBRANCH   1   2
BRANCH   1  30
ATOM     30  C   UNL     1       3.165  -3.350   2.177  1.00  0.00     0.261 C 
BRANCH  30  31
ATOM     31  O   UNL     1       3.774  -2.513   3.177  1.00  0.00    -0.460 OA
BRANCH  31  32
ATOM     32  C   UNL     1       4.961  -2.957   3.689  1.00  0.00     0.338 C 
ATOM     33  O   UNL     1       5.361  -4.109   3.689  1.00  0.00    -0.246 OA
BRANCH  32  34
ATOM     34  C   UNL     1       5.853  -1.767   3.862  1.00  0.00     0.060 A 
ATOM     35  C   UNL     1       5.336  -0.520   4.236  1.00  0.00     0.016 A 
ATOM     36  C   UNL     1       7.100  -1.840   3.206  1.00  0.00     0.016 A 
ATOM     37  C   UNL     1       6.025   0.641   3.867  1.00  0.00     0.010 A 
ATOM     38  C   UNL     1       7.762  -0.673   2.806  1.00  0.00     0.010 A 
ATOM     39  C   UNL     1       7.208   0.575   3.096  1.00  0.00    -0.014 A 
BRANCH  39  40
ATOM     40  C   UNL     1       7.978   1.819   2.897  1.00  0.00     0.031 A 
ATOM     41  C   UNL     1       8.447   2.350   4.207  1.00  0.00     0.074 A 
ATOM     42  C   UNL     1       8.419   2.401   1.756  1.00  0.00     0.049 A 
ATOM     43  N   UNL     1       8.150   3.476   4.762  1.00  0.00    -0.248 NA
ATOM     44  C   UNL     1       9.199   1.421   5.071  1.00  0.00     0.031 C 
ATOM     45  C   UNL     1       8.335   1.899   0.384  1.00  0.00     0.029 A 
ATOM     46  N   UNL     1       9.148   3.557   1.600  1.00  0.00    -0.354 N 
ATOM     47  C   UNL     1       8.813   3.471   5.984  1.00  0.00     0.074 A 
ATOM     48  C   UNL     1       9.288   2.128   6.194  1.00  0.00     0.031 C 
ATOM     49  C   UNL     1       9.179   2.604  -0.409  1.00  0.00     0.029 A 
ATOM     50  C   UNL     1       9.775   3.686   0.359  1.00  0.00     0.049 A 
ATOM     51  H   UNL     1       9.222   4.239   2.306  1.00  0.00     0.167 HD
ATOM     52  C   UNL     1       9.114   4.613   6.656  1.00  0.00     0.031 A 
ATOM     53  C   UNL     1      10.758   4.563  -0.002  1.00  0.00     0.031 A 
ATOM     54  C   UNL     1       8.338   5.732   6.205  1.00  0.00     0.049 A 
ATOM     55  C   UNL     1      10.733   5.690   0.961  1.00  0.00     0.074 A 
ATOM     56  C   UNL     1       6.985   6.003   6.171  1.00  0.00     0.029 A 
ATOM     57  N   UNL     1       8.924   6.617   5.332  1.00  0.00    -0.354 N 
ATOM     58  N   UNL     1       9.758   6.548   1.045  1.00  0.00    -0.248 NA
ATOM     59  C   UNL     1      11.588   5.589   2.131  1.00  0.00     0.031 C 
ATOM     60  C   UNL     1       6.779   6.665   4.931  1.00  0.00     0.029 A 
ATOM     61  C   UNL     1       8.023   6.850   4.321  1.00  0.00     0.049 A 
ATOM     62  H   UNL     1       9.822   7.011   5.415  1.00  0.00     0.167 HD
ATOM     63  C   UNL     1       9.592   6.753   2.406  1.00  0.00     0.074 A 
ATOM     64  C   UNL     1      10.794   6.187   3.021  1.00  0.00     0.031 C 
ATOM     65  C   UNL     1       8.384   7.108   2.937  1.00  0.00     0.031 A 
BRANCH  52  66
ATOM     66  C   UNL     1      10.343   4.741   7.508  1.00  0.00    -0.014 A 
ATOM     67  C   UNL     1      11.453   3.879   7.366  1.00  0.00     0.010 A 
ATOM     68  C   UNL     1      10.511   5.872   8.325  1.00  0.00     0.010 A 
ATOM     69  C   UNL     1      12.651   4.093   8.041  1.00  0.00     0.020 A 
ATOM     70  C   UNL     1      11.730   6.125   8.971  1.00  0.00     0.020 A 
ATOM     71  C   UNL     1      12.786   5.224   8.834  1.00  0.00     0.054 A 
BRANCH  71  72
ATOM     72  S   UNL     1      14.388   5.514   9.619  1.00  0.00     0.124 S 
ATOM     73  O   UNL     1      14.445   4.426  10.592  1.00  0.00    -0.237 OA
ATOM     74  O   UNL     1      15.311   5.403   8.494  1.00  0.00    -0.237 OA
ATOM     75  O   UNL     1      14.253   6.853  10.186  1.00  0.00    -0.744 OA
ENDBRANCH  71  72
ENDBRANCH  52  66
BRANCH  53  76
ATOM     76  C   UNL     1      11.986   4.276  -0.808  1.00  0.00    -0.014 A 
ATOM     77  C   UNL     1      12.490   2.962  -0.844  1.00  0.00     0.010 A 
ATOM     78  C   UNL     1      12.841   5.309  -1.255  1.00  0.00     0.010 A 
ATOM     79  C   UNL     1      13.812   2.692  -1.217  1.00  0.00     0.020 A 
ATOM     80  C   UNL     1      14.174   5.044  -1.637  1.00  0.00     0.020 A 
ATOM     81  C   UNL     1      14.661   3.738  -1.572  1.00  0.00     0.054 A 
BRANCH  81  82
ATOM     82  S   UNL     1      16.420   3.356  -1.832  1.00  0.00     0.124 S 
ATOM     83  O   UNL     1      16.850   2.982  -0.487  1.00  0.00    -0.237 OA
ATOM     84  O   UNL     1      16.366   2.259  -2.797  1.00  0.00    -0.237 OA
ATOM     85  O   UNL     1      16.978   4.604  -2.344  1.00  0.00    -0.744 OA
ENDBRANCH  81  82
ENDBRANCH  53  76
BRANCH  65  86
ATOM     86  C   UNL     1       7.247   7.541   2.020  1.00  0.00    -0.014 A 
ATOM     87  C   UNL     1       6.454   8.627   2.443  1.00  0.00     0.010 A 
ATOM     88  C   UNL     1       6.811   6.811   0.895  1.00  0.00     0.010 A 
ATOM     89  C   UNL     1       5.234   8.923   1.831  1.00  0.00     0.020 A 
ATOM     90  C   UNL     1       5.611   7.139   0.240  1.00  0.00     0.020 A 
ATOM     91  C   UNL     1       4.811   8.168   0.739  1.00  0.00     0.054 A 
BRANCH  91  92
ATOM     92  S   UNL     1       3.172   8.510   0.040  1.00  0.00     0.124 S 
ATOM     93  O   UNL     1       2.298   8.407   1.205  1.00  0.00    -0.237 OA
ATOM     94  O   UNL     1       3.337   9.860  -0.495  1.00  0.00    -0.237 OA
ATOM     95  O   UNL     1       2.995   7.459  -0.962  1.00  0.00    -0.744 OA
ENDBRANCH  91  92
ENDBRANCH  65  86
ENDBRANCH  39  40
ENDBRANCH  32  34
ENDBRANCH  31  32
ENDBRANCH  30  31
ENDBRANCH   1  30
TORSDOF 18
