REMARK SMILES O=C1NC(=O)/C(=C/c2ccc(OCc3cn(-c4ccc(C(=O)OCCOCCOC(=O)c5ccc(-c6c7nc(c(-c8ccc(S(=O)(=O)[O-])cc8)c8ccc([nH]8)c(-c8ccc(S(=O)(=O)[O-])cc8)c8nc(c(-c9ccc(S(=O)(=O)[O-])cc9)c9ccc6[nH]9)C=C8)C=C7)cc5)cc4)nn3)cc2)S1
REMARK SMILES IDX 25 1 24 2 23 3 21 4 22 5 20 6 17 7 18 8 93 9 19 10 92 11
REMARK SMILES IDX 16 12 14 13 15 14 95 15 94 16 13 17 12 18 11 19 8 20 9 21
REMARK SMILES IDX 97 22 10 23 96 24 7 25 1 26 2 27 3 28 98 29 4 30 6 32 5 33
REMARK SMILES IDX 26 34 27 35 28 36 29 37 30 38 31 39 32 40 33 41 91 42 34 43
REMARK SMILES IDX 90 44 35 45 36 46 37 47 84 48 38 49 89 50 83 51 85 52 39 53
REMARK SMILES IDX 88 54 82 55 81 56 40 58 70 59 51 60 69 61 52 62 55 63 68 64
REMARK SMILES IDX 86 65 53 66 54 67 67 69 87 70 56 71 41 72 42 73 50 74 43 75
REMARK SMILES IDX 49 76 44 77 45 78 46 79 47 80 48 81 71 82 72 83 80 84 73 85
REMARK SMILES IDX 79 86 74 87 75 88 76 89 77 90 78 91 57 92 58 93 66 94 59 95
REMARK SMILES IDX 65 96 60 97 61 98 62 99 63 100 64 101
REMARK H PARENT 3 31 85 57 55 68
REMARK Flexibility Score: inf
ROOT
ATOM      1  C   UNL     1     -10.650   9.281   0.263  1.00  0.00     0.202 C 
ENDROOT
BRANCH   1   2
ATOM      2  C   UNL     1      -9.593  10.362   0.487  1.00  0.00     0.261 C 
BRANCH   2   3
ATOM      3  O   UNL     1      -8.256   9.893   0.268  1.00  0.00    -0.460 OA
BRANCH   3   4
ATOM      4  C   UNL     1      -7.542   9.727   1.405  1.00  0.00     0.338 C 
ATOM      5  O   UNL     1      -7.897   9.979   2.545  1.00  0.00    -0.246 OA
BRANCH   4   6
ATOM      6  C   UNL     1      -6.279   9.024   1.117  1.00  0.00     0.060 A 
ATOM      7  C   UNL     1      -3.764   7.873   0.916  1.00  0.00     0.066 A 
ATOM      8  C   UNL     1      -4.674   7.384   1.864  1.00  0.00     0.029 A 
ATOM      9  C   UNL     1      -4.151   8.859  -0.003  1.00  0.00     0.029 A 
ATOM     10  C   UNL     1      -5.918   7.987   1.986  1.00  0.00     0.018 A 
ATOM     11  C   UNL     1      -5.429   9.419   0.082  1.00  0.00     0.018 A 
BRANCH   7  12
ATOM     12  N   UNL     1      -2.423   7.438   0.997  1.00  0.00    -0.220 N 
ATOM     13  C   UNL     1      -0.249   7.381   1.168  1.00  0.00     0.120 A 
ATOM     14  C   UNL     1      -1.284   8.134   0.655  1.00  0.00     0.144 A 
ATOM     15  N   UNL     1      -0.775   6.266   1.763  1.00  0.00    -0.131 NA
ATOM     16  N   UNL     1      -2.089   6.310   1.659  1.00  0.00    -0.062 NA
BRANCH  13  17
ATOM     17  C   UNL     1       1.212   7.669   1.268  1.00  0.00     0.289 C 
BRANCH  17  18
ATOM     18  O   UNL     1       2.042   7.007   0.301  1.00  0.00    -0.487 OA
BRANCH  18  19
ATOM     19  C   UNL     1       2.144   5.644   0.362  1.00  0.00     0.119 A 
ATOM     20  C   UNL     1       2.178   2.844   0.127  1.00  0.00    -0.024 A 
ATOM     21  C   UNL     1       2.682   3.641  -0.902  1.00  0.00     0.012 A 
ATOM     22  C   UNL     1       1.745   3.452   1.308  1.00  0.00     0.012 A 
ATOM     23  C   UNL     1       2.659   5.036  -0.784  1.00  0.00     0.047 A 
ATOM     24  C   UNL     1       1.755   4.843   1.433  1.00  0.00     0.047 A 
BRANCH  20  25
ATOM     25  C   UNL     1       2.118   1.387  -0.014  1.00  0.00     0.029 C 
ATOM     26  O   UNL     1      -2.448  -0.736   0.123  1.00  0.00    -0.261 OA
ATOM     27  C   UNL     1      -1.265  -0.442   0.006  1.00  0.00     0.290 C 
ATOM     28  N   UNL     1      -0.241  -1.323  -0.094  1.00  0.00    -0.282 N 
ATOM     29  S   UNL     1      -0.644   1.193   0.023  1.00  0.00    -0.022 SA
ATOM     30  C   UNL     1       1.031  -0.831  -0.092  1.00  0.00     0.265 C 
ATOM     31  H   UNL     1      -0.410  -2.290  -0.166  1.00  0.00     0.174 HD
ATOM     32  C   UNL     1       0.995   0.654  -0.038  1.00  0.00     0.083 C 
ATOM     33  O   UNL     1       2.042  -1.514  -0.076  1.00  0.00    -0.268 OA
ENDBRANCH  20  25
ENDBRANCH  18  19
ENDBRANCH  17  18
ENDBRANCH  13  17
ENDBRANCH   7  12
ENDBRANCH   4   6
ENDBRANCH   3   4
ENDBRANCH   2   3
ENDBRANCH   1   2
BRANCH   1  34
ATOM     34  O   UNL     1     -10.631   8.110   1.077  1.00  0.00    -0.374 OA
BRANCH  34  35
ATOM     35  C   UNL     1      -9.578   7.158   0.959  1.00  0.00     0.202 C 
BRANCH  35  36
ATOM     36  C   UNL     1      -9.459   6.325  -0.308  1.00  0.00     0.261 C 
BRANCH  36  37
ATOM     37  O   UNL     1      -9.358   7.135  -1.464  1.00  0.00    -0.460 OA
BRANCH  37  38
ATOM     38  C   UNL     1     -10.528   7.271  -2.129  1.00  0.00     0.338 C 
ATOM     39  O   UNL     1     -11.644   6.992  -1.725  1.00  0.00    -0.246 OA
BRANCH  38  40
ATOM     40  C   UNL     1     -10.230   7.676  -3.504  1.00  0.00     0.060 A 
ATOM     41  C   UNL     1     -11.317   7.636  -4.377  1.00  0.00     0.016 A 
ATOM     42  C   UNL     1      -8.901   7.628  -3.946  1.00  0.00     0.016 A 
ATOM     43  C   UNL     1     -11.081   7.211  -5.659  1.00  0.00     0.010 A 
ATOM     44  C   UNL     1      -8.670   7.178  -5.218  1.00  0.00     0.010 A 
ATOM     45  C   UNL     1      -9.770   6.872  -6.013  1.00  0.00    -0.014 A 
BRANCH  45  46
ATOM     46  C   UNL     1      -9.543   6.317  -7.324  1.00  0.00     0.031 A 
ATOM     47  C   UNL     1      -9.628   7.376  -8.350  1.00  0.00     0.074 A 
ATOM     48  C   UNL     1      -9.188   5.032  -7.514  1.00  0.00     0.049 A 
ATOM     49  N   UNL     1     -10.615   7.607  -9.149  1.00  0.00    -0.248 NA
ATOM     50  C   UNL     1      -8.646   8.476  -8.274  1.00  0.00     0.031 C 
ATOM     51  C   UNL     1      -8.840   4.018  -6.514  1.00  0.00     0.029 A 
ATOM     52  N   UNL     1      -8.963   4.381  -8.681  1.00  0.00    -0.354 N 
ATOM     53  C   UNL     1     -10.226   8.725  -9.875  1.00  0.00     0.074 A 
ATOM     54  C   UNL     1      -9.196   9.363  -9.101  1.00  0.00     0.031 C 
ATOM     55  C   UNL     1      -8.204   2.989  -7.126  1.00  0.00     0.029 A 
ATOM     56  C   UNL     1      -8.221   3.210  -8.563  1.00  0.00     0.049 A 
ATOM     57  H   UNL     1      -9.299   4.711  -9.545  1.00  0.00     0.167 HD
ATOM     58  C   UNL     1     -10.495   8.812 -11.206  1.00  0.00     0.031 A 
ATOM     59  C   UNL     1      -7.612   2.539  -9.580  1.00  0.00     0.031 A 
ATOM     60  C   UNL     1     -11.523   7.875 -11.590  1.00  0.00     0.049 A 
ATOM     61  C   UNL     1      -8.249   3.005 -10.841  1.00  0.00     0.074 A 
ATOM     62  C   UNL     1     -12.834   7.661 -11.213  1.00  0.00     0.029 A 
ATOM     63  N   UNL     1     -11.099   6.709 -12.187  1.00  0.00    -0.354 N 
ATOM     64  N   UNL     1      -9.498   2.770 -11.136  1.00  0.00    -0.248 NA
ATOM     65  C   UNL     1      -7.657   4.152 -11.514  1.00  0.00     0.031 C 
ATOM     66  C   UNL     1     -12.988   6.244 -11.196  1.00  0.00     0.029 A 
ATOM     67  C   UNL     1     -11.800   5.665 -11.646  1.00  0.00     0.049 A 
ATOM     68  H   UNL     1     -10.409   6.639 -12.885  1.00  0.00     0.167 HD
ATOM     69  C   UNL     1      -9.970   3.964 -11.665  1.00  0.00     0.074 A 
ATOM     70  C   UNL     1      -8.770   4.754 -11.947  1.00  0.00     0.031 C 
ATOM     71  C   UNL     1     -11.286   4.314 -11.544  1.00  0.00     0.031 A 
BRANCH  58  72
ATOM     72  C   UNL     1      -9.486   9.348 -12.200  1.00  0.00    -0.014 A 
ATOM     73  C   UNL     1      -9.824   9.325 -13.566  1.00  0.00     0.010 A 
ATOM     74  C   UNL     1      -8.132   9.596 -11.885  1.00  0.00     0.010 A 
ATOM     75  C   UNL     1      -8.842   9.438 -14.558  1.00  0.00     0.020 A 
ATOM     76  C   UNL     1      -7.152   9.752 -12.863  1.00  0.00     0.020 A 
ATOM     77  C   UNL     1      -7.509   9.634 -14.195  1.00  0.00     0.054 A 
BRANCH  77  78
ATOM     78  S   UNL     1      -6.235   9.673 -15.474  1.00  0.00     0.124 S 
ATOM     79  O   UNL     1      -6.293   8.310 -15.994  1.00  0.00    -0.237 OA
ATOM     80  O   UNL     1      -6.731  10.717 -16.366  1.00  0.00    -0.237 OA
ATOM     81  O   UNL     1      -5.021  10.014 -14.736  1.00  0.00    -0.744 OA
ENDBRANCH  77  78
ENDBRANCH  58  72
BRANCH  59  82
ATOM     82  C   UNL     1      -6.293   1.844  -9.567  1.00  0.00    -0.014 A 
ATOM     83  C   UNL     1      -5.880   1.030 -10.643  1.00  0.00     0.010 A 
ATOM     84  C   UNL     1      -5.312   2.215  -8.626  1.00  0.00     0.010 A 
ATOM     85  C   UNL     1      -4.530   0.656 -10.800  1.00  0.00     0.020 A 
ATOM     86  C   UNL     1      -3.968   1.845  -8.774  1.00  0.00     0.020 A 
ATOM     87  C   UNL     1      -3.577   1.085  -9.873  1.00  0.00     0.054 A 
BRANCH  87  88
ATOM     88  S   UNL     1      -1.811   0.757 -10.171  1.00  0.00     0.124 S 
ATOM     89  O   UNL     1      -1.720  -0.684  -9.956  1.00  0.00    -0.237 OA
ATOM     90  O   UNL     1      -1.629   1.202 -11.550  1.00  0.00    -0.237 OA
ATOM     91  O   UNL     1      -1.134   1.576  -9.166  1.00  0.00    -0.744 OA
ENDBRANCH  87  88
ENDBRANCH  59  82
BRANCH  71  92
ATOM     92  C   UNL     1     -12.272   3.261 -11.090  1.00  0.00    -0.014 A 
ATOM     93  C   UNL     1     -12.253   2.641  -9.824  1.00  0.00     0.010 A 
ATOM     94  C   UNL     1     -13.360   3.009 -11.943  1.00  0.00     0.010 A 
ATOM     95  C   UNL     1     -13.288   1.771  -9.439  1.00  0.00     0.020 A 
ATOM     96  C   UNL     1     -14.399   2.162 -11.559  1.00  0.00     0.020 A 
ATOM     97  C   UNL     1     -14.355   1.537 -10.313  1.00  0.00     0.054 A 
BRANCH  97  98
ATOM     98  S   UNL     1     -15.709   0.437  -9.812  1.00  0.00     0.124 S 
ATOM     99  O   UNL     1     -15.060  -0.870  -9.775  1.00  0.00    -0.237 OA
ATOM    100  O   UNL     1     -16.107   0.980  -8.515  1.00  0.00    -0.237 OA
ATOM    101  O   UNL     1     -16.703   0.603 -10.873  1.00  0.00    -0.744 OA
ENDBRANCH  97  98
ENDBRANCH  71  92
ENDBRANCH  45  46
ENDBRANCH  38  40
ENDBRANCH  37  38
ENDBRANCH  36  37
ENDBRANCH  35  36
ENDBRANCH  34  35
ENDBRANCH   1  34
TORSDOF 22
