REMARK SMILES O=C(OCCOCCOC(=O)c1ccc(-c2c3nc(c(-c4ccc(S(=O)(=O)[O-])cc4)c4ccc([nH]4)c(-c4ccc(S(=O)(=O)[O-])cc4)c4nc(c(-c5ccc(S(=O)(=O)[O-])cc5)c5ccc2[nH]5)C=C4)C=C3)cc1)C1=Cc2c(ccc(Cl)c2Oc2ccccc2)O[C@H]1C(F)(F)F
REMARK SMILES IDX 7 1 6 2 5 3 4 4 3 5 2 6 1 7 72 8 73 9 89 10 74 11 88 12
REMARK SMILES IDX 75 13 80 14 76 15 78 16 77 17 79 18 90 19 91 20 92 21 93 22
REMARK SMILES IDX 81 23 82 24 83 25 87 26 84 27 86 28 85 29 8 30 9 31 10 32
REMARK SMILES IDX 11 33 12 34 13 35 71 36 14 37 70 38 15 39 16 40 17 41 64 42
REMARK SMILES IDX 18 43 69 44 63 45 65 46 19 47 68 48 62 49 61 50 20 52 50 53
REMARK SMILES IDX 31 54 49 55 32 56 35 57 48 58 66 59 33 60 34 61 47 63 67 64
REMARK SMILES IDX 36 65 21 66 22 67 30 68 23 69 29 70 24 71 25 72 26 73 27 74
REMARK SMILES IDX 28 75 51 76 52 77 60 78 53 79 59 80 54 81 55 82 56 83 57 84
REMARK SMILES IDX 58 85 37 86 38 87 46 88 39 89 45 90 40 91 41 92 42 93 43 94
REMARK SMILES IDX 44 95
REMARK H PARENT 65 51 35 62
REMARK Flexibility Score: inf
ROOT
ATOM      1  C   UNL     1       3.681   4.499   1.913  1.00  0.00     0.202 C 
ENDROOT
BRANCH   1   2
ATOM      2  O   UNL     1       3.632   3.149   2.372  1.00  0.00    -0.374 OA
BRANCH   2   3
ATOM      3  C   UNL     1       2.694   2.395   1.617  1.00  0.00     0.202 C 
BRANCH   3   4
ATOM      4  C   UNL     1       1.937   1.325   2.430  1.00  0.00     0.261 C 
BRANCH   4   5
ATOM      5  O   UNL     1       2.772   0.526   3.292  1.00  0.00    -0.460 OA
BRANCH   5   6
ATOM      6  C   UNL     1       2.781  -0.813   3.086  1.00  0.00     0.338 C 
ATOM      7  O   UNL     1       2.241  -1.638   3.816  1.00  0.00    -0.246 OA
BRANCH   6   8
ATOM      8  C   UNL     1       3.692  -1.234   2.011  1.00  0.00     0.088 C 
ATOM      9  C   UNL     1       3.821  -0.448   0.948  1.00  0.00     0.031 C 
ATOM     10  C   UNL     1       4.693  -2.329   2.249  1.00  0.00     0.316 C 
ATOM     11  C   UNL     1       4.376  -0.983  -0.256  1.00  0.00     0.062 A 
ATOM     12  O   UNL     1       5.669  -2.487   1.150  1.00  0.00    -0.475 OA
ATOM     13  C   UNL     1       5.370  -1.948  -0.078  1.00  0.00     0.131 A 
ATOM     14  C   UNL     1       4.004  -0.506  -1.522  1.00  0.00     0.156 A 
ATOM     15  C   UNL     1       6.140  -2.319  -1.171  1.00  0.00     0.049 A 
ATOM     16  C   UNL     1       4.699  -1.006  -2.620  1.00  0.00     0.084 A 
ATOM     17  C   UNL     1       5.800  -1.853  -2.447  1.00  0.00     0.028 A 
ATOM     18  Cl  UNL     1       4.171  -0.601  -4.202  1.00  0.00    -0.080 Cl
BRANCH  10  19
ATOM     19  C   UNL     1       5.485  -2.065   3.567  1.00  0.00     0.430 C 
ATOM     20  F   UNL     1       4.981  -1.059   4.319  1.00  0.00    -0.167 F 
ATOM     21  F   UNL     1       5.499  -3.167   4.355  1.00  0.00    -0.167 F 
ATOM     22  F   UNL     1       6.777  -1.730   3.329  1.00  0.00    -0.167 F 
ENDBRANCH  10  19
BRANCH  14  23
ATOM     23  O   UNL     1       3.218   0.604  -1.764  1.00  0.00    -0.455 OA
BRANCH  23  24
ATOM     24  C   UNL     1       1.916   0.748  -1.355  1.00  0.00     0.127 A 
ATOM     25  C   UNL     1       1.004  -0.262  -1.075  1.00  0.00     0.047 A 
ATOM     26  C   UNL     1       1.493   2.084  -1.268  1.00  0.00     0.047 A 
ATOM     27  C   UNL     1      -0.281   0.074  -0.610  1.00  0.00     0.004 A 
ATOM     28  C   UNL     1       0.228   2.420  -0.780  1.00  0.00     0.004 A 
ATOM     29  C   UNL     1      -0.655   1.409  -0.430  1.00  0.00     0.000 A 
ENDBRANCH  23  24
ENDBRANCH  14  23
ENDBRANCH   6   8
ENDBRANCH   5   6
ENDBRANCH   4   5
ENDBRANCH   3   4
ENDBRANCH   2   3
ENDBRANCH   1   2
BRANCH   1  30
ATOM     30  C   UNL     1       4.547   4.825   0.675  1.00  0.00     0.261 C 
BRANCH  30  31
ATOM     31  O   UNL     1       4.405   4.032  -0.537  1.00  0.00    -0.460 OA
BRANCH  31  32
ATOM     32  C   UNL     1       5.609   3.748  -1.133  1.00  0.00     0.338 C 
ATOM     33  O   UNL     1       6.693   3.886  -0.575  1.00  0.00    -0.246 OA
BRANCH  32  34
ATOM     34  C   UNL     1       5.591   3.316  -2.574  1.00  0.00     0.060 A 
ATOM     35  C   UNL     1       6.771   2.722  -3.063  1.00  0.00     0.016 A 
ATOM     36  C   UNL     1       4.583   3.614  -3.496  1.00  0.00     0.016 A 
ATOM     37  C   UNL     1       6.973   2.490  -4.434  1.00  0.00     0.010 A 
ATOM     38  C   UNL     1       4.784   3.367  -4.883  1.00  0.00     0.010 A 
ATOM     39  C   UNL     1       5.999   2.842  -5.373  1.00  0.00    -0.014 A 
BRANCH  39  40
ATOM     40  C   UNL     1       6.340   2.787  -6.838  1.00  0.00     0.031 A 
ATOM     41  C   UNL     1       6.797   4.040  -7.545  1.00  0.00     0.074 A 
ATOM     42  C   UNL     1       6.358   1.633  -7.540  1.00  0.00     0.049 A 
ATOM     43  N   UNL     1       7.274   4.178  -8.758  1.00  0.00    -0.248 NA
ATOM     44  C   UNL     1       6.737   5.293  -6.779  1.00  0.00     0.031 C 
ATOM     45  C   UNL     1       6.039   0.325  -6.992  1.00  0.00     0.029 A 
ATOM     46  N   UNL     1       6.663   1.363  -8.857  1.00  0.00    -0.354 N 
ATOM     47  C   UNL     1       7.607   5.520  -8.888  1.00  0.00     0.074 A 
ATOM     48  C   UNL     1       7.224   6.166  -7.649  1.00  0.00     0.031 C 
ATOM     49  C   UNL     1       6.105  -0.605  -7.958  1.00  0.00     0.029 A 
ATOM     50  C   UNL     1       6.515   0.035  -9.203  1.00  0.00     0.049 A 
ATOM     51  H   UNL     1       6.959   2.054  -9.492  1.00  0.00     0.167 HD
ATOM     52  C   UNL     1       8.198   6.159  -9.928  1.00  0.00     0.031 A 
ATOM     53  C   UNL     1       6.707  -0.611 -10.373  1.00  0.00     0.031 A 
ATOM     54  C   UNL     1       8.548   5.543 -11.182  1.00  0.00     0.049 A 
ATOM     55  C   UNL     1       7.256   0.141 -11.554  1.00  0.00     0.074 A 
ATOM     56  C   UNL     1       9.149   6.124 -12.287  1.00  0.00     0.029 A 
ATOM     57  N   UNL     1       8.315   4.217 -11.510  1.00  0.00    -0.354 N 
ATOM     58  N   UNL     1       7.615   1.400 -11.628  1.00  0.00    -0.248 NA
ATOM     59  C   UNL     1       7.459  -0.618 -12.797  1.00  0.00     0.031 C 
ATOM     60  C   UNL     1       9.228   5.163 -13.302  1.00  0.00     0.029 A 
ATOM     61  C   UNL     1       8.728   3.969 -12.810  1.00  0.00     0.049 A 
ATOM     62  H   UNL     1       7.915   3.548 -10.907  1.00  0.00     0.167 HD
ATOM     63  C   UNL     1       8.121   1.573 -12.912  1.00  0.00     0.074 A 
ATOM     64  C   UNL     1       8.026   0.291 -13.579  1.00  0.00     0.031 C 
ATOM     65  C   UNL     1       8.628   2.696 -13.478  1.00  0.00     0.031 A 
BRANCH  52  66
ATOM     66  C   UNL     1       8.488   7.627  -9.753  1.00  0.00    -0.014 A 
ATOM     67  C   UNL     1       9.527   8.061  -8.909  1.00  0.00     0.010 A 
ATOM     68  C   UNL     1       7.731   8.581 -10.456  1.00  0.00     0.010 A 
ATOM     69  C   UNL     1       9.772   9.425  -8.735  1.00  0.00     0.020 A 
ATOM     70  C   UNL     1       7.989   9.946 -10.303  1.00  0.00     0.020 A 
ATOM     71  C   UNL     1       8.995  10.360  -9.426  1.00  0.00     0.054 A 
BRANCH  71  72
ATOM     72  S   UNL     1       9.328  12.125  -9.175  1.00  0.00     0.124 S 
ATOM     73  O   UNL     1       8.782  12.346  -7.838  1.00  0.00    -0.237 OA
ATOM     74  O   UNL     1      10.783  12.197  -9.278  1.00  0.00    -0.237 OA
ATOM     75  O   UNL     1       8.596  12.774 -10.260  1.00  0.00    -0.744 OA
ENDBRANCH  71  72
ENDBRANCH  52  66
BRANCH  53  76
ATOM     76  C   UNL     1       6.401  -2.068 -10.483  1.00  0.00    -0.014 A 
ATOM     77  C   UNL     1       7.429  -3.019 -10.606  1.00  0.00     0.010 A 
ATOM     78  C   UNL     1       5.064  -2.510 -10.473  1.00  0.00     0.010 A 
ATOM     79  C   UNL     1       7.128  -4.380 -10.732  1.00  0.00     0.020 A 
ATOM     80  C   UNL     1       4.760  -3.871 -10.577  1.00  0.00     0.020 A 
ATOM     81  C   UNL     1       5.794  -4.798 -10.715  1.00  0.00     0.054 A 
BRANCH  81  82
ATOM     82  S   UNL     1       5.428  -6.573 -10.827  1.00  0.00     0.124 S 
ATOM     83  O   UNL     1       5.706  -6.854 -12.232  1.00  0.00    -0.237 OA
ATOM     84  O   UNL     1       6.367  -7.150  -9.867  1.00  0.00    -0.237 OA
ATOM     85  O   UNL     1       4.022  -6.658 -10.437  1.00  0.00    -0.744 OA
ENDBRANCH  81  82
ENDBRANCH  53  76
BRANCH  65  86
ATOM     86  C   UNL     1       9.148   2.592 -14.887  1.00  0.00    -0.014 A 
ATOM     87  C   UNL     1       8.272   2.472 -15.980  1.00  0.00     0.010 A 
ATOM     88  C   UNL     1      10.533   2.669 -15.126  1.00  0.00     0.010 A 
ATOM     89  C   UNL     1       8.773   2.405 -17.284  1.00  0.00     0.020 A 
ATOM     90  C   UNL     1      11.036   2.627 -16.429  1.00  0.00     0.020 A 
ATOM     91  C   UNL     1      10.152   2.482 -17.500  1.00  0.00     0.054 A 
BRANCH  91  92
ATOM     92  S   UNL     1      10.775   2.443 -19.204  1.00  0.00     0.124 S 
ATOM     93  O   UNL     1      10.639   1.030 -19.546  1.00  0.00    -0.237 OA
ATOM     94  O   UNL     1       9.864   3.348 -19.901  1.00  0.00    -0.237 OA
ATOM     95  O   UNL     1      12.149   2.925 -19.082  1.00  0.00    -0.744 OA
ENDBRANCH  91  92
ENDBRANCH  65  86
ENDBRANCH  39  40
ENDBRANCH  32  34
ENDBRANCH  31  32
ENDBRANCH  30  31
ENDBRANCH   1  30
TORSDOF 20
