REMARK SMILES [NH3+][C@@H](Cc1c[nH]c2ccccc12)C(=O)N[C@@H](CS)C(=O)N[C@@H](CO)C(=O)OCCOCCOC(=O)c1ccc(-c2c3nc(c(-c4ccc(S(=O)(=O)[O-])cc4)c4ccc([nH]4)c(-c4ccc(S(=O)(=O)[O-])cc4)c4nc(c(-c5ccc(S(=O)(=O)[O-])cc5)c5ccc2[nH]5)C=C4)C=C3)cc1
REMARK SMILES IDX 28 1 27 2 25 3 26 4 22 5 21 6 19 7 20 8 16 10 15 11 13 12
REMARK SMILES IDX 14 13 2 15 1 16 3 20 4 21 5 22 12 23 6 24 7 25 11 26 8 28
REMARK SMILES IDX 10 29 9 30 17 31 18 32 23 34 24 35 29 37 30 38 31 39 32 40
REMARK SMILES IDX 33 41 34 42 35 43 36 44 37 45 95 46 38 47 94 48 39 49 40 50
REMARK SMILES IDX 41 51 88 52 42 53 93 54 87 55 89 56 43 57 92 58 86 59 85 60
REMARK SMILES IDX 44 62 74 63 55 64 73 65 56 66 59 67 72 68 90 69 57 70 58 71
REMARK SMILES IDX 71 73 91 74 60 75 45 76 46 77 54 78 47 79 53 80 48 81 49 82
REMARK SMILES IDX 50 83 51 84 52 85 75 86 76 87 84 88 77 89 83 90 78 91 79 92
REMARK SMILES IDX 80 93 81 94 82 95 61 96 62 97 70 98 63 99 69 100 64 101
REMARK SMILES IDX 65 102 66 103 67 104 68 105
REMARK H PARENT 21 9 15 14 1 17 1 18 1 19 6 27 18 33 24 36 89 61 59 72
REMARK Flexibility Score: inf
ROOT
ATOM      1  C   UNL     1      -6.391  -3.607   4.384  1.00  0.00     0.261 C 
ENDROOT
BRANCH   1   2
ATOM      2  O   UNL     1      -5.608  -3.712   3.182  1.00  0.00    -0.462 OA
BRANCH   2   3
ATOM      3  C   UNL     1      -5.963  -2.857   2.183  1.00  0.00     0.331 C 
ATOM      4  O   UNL     1      -6.961  -2.144   2.189  1.00  0.00    -0.250 OA
BRANCH   3   5
ATOM      5  C   UNL     1      -4.960  -2.841   1.024  1.00  0.00     0.218 C 
BRANCH   5   6
ATOM      6  N   UNL     1      -3.693  -3.538   1.247  1.00  0.00    -0.339 N 
ATOM      7  C   UNL     1      -2.468  -3.222   0.750  1.00  0.00     0.244 C 
ATOM      8  O   UNL     1      -1.801  -4.175   0.331  1.00  0.00    -0.273 OA
ATOM      9  H   UNL     1      -3.733  -4.332   1.829  1.00  0.00     0.164 HD
BRANCH   7  10
ATOM     10  C   UNL     1      -1.943  -1.762   0.612  1.00  0.00     0.181 C 
BRANCH  10  11
ATOM     11  N   UNL     1      -1.971  -1.239  -0.740  1.00  0.00    -0.338 N 
ATOM     12  C   UNL     1      -0.945  -0.843  -1.539  1.00  0.00     0.279 C 
ATOM     13  O   UNL     1      -1.280  -0.344  -2.625  1.00  0.00    -0.268 OA
ATOM     14  H   UNL     1      -2.868  -1.159  -1.140  1.00  0.00     0.164 HD
BRANCH  12  15
ATOM     15  C   UNL     1       0.568  -0.873  -1.161  1.00  0.00     0.275 C 
BRANCH  15  16
ATOM     16  N   UNL     1       0.936   0.328  -0.387  1.00  0.00    -0.347 N 
ATOM     17  H   UNL     1       1.927   0.289  -0.150  1.00  0.00     0.345 HD
ATOM     18  H   UNL     1       0.383   0.363   0.469  1.00  0.00     0.345 HD
ATOM     19  H   UNL     1       0.752   1.161  -0.945  1.00  0.00     0.345 HD
ENDBRANCH  15  16
BRANCH  15  20
ATOM     20  C   UNL     1       1.271  -2.190  -0.789  1.00  0.00     0.113 C 
BRANCH  20  21
ATOM     21  C   UNL     1       1.323  -2.788   0.601  1.00  0.00    -0.016 A 
ATOM     22  C   UNL     1       1.426  -4.162   0.770  1.00  0.00     0.087 A 
ATOM     23  C   UNL     1       1.269  -2.236   1.938  1.00  0.00     0.003 A 
ATOM     24  N   UNL     1       1.331  -4.463   2.096  1.00  0.00    -0.361 N 
ATOM     25  C   UNL     1       1.187  -3.314   2.829  1.00  0.00     0.046 A 
ATOM     26  C   UNL     1       1.190  -0.945   2.507  1.00  0.00     0.010 A 
ATOM     27  H   UNL     1       1.361  -5.373   2.471  1.00  0.00     0.166 HD
ATOM     28  C   UNL     1       0.976  -3.166   4.207  1.00  0.00     0.026 A 
ATOM     29  C   UNL     1       0.938  -0.777   3.877  1.00  0.00     0.001 A 
ATOM     30  C   UNL     1       0.817  -1.877   4.713  1.00  0.00     0.002 A 
ENDBRANCH  20  21
ENDBRANCH  15  20
ENDBRANCH  12  15
ENDBRANCH  10  11
BRANCH  10  31
ATOM     31  C   UNL     1      -2.272  -0.755   1.728  1.00  0.00     0.101 C 
BRANCH  31  32
ATOM     32  S   UNL     1      -3.334   0.687   1.357  1.00  0.00    -0.177 SA
ATOM     33  H   UNL     1      -2.695   1.506   0.478  1.00  0.00     0.102 HD
ENDBRANCH  31  32
ENDBRANCH  10  31
ENDBRANCH   7  10
ENDBRANCH   5   6
BRANCH   5  34
ATOM     34  C   UNL     1      -5.655  -3.404  -0.222  1.00  0.00     0.193 C 
BRANCH  34  35
ATOM     35  O   UNL     1      -5.794  -4.821  -0.127  1.00  0.00    -0.394 OA
ATOM     36  H   UNL     1      -4.916  -5.228  -0.058  1.00  0.00     0.210 HD
ENDBRANCH  34  35
ENDBRANCH   5  34
ENDBRANCH   3   5
ENDBRANCH   2   3
ENDBRANCH   1   2
BRANCH   1  37
ATOM     37  C   UNL     1      -5.520  -3.692   5.643  1.00  0.00     0.202 C 
BRANCH  37  38
ATOM     38  O   UNL     1      -4.490  -2.713   5.789  1.00  0.00    -0.374 OA
BRANCH  38  39
ATOM     39  C   UNL     1      -3.403  -2.760   4.870  1.00  0.00     0.202 C 
BRANCH  39  40
ATOM     40  C   UNL     1      -2.407  -3.919   4.986  1.00  0.00     0.261 C 
BRANCH  40  41
ATOM     41  O   UNL     1      -3.006  -5.218   4.892  1.00  0.00    -0.460 OA
BRANCH  41  42
ATOM     42  C   UNL     1      -2.930  -5.959   6.024  1.00  0.00     0.338 C 
ATOM     43  O   UNL     1      -2.378  -5.659   7.075  1.00  0.00    -0.246 OA
BRANCH  42  44
ATOM     44  C   UNL     1      -3.756  -7.164   5.875  1.00  0.00     0.060 A 
ATOM     45  C   UNL     1      -4.870  -7.307   6.712  1.00  0.00     0.016 A 
ATOM     46  C   UNL     1      -3.401  -8.171   4.975  1.00  0.00     0.016 A 
ATOM     47  C   UNL     1      -5.625  -8.475   6.665  1.00  0.00     0.010 A 
ATOM     48  C   UNL     1      -4.154  -9.347   4.940  1.00  0.00     0.010 A 
ATOM     49  C   UNL     1      -5.252  -9.514   5.801  1.00  0.00    -0.014 A 
BRANCH  49  50
ATOM     50  C   UNL     1      -5.940 -10.821   5.895  1.00  0.00     0.031 A 
ATOM     51  C   UNL     1      -5.300 -11.927   6.687  1.00  0.00     0.074 A 
ATOM     52  C   UNL     1      -7.133 -11.005   5.303  1.00  0.00     0.049 A 
ATOM     53  N   UNL     1      -5.725 -13.144   6.900  1.00  0.00    -0.248 NA
ATOM     54  C   UNL     1      -4.010 -11.617   7.324  1.00  0.00     0.031 C 
ATOM     55  C   UNL     1      -7.864  -9.991   4.543  1.00  0.00     0.029 A 
ATOM     56  N   UNL     1      -7.941 -12.112   5.252  1.00  0.00    -0.354 N 
ATOM     57  C   UNL     1      -4.755 -13.748   7.692  1.00  0.00     0.074 A 
ATOM     58  C   UNL     1      -3.706 -12.773   7.896  1.00  0.00     0.031 C 
ATOM     59  C   UNL     1      -9.016 -10.525   4.101  1.00  0.00     0.029 A 
ATOM     60  C   UNL     1      -9.088 -11.923   4.519  1.00  0.00     0.049 A 
ATOM     61  H   UNL     1      -7.720 -12.962   5.697  1.00  0.00     0.167 HD
ATOM     62  C   UNL     1      -4.744 -15.000   8.208  1.00  0.00     0.031 A 
ATOM     63  C   UNL     1     -10.076 -12.785   4.211  1.00  0.00     0.031 A 
ATOM     64  C   UNL     1      -5.781 -15.971   7.981  1.00  0.00     0.049 A 
ATOM     65  C   UNL     1     -10.007 -14.195   4.735  1.00  0.00     0.074 A 
ATOM     66  C   UNL     1      -5.871 -17.266   8.461  1.00  0.00     0.029 A 
ATOM     67  N   UNL     1      -6.906 -15.756   7.198  1.00  0.00    -0.354 N 
ATOM     68  N   UNL     1      -9.095 -14.745   5.503  1.00  0.00    -0.248 NA
ATOM     69  C   UNL     1     -11.102 -15.098   4.357  1.00  0.00     0.031 C 
ATOM     70  C   UNL     1      -7.023 -17.850   7.924  1.00  0.00     0.029 A 
ATOM     71  C   UNL     1      -7.683 -16.901   7.159  1.00  0.00     0.049 A 
ATOM     72  H   UNL     1      -7.121 -14.912   6.738  1.00  0.00     0.167 HD
ATOM     73  C   UNL     1      -9.520 -16.051   5.721  1.00  0.00     0.074 A 
ATOM     74  C   UNL     1     -10.776 -16.204   5.014  1.00  0.00     0.031 C 
ATOM     75  C   UNL     1      -8.927 -17.034   6.443  1.00  0.00     0.031 A 
BRANCH  62  76
ATOM     76  C   UNL     1      -3.550 -15.396   9.036  1.00  0.00    -0.014 A 
ATOM     77  C   UNL     1      -3.337 -14.852  10.316  1.00  0.00     0.010 A 
ATOM     78  C   UNL     1      -2.632 -16.335   8.532  1.00  0.00     0.010 A 
ATOM     79  C   UNL     1      -2.204 -15.203  11.055  1.00  0.00     0.020 A 
ATOM     80  C   UNL     1      -1.512 -16.710   9.279  1.00  0.00     0.020 A 
ATOM     81  C   UNL     1      -1.294 -16.125  10.528  1.00  0.00     0.054 A 
BRANCH  81  82
ATOM     82  S   UNL     1       0.168 -16.564  11.508  1.00  0.00     0.124 S 
ATOM     83  O   UNL     1       0.987 -15.360  11.380  1.00  0.00    -0.237 OA
ATOM     84  O   UNL     1      -0.394 -16.803  12.835  1.00  0.00    -0.237 OA
ATOM     85  O   UNL     1       0.694 -17.748  10.834  1.00  0.00    -0.744 OA
ENDBRANCH  81  82
ENDBRANCH  62  76
BRANCH  63  86
ATOM     86  C   UNL     1     -11.211 -12.338   3.358  1.00  0.00    -0.014 A 
ATOM     87  C   UNL     1     -12.497 -12.176   3.902  1.00  0.00     0.010 A 
ATOM     88  C   UNL     1     -11.004 -12.052   1.996  1.00  0.00     0.010 A 
ATOM     89  C   UNL     1     -13.557 -11.745   3.098  1.00  0.00     0.020 A 
ATOM     90  C   UNL     1     -12.055 -11.596   1.195  1.00  0.00     0.020 A 
ATOM     91  C   UNL     1     -13.328 -11.454   1.750  1.00  0.00     0.054 A 
BRANCH  91  92
ATOM     92  S   UNL     1     -14.704 -10.836   0.741  1.00  0.00     0.124 S 
ATOM     93  O   UNL     1     -15.508 -12.040   0.554  1.00  0.00    -0.237 OA
ATOM     94  O   UNL     1     -15.289  -9.811   1.601  1.00  0.00    -0.237 OA
ATOM     95  O   UNL     1     -14.046 -10.328  -0.461  1.00  0.00    -0.744 OA
ENDBRANCH  91  92
ENDBRANCH  63  86
BRANCH  75  96
ATOM     96  C   UNL     1      -9.643 -18.356   6.530  1.00  0.00    -0.014 A 
ATOM     97  C   UNL     1      -9.695 -19.231   5.431  1.00  0.00     0.010 A 
ATOM     98  C   UNL     1     -10.224 -18.750   7.750  1.00  0.00     0.010 A 
ATOM     99  C   UNL     1     -10.342 -20.465   5.542  1.00  0.00     0.020 A 
ATOM    100  C   UNL     1     -10.847 -19.994   7.872  1.00  0.00     0.020 A 
ATOM    101  C   UNL     1     -10.914 -20.838   6.762  1.00  0.00     0.054 A 
BRANCH 101 102
ATOM    102  S   UNL     1     -11.708 -22.464   6.893  1.00  0.00     0.124 S 
ATOM    103  O   UNL     1     -12.954 -22.253   6.162  1.00  0.00    -0.237 OA
ATOM    104  O   UNL     1     -10.741 -23.347   6.246  1.00  0.00    -0.237 OA
ATOM    105  O   UNL     1     -11.857 -22.662   8.334  1.00  0.00    -0.744 OA
ENDBRANCH 101 102
ENDBRANCH  75  96
ENDBRANCH  49  50
ENDBRANCH  42  44
ENDBRANCH  41  42
ENDBRANCH  40  41
ENDBRANCH  39  40
ENDBRANCH  38  39
ENDBRANCH  37  38
ENDBRANCH   1  37
TORSDOF 28
