REMARK SMILES CC(=O)OCC1=C(C(=O)OCCOCCOC(=O)c2ccc(-c3c4nc(c(-c5ccc(S(=O)(=O)[O-])cc5)c5ccc([nH]5)c(-c5ccc(S(=O)(=O)[O-])cc5)c5nc(c(-c6ccc(S(=O)(=O)[O-])cc6)c6ccc3[nH]6)C=C5)C=C4)cc2)N2C(=O)[C@H](NC(=O)C3CCCCC3)[C@@H]2SC1
REMARK SMILES IDX 13 1 12 2 11 3 10 4 8 5 9 6 7 7 6 8 94 9 79 10 93 11 80 12
REMARK SMILES IDX 92 13 81 14 82 15 5 16 4 17 2 18 1 19 3 20 83 21 84 22 85 24
REMARK SMILES IDX 86 25 87 26 91 27 88 28 90 29 89 30 14 31 15 32 16 33 17 34
REMARK SMILES IDX 18 35 19 36 20 37 78 38 21 39 77 40 22 41 23 42 24 43 71 44
REMARK SMILES IDX 25 45 76 46 70 47 72 48 26 49 75 50 69 51 68 52 27 54 57 55
REMARK SMILES IDX 38 56 56 57 39 58 42 59 55 60 73 61 40 62 41 63 54 65 74 66
REMARK SMILES IDX 43 67 28 68 29 69 37 70 30 71 36 72 31 73 32 74 33 75 34 76
REMARK SMILES IDX 35 77 58 78 59 79 67 80 60 81 66 82 61 83 62 84 63 85 64 86
REMARK SMILES IDX 65 87 44 88 45 89 53 90 46 91 52 92 47 93 48 94 49 95 50 96
REMARK SMILES IDX 51 97
REMARK H PARENT 83 23 72 53 42 64
REMARK Flexibility Score: inf
ROOT
ATOM      1  O   UNL     1       3.047   4.777  -6.904  1.00  0.00    -0.374 OA
ENDROOT
BRANCH   1   2
ATOM      2  C   UNL     1       2.094   5.474  -6.094  1.00  0.00     0.202 C 
BRANCH   2   3
ATOM      3  C   UNL     1       0.692   4.860  -6.066  1.00  0.00     0.261 C 
BRANCH   3   4
ATOM      4  O   UNL     1       0.753   3.607  -5.368  1.00  0.00    -0.459 OA
BRANCH   4   5
ATOM      5  C   UNL     1      -0.172   2.697  -5.749  1.00  0.00     0.355 C 
ATOM      6  O   UNL     1      -1.199   2.909  -6.369  1.00  0.00    -0.244 OA
BRANCH   5   7
ATOM      7  C   UNL     1       0.337   1.335  -5.401  1.00  0.00     0.134 C 
ATOM      8  C   UNL     1       0.338   0.864  -4.133  1.00  0.00     0.008 C 
ATOM      9  C   UNL     1       0.613  -0.593  -3.792  1.00  0.00     0.108 C 
ATOM     10  N   UNL     1       0.747   0.555  -6.435  1.00  0.00    -0.289 N 
ATOM     11  S   UNL     1       0.535  -1.748  -5.202  1.00  0.00    -0.129 SA
ATOM     12  C   UNL     1       0.786   0.611  -7.777  1.00  0.00     0.253 C 
ATOM     13  C   UNL     1       1.493  -0.671  -6.283  1.00  0.00     0.181 C 
ATOM     14  O   UNL     1       0.482   1.462  -8.582  1.00  0.00    -0.272 OA
ATOM     15  C   UNL     1       1.369  -0.844  -7.828  1.00  0.00     0.205 C 
BRANCH   8  16
ATOM     16  C   UNL     1      -0.010   1.726  -2.932  1.00  0.00     0.267 C 
BRANCH  16  17
ATOM     17  O   UNL     1       0.822   1.358  -1.814  1.00  0.00    -0.461 OA
BRANCH  17  18
ATOM     18  C   UNL     1       0.200   0.697  -0.800  1.00  0.00     0.302 C 
ATOM     19  C   UNL     1       1.172   0.338   0.282  1.00  0.00     0.139 C 
ATOM     20  O   UNL     1      -0.984   0.394  -0.773  1.00  0.00    -0.253 OA
ENDBRANCH  17  18
ENDBRANCH  16  17
ENDBRANCH   8  16
BRANCH  15  21
ATOM     21  N   UNL     1       0.442  -1.875  -8.342  1.00  0.00    -0.342 N 
ATOM     22  C   UNL     1       0.608  -3.066  -8.968  1.00  0.00     0.223 C 
ATOM     23  H   UNL     1      -0.505  -1.647  -8.196  1.00  0.00     0.164 HD
ATOM     24  O   UNL     1      -0.439  -3.674  -9.234  1.00  0.00    -0.275 OA
BRANCH  22  25
ATOM     25  C   UNL     1       1.948  -3.698  -9.374  1.00  0.00     0.078 C 
ATOM     26  C   UNL     1       3.249  -2.952  -9.096  1.00  0.00     0.013 C 
ATOM     27  C   UNL     1       2.004  -5.125  -8.787  1.00  0.00     0.013 C 
ATOM     28  C   UNL     1       4.491  -3.736  -9.518  1.00  0.00     0.001 C 
ATOM     29  C   UNL     1       3.256  -5.891  -9.208  1.00  0.00     0.001 C 
ATOM     30  C   UNL     1       4.524  -5.116  -8.879  1.00  0.00     0.000 C 
ENDBRANCH  22  25
ENDBRANCH  15  21
ENDBRANCH   5   7
ENDBRANCH   4   5
ENDBRANCH   3   4
ENDBRANCH   2   3
ENDBRANCH   1   2
BRANCH   1  31
ATOM     31  C   UNL     1       3.527   3.522  -6.426  1.00  0.00     0.202 C 
BRANCH  31  32
ATOM     32  C   UNL     1       4.645   3.580  -5.378  1.00  0.00     0.261 C 
BRANCH  32  33
ATOM     33  O   UNL     1       4.244   4.251  -4.171  1.00  0.00    -0.460 OA
BRANCH  33  34
ATOM     34  C   UNL     1       4.800   5.478  -4.010  1.00  0.00     0.338 C 
ATOM     35  O   UNL     1       5.627   6.009  -4.734  1.00  0.00    -0.246 OA
BRANCH  34  36
ATOM     36  C   UNL     1       4.162   6.197  -2.890  1.00  0.00     0.060 A 
ATOM     37  C   UNL     1       3.735   7.507  -3.135  1.00  0.00     0.016 A 
ATOM     38  C   UNL     1       4.070   5.649  -1.608  1.00  0.00     0.016 A 
ATOM     39  C   UNL     1       3.271   8.297  -2.086  1.00  0.00     0.010 A 
ATOM     40  C   UNL     1       3.607   6.446  -0.553  1.00  0.00     0.010 A 
ATOM     41  C   UNL     1       3.246   7.787  -0.781  1.00  0.00    -0.014 A 
BRANCH  41  42
ATOM     42  C   UNL     1       2.985   8.716   0.346  1.00  0.00     0.031 A 
ATOM     43  C   UNL     1       4.149   9.280   1.117  1.00  0.00     0.074 A 
ATOM     44  C   UNL     1       1.731   9.110   0.636  1.00  0.00     0.049 A 
ATOM     45  N   UNL     1       4.152  10.160   2.086  1.00  0.00    -0.248 NA
ATOM     46  C   UNL     1       5.487   8.791   0.745  1.00  0.00     0.031 C 
ATOM     47  C   UNL     1       0.523   8.663  -0.056  1.00  0.00     0.029 A 
ATOM     48  N   UNL     1       1.271   9.989   1.584  1.00  0.00    -0.354 N 
ATOM     49  C   UNL     1       5.486  10.331   2.438  1.00  0.00     0.074 A 
ATOM     50  C   UNL     1       6.261   9.439   1.604  1.00  0.00     0.031 C 
ATOM     51  C   UNL     1      -0.543   9.276   0.489  1.00  0.00     0.029 A 
ATOM     52  C   UNL     1      -0.094  10.144   1.576  1.00  0.00     0.049 A 
ATOM     53  H   UNL     1       1.863  10.464   2.212  1.00  0.00     0.167 HD
ATOM     54  C   UNL     1       6.021  11.164   3.364  1.00  0.00     0.031 A 
ATOM     55  C   UNL     1      -0.893  10.900   2.356  1.00  0.00     0.031 A 
ATOM     56  C   UNL     1       5.252  12.044   4.203  1.00  0.00     0.049 A 
ATOM     57  C   UNL     1      -0.279  11.785   3.408  1.00  0.00     0.074 A 
ATOM     58  C   UNL     1       5.705  12.930   5.165  1.00  0.00     0.029 A 
ATOM     59  N   UNL     1       3.870  12.147   4.184  1.00  0.00    -0.354 N 
ATOM     60  N   UNL     1       0.987  11.953   3.708  1.00  0.00    -0.248 NA
ATOM     61  C   UNL     1      -1.203  12.596   4.213  1.00  0.00     0.031 C 
ATOM     62  C   UNL     1       4.593  13.537   5.759  1.00  0.00     0.029 A 
ATOM     63  C   UNL     1       3.451  13.069   5.128  1.00  0.00     0.049 A 
ATOM     64  H   UNL     1       3.274  11.640   3.586  1.00  0.00     0.167 HD
ATOM     65  C   UNL     1       1.012  12.914   4.715  1.00  0.00     0.074 A 
ATOM     66  C   UNL     1      -0.363  13.294   4.965  1.00  0.00     0.031 C 
ATOM     67  C   UNL     1       2.079  13.438   5.368  1.00  0.00     0.031 A 
BRANCH  54  68
ATOM     68  C   UNL     1       7.516  11.137   3.534  1.00  0.00    -0.014 A 
ATOM     69  C   UNL     1       8.369  11.694   2.563  1.00  0.00     0.010 A 
ATOM     70  C   UNL     1       8.076  10.573   4.694  1.00  0.00     0.010 A 
ATOM     71  C   UNL     1       9.756  11.649   2.731  1.00  0.00     0.020 A 
ATOM     72  C   UNL     1       9.461  10.549   4.877  1.00  0.00     0.020 A 
ATOM     73  C   UNL     1      10.293  11.071   3.885  1.00  0.00     0.054 A 
BRANCH  73  74
ATOM     74  S   UNL     1      12.096  11.035   4.084  1.00  0.00     0.124 S 
ATOM     75  O   UNL     1      12.479   9.976   3.153  1.00  0.00    -0.237 OA
ATOM     76  O   UNL     1      12.491  12.386   3.696  1.00  0.00    -0.237 OA
ATOM     77  O   UNL     1      12.281  10.717   5.498  1.00  0.00    -0.744 OA
ENDBRANCH  73  74
ENDBRANCH  54  68
BRANCH  55  78
ATOM     78  C   UNL     1      -2.368  10.857   2.165  1.00  0.00    -0.014 A 
ATOM     79  C   UNL     1      -3.054  11.952   1.613  1.00  0.00     0.010 A 
ATOM     80  C   UNL     1      -3.093   9.710   2.536  1.00  0.00     0.010 A 
ATOM     81  C   UNL     1      -4.442  11.907   1.448  1.00  0.00     0.020 A 
ATOM     82  C   UNL     1      -4.477   9.652   2.350  1.00  0.00     0.020 A 
ATOM     83  C   UNL     1      -5.144  10.756   1.817  1.00  0.00     0.054 A 
BRANCH  83  84
ATOM     84  S   UNL     1      -6.937  10.696   1.546  1.00  0.00     0.124 S 
ATOM     85  O   UNL     1      -7.437  11.530   2.634  1.00  0.00    -0.237 OA
ATOM     86  O   UNL     1      -7.073  11.256   0.203  1.00  0.00    -0.237 OA
ATOM     87  O   UNL     1      -7.249   9.272   1.652  1.00  0.00    -0.744 OA
ENDBRANCH  83  84
ENDBRANCH  55  78
BRANCH  67  88
ATOM     88  C   UNL     1       1.807  14.511   6.388  1.00  0.00    -0.014 A 
ATOM     89  C   UNL     1       1.225  14.210   7.632  1.00  0.00     0.010 A 
ATOM     90  C   UNL     1       2.177  15.840   6.109  1.00  0.00     0.010 A 
ATOM     91  C   UNL     1       0.980  15.225   8.562  1.00  0.00     0.020 A 
ATOM     92  C   UNL     1       1.956  16.853   7.045  1.00  0.00     0.020 A 
ATOM     93  C   UNL     1       1.341  16.542   8.259  1.00  0.00     0.054 A 
BRANCH  93  94
ATOM     94  S   UNL     1       1.035  17.840   9.489  1.00  0.00     0.124 S 
ATOM     95  O   UNL     1      -0.403  18.055   9.349  1.00  0.00    -0.237 OA
ATOM     96  O   UNL     1       1.458  17.209  10.737  1.00  0.00    -0.237 OA
ATOM     97  O   UNL     1       1.878  18.946   9.041  1.00  0.00    -0.744 OA
ENDBRANCH  93  94
ENDBRANCH  67  88
ENDBRANCH  41  42
ENDBRANCH  34  36
ENDBRANCH  33  34
ENDBRANCH  32  33
ENDBRANCH  31  32
ENDBRANCH   1  31
TORSDOF 22
