REMARK SMILES O=C(CNC(=O)OCc1ccccc1)NCC(=O)OCCOCCOC(=O)c1ccc(-c2c3nc(c(-c4ccc(S(=O)(=O)[O-])cc4)c4ccc([nH]4)c(-c4ccc(S(=O)(=O)[O-])cc4)c4nc(c(-c5ccc(S(=O)(=O)[O-])cc5)c5ccc2[nH]5)C=C4)C=C3)cc1
REMARK SMILES IDX 20 1 19 2 17 3 18 4 16 5 15 6 1 7 2 8 3 10 4 11 5 12 6 14
REMARK SMILES IDX 7 15 8 16 9 17 10 18 14 19 11 20 13 21 12 22 21 23 22 24
REMARK SMILES IDX 23 25 24 26 25 27 26 28 27 29 28 30 29 31 87 32 30 33 86 34
REMARK SMILES IDX 31 35 32 36 33 37 80 38 34 39 85 40 79 41 81 42 35 43 84 44
REMARK SMILES IDX 78 45 77 46 36 48 66 49 47 50 65 51 48 52 51 53 64 54 82 55
REMARK SMILES IDX 49 56 50 57 63 59 83 60 52 61 37 62 38 63 46 64 39 65 45 66
REMARK SMILES IDX 40 67 41 68 42 69 43 70 44 71 67 72 68 73 76 74 69 75 75 76
REMARK SMILES IDX 70 77 71 78 72 79 73 80 74 81 53 82 54 83 62 84 55 85 61 86
REMARK SMILES IDX 56 87 57 88 58 89 59 90 60 91
REMARK H PARENT 15 9 4 13 81 47 51 58
REMARK Flexibility Score: inf
ROOT
ATOM      1  C   UNL     1       2.212   2.029   4.729  1.00  0.00     0.261 C 
ENDROOT
BRANCH   1   2
ATOM      2  O   UNL     1       2.141   1.635   3.348  1.00  0.00    -0.462 OA
BRANCH   2   3
ATOM      3  C   UNL     1       1.433   2.472   2.541  1.00  0.00     0.325 C 
ATOM      4  O   UNL     1       0.767   3.427   2.927  1.00  0.00    -0.250 OA
BRANCH   3   5
ATOM      5  C   UNL     1       1.657   2.197   1.054  1.00  0.00     0.238 C 
BRANCH   5   6
ATOM      6  N   UNL     1       2.479   1.064   0.656  1.00  0.00    -0.344 N 
ATOM      7  O   UNL     1       0.733  -0.345   0.208  1.00  0.00    -0.273 OA
ATOM      8  C   UNL     1       1.935  -0.106   0.174  1.00  0.00     0.240 C 
ATOM      9  H   UNL     1       3.458   1.137   0.735  1.00  0.00     0.164 HD
BRANCH   8  10
ATOM     10  C   UNL     1       2.967  -1.112  -0.346  1.00  0.00     0.219 C 
BRANCH  10  11
ATOM     11  N   UNL     1       3.865  -0.428  -1.268  1.00  0.00    -0.312 N 
ATOM     12  C   UNL     1       5.217  -0.537  -1.342  1.00  0.00     0.407 C 
ATOM     13  H   UNL     1       3.442   0.184  -1.912  1.00  0.00     0.167 HD
ATOM     14  O   UNL     1       5.860   0.169  -2.111  1.00  0.00    -0.225 OA
BRANCH  12  15
ATOM     15  O   UNL     1       5.730  -1.445  -0.483  1.00  0.00    -0.445 OA
BRANCH  15  16
ATOM     16  C   UNL     1       7.161  -1.564  -0.505  1.00  0.00     0.270 C 
BRANCH  16  17
ATOM     17  C   UNL     1       7.636  -2.433  -1.643  1.00  0.00    -0.011 A 
ATOM     18  C   UNL     1       7.296  -3.792  -1.695  1.00  0.00     0.007 A 
ATOM     19  C   UNL     1       8.424  -1.892  -2.669  1.00  0.00     0.007 A 
ATOM     20  C   UNL     1       7.740  -4.592  -2.750  1.00  0.00     0.000 A 
ATOM     21  C   UNL     1       8.867  -2.693  -3.723  1.00  0.00     0.000 A 
ATOM     22  C   UNL     1       8.525  -4.043  -3.763  1.00  0.00     0.000 A 
ENDBRANCH  16  17
ENDBRANCH  15  16
ENDBRANCH  12  15
ENDBRANCH  10  11
ENDBRANCH   8  10
ENDBRANCH   5   6
ENDBRANCH   3   5
ENDBRANCH   2   3
ENDBRANCH   1   2
BRANCH   1  23
ATOM     23  C   UNL     1       3.662   2.156   5.208  1.00  0.00     0.202 C 
BRANCH  23  24
ATOM     24  O   UNL     1       4.520   3.044   4.495  1.00  0.00    -0.374 OA
BRANCH  24  25
ATOM     25  C   UNL     1       4.891   2.709   3.161  1.00  0.00     0.202 C 
BRANCH  25  26
ATOM     26  C   UNL     1       5.813   1.501   2.931  1.00  0.00     0.261 C 
BRANCH  26  27
ATOM     27  O   UNL     1       5.291   0.260   3.434  1.00  0.00    -0.460 OA
BRANCH  27  28
ATOM     28  C   UNL     1       5.958  -0.213   4.520  1.00  0.00     0.338 C 
ATOM     29  O   UNL     1       6.940   0.285   5.047  1.00  0.00    -0.246 OA
BRANCH  28  30
ATOM     30  C   UNL     1       5.245  -1.349   5.133  1.00  0.00     0.060 A 
ATOM     31  C   UNL     1       4.926  -1.243   6.493  1.00  0.00     0.016 A 
ATOM     32  C   UNL     1       5.021  -2.541   4.442  1.00  0.00     0.016 A 
ATOM     33  C   UNL     1       4.453  -2.352   7.187  1.00  0.00     0.010 A 
ATOM     34  C   UNL     1       4.545  -3.656   5.144  1.00  0.00     0.010 A 
ATOM     35  C   UNL     1       4.309  -3.581   6.530  1.00  0.00    -0.014 A 
BRANCH  35  36
ATOM     36  C   UNL     1       4.079  -4.804   7.341  1.00  0.00     0.031 A 
ATOM     37  C   UNL     1       5.231  -5.742   7.600  1.00  0.00     0.074 A 
ATOM     38  C   UNL     1       2.881  -5.038   7.907  1.00  0.00     0.049 A 
ATOM     39  N   UNL     1       5.262  -6.839   8.312  1.00  0.00    -0.248 NA
ATOM     40  C   UNL     1       6.518  -5.397   6.973  1.00  0.00     0.031 C 
ATOM     41  C   UNL     1       1.700  -4.185   7.771  1.00  0.00     0.029 A 
ATOM     42  N   UNL     1       2.464  -6.061   8.722  1.00  0.00    -0.354 N 
ATOM     43  C   UNL     1       6.564  -7.320   8.212  1.00  0.00     0.074 A 
ATOM     44  C   UNL     1       7.281  -6.417   7.339  1.00  0.00     0.031 C 
ATOM     45  C   UNL     1       0.694  -4.716   8.486  1.00  0.00     0.029 A 
ATOM     46  C   UNL     1       1.147  -5.962   9.102  1.00  0.00     0.049 A 
ATOM     47  H   UNL     1       3.052  -6.797   9.007  1.00  0.00     0.167 HD
ATOM     48  C   UNL     1       7.117  -8.408   8.802  1.00  0.00     0.031 A 
ATOM     49  C   UNL     1       0.387  -6.787   9.850  1.00  0.00     0.031 A 
ATOM     50  C   UNL     1       6.401  -9.309   9.666  1.00  0.00     0.049 A 
ATOM     51  C   UNL     1       1.008  -8.027  10.439  1.00  0.00     0.074 A 
ATOM     52  C   UNL     1       6.877 -10.428  10.328  1.00  0.00     0.029 A 
ATOM     53  N   UNL     1       5.055  -9.201   9.984  1.00  0.00    -0.354 N 
ATOM     54  N   UNL     1       2.248  -8.449  10.359  1.00  0.00    -0.248 NA
ATOM     55  C   UNL     1       0.126  -8.895  11.232  1.00  0.00     0.031 C 
ATOM     56  C   UNL     1       5.805 -11.034  10.990  1.00  0.00     0.029 A 
ATOM     57  C   UNL     1       4.676 -10.253  10.803  1.00  0.00     0.049 A 
ATOM     58  H   UNL     1       4.457  -8.484   9.673  1.00  0.00     0.167 HD
ATOM     59  C   UNL     1       2.299  -9.619  11.112  1.00  0.00     0.074 A 
ATOM     60  C   UNL     1       0.973  -9.821  11.659  1.00  0.00     0.031 C 
ATOM     61  C   UNL     1       3.349 -10.451  11.331  1.00  0.00     0.031 A 
BRANCH  48  62
ATOM     62  C   UNL     1       8.566  -8.704   8.502  1.00  0.00    -0.014 A 
ATOM     63  C   UNL     1       9.600  -7.881   8.985  1.00  0.00     0.010 A 
ATOM     64  C   UNL     1       8.899  -9.849   7.755  1.00  0.00     0.010 A 
ATOM     65  C   UNL     1      10.935  -8.176   8.694  1.00  0.00     0.020 A 
ATOM     66  C   UNL     1      10.235 -10.165   7.488  1.00  0.00     0.020 A 
ATOM     67  C   UNL     1      11.244  -9.316   7.945  1.00  0.00     0.054 A 
BRANCH  67  68
ATOM     68  S   UNL     1      12.986  -9.685   7.601  1.00  0.00     0.124 S 
ATOM     69  O   UNL     1      13.334  -8.634   6.648  1.00  0.00    -0.237 OA
ATOM     70  O   UNL     1      13.603  -9.567   8.920  1.00  0.00    -0.237 OA
ATOM     71  O   UNL     1      12.953 -11.038   7.051  1.00  0.00    -0.744 OA
ENDBRANCH  67  68
ENDBRANCH  48  62
BRANCH  49  72
ATOM     72  C   UNL     1      -1.052  -6.475  10.074  1.00  0.00    -0.014 A 
ATOM     73  C   UNL     1      -1.528  -6.138  11.353  1.00  0.00     0.010 A 
ATOM     74  C   UNL     1      -1.960  -6.520   8.999  1.00  0.00     0.010 A 
ATOM     75  C   UNL     1      -2.885  -5.872  11.557  1.00  0.00     0.020 A 
ATOM     76  C   UNL     1      -3.311  -6.223   9.192  1.00  0.00     0.020 A 
ATOM     77  C   UNL     1      -3.768  -5.911  10.473  1.00  0.00     0.054 A 
BRANCH  77  78
ATOM     78  S   UNL     1      -5.515  -5.512  10.753  1.00  0.00     0.124 S 
ATOM     79  O   UNL     1      -5.979  -6.680  11.497  1.00  0.00    -0.237 OA
ATOM     80  O   UNL     1      -5.434  -4.268  11.514  1.00  0.00    -0.237 OA
ATOM     81  O   UNL     1      -6.055  -5.375   9.403  1.00  0.00    -0.744 OA
ENDBRANCH  77  78
ENDBRANCH  49  72
BRANCH  61  82
ATOM     82  C   UNL     1       3.112 -11.644  12.223  1.00  0.00    -0.014 A 
ATOM     83  C   UNL     1       2.292 -12.712  11.816  1.00  0.00     0.010 A 
ATOM     84  C   UNL     1       3.742 -11.709  13.480  1.00  0.00     0.010 A 
ATOM     85  C   UNL     1       2.066 -13.796  12.669  1.00  0.00     0.020 A 
ATOM     86  C   UNL     1       3.548 -12.808  14.321  1.00  0.00     0.020 A 
ATOM     87  C   UNL     1       2.693 -13.835  13.918  1.00  0.00     0.054 A 
BRANCH  87  88
ATOM     88  S   UNL     1       2.395 -15.260  15.001  1.00  0.00     0.124 S 
ATOM     89  O   UNL     1       1.019 -15.030  15.433  1.00  0.00    -0.237 OA
ATOM     90  O   UNL     1       2.589 -16.393  14.099  1.00  0.00    -0.237 OA
ATOM     91  O   UNL     1       3.407 -15.121  16.045  1.00  0.00    -0.744 OA
ENDBRANCH  87  88
ENDBRANCH  61  82
ENDBRANCH  35  36
ENDBRANCH  28  30
ENDBRANCH  27  28
ENDBRANCH  26  27
ENDBRANCH  25  26
ENDBRANCH  24  25
ENDBRANCH  23  24
ENDBRANCH   1  23
TORSDOF 23
