REMARK SMILES CCC[N@@H+]1CC2(CC[NH+](CCc3ccccc3)CC2)C[C@H]1C(=O)OCCOCCOC(=O)c1ccc(-c2c3nc(c(-c4ccc(S(=O)(=O)[O-])cc4)c4ccc([nH]4)c(-c4ccc(S(=O)(=O)[O-])cc4)c4nc(c(-c5ccc(S(=O)(=O)[O-])cc5)c5ccc2[nH]5)C=C4)C=C3)cc1
REMARK SMILES IDX 27 1 26 2 25 3 24 4 22 5 23 6 21 7 4 8 5 9 6 11 20 12 7 13
REMARK SMILES IDX 19 14 8 15 18 16 9 17 3 19 2 20 1 21 10 22 11 23 12 24 13 25
REMARK SMILES IDX 17 26 14 27 16 28 15 29 28 30 29 31 30 32 31 33 32 34 33 35
REMARK SMILES IDX 34 36 92 37 35 38 91 39 36 40 37 41 38 42 85 43 39 44 90 45
REMARK SMILES IDX 84 46 86 47 40 48 89 49 83 50 82 51 41 53 71 54 52 55 70 56
REMARK SMILES IDX 53 57 56 58 69 59 87 60 54 61 55 62 68 64 88 65 57 66 42 67
REMARK SMILES IDX 43 68 51 69 44 70 50 71 45 72 46 73 47 74 48 75 49 76 72 77
REMARK SMILES IDX 73 78 81 79 74 80 80 81 75 82 76 83 77 84 78 85 79 86 58 87
REMARK SMILES IDX 59 88 67 89 60 90 66 91 61 92 62 93 63 94 64 95 65 96
REMARK H PARENT 4 10 9 18 86 52 56 63
REMARK Flexibility Score: inf
ROOT
ATOM      1  O   UNL     1       0.104  -5.736  -5.189  1.00  0.00    -0.374 OA
ENDROOT
BRANCH   1   2
ATOM      2  C   UNL     1      -0.590  -6.317  -4.088  1.00  0.00     0.202 C 
BRANCH   2   3
ATOM      3  C   UNL     1       0.045  -6.211  -2.701  1.00  0.00     0.261 C 
BRANCH   3   4
ATOM      4  O   UNL     1       0.219  -4.847  -2.300  1.00  0.00    -0.459 OA
BRANCH   4   5
ATOM      5  C   UNL     1       1.502  -4.410  -2.312  1.00  0.00     0.365 C 
ATOM      6  O   UNL     1       2.482  -5.122  -2.523  1.00  0.00    -0.245 OA
BRANCH   5   7
ATOM      7  C   UNL     1       1.664  -2.930  -1.993  1.00  0.00     0.295 C 
ATOM      8  N   UNL     1       0.513  -2.014  -2.286  1.00  0.00    -0.323 N 
ATOM      9  C   UNL     1      -0.342  -2.091  -1.084  1.00  0.00     0.270 C 
ATOM     10  H   UNL     1      -0.056  -2.258  -3.097  1.00  0.00     0.348 HD
ATOM     11  C   UNL     1       0.585  -2.341   0.122  1.00  0.00     0.036 C 
ATOM     12  C   UNL     1       1.920  -2.807  -0.510  1.00  0.00     0.091 C 
ATOM     13  C   UNL     1       0.071  -3.428   1.101  1.00  0.00     0.075 C 
ATOM     14  C   UNL     1       0.846  -1.019   0.841  1.00  0.00     0.075 C 
ATOM     15  C   UNL     1      -0.798  -2.919   2.251  1.00  0.00     0.263 C 
ATOM     16  C   UNL     1      -0.133  -0.639   1.929  1.00  0.00     0.263 C 
ATOM     17  N   UNL     1      -0.301  -1.708   2.895  1.00  0.00    -0.335 N 
ATOM     18  H   UNL     1      -1.050  -1.410   3.521  1.00  0.00     0.348 HD
BRANCH   8  19
ATOM     19  C   UNL     1       1.068  -0.671  -2.598  1.00  0.00     0.262 C 
BRANCH  19  20
ATOM     20  C   UNL     1       0.138   0.559  -2.667  1.00  0.00     0.058 C 
ATOM     21  C   UNL     1       0.283   1.527  -1.494  1.00  0.00     0.010 C 
ENDBRANCH  19  20
ENDBRANCH   8  19
BRANCH  17  22
ATOM     22  C   UNL     1       0.718  -1.845   3.951  1.00  0.00     0.267 C 
BRANCH  22  23
ATOM     23  C   UNL     1       2.224  -2.186   3.709  1.00  0.00     0.097 C 
BRANCH  23  24
ATOM     24  C   UNL     1       3.143  -1.161   3.060  1.00  0.00    -0.042 A 
ATOM     25  C   UNL     1       4.134  -1.609   2.162  1.00  0.00     0.004 A 
ATOM     26  C   UNL     1       2.944   0.222   3.191  1.00  0.00     0.004 A 
ATOM     27  C   UNL     1       4.781  -0.712   1.305  1.00  0.00     0.000 A 
ATOM     28  C   UNL     1       3.587   1.115   2.326  1.00  0.00     0.000 A 
ATOM     29  C   UNL     1       4.481   0.647   1.364  1.00  0.00     0.000 A 
ENDBRANCH  23  24
ENDBRANCH  22  23
ENDBRANCH  17  22
ENDBRANCH   5   7
ENDBRANCH   4   5
ENDBRANCH   3   4
ENDBRANCH   2   3
ENDBRANCH   1   2
BRANCH   1  30
ATOM     30  C   UNL     1       0.183  -4.314  -5.284  1.00  0.00     0.202 C 
BRANCH  30  31
ATOM     31  C   UNL     1      -1.097  -3.510  -5.539  1.00  0.00     0.261 C 
BRANCH  31  32
ATOM     32  O   UNL     1      -2.102  -3.667  -4.526  1.00  0.00    -0.460 OA
BRANCH  32  33
ATOM     33  C   UNL     1      -3.198  -4.349  -4.926  1.00  0.00     0.338 C 
ATOM     34  O   UNL     1      -3.410  -4.823  -6.039  1.00  0.00    -0.246 OA
BRANCH  33  35
ATOM     35  C   UNL     1      -4.084  -4.622  -3.784  1.00  0.00     0.060 A 
ATOM     36  C   UNL     1      -4.405  -5.959  -3.517  1.00  0.00     0.016 A 
ATOM     37  C   UNL     1      -4.691  -3.586  -3.071  1.00  0.00     0.016 A 
ATOM     38  C   UNL     1      -5.380  -6.265  -2.573  1.00  0.00     0.010 A 
ATOM     39  C   UNL     1      -5.679  -3.896  -2.131  1.00  0.00     0.010 A 
ATOM     40  C   UNL     1      -6.056  -5.233  -1.910  1.00  0.00    -0.014 A 
BRANCH  40  41
ATOM     41  C   UNL     1      -7.263  -5.556  -1.113  1.00  0.00     0.031 A 
ATOM     42  C   UNL     1      -8.620  -5.366  -1.737  1.00  0.00     0.074 A 
ATOM     43  C   UNL     1      -7.151  -6.061   0.129  1.00  0.00     0.049 A 
ATOM     44  N   UNL     1      -9.804  -5.578  -1.223  1.00  0.00    -0.248 NA
ATOM     45  C   UNL     1      -8.646  -4.877  -3.126  1.00  0.00     0.031 C 
ATOM     46  C   UNL     1      -5.891  -6.340   0.817  1.00  0.00     0.029 A 
ATOM     47  N   UNL     1      -8.117  -6.432   1.029  1.00  0.00    -0.354 N 
ATOM     48  C   UNL     1     -10.714  -5.244  -2.219  1.00  0.00     0.074 A 
ATOM     49  C   UNL     1      -9.948  -4.789  -3.359  1.00  0.00     0.031 C 
ATOM     50  C   UNL     1      -6.162  -6.835   2.038  1.00  0.00     0.029 A 
ATOM     51  C   UNL     1      -7.611  -6.877   2.227  1.00  0.00     0.049 A 
ATOM     52  H   UNL     1      -9.081  -6.384   0.836  1.00  0.00     0.167 HD
ATOM     53  C   UNL     1     -12.066  -5.317  -2.191  1.00  0.00     0.031 A 
ATOM     54  C   UNL     1      -8.245  -7.256   3.354  1.00  0.00     0.031 A 
ATOM     55  C   UNL     1     -12.826  -5.760  -1.052  1.00  0.00     0.049 A 
ATOM     56  C   UNL     1      -9.751  -7.253   3.387  1.00  0.00     0.074 A 
ATOM     57  C   UNL     1     -14.199  -5.872  -0.924  1.00  0.00     0.029 A 
ATOM     58  N   UNL     1     -12.278  -6.161   0.157  1.00  0.00    -0.354 N 
ATOM     59  N   UNL     1     -10.597  -6.946   2.432  1.00  0.00    -0.248 NA
ATOM     60  C   UNL     1     -10.388  -7.657   4.649  1.00  0.00     0.031 C 
ATOM     61  C   UNL     1     -14.484  -6.292   0.379  1.00  0.00     0.029 A 
ATOM     62  C   UNL     1     -13.286  -6.499   1.044  1.00  0.00     0.049 A 
ATOM     63  H   UNL     1     -11.314  -6.200   0.355  1.00  0.00     0.167 HD
ATOM     64  C   UNL     1     -11.865  -7.149   2.969  1.00  0.00     0.074 A 
ATOM     65  C   UNL     1     -11.674  -7.616   4.327  1.00  0.00     0.031 C 
ATOM     66  C   UNL     1     -13.078  -6.966   2.391  1.00  0.00     0.031 A 
BRANCH  53  67
ATOM     67  C   UNL     1     -12.815  -4.878  -3.421  1.00  0.00    -0.014 A 
ATOM     68  C   UNL     1     -12.820  -5.661  -4.589  1.00  0.00     0.010 A 
ATOM     69  C   UNL     1     -13.566  -3.688  -3.391  1.00  0.00     0.010 A 
ATOM     70  C   UNL     1     -13.538  -5.248  -5.715  1.00  0.00     0.020 A 
ATOM     71  C   UNL     1     -14.306  -3.284  -4.506  1.00  0.00     0.020 A 
ATOM     72  C   UNL     1     -14.276  -4.061  -5.666  1.00  0.00     0.054 A 
BRANCH  72  73
ATOM     73  S   UNL     1     -15.226  -3.565  -7.130  1.00  0.00     0.124 S 
ATOM     74  O   UNL     1     -14.169  -3.135  -8.043  1.00  0.00    -0.237 OA
ATOM     75  O   UNL     1     -15.911  -4.801  -7.501  1.00  0.00    -0.237 OA
ATOM     76  O   UNL     1     -16.093  -2.499  -6.637  1.00  0.00    -0.744 OA
ENDBRANCH  72  73
ENDBRANCH  53  67
BRANCH  54  77
ATOM     77  C   UNL     1      -7.460  -7.649   4.556  1.00  0.00    -0.014 A 
ATOM     78  C   UNL     1      -7.456  -8.979   5.011  1.00  0.00     0.010 A 
ATOM     79  C   UNL     1      -6.720  -6.683   5.262  1.00  0.00     0.010 A 
ATOM     80  C   UNL     1      -6.747  -9.331   6.163  1.00  0.00     0.020 A 
ATOM     81  C   UNL     1      -5.987  -7.037   6.398  1.00  0.00     0.020 A 
ATOM     82  C   UNL     1      -6.017  -8.357   6.850  1.00  0.00     0.054 A 
BRANCH  82  83
ATOM     83  S   UNL     1      -5.074  -8.841   8.322  1.00  0.00     0.124 S 
ATOM     84  O   UNL     1      -6.129  -9.007   9.317  1.00  0.00    -0.237 OA
ATOM     85  O   UNL     1      -4.416 -10.070   7.885  1.00  0.00    -0.237 OA
ATOM     86  O   UNL     1      -4.178  -7.708   8.541  1.00  0.00    -0.744 OA
ENDBRANCH  82  83
ENDBRANCH  54  77
BRANCH  66  87
ATOM     87  C   UNL     1     -14.295  -7.312   3.207  1.00  0.00    -0.014 A 
ATOM     88  C   UNL     1     -14.711  -6.503   4.278  1.00  0.00     0.010 A 
ATOM     89  C   UNL     1     -15.065  -8.438   2.858  1.00  0.00     0.010 A 
ATOM     90  C   UNL     1     -15.857  -6.832   5.008  1.00  0.00     0.020 A 
ATOM     91  C   UNL     1     -16.226  -8.755   3.568  1.00  0.00     0.020 A 
ATOM     92  C   UNL     1     -16.606  -7.957   4.649  1.00  0.00     0.054 A 
BRANCH  92  93
ATOM     93  S   UNL     1     -18.111  -8.341   5.586  1.00  0.00     0.124 S 
ATOM     94  O   UNL     1     -17.566  -8.874   6.831  1.00  0.00    -0.237 OA
ATOM     95  O   UNL     1     -18.765  -7.039   5.692  1.00  0.00    -0.237 OA
ATOM     96  O   UNL     1     -18.806  -9.313   4.744  1.00  0.00    -0.744 OA
ENDBRANCH  92  93
ENDBRANCH  66  87
ENDBRANCH  40  41
ENDBRANCH  33  35
ENDBRANCH  32  33
ENDBRANCH  31  32
ENDBRANCH  30  31
ENDBRANCH   1  30
TORSDOF 22
