REMARK SMILES O=C(OCCOCCOC(=O)[C@@H]1CCCCC[C@H]1NC(=O)c1ccc(Cl)o1)c1ccc(-c2c3nc(c(-c4ccc(S(=O)(=O)[O-])cc4)c4ccc([nH]4)c(-c4ccc(S(=O)(=O)[O-])cc4)c4nc(c(-c5ccc(S(=O)(=O)[O-])cc5)c5ccc2[nH]5)C=C4)C=C3)cc1
REMARK SMILES IDX 6 1 5 2 4 3 3 4 2 5 1 6 28 7 29 8 87 9 30 10 86 11 31 12
REMARK SMILES IDX 32 13 33 14 80 15 34 16 85 17 79 18 81 19 35 20 84 21 78 22
REMARK SMILES IDX 77 23 36 25 66 26 47 27 65 28 48 29 51 30 64 31 82 32 49 33
REMARK SMILES IDX 50 34 63 36 83 37 52 38 37 39 38 40 46 41 39 42 45 43 40 44
REMARK SMILES IDX 41 45 42 46 43 47 44 48 67 49 68 50 76 51 69 52 75 53 70 54
REMARK SMILES IDX 71 55 72 56 73 57 74 58 53 59 54 60 62 61 55 62 61 63 56 64
REMARK SMILES IDX 57 65 58 66 59 67 60 68 7 69 8 70 9 71 10 72 11 73 12 74
REMARK SMILES IDX 13 75 14 76 15 77 18 79 17 80 16 81 19 83 20 84 21 86 22 87
REMARK SMILES IDX 23 88 27 89 24 90 25 91 26 92
REMARK H PARENT 81 24 51 35 19 85
REMARK Flexibility Score: 100.00
ROOT
ATOM      1  O   UNL     1       3.620   1.043  -1.078  1.00  0.00    -0.374 OA
ENDROOT
BRANCH   1   2
ATOM      2  C   UNL     1       4.018  -0.312  -1.272  1.00  0.00     0.202 C 
BRANCH   2   3
ATOM      3  C   UNL     1       3.849  -1.245  -0.073  1.00  0.00     0.261 C 
BRANCH   3   4
ATOM      4  O   UNL     1       2.474  -1.260   0.340  1.00  0.00    -0.460 OA
BRANCH   4   5
ATOM      5  C   UNL     1       1.887  -0.410   1.217  1.00  0.00     0.338 C 
ATOM      6  O   UNL     1       0.662  -0.394   1.308  1.00  0.00    -0.246 OA
BRANCH   5   7
ATOM      7  C   UNL     1       2.685   0.431   2.152  1.00  0.00     0.060 A 
ATOM      8  C   UNL     1       3.893   1.041   1.822  1.00  0.00     0.016 A 
ATOM      9  C   UNL     1       2.164   0.644   3.436  1.00  0.00     0.016 A 
ATOM     10  C   UNL     1       4.633   1.733   2.750  1.00  0.00     0.010 A 
ATOM     11  C   UNL     1       2.874   1.403   4.371  1.00  0.00     0.010 A 
ATOM     12  C   UNL     1       4.128   1.919   4.028  1.00  0.00    -0.014 A 
BRANCH  12  13
ATOM     13  C   UNL     1       5.047   2.540   4.988  1.00  0.00     0.031 A 
ATOM     14  C   UNL     1       5.730   1.647   5.974  1.00  0.00     0.074 A 
ATOM     15  C   UNL     1       5.418   3.818   4.788  1.00  0.00     0.049 A 
ATOM     16  N   UNL     1       6.603   1.953   6.891  1.00  0.00    -0.248 NA
ATOM     17  C   UNL     1       5.405   0.210   5.905  1.00  0.00     0.031 C 
ATOM     18  C   UNL     1       4.920   4.682   3.708  1.00  0.00     0.029 A 
ATOM     19  N   UNL     1       6.346   4.590   5.426  1.00  0.00    -0.354 N 
ATOM     20  C   UNL     1       6.888   0.761   7.544  1.00  0.00     0.074 A 
ATOM     21  C   UNL     1       6.115  -0.279   6.909  1.00  0.00     0.031 C 
ATOM     22  C   UNL     1       5.593   5.843   3.728  1.00  0.00     0.029 A 
ATOM     23  C   UNL     1       6.492   5.840   4.873  1.00  0.00     0.049 A 
ATOM     24  H   UNL     1       6.860   4.281   6.206  1.00  0.00     0.167 HD
ATOM     25  C   UNL     1       7.709   0.574   8.601  1.00  0.00     0.031 A 
ATOM     26  C   UNL     1       7.248   6.874   5.282  1.00  0.00     0.031 A 
ATOM     27  C   UNL     1       8.455   1.646   9.198  1.00  0.00     0.049 A 
ATOM     28  C   UNL     1       8.073   6.667   6.522  1.00  0.00     0.074 A 
ATOM     29  C   UNL     1       9.254   1.627  10.324  1.00  0.00     0.029 A 
ATOM     30  N   UNL     1       8.490   2.943   8.696  1.00  0.00    -0.354 N 
ATOM     31  N   UNL     1       8.247   5.565   7.217  1.00  0.00    -0.248 NA
ATOM     32  C   UNL     1       8.781   7.837   7.048  1.00  0.00     0.031 C 
ATOM     33  C   UNL     1       9.732   2.927  10.530  1.00  0.00     0.029 A 
ATOM     34  C   UNL     1       9.283   3.740   9.498  1.00  0.00     0.049 A 
ATOM     35  H   UNL     1       8.018   3.248   7.888  1.00  0.00     0.167 HD
ATOM     36  C   UNL     1       9.097   5.904   8.259  1.00  0.00     0.074 A 
ATOM     37  C   UNL     1       9.418   7.310   8.085  1.00  0.00     0.031 C 
ATOM     38  C   UNL     1       9.569   5.135   9.272  1.00  0.00     0.031 A 
BRANCH  25  39
ATOM     39  C   UNL     1       7.723  -0.796   9.222  1.00  0.00    -0.014 A 
ATOM     40  C   UNL     1       8.330  -1.897   8.592  1.00  0.00     0.010 A 
ATOM     41  C   UNL     1       7.056  -0.991  10.445  1.00  0.00     0.010 A 
ATOM     42  C   UNL     1       8.228  -3.176   9.152  1.00  0.00     0.020 A 
ATOM     43  C   UNL     1       6.972  -2.261  11.020  1.00  0.00     0.020 A 
ATOM     44  C   UNL     1       7.541  -3.350  10.358  1.00  0.00     0.054 A 
BRANCH  44  45
ATOM     45  S   UNL     1       7.404  -5.020  11.055  1.00  0.00     0.124 S 
ATOM     46  O   UNL     1       6.429  -5.640  10.162  1.00  0.00    -0.237 OA
ATOM     47  O   UNL     1       8.770  -5.527  10.942  1.00  0.00    -0.237 OA
ATOM     48  O   UNL     1       6.940  -4.788  12.421  1.00  0.00    -0.744 OA
ENDBRANCH  44  45
ENDBRANCH  25  39
BRANCH  26  49
ATOM     49  C   UNL     1       7.193   8.183   4.573  1.00  0.00    -0.014 A 
ATOM     50  C   UNL     1       8.326   8.716   3.937  1.00  0.00     0.010 A 
ATOM     51  C   UNL     1       5.986   8.910   4.528  1.00  0.00     0.010 A 
ATOM     52  C   UNL     1       8.259   9.955   3.287  1.00  0.00     0.020 A 
ATOM     53  C   UNL     1       5.906  10.131   3.853  1.00  0.00     0.020 A 
ATOM     54  C   UNL     1       7.049  10.654   3.250  1.00  0.00     0.054 A 
BRANCH  54  55
ATOM     55  S   UNL     1       6.976  12.244   2.378  1.00  0.00     0.124 S 
ATOM     56  O   UNL     1       7.702  13.122   3.289  1.00  0.00    -0.237 OA
ATOM     57  O   UNL     1       7.647  11.943   1.116  1.00  0.00    -0.237 OA
ATOM     58  O   UNL     1       5.543  12.506   2.265  1.00  0.00    -0.744 OA
ENDBRANCH  54  55
ENDBRANCH  26  49
BRANCH  38  59
ATOM     59  C   UNL     1      10.514   5.798  10.230  1.00  0.00    -0.014 A 
ATOM     60  C   UNL     1      10.056   6.723  11.183  1.00  0.00     0.010 A 
ATOM     61  C   UNL     1      11.875   5.444  10.199  1.00  0.00     0.010 A 
ATOM     62  C   UNL     1      10.956   7.314  12.070  1.00  0.00     0.020 A 
ATOM     63  C   UNL     1      12.770   6.010  11.105  1.00  0.00     0.020 A 
ATOM     64  C   UNL     1      12.307   6.954  12.024  1.00  0.00     0.054 A 
BRANCH  64  65
ATOM     65  S   UNL     1      13.450   7.703  13.213  1.00  0.00     0.124 S 
ATOM     66  O   UNL     1      13.624   9.043  12.661  1.00  0.00    -0.237 OA
ATOM     67  O   UNL     1      12.703   7.630  14.466  1.00  0.00    -0.237 OA
ATOM     68  O   UNL     1      14.629   6.842  13.147  1.00  0.00    -0.744 OA
ENDBRANCH  64  65
ENDBRANCH  38  59
ENDBRANCH  12  13
ENDBRANCH   5   7
ENDBRANCH   4   5
ENDBRANCH   3   4
ENDBRANCH   2   3
ENDBRANCH   1   2
BRANCH   1  69
ATOM     69  C   UNL     1       2.326   1.375  -1.577  1.00  0.00     0.202 C 
BRANCH  69  70
ATOM     70  C   UNL     1       2.390   1.933  -3.000  1.00  0.00     0.261 C 
BRANCH  70  71
ATOM     71  O   UNL     1       3.098   1.034  -3.879  1.00  0.00    -0.463 OA
BRANCH  71  72
ATOM     72  C   UNL     1       4.437   1.291  -3.986  1.00  0.00     0.311 C 
ATOM     73  O   UNL     1       4.986   2.265  -3.503  1.00  0.00    -0.252 OA
BRANCH  72  74
ATOM     74  C   UNL     1       5.152   0.216  -4.822  1.00  0.00     0.121 C 
BRANCH  74  75
ATOM     75  C   UNL     1       4.828  -1.205  -4.343  1.00  0.00     0.017 C 
BRANCH  75  76
ATOM     76  C   UNL     1       5.552  -2.341  -5.052  1.00  0.00     0.001 C 
BRANCH  76  77
ATOM     77  C   UNL     1       6.859  -2.714  -4.356  1.00  0.00     0.000 CG0
ATOM     78  G   UNL     1       7.966  -1.678  -4.478  1.00  0.00     0.000 G0
ENDBRANCH  76  77
ENDBRANCH  75  76
ENDBRANCH  74  75
BRANCH  74  79
ATOM     79  C   UNL     1       6.667   0.553  -4.879  1.00  0.00     0.096 C 
BRANCH  79  80
ATOM     80  C   UNL     1       7.609  -0.277  -3.991  1.00  0.00     0.026 C 
BRANCH  80  81
ATOM     81  C   UNL     1       7.966  -1.678  -4.478  1.00  0.00     0.002 CG0
ATOM     82  G   UNL     1       6.859  -2.714  -4.356  1.00  0.00     0.000 G0
ENDBRANCH  80  81
ENDBRANCH  79  80
BRANCH  79  83
ATOM     83  N   UNL     1       7.109   0.592  -6.276  1.00  0.00    -0.346 N 
ATOM     84  C   UNL     1       7.059   1.678  -7.129  1.00  0.00     0.287 C 
ATOM     85  H   UNL     1       7.479  -0.242  -6.644  1.00  0.00     0.164 HD
ATOM     86  O   UNL     1       7.017   1.433  -8.337  1.00  0.00    -0.266 OA
BRANCH  84  87
ATOM     87  C   UNL     1       7.048   3.017  -6.579  1.00  0.00     0.193 A 
ATOM     88  C   UNL     1       7.730   3.608  -5.528  1.00  0.00     0.058 A 
ATOM     89  O   UNL     1       6.250   3.956  -7.176  1.00  0.00    -0.440 OA
ATOM     90  C   UNL     1       7.286   4.949  -5.451  1.00  0.00     0.064 A 
ATOM     91  C   UNL     1       6.385   5.117  -6.478  1.00  0.00     0.194 A 
ATOM     92  Cl  UNL     1       5.536   6.559  -6.871  1.00  0.00    -0.043 Cl
ENDBRANCH  84  87
ENDBRANCH  79  83
ENDBRANCH  74  79
ENDBRANCH  72  74
ENDBRANCH  71  72
ENDBRANCH  70  71
ENDBRANCH  69  70
ENDBRANCH   1  69
TORSDOF 19
