REMARK SMILES [NH3+][C@H](C(=O)OCCOCCOC(=O)c1ccc(-c2c3nc(c(-c4ccc(S(=O)(=O)[O-])cc4)c4ccc([nH]4)c(-c4ccc(S(=O)(=O)[O-])cc4)c4nc(c(-c5ccc(S(=O)(=O)[O-])cc5)c5ccc2[nH]5)C=C4)C=C3)cc1)c1cc(F)c(Cl)c(Cl)c1
REMARK SMILES IDX 9 1 8 2 7 3 6 4 5 5 3 6 4 7 2 8 1 9 74 13 75 14 82 15 76 16
REMARK SMILES IDX 80 17 77 18 78 19 81 20 79 21 10 22 11 23 12 24 13 25 14 26
REMARK SMILES IDX 15 27 73 28 16 29 72 30 17 31 18 32 19 33 66 34 20 35 71 36
REMARK SMILES IDX 65 37 67 38 21 39 70 40 64 41 63 42 22 44 52 45 33 46 51 47
REMARK SMILES IDX 34 48 37 49 50 50 68 51 35 52 36 53 49 55 69 56 38 57 23 58
REMARK SMILES IDX 24 59 32 60 25 61 31 62 26 63 27 64 28 65 29 66 30 67 53 68
REMARK SMILES IDX 54 69 62 70 55 71 61 72 56 73 57 74 58 75 59 76 60 77 39 78
REMARK SMILES IDX 40 79 48 80 41 81 47 82 42 83 43 84 44 85 45 86 46 87
REMARK H PARENT 1 10 1 11 1 12 67 43 37 54
REMARK Flexibility Score: inf
ROOT
ATOM      1  C   UNL     1      -0.244  -0.706   2.073  1.00  0.00     0.202 C 
ENDROOT
BRANCH   1   2
ATOM      2  O   UNL     1       0.868  -0.130   2.759  1.00  0.00    -0.374 OA
BRANCH   2   3
ATOM      3  C   UNL     1       1.228   1.210   2.424  1.00  0.00     0.202 C 
BRANCH   3   4
ATOM      4  C   UNL     1       2.005   1.399   1.118  1.00  0.00     0.261 C 
BRANCH   4   5
ATOM      5  O   UNL     1       1.260   0.961  -0.033  1.00  0.00    -0.459 OA
BRANCH   5   6
ATOM      6  C   UNL     1       1.762  -0.123  -0.684  1.00  0.00     0.369 C 
ATOM      7  O   UNL     1       2.822  -0.677  -0.399  1.00  0.00    -0.245 OA
BRANCH   6   8
ATOM      8  C   UNL     1       0.879  -0.597  -1.869  1.00  0.00     0.323 C 
BRANCH   8   9
ATOM      9  N   UNL     1       1.349  -1.955  -2.268  1.00  0.00    -0.342 N 
ATOM     10  H   UNL     1       0.785  -2.294  -3.048  1.00  0.00     0.345 HD
ATOM     11  H   UNL     1       1.255  -2.593  -1.478  1.00  0.00     0.345 HD
ATOM     12  H   UNL     1       2.327  -1.906  -2.552  1.00  0.00     0.345 HD
ENDBRANCH   8   9
BRANCH   8  13
ATOM     13  C   UNL     1      -0.633  -0.572  -1.639  1.00  0.00     0.025 A 
ATOM     14  C   UNL     1      -1.315   0.654  -1.593  1.00  0.00     0.051 A 
ATOM     15  C   UNL     1      -1.403  -1.745  -1.503  1.00  0.00     0.032 A 
ATOM     16  C   UNL     1      -2.700   0.699  -1.411  1.00  0.00     0.143 A 
ATOM     17  C   UNL     1      -2.796  -1.695  -1.327  1.00  0.00     0.063 A 
ATOM     18  F   UNL     1      -3.295   1.901  -1.366  1.00  0.00    -0.205 F 
ATOM     19  C   UNL     1      -3.453  -0.466  -1.278  1.00  0.00     0.095 A 
ATOM     20  Cl  UNL     1      -3.635  -3.201  -1.178  1.00  0.00    -0.083 Cl
ATOM     21  Cl  UNL     1      -5.161  -0.340  -1.058  1.00  0.00    -0.079 Cl
ENDBRANCH   8  13
ENDBRANCH   6   8
ENDBRANCH   5   6
ENDBRANCH   4   5
ENDBRANCH   3   4
ENDBRANCH   2   3
ENDBRANCH   1   2
BRANCH   1  22
ATOM     22  C   UNL     1      -1.635  -0.167   2.430  1.00  0.00     0.261 C 
BRANCH  22  23
ATOM     23  O   UNL     1      -1.817   1.191   1.986  1.00  0.00    -0.460 OA
BRANCH  23  24
ATOM     24  C   UNL     1      -2.120   2.067   2.975  1.00  0.00     0.338 C 
ATOM     25  O   UNL     1      -2.338   1.800   4.149  1.00  0.00    -0.246 OA
BRANCH  24  26
ATOM     26  C   UNL     1      -1.962   3.458   2.510  1.00  0.00     0.060 A 
ATOM     27  C   UNL     1      -1.125   4.291   3.263  1.00  0.00     0.016 A 
ATOM     28  C   UNL     1      -2.687   3.971   1.432  1.00  0.00     0.016 A 
ATOM     29  C   UNL     1      -1.056   5.654   2.981  1.00  0.00     0.010 A 
ATOM     30  C   UNL     1      -2.622   5.344   1.155  1.00  0.00     0.010 A 
ATOM     31  C   UNL     1      -1.839   6.198   1.954  1.00  0.00    -0.014 A 
BRANCH  31  32
ATOM     32  C   UNL     1      -1.945   7.674   1.834  1.00  0.00     0.031 A 
ATOM     33  C   UNL     1      -3.132   8.376   2.441  1.00  0.00     0.074 A 
ATOM     34  C   UNL     1      -0.969   8.392   1.248  1.00  0.00     0.049 A 
ATOM     35  N   UNL     1      -3.404   9.655   2.485  1.00  0.00    -0.248 NA
ATOM     36  C   UNL     1      -4.141   7.523   3.091  1.00  0.00     0.031 C 
ATOM     37  C   UNL     1       0.253   7.841   0.666  1.00  0.00     0.029 A 
ATOM     38  N   UNL     1      -0.853   9.746   1.055  1.00  0.00    -0.354 N 
ATOM     39  C   UNL     1      -4.615   9.761   3.159  1.00  0.00     0.074 A 
ATOM     40  C   UNL     1      -5.038   8.416   3.483  1.00  0.00     0.031 C 
ATOM     41  C   UNL     1       0.998   8.850   0.181  1.00  0.00     0.029 A 
ATOM     42  C   UNL     1       0.294  10.113   0.394  1.00  0.00     0.049 A 
ATOM     43  H   UNL     1      -1.529  10.394   1.361  1.00  0.00     0.167 HD
ATOM     44  C   UNL     1      -5.312  10.877   3.485  1.00  0.00     0.031 A 
ATOM     45  C   UNL     1       0.724  11.327  -0.005  1.00  0.00     0.031 A 
ATOM     46  C   UNL     1      -4.901  12.215   3.154  1.00  0.00     0.049 A 
ATOM     47  C   UNL     1      -0.104  12.547   0.303  1.00  0.00     0.074 A 
ATOM     48  C   UNL     1      -5.532  13.409   3.458  1.00  0.00     0.029 A 
ATOM     49  N   UNL     1      -3.760  12.538   2.437  1.00  0.00    -0.354 N 
ATOM     50  N   UNL     1      -1.233  12.631   0.966  1.00  0.00    -0.248 NA
ATOM     51  C   UNL     1       0.406  13.837  -0.185  1.00  0.00     0.031 C 
ATOM     52  C   UNL     1      -4.800  14.451   2.879  1.00  0.00     0.029 A 
ATOM     53  C   UNL     1      -3.683  13.910   2.262  1.00  0.00     0.049 A 
ATOM     54  H   UNL     1      -3.100  11.889   2.101  1.00  0.00     0.167 HD
ATOM     55  C   UNL     1      -1.555  13.984   0.995  1.00  0.00     0.074 A 
ATOM     56  C   UNL     1      -0.497  14.682   0.294  1.00  0.00     0.031 C 
ATOM     57  C   UNL     1      -2.628  14.593   1.558  1.00  0.00     0.031 A 
BRANCH  44  58
ATOM     58  C   UNL     1      -6.619  10.690   4.209  1.00  0.00    -0.014 A 
ATOM     59  C   UNL     1      -6.655  10.307   5.561  1.00  0.00     0.010 A 
ATOM     60  C   UNL     1      -7.828  10.934   3.533  1.00  0.00     0.010 A 
ATOM     61  C   UNL     1      -7.879  10.132   6.213  1.00  0.00     0.020 A 
ATOM     62  C   UNL     1      -9.053  10.784   4.188  1.00  0.00     0.020 A 
ATOM     63  C   UNL     1      -9.071  10.367   5.520  1.00  0.00     0.054 A 
BRANCH  63  64
ATOM     64  S   UNL     1     -10.646  10.147   6.393  1.00  0.00     0.124 S 
ATOM     65  O   UNL     1     -10.750   8.691   6.463  1.00  0.00    -0.237 OA
ATOM     66  O   UNL     1     -10.405  10.820   7.667  1.00  0.00    -0.237 OA
ATOM     67  O   UNL     1     -11.619  10.800   5.521  1.00  0.00    -0.744 OA
ENDBRANCH  63  64
ENDBRANCH  44  58
BRANCH  45  68
ATOM     68  C   UNL     1       2.003  11.449  -0.757  1.00  0.00    -0.014 A 
ATOM     69  C   UNL     1       3.133  12.035  -0.162  1.00  0.00     0.010 A 
ATOM     70  C   UNL     1       2.093  10.973  -2.078  1.00  0.00     0.010 A 
ATOM     71  C   UNL     1       4.329  12.151  -0.877  1.00  0.00     0.020 A 
ATOM     72  C   UNL     1       3.293  11.065  -2.787  1.00  0.00     0.020 A 
ATOM     73  C   UNL     1       4.402  11.662  -2.184  1.00  0.00     0.054 A 
BRANCH  73  74
ATOM     74  S   UNL     1       5.981  11.764  -3.073  1.00  0.00     0.124 S 
ATOM     75  O   UNL     1       6.038  13.177  -3.431  1.00  0.00    -0.237 OA
ATOM     76  O   UNL     1       6.941  11.326  -2.063  1.00  0.00    -0.237 OA
ATOM     77  O   UNL     1       5.802  10.840  -4.191  1.00  0.00    -0.744 OA
ENDBRANCH  73  74
ENDBRANCH  45  68
BRANCH  57  78
ATOM     78  C   UNL     1      -2.704  16.095   1.466  1.00  0.00    -0.014 A 
ATOM     79  C   UNL     1      -3.025  16.736   0.257  1.00  0.00     0.010 A 
ATOM     80  C   UNL     1      -2.506  16.871   2.623  1.00  0.00     0.010 A 
ATOM     81  C   UNL     1      -3.118  18.130   0.200  1.00  0.00     0.020 A 
ATOM     82  C   UNL     1      -2.623  18.263   2.575  1.00  0.00     0.020 A 
ATOM     83  C   UNL     1      -2.915  18.884   1.359  1.00  0.00     0.054 A 
BRANCH  83  84
ATOM     84  S   UNL     1      -3.084  20.689   1.271  1.00  0.00     0.124 S 
ATOM     85  O   UNL     1      -1.842  21.078   0.609  1.00  0.00    -0.237 OA
ATOM     86  O   UNL     1      -4.299  20.860   0.478  1.00  0.00    -0.237 OA
ATOM     87  O   UNL     1      -3.198  21.095   2.670  1.00  0.00    -0.744 OA
ENDBRANCH  83  84
ENDBRANCH  57  78
ENDBRANCH  31  32
ENDBRANCH  24  26
ENDBRANCH  23  24
ENDBRANCH  22  23
ENDBRANCH   1  22
TORSDOF 19
