REMARK SMILES Cc1c[nH]c(C[N@@H+](C)[C@@H](C(=O)OCCOCCOC(=O)c2ccc(-c3c4nc(c(-c5ccc(S(=O)(=O)[O-])cc5)c5ccc([nH]5)c(-c5ccc(S(=O)(=O)[O-])cc5)c5nc(c(-c6ccc(S(=O)(=O)[O-])cc6)c6ccc3[nH]6)C=C5)C=C4)cc2)c2ccc(NC(=O)N3CCCC3)cc2)n1
REMARK SMILES IDX 15 1 14 2 13 3 12 4 10 5 11 6 9 7 7 8 8 9 6 11 5 12 1 13
REMARK SMILES IDX 2 14 3 15 95 16 4 17 81 19 82 20 94 21 83 22 93 23 84 24
REMARK SMILES IDX 85 25 86 26 87 28 88 29 89 30 92 31 90 32 91 33 16 34 17 35
REMARK SMILES IDX 18 36 19 37 20 38 21 39 22 40 80 41 23 42 79 43 24 44 25 45
REMARK SMILES IDX 26 46 73 47 27 48 78 49 72 50 74 51 28 52 77 53 71 54 70 55
REMARK SMILES IDX 29 57 59 58 40 59 58 60 41 61 44 62 57 63 75 64 42 65 43 66
REMARK SMILES IDX 56 68 76 69 45 70 30 71 31 72 39 73 32 74 38 75 33 76 34 77
REMARK SMILES IDX 35 78 36 79 37 80 60 81 61 82 69 83 62 84 68 85 63 86 64 87
REMARK SMILES IDX 65 88 66 89 67 90 46 91 47 92 55 93 48 94 54 95 49 96 50 97
REMARK SMILES IDX 51 98 52 99 53 100
REMARK H PARENT 7 10 4 18 85 27 74 56 44 67
REMARK Flexibility Score: inf
ROOT
ATOM      1  O   UNL     1      -5.554  -1.279   1.438  1.00  0.00    -0.374 OA
ENDROOT
BRANCH   1   2
ATOM      2  C   UNL     1      -6.345  -0.221   1.983  1.00  0.00     0.202 C 
BRANCH   2   3
ATOM      3  C   UNL     1      -5.649   0.662   3.020  1.00  0.00     0.261 C 
BRANCH   3   4
ATOM      4  O   UNL     1      -4.484   1.315   2.477  1.00  0.00    -0.459 OA
BRANCH   4   5
ATOM      5  C   UNL     1      -3.601   1.735   3.426  1.00  0.00     0.369 C 
ATOM      6  O   UNL     1      -3.850   1.694   4.630  1.00  0.00    -0.245 OA
BRANCH   5   7
ATOM      7  C   UNL     1      -2.201   2.122   2.886  1.00  0.00     0.326 C 
BRANCH   7   8
ATOM      8  N   UNL     1      -2.135   2.833   1.568  1.00  0.00    -0.316 N 
ATOM      9  C   UNL     1      -3.130   3.910   1.496  1.00  0.00     0.334 C 
ATOM     10  H   UNL     1      -1.170   3.160   1.610  1.00  0.00     0.349 HD
BRANCH   8  11
ATOM     11  C   UNL     1      -2.138   2.088   0.297  1.00  0.00     0.339 C 
BRANCH  11  12
ATOM     12  C   UNL     1      -0.959   1.205  -0.030  1.00  0.00     0.161 A 
ATOM     13  C   UNL     1       2.470   0.324  -0.525  1.00  0.00     0.068 C 
ATOM     14  C   UNL     1       0.992   0.375  -0.467  1.00  0.00     0.056 A 
ATOM     15  C   UNL     1       0.098  -0.645  -0.682  1.00  0.00     0.107 A 
ATOM     16  N   UNL     1       0.320   1.532  -0.131  1.00  0.00    -0.233 NA
ATOM     17  N   UNL     1      -1.124  -0.111  -0.394  1.00  0.00    -0.344 N 
ATOM     18  H   UNL     1      -1.983  -0.589  -0.439  1.00  0.00     0.167 HD
ENDBRANCH  11  12
ENDBRANCH   8  11
ENDBRANCH   7   8
BRANCH   7  19
ATOM     19  C   UNL     1      -1.160   1.026   3.104  1.00  0.00     0.021 A 
ATOM     20  C   UNL     1      -1.495  -0.269   3.518  1.00  0.00     0.012 A 
ATOM     21  C   UNL     1       0.201   1.312   2.914  1.00  0.00     0.012 A 
ATOM     22  C   UNL     1      -0.520  -1.264   3.598  1.00  0.00     0.027 A 
ATOM     23  C   UNL     1       1.161   0.294   2.929  1.00  0.00     0.027 A 
ATOM     24  C   UNL     1       0.780  -1.024   3.166  1.00  0.00     0.042 A 
BRANCH  24  25
ATOM     25  N   UNL     1       1.727  -2.043   2.953  1.00  0.00    -0.308 N 
ATOM     26  C   UNL     1       1.599  -3.400   2.942  1.00  0.00     0.321 C 
ATOM     27  H   UNL     1       2.641  -1.719   2.783  1.00  0.00     0.171 HD
ATOM     28  O   UNL     1       2.596  -4.086   3.180  1.00  0.00    -0.248 OA
ATOM     29  N   UNL     1       0.388  -3.972   2.684  1.00  0.00    -0.325 N 
ATOM     30  C   UNL     1      -0.534  -3.637   1.615  1.00  0.00     0.121 C 
ATOM     31  C   UNL     1       0.032  -5.252   3.249  1.00  0.00     0.121 C 
ATOM     32  C   UNL     1      -1.855  -4.195   2.115  1.00  0.00     0.023 C 
ATOM     33  C   UNL     1      -1.452  -5.427   2.929  1.00  0.00     0.023 C 
ENDBRANCH  24  25
ENDBRANCH   7  19
ENDBRANCH   5   7
ENDBRANCH   4   5
ENDBRANCH   3   4
ENDBRANCH   2   3
ENDBRANCH   1   2
BRANCH   1  34
ATOM     34  C   UNL     1      -4.520  -0.906   0.531  1.00  0.00     0.202 C 
BRANCH  34  35
ATOM     35  C   UNL     1      -4.970  -0.425  -0.857  1.00  0.00     0.261 C 
BRANCH  35  36
ATOM     36  O   UNL     1      -5.716   0.804  -0.802  1.00  0.00    -0.460 OA
BRANCH  36  37
ATOM     37  C   UNL     1      -6.953   0.726  -1.349  1.00  0.00     0.338 C 
ATOM     38  O   UNL     1      -7.415  -0.219  -1.984  1.00  0.00    -0.246 OA
BRANCH  37  39
ATOM     39  C   UNL     1      -7.795   1.853  -0.915  1.00  0.00     0.060 A 
ATOM     40  C   UNL     1      -8.963   1.538  -0.208  1.00  0.00     0.016 A 
ATOM     41  C   UNL     1      -7.519   3.172  -1.280  1.00  0.00     0.016 A 
ATOM     42  C   UNL     1      -9.892   2.532   0.083  1.00  0.00     0.010 A 
ATOM     43  C   UNL     1      -8.461   4.170  -0.991  1.00  0.00     0.010 A 
ATOM     44  C   UNL     1      -9.671   3.846  -0.350  1.00  0.00    -0.014 A 
BRANCH  44  45
ATOM     45  C   UNL     1     -10.791   4.820  -0.276  1.00  0.00     0.031 A 
ATOM     46  C   UNL     1     -11.603   5.091  -1.517  1.00  0.00     0.074 A 
ATOM     47  C   UNL     1     -11.133   5.393   0.892  1.00  0.00     0.049 A 
ATOM     48  N   UNL     1     -12.638   5.875  -1.674  1.00  0.00    -0.248 NA
ATOM     49  C   UNL     1     -11.198   4.379  -2.741  1.00  0.00     0.031 C 
ATOM     50  C   UNL     1     -10.463   5.168   2.173  1.00  0.00     0.029 A 
ATOM     51  N   UNL     1     -12.140   6.277   1.191  1.00  0.00    -0.354 N 
ATOM     52  C   UNL     1     -13.004   5.757  -3.010  1.00  0.00     0.074 A 
ATOM     53  C   UNL     1     -12.065   4.848  -3.628  1.00  0.00     0.031 C 
ATOM     54  C   UNL     1     -11.079   5.896   3.121  1.00  0.00     0.029 A 
ATOM     55  C   UNL     1     -12.165   6.661   2.511  1.00  0.00     0.049 A 
ATOM     56  H   UNL     1     -12.784   6.606   0.522  1.00  0.00     0.167 HD
ATOM     57  C   UNL     1     -14.034   6.347  -3.663  1.00  0.00     0.031 A 
ATOM     58  C   UNL     1     -12.961   7.542   3.150  1.00  0.00     0.031 A 
ATOM     59  C   UNL     1     -14.966   7.253  -3.049  1.00  0.00     0.049 A 
ATOM     60  C   UNL     1     -14.053   8.242   2.383  1.00  0.00     0.074 A 
ATOM     61  C   UNL     1     -16.050   7.893  -3.626  1.00  0.00     0.029 A 
ATOM     62  N   UNL     1     -14.925   7.654  -1.723  1.00  0.00    -0.354 N 
ATOM     63  N   UNL     1     -14.396   8.103   1.124  1.00  0.00    -0.248 NA
ATOM     64  C   UNL     1     -14.871   9.211   3.126  1.00  0.00     0.031 C 
ATOM     65  C   UNL     1     -16.629   8.725  -2.664  1.00  0.00     0.029 A 
ATOM     66  C   UNL     1     -15.946   8.554  -1.470  1.00  0.00     0.049 A 
ATOM     67  H   UNL     1     -14.267   7.345  -1.059  1.00  0.00     0.167 HD
ATOM     68  C   UNL     1     -15.487   8.945   0.934  1.00  0.00     0.074 A 
ATOM     69  C   UNL     1     -15.756   9.578   2.208  1.00  0.00     0.031 C 
ATOM     70  C   UNL     1     -16.204   9.173  -0.195  1.00  0.00     0.031 A 
BRANCH  57  71
ATOM     71  C   UNL     1     -14.189   6.057  -5.133  1.00  0.00    -0.014 A 
ATOM     72  C   UNL     1     -14.652   4.809  -5.588  1.00  0.00     0.010 A 
ATOM     73  C   UNL     1     -13.923   7.071  -6.071  1.00  0.00     0.010 A 
ATOM     74  C   UNL     1     -14.819   4.573  -6.955  1.00  0.00     0.020 A 
ATOM     75  C   UNL     1     -14.114   6.847  -7.437  1.00  0.00     0.020 A 
ATOM     76  C   UNL     1     -14.549   5.594  -7.872  1.00  0.00     0.054 A 
BRANCH  76  77
ATOM     77  S   UNL     1     -14.811   5.272  -9.637  1.00  0.00     0.124 S 
ATOM     78  O   UNL     1     -13.701   4.374  -9.947  1.00  0.00    -0.237 OA
ATOM     79  O   UNL     1     -16.137   4.660  -9.657  1.00  0.00    -0.237 OA
ATOM     80  O   UNL     1     -14.730   6.596 -10.248  1.00  0.00    -0.744 OA
ENDBRANCH  76  77
ENDBRANCH  57  71
BRANCH  58  81
ATOM     81  C   UNL     1     -12.739   7.838   4.593  1.00  0.00    -0.014 A 
ATOM     82  C   UNL     1     -13.683   7.460   5.564  1.00  0.00     0.010 A 
ATOM     83  C   UNL     1     -11.578   8.522   5.000  1.00  0.00     0.010 A 
ATOM     84  C   UNL     1     -13.482   7.782   6.910  1.00  0.00     0.020 A 
ATOM     85  C   UNL     1     -11.359   8.818   6.348  1.00  0.00     0.020 A 
ATOM     86  C   UNL     1     -12.320   8.459   7.293  1.00  0.00     0.054 A 
BRANCH  86  87
ATOM     87  S   UNL     1     -12.060   8.834   9.050  1.00  0.00     0.124 S 
ATOM     88  O   UNL     1     -13.003   9.926   9.269  1.00  0.00    -0.237 OA
ATOM     89  O   UNL     1     -12.396   7.567   9.695  1.00  0.00    -0.237 OA
ATOM     90  O   UNL     1     -10.648   9.202   9.114  1.00  0.00    -0.744 OA
ENDBRANCH  86  87
ENDBRANCH  58  81
BRANCH  70  91
ATOM     91  C   UNL     1     -17.375  10.116  -0.099  1.00  0.00    -0.014 A 
ATOM     92  C   UNL     1     -17.189  11.502   0.039  1.00  0.00     0.010 A 
ATOM     93  C   UNL     1     -18.683   9.608  -0.211  1.00  0.00     0.010 A 
ATOM     94  C   UNL     1     -18.291  12.360   0.097  1.00  0.00     0.020 A 
ATOM     95  C   UNL     1     -19.785  10.465  -0.183  1.00  0.00     0.020 A 
ATOM     96  C   UNL     1     -19.582  11.836  -0.014  1.00  0.00     0.054 A 
BRANCH  96  97
ATOM     97  S   UNL     1     -20.994  12.975   0.020  1.00  0.00     0.124 S 
ATOM     98  O   UNL     1     -21.050  13.346   1.432  1.00  0.00    -0.237 OA
ATOM     99  O   UNL     1     -20.573  14.035  -0.892  1.00  0.00    -0.237 OA
ATOM    100  O   UNL     1     -22.109  12.159  -0.454  1.00  0.00    -0.744 OA
ENDBRANCH  96  97
ENDBRANCH  70  91
ENDBRANCH  44  45
ENDBRANCH  37  39
ENDBRANCH  36  37
ENDBRANCH  35  36
ENDBRANCH  34  35
ENDBRANCH   1  34
TORSDOF 22
