REMARK SMILES CCN(CC)c1ccc([C@@H]2c3[nH]c4ccccc4c3C[C@@H](C(=O)OCCOCCOC(=O)c3ccc(-c4c5nc(c(-c6ccc(S(=O)(=O)[O-])cc6)c6ccc([nH]6)c(-c6ccc(S(=O)(=O)[O-])cc6)c6nc(c(-c7ccc(S(=O)(=O)[O-])cc7)c7ccc4[nH]7)C=C6)C=C5)cc3)N2C(C)=O)cc1
REMARK SMILES IDX 27 1 26 2 25 3 24 4 22 5 23 6 21 7 10 8 11 9 93 10 12 11
REMARK SMILES IDX 19 12 13 13 18 15 20 16 14 17 17 18 15 19 16 20 9 21 6 22
REMARK SMILES IDX 7 23 98 24 8 25 97 26 3 27 2 28 1 29 4 30 5 31 94 32 95 33
REMARK SMILES IDX 96 34 28 35 29 36 30 37 31 38 32 39 33 40 34 41 92 42 35 43
REMARK SMILES IDX 91 44 36 45 37 46 38 47 85 48 39 49 90 50 84 51 86 52 40 53
REMARK SMILES IDX 89 54 83 55 82 56 41 58 71 59 52 60 70 61 53 62 56 63 69 64
REMARK SMILES IDX 87 65 54 66 55 67 68 69 88 70 57 71 42 72 43 73 51 74 44 75
REMARK SMILES IDX 50 76 45 77 46 78 47 79 48 80 49 81 72 82 73 83 81 84 74 85
REMARK SMILES IDX 80 86 75 87 76 88 77 89 78 90 79 91 58 92 59 93 67 94 60 95
REMARK SMILES IDX 66 96 61 97 62 98 63 99 64 100 65 101
REMARK H PARENT 12 14 86 57 56 68
REMARK Flexibility Score: inf
ROOT
ATOM      1  O   UNL     1       6.314   1.169   4.380  1.00  0.00    -0.374 OA
ENDROOT
BRANCH   1   2
ATOM      2  C   UNL     1       7.056   2.386   4.534  1.00  0.00     0.202 C 
BRANCH   2   3
ATOM      3  C   UNL     1       8.489   2.309   3.954  1.00  0.00     0.261 C 
BRANCH   3   4
ATOM      4  O   UNL     1       8.644   2.989   2.675  1.00  0.00    -0.462 OA
BRANCH   4   5
ATOM      5  C   UNL     1       8.828   2.417   1.440  1.00  0.00     0.329 C 
ATOM      6  O   UNL     1       8.830   1.208   1.245  1.00  0.00    -0.250 OA
BRANCH   5   7
ATOM      7  C   UNL     1       8.800   3.543   0.265  1.00  0.00     0.200 C 
ATOM      8  C   UNL     1       6.397   3.676   0.602  1.00  0.00     0.163 C 
ATOM      9  C   UNL     1       6.738   4.820   1.542  1.00  0.00     0.047 A 
ATOM     10  N   UNL     1       7.439   3.776  -0.404  1.00  0.00    -0.316 N 
ATOM     11  N   UNL     1       5.874   5.615   2.233  1.00  0.00    -0.356 N 
ATOM     12  C   UNL     1       7.994   5.442   1.611  1.00  0.00    -0.014 A 
ATOM     13  C   UNL     1       6.368   6.900   2.140  1.00  0.00     0.046 A 
ATOM     14  H   UNL     1       5.059   5.329   2.706  1.00  0.00     0.166 HD
ATOM     15  C   UNL     1       7.735   6.800   1.887  1.00  0.00     0.003 A 
ATOM     16  C   UNL     1       9.220   4.871   0.940  1.00  0.00     0.075 C 
ATOM     17  C   UNL     1       5.697   8.120   2.132  1.00  0.00     0.026 A 
ATOM     18  C   UNL     1       8.501   7.957   1.686  1.00  0.00     0.010 A 
ATOM     19  C   UNL     1       6.450   9.246   1.786  1.00  0.00     0.002 A 
ATOM     20  C   UNL     1       7.829   9.172   1.584  1.00  0.00     0.001 A 
BRANCH   8  21
ATOM     21  C   UNL     1       5.006   3.411   0.064  1.00  0.00    -0.019 A 
ATOM     22  C   UNL     1       2.302   2.691  -0.455  1.00  0.00     0.037 A 
ATOM     23  C   UNL     1       2.680   4.006  -0.179  1.00  0.00     0.026 A 
ATOM     24  C   UNL     1       3.343   1.779  -0.661  1.00  0.00     0.026 A 
ATOM     25  C   UNL     1       4.002   4.366   0.061  1.00  0.00     0.008 A 
ATOM     26  C   UNL     1       4.678   2.129  -0.415  1.00  0.00     0.008 A 
BRANCH  22  27
ATOM     27  N   UNL     1       0.974   2.283  -0.446  1.00  0.00    -0.372 N 
BRANCH  27  28
ATOM     28  C   UNL     1       0.581   1.298   0.580  1.00  0.00     0.113 C 
ATOM     29  C   UNL     1       0.740  -0.140   0.103  1.00  0.00     0.027 C 
ENDBRANCH  27  28
BRANCH  27  30
ATOM     30  C   UNL     1      -0.097   3.112  -1.020  1.00  0.00     0.113 C 
ATOM     31  C   UNL     1      -0.451   4.351  -0.203  1.00  0.00     0.027 C 
ENDBRANCH  27  30
ENDBRANCH  22  27
ENDBRANCH   8  21
BRANCH  10  32
ATOM     32  C   UNL     1       7.187   4.852  -1.295  1.00  0.00     0.221 C 
ATOM     33  C   UNL     1       7.969   5.005  -2.555  1.00  0.00     0.114 C 
ATOM     34  O   UNL     1       6.309   5.704  -1.111  1.00  0.00    -0.275 OA
ENDBRANCH  10  32
ENDBRANCH   5   7
ENDBRANCH   4   5
ENDBRANCH   3   4
ENDBRANCH   2   3
ENDBRANCH   1   2
BRANCH   1  35
ATOM     35  C   UNL     1       5.698   1.021   3.106  1.00  0.00     0.202 C 
BRANCH  35  36
ATOM     36  C   UNL     1       4.266   1.558   3.058  1.00  0.00     0.261 C 
BRANCH  36  37
ATOM     37  O   UNL     1       4.194   2.958   3.393  1.00  0.00    -0.460 OA
BRANCH  37  38
ATOM     38  C   UNL     1       3.166   3.262   4.210  1.00  0.00     0.338 C 
ATOM     39  O   UNL     1       2.272   2.501   4.594  1.00  0.00    -0.246 OA
BRANCH  38  40
ATOM     40  C   UNL     1       3.286   4.620   4.745  1.00  0.00     0.060 A 
ATOM     41  C   UNL     1       3.550   4.738   6.110  1.00  0.00     0.016 A 
ATOM     42  C   UNL     1       2.966   5.749   3.983  1.00  0.00     0.016 A 
ATOM     43  C   UNL     1       3.414   5.974   6.734  1.00  0.00     0.010 A 
ATOM     44  C   UNL     1       2.888   7.003   4.606  1.00  0.00     0.010 A 
ATOM     45  C   UNL     1       3.046   7.113   5.998  1.00  0.00    -0.014 A 
BRANCH  45  46
ATOM     46  C   UNL     1       2.709   8.357   6.744  1.00  0.00     0.031 A 
ATOM     47  C   UNL     1       1.272   8.809   6.851  1.00  0.00     0.074 A 
ATOM     48  C   UNL     1       3.667   9.007   7.432  1.00  0.00     0.049 A 
ATOM     49  N   UNL     1       0.758   9.760   7.591  1.00  0.00    -0.248 NA
ATOM     50  C   UNL     1       0.284   8.101   6.021  1.00  0.00     0.031 C 
ATOM     51  C   UNL     1       5.090   8.663   7.423  1.00  0.00     0.029 A 
ATOM     52  N   UNL     1       3.585  10.066   8.302  1.00  0.00    -0.354 N 
ATOM     53  C   UNL     1      -0.607   9.762   7.319  1.00  0.00     0.074 A 
ATOM     54  C   UNL     1      -0.835   8.750   6.311  1.00  0.00     0.031 C 
ATOM     55  C   UNL     1       5.739   9.464   8.283  1.00  0.00     0.029 A 
ATOM     56  C   UNL     1       4.789  10.402   8.875  1.00  0.00     0.049 A 
ATOM     57  H   UNL     1       2.744  10.540   8.496  1.00  0.00     0.167 HD
ATOM     58  C   UNL     1      -1.586  10.524   7.866  1.00  0.00     0.031 A 
ATOM     59  C   UNL     1       5.095  11.354   9.778  1.00  0.00     0.031 A 
ATOM     60  C   UNL     1      -1.358  11.538   8.864  1.00  0.00     0.049 A 
ATOM     61  C   UNL     1       3.996  12.214  10.342  1.00  0.00     0.074 A 
ATOM     62  C   UNL     1      -2.286  12.349   9.495  1.00  0.00     0.029 A 
ATOM     63  N   UNL     1      -0.115  11.889   9.371  1.00  0.00    -0.354 N 
ATOM     64  N   UNL     1       2.707  12.173  10.100  1.00  0.00    -0.248 NA
ATOM     65  C   UNL     1       4.395  13.238  11.317  1.00  0.00     0.031 C 
ATOM     66  C   UNL     1      -1.599  13.233  10.334  1.00  0.00     0.029 A 
ATOM     67  C   UNL     1      -0.250  12.923  10.284  1.00  0.00     0.049 A 
ATOM     68  H   UNL     1       0.737  11.465   9.120  1.00  0.00     0.167 HD
ATOM     69  C   UNL     1       2.138  13.149  10.911  1.00  0.00     0.074 A 
ATOM     70  C   UNL     1       3.221  13.742  11.670  1.00  0.00     0.031 C 
ATOM     71  C   UNL     1       0.837  13.521  11.020  1.00  0.00     0.031 A 
BRANCH  58  72
ATOM     72  C   UNL     1      -2.997  10.312   7.375  1.00  0.00    -0.014 A 
ATOM     73  C   UNL     1      -3.711   9.136   7.673  1.00  0.00     0.010 A 
ATOM     74  C   UNL     1      -3.638  11.328   6.642  1.00  0.00     0.010 A 
ATOM     75  C   UNL     1      -5.022   8.966   7.216  1.00  0.00     0.020 A 
ATOM     76  C   UNL     1      -4.959  11.175   6.209  1.00  0.00     0.020 A 
ATOM     77  C   UNL     1      -5.638   9.987   6.486  1.00  0.00     0.054 A 
BRANCH  77  78
ATOM     78  S   UNL     1      -7.348   9.749   5.927  1.00  0.00     0.124 S 
ATOM     79  O   UNL     1      -7.187   8.737   4.887  1.00  0.00    -0.237 OA
ATOM     80  O   UNL     1      -8.021   9.299   7.143  1.00  0.00    -0.237 OA
ATOM     81  O   UNL     1      -7.745  11.072   5.451  1.00  0.00    -0.744 OA
ENDBRANCH  77  78
ENDBRANCH  58  72
BRANCH  59  82
ATOM     82  C   UNL     1       6.511  11.545  10.203  1.00  0.00    -0.014 A 
ATOM     83  C   UNL     1       6.921  11.261  11.517  1.00  0.00     0.010 A 
ATOM     84  C   UNL     1       7.462  12.016   9.279  1.00  0.00     0.010 A 
ATOM     85  C   UNL     1       8.251  11.461  11.903  1.00  0.00     0.020 A 
ATOM     86  C   UNL     1       8.798  12.185   9.651  1.00  0.00     0.020 A 
ATOM     87  C   UNL     1       9.182  11.918  10.966  1.00  0.00     0.054 A 
BRANCH  87  88
ATOM     88  S   UNL     1      10.911  12.121  11.473  1.00  0.00     0.124 S 
ATOM     89  O   UNL     1      10.841  13.302  12.329  1.00  0.00    -0.237 OA
ATOM     90  O   UNL     1      11.189  10.860  12.155  1.00  0.00    -0.237 OA
ATOM     91  O   UNL     1      11.620  12.306  10.209  1.00  0.00    -0.744 OA
ENDBRANCH  87  88
ENDBRANCH  59  82
BRANCH  71  92
ATOM     92  C   UNL     1       0.514  14.602  12.021  1.00  0.00    -0.014 A 
ATOM     93  C   UNL     1       0.948  15.928  11.839  1.00  0.00     0.010 A 
ATOM     94  C   UNL     1      -0.236  14.283  13.168  1.00  0.00     0.010 A 
ATOM     95  C   UNL     1       0.701  16.895  12.818  1.00  0.00     0.020 A 
ATOM     96  C   UNL     1      -0.518  15.255  14.131  1.00  0.00     0.020 A 
ATOM     97  C   UNL     1      -0.023  16.549  13.963  1.00  0.00     0.054 A 
BRANCH  97  98
ATOM     98  S   UNL     1      -0.316  17.816  15.228  1.00  0.00     0.124 S 
ATOM     99  O   UNL     1       1.004  17.946  15.838  1.00  0.00    -0.237 OA
ATOM    100  O   UNL     1      -0.759  18.962  14.438  1.00  0.00    -0.237 OA
ATOM    101  O   UNL     1      -1.342  17.222  16.082  1.00  0.00    -0.744 OA
ENDBRANCH  97  98
ENDBRANCH  71  92
ENDBRANCH  45  46
ENDBRANCH  38  40
ENDBRANCH  37  38
ENDBRANCH  36  37
ENDBRANCH  35  36
ENDBRANCH   1  35
TORSDOF 22
