REMARK SMILES C[C@H](CNC(=O)c1ccc(Br)nc1)C(=O)OCCOCCOC(=O)c1ccc(-c2c3nc(c(-c4ccc(S(=O)(=O)[O-])cc4)c4ccc([nH]4)c(-c4ccc(S(=O)(=O)[O-])cc4)c4nc(c(-c5ccc(S(=O)(=O)[O-])cc5)c5ccc2[nH]5)C=C4)C=C3)cc1
REMARK SMILES IDX 19 1 18 2 17 3 16 4 14 5 15 6 2 7 1 8 3 9 4 10 5 11 6 13
REMARK SMILES IDX 7 14 8 15 13 16 9 17 12 18 10 19 11 20 20 21 21 22 22 23
REMARK SMILES IDX 23 24 24 25 25 26 26 27 84 28 27 29 83 30 28 31 29 32 30 33
REMARK SMILES IDX 77 34 31 35 82 36 76 37 78 38 32 39 81 40 75 41 74 42 33 44
REMARK SMILES IDX 63 45 44 46 62 47 45 48 48 49 61 50 79 51 46 52 47 53 60 55
REMARK SMILES IDX 80 56 49 57 34 58 35 59 43 60 36 61 42 62 37 63 38 64 39 65
REMARK SMILES IDX 40 66 41 67 64 68 65 69 73 70 66 71 72 72 67 73 68 74 69 75
REMARK SMILES IDX 70 76 71 77 50 78 51 79 59 80 52 81 58 82 53 83 54 84 55 85
REMARK SMILES IDX 56 86 57 87
REMARK H PARENT 4 12 78 43 48 54
REMARK Flexibility Score: inf
ROOT
ATOM      1  O   UNL     1      -3.485   0.883  -1.446  1.00  0.00    -0.374 OA
ENDROOT
BRANCH   1   2
ATOM      2  C   UNL     1      -3.772  -0.318  -0.726  1.00  0.00     0.202 C 
BRANCH   2   3
ATOM      3  C   UNL     1      -2.986  -1.561  -1.151  1.00  0.00     0.261 C 
BRANCH   3   4
ATOM      4  O   UNL     1      -1.599  -1.454  -0.770  1.00  0.00    -0.463 OA
BRANCH   4   5
ATOM      5  C   UNL     1      -0.690  -1.553  -1.774  1.00  0.00     0.310 C 
ATOM      6  O   UNL     1      -0.960  -1.785  -2.947  1.00  0.00    -0.252 OA
BRANCH   5   7
ATOM      7  C   UNL     1       0.740  -1.364  -1.303  1.00  0.00     0.115 C 
ATOM      8  C   UNL     1       1.385  -2.717  -1.044  1.00  0.00     0.022 C 
BRANCH   7   9
ATOM      9  C   UNL     1       0.949  -0.367  -0.159  1.00  0.00     0.131 C 
BRANCH   9  10
ATOM     10  N   UNL     1       0.388  -0.761   1.124  1.00  0.00    -0.351 N 
ATOM     11  C   UNL     1       1.016  -1.123   2.287  1.00  0.00     0.252 C 
ATOM     12  H   UNL     1      -0.596  -0.768   1.163  1.00  0.00     0.163 HD
ATOM     13  O   UNL     1       0.374  -1.501   3.259  1.00  0.00    -0.269 OA
BRANCH  11  14
ATOM     14  C   UNL     1       2.481  -1.087   2.364  1.00  0.00     0.058 A 
ATOM     15  C   UNL     1       3.204   0.094   2.207  1.00  0.00     0.018 A 
ATOM     16  C   UNL     1       3.170  -2.263   2.615  1.00  0.00     0.126 A 
ATOM     17  C   UNL     1       4.596   0.041   2.242  1.00  0.00     0.037 A 
ATOM     18  N   UNL     1       4.523  -2.342   2.643  1.00  0.00    -0.249 NA
ATOM     19  C   UNL     1       5.206  -1.191   2.453  1.00  0.00     0.106 A 
ATOM     20  Br  UNL     1       7.100  -1.282   2.452  1.00  0.00    -0.029 Br
ENDBRANCH  11  14
ENDBRANCH   9  10
ENDBRANCH   7   9
ENDBRANCH   5   7
ENDBRANCH   4   5
ENDBRANCH   3   4
ENDBRANCH   2   3
ENDBRANCH   1   2
BRANCH   1  21
ATOM     21  C   UNL     1      -2.249   1.535  -1.169  1.00  0.00     0.202 C 
BRANCH  21  22
ATOM     22  C   UNL     1      -2.176   2.364   0.119  1.00  0.00     0.261 C 
BRANCH  22  23
ATOM     23  O   UNL     1      -2.406   1.578   1.301  1.00  0.00    -0.460 OA
BRANCH  23  24
ATOM     24  C   UNL     1      -3.587   1.842   1.913  1.00  0.00     0.338 C 
ATOM     25  O   UNL     1      -4.397   2.705   1.595  1.00  0.00    -0.246 OA
BRANCH  24  26
ATOM     26  C   UNL     1      -3.892   0.840   2.950  1.00  0.00     0.060 A 
ATOM     27  C   UNL     1      -5.173   0.274   2.922  1.00  0.00     0.016 A 
ATOM     28  C   UNL     1      -3.009   0.540   3.990  1.00  0.00     0.016 A 
ATOM     29  C   UNL     1      -5.607  -0.523   3.977  1.00  0.00     0.010 A 
ATOM     30  C   UNL     1      -3.450  -0.259   5.054  1.00  0.00     0.010 A 
ATOM     31  C   UNL     1      -4.769  -0.748   5.077  1.00  0.00    -0.014 A 
BRANCH  31  32
ATOM     32  C   UNL     1      -5.359  -1.335   6.306  1.00  0.00     0.031 A 
ATOM     33  C   UNL     1      -5.804  -0.413   7.412  1.00  0.00     0.074 A 
ATOM     34  C   UNL     1      -5.585  -2.657   6.400  1.00  0.00     0.049 A 
ATOM     35  N   UNL     1      -6.438  -0.695   8.521  1.00  0.00    -0.248 NA
ATOM     36  C   UNL     1      -5.501   1.018   7.240  1.00  0.00     0.031 C 
ATOM     37  C   UNL     1      -5.241  -3.649   5.382  1.00  0.00     0.029 A 
ATOM     38  N   UNL     1      -6.178  -3.390   7.398  1.00  0.00    -0.354 N 
ATOM     39  C   UNL     1      -6.605   0.518   9.181  1.00  0.00     0.074 A 
ATOM     40  C   UNL     1      -5.981   1.534   8.362  1.00  0.00     0.031 C 
ATOM     41  C   UNL     1      -5.643  -4.861   5.802  1.00  0.00     0.029 A 
ATOM     42  C   UNL     1      -6.253  -4.734   7.125  1.00  0.00     0.049 A 
ATOM     43  H   UNL     1      -6.518  -2.990   8.231  1.00  0.00     0.167 HD
ATOM     44  C   UNL     1      -7.228   0.768  10.358  1.00  0.00     0.031 A 
ATOM     45  C   UNL     1      -6.757  -5.747   7.857  1.00  0.00     0.031 A 
ATOM     46  C   UNL     1      -7.840  -0.241  11.179  1.00  0.00     0.049 A 
ATOM     47  C   UNL     1      -7.393  -5.452   9.190  1.00  0.00     0.074 A 
ATOM     48  C   UNL     1      -8.515  -0.085  12.377  1.00  0.00     0.029 A 
ATOM     49  N   UNL     1      -7.845  -1.598  10.892  1.00  0.00    -0.354 N 
ATOM     50  N   UNL     1      -7.577  -4.295   9.780  1.00  0.00    -0.248 NA
ATOM     51  C   UNL     1      -7.904  -6.603   9.949  1.00  0.00     0.031 C 
ATOM     52  C   UNL     1      -8.882  -1.353  12.841  1.00  0.00     0.029 A 
ATOM     53  C   UNL     1      -8.486  -2.293  11.903  1.00  0.00     0.049 A 
ATOM     54  H   UNL     1      -7.450  -2.006  10.088  1.00  0.00     0.167 HD
ATOM     55  C   UNL     1      -8.252  -4.575  10.964  1.00  0.00     0.074 A 
ATOM     56  C   UNL     1      -8.453  -6.010  11.001  1.00  0.00     0.031 C 
ATOM     57  C   UNL     1      -8.676  -3.722  11.929  1.00  0.00     0.031 A 
BRANCH  44  58
ATOM     58  C   UNL     1      -7.238   2.193  10.846  1.00  0.00    -0.014 A 
ATOM     59  C   UNL     1      -8.040   3.172  10.230  1.00  0.00     0.010 A 
ATOM     60  C   UNL     1      -6.447   2.554  11.951  1.00  0.00     0.010 A 
ATOM     61  C   UNL     1      -8.014   4.494  10.683  1.00  0.00     0.020 A 
ATOM     62  C   UNL     1      -6.438   3.869  12.423  1.00  0.00     0.020 A 
ATOM     63  C   UNL     1      -7.207   4.836  11.772  1.00  0.00     0.054 A 
BRANCH  63  64
ATOM     64  S   UNL     1      -7.194   6.557  12.344  1.00  0.00     0.124 S 
ATOM     65  O   UNL     1      -6.395   7.211  11.311  1.00  0.00    -0.237 OA
ATOM     66  O   UNL     1      -8.613   6.905  12.354  1.00  0.00    -0.237 OA
ATOM     67  O   UNL     1      -6.566   6.481  13.661  1.00  0.00    -0.744 OA
ENDBRANCH  63  64
ENDBRANCH  44  58
BRANCH  45  68
ATOM     68  C   UNL     1      -6.690  -7.142   7.341  1.00  0.00    -0.014 A 
ATOM     69  C   UNL     1      -7.855  -7.810   6.926  1.00  0.00     0.010 A 
ATOM     70  C   UNL     1      -5.454  -7.809   7.263  1.00  0.00     0.010 A 
ATOM     71  C   UNL     1      -7.788  -9.124   6.455  1.00  0.00     0.020 A 
ATOM     72  C   UNL     1      -5.379  -9.115   6.769  1.00  0.00     0.020 A 
ATOM     73  C   UNL     1      -6.549  -9.768   6.378  1.00  0.00     0.054 A 
BRANCH  73  74
ATOM     74  S   UNL     1      -6.477 -11.455   5.712  1.00  0.00     0.124 S 
ATOM     75  O   UNL     1      -7.009 -12.242   6.820  1.00  0.00    -0.237 OA
ATOM     76  O   UNL     1      -7.332 -11.365   4.531  1.00  0.00    -0.237 OA
ATOM     77  O   UNL     1      -5.057 -11.649   5.429  1.00  0.00    -0.744 OA
ENDBRANCH  73  74
ENDBRANCH  45  68
BRANCH  57  78
ATOM     78  C   UNL     1      -9.433  -4.310  13.090  1.00  0.00    -0.014 A 
ATOM     79  C   UNL     1      -8.784  -5.073  14.077  1.00  0.00     0.010 A 
ATOM     80  C   UNL     1     -10.813  -4.062  13.213  1.00  0.00     0.010 A 
ATOM     81  C   UNL     1      -9.510  -5.612  15.144  1.00  0.00     0.020 A 
ATOM     82  C   UNL     1     -11.536  -4.576  14.292  1.00  0.00     0.020 A 
ATOM     83  C   UNL     1     -10.883  -5.364  15.242  1.00  0.00     0.054 A 
BRANCH  83  84
ATOM     84  S   UNL     1     -11.801  -6.052  16.647  1.00  0.00     0.124 S 
ATOM     85  O   UNL     1     -11.935  -7.454  16.265  1.00  0.00    -0.237 OA
ATOM     86  O   UNL     1     -10.909  -5.790  17.775  1.00  0.00    -0.237 OA
ATOM     87  O   UNL     1     -13.045  -5.286  16.656  1.00  0.00    -0.744 OA
ENDBRANCH  83  84
ENDBRANCH  57  78
ENDBRANCH  31  32
ENDBRANCH  24  26
ENDBRANCH  23  24
ENDBRANCH  22  23
ENDBRANCH  21  22
ENDBRANCH   1  21
TORSDOF 20
