REMARK SMILES O=C(C[C@@H]([NH2+]C[C@H]1CCCO1)C(=O)OCCOCCOC(=O)c1ccc(-c2c3nc(c(-c4ccc(S(=O)(=O)[O-])cc4)c4ccc([nH]4)c(-c4ccc(S(=O)(=O)[O-])cc4)c4nc(c(-c5ccc(S(=O)(=O)[O-])cc5)c5ccc2[nH]5)C=C4)C=C3)cc1)Nc1cccc(Cl)c1
REMARK SMILES IDX 17 1 16 2 15 3 14 4 12 5 13 6 4 7 3 8 2 9 1 10 83 11 84 13
REMARK SMILES IDX 85 14 90 15 86 16 88 17 87 18 89 19 5 20 6 23 7 24 8 25
REMARK SMILES IDX 11 26 9 27 10 28 18 29 19 30 20 31 21 32 22 33 23 34 24 35
REMARK SMILES IDX 82 36 25 37 81 38 26 39 27 40 28 41 75 42 29 43 80 44 74 45
REMARK SMILES IDX 76 46 30 47 79 48 73 49 72 50 31 52 61 53 42 54 60 55 43 56
REMARK SMILES IDX 46 57 59 58 77 59 44 60 45 61 58 63 78 64 47 65 32 66 33 67
REMARK SMILES IDX 41 68 34 69 40 70 35 71 36 72 37 73 38 74 39 75 62 76 63 77
REMARK SMILES IDX 71 78 64 79 70 80 65 81 66 82 67 83 68 84 69 85 48 86 49 87
REMARK SMILES IDX 57 88 50 89 56 90 51 91 52 92 53 93 54 94 55 95
REMARK H PARENT 83 12 5 21 5 22 76 51 46 62
REMARK Flexibility Score: inf
ROOT
ATOM      1  O   UNL     1       1.911   4.981  -6.342  1.00  0.00    -0.374 OA
ENDROOT
BRANCH   1   2
ATOM      2  C   UNL     1       0.675   4.288  -6.472  1.00  0.00     0.202 C 
BRANCH   2   3
ATOM      3  C   UNL     1       0.368   3.124  -5.515  1.00  0.00     0.261 C 
BRANCH   3   4
ATOM      4  O   UNL     1       0.845   3.311  -4.177  1.00  0.00    -0.459 OA
BRANCH   4   5
ATOM      5  C   UNL     1       2.088   2.792  -3.963  1.00  0.00     0.365 C 
ATOM      6  O   UNL     1       2.719   2.203  -4.834  1.00  0.00    -0.245 OA
BRANCH   5   7
ATOM      7  C   UNL     1       2.671   3.156  -2.577  1.00  0.00     0.302 C 
BRANCH   7   8
ATOM      8  C   UNL     1       1.637   3.839  -1.658  1.00  0.00     0.177 C 
BRANCH   8   9
ATOM      9  C   UNL     1       2.240   4.347  -0.358  1.00  0.00     0.231 C 
ATOM     10  O   UNL     1       2.369   5.546  -0.134  1.00  0.00    -0.274 OA
ATOM     11  N   UNL     1       2.625   3.311   0.470  1.00  0.00    -0.326 N 
ATOM     12  H   UNL     1       2.481   2.404   0.115  1.00  0.00     0.169 HD
BRANCH  11  13
ATOM     13  C   UNL     1       3.195   3.380   1.752  1.00  0.00     0.042 A 
ATOM     14  C   UNL     1       3.786   2.205   2.238  1.00  0.00     0.026 A 
ATOM     15  C   UNL     1       3.182   4.522   2.552  1.00  0.00     0.046 A 
ATOM     16  C   UNL     1       4.368   2.171   3.506  1.00  0.00     0.004 A 
ATOM     17  C   UNL     1       3.743   4.475   3.830  1.00  0.00     0.043 A 
ATOM     18  C   UNL     1       4.340   3.307   4.308  1.00  0.00     0.020 A 
ATOM     19  Cl  UNL     1       3.686   5.865   4.846  1.00  0.00    -0.084 Cl
ENDBRANCH  11  13
ENDBRANCH   8   9
ENDBRANCH   7   8
BRANCH   7  20
ATOM     20  N   UNL     1       3.318   2.000  -1.863  1.00  0.00    -0.332 N 
ATOM     21  H   UNL     1       2.580   1.457  -1.415  1.00  0.00     0.347 HD
ATOM     22  H   UNL     1       3.983   2.416  -1.210  1.00  0.00     0.347 HD
BRANCH  20  23
ATOM     23  C   UNL     1       4.109   1.080  -2.708  1.00  0.00     0.293 C 
BRANCH  23  24
ATOM     24  C   UNL     1       5.493   1.597  -3.184  1.00  0.00     0.173 C 
ATOM     25  C   UNL     1       5.820   1.318  -4.643  1.00  0.00     0.040 C 
ATOM     26  O   UNL     1       5.641   3.009  -2.960  1.00  0.00    -0.372 OA
ATOM     27  C   UNL     1       5.791   2.667  -5.317  1.00  0.00     0.031 C 
ATOM     28  C   UNL     1       5.964   3.658  -4.192  1.00  0.00     0.161 C 
ENDBRANCH  23  24
ENDBRANCH  20  23
ENDBRANCH   7  20
ENDBRANCH   5   7
ENDBRANCH   4   5
ENDBRANCH   3   4
ENDBRANCH   2   3
ENDBRANCH   1   2
BRANCH   1  29
ATOM     29  C   UNL     1       2.118   5.825  -5.209  1.00  0.00     0.202 C 
BRANCH  29  30
ATOM     30  C   UNL     1       1.088   6.913  -4.888  1.00  0.00     0.261 C 
BRANCH  30  31
ATOM     31  O   UNL     1      -0.196   6.364  -4.536  1.00  0.00    -0.460 OA
BRANCH  31  32
ATOM     32  C   UNL     1      -1.231   6.877  -5.243  1.00  0.00     0.338 C 
ATOM     33  O   UNL     1      -1.184   7.780  -6.069  1.00  0.00    -0.246 OA
BRANCH  32  34
ATOM     34  C   UNL     1      -2.438   6.059  -5.053  1.00  0.00     0.060 A 
ATOM     35  C   UNL     1      -2.982   5.444  -6.188  1.00  0.00     0.016 A 
ATOM     36  C   UNL     1      -3.092   5.992  -3.822  1.00  0.00     0.016 A 
ATOM     37  C   UNL     1      -4.214   4.803  -6.106  1.00  0.00     0.010 A 
ATOM     38  C   UNL     1      -4.336   5.354  -3.745  1.00  0.00     0.010 A 
ATOM     39  C   UNL     1      -4.919   4.792  -4.895  1.00  0.00    -0.014 A 
BRANCH  39  40
ATOM     40  C   UNL     1      -6.322   4.310  -4.896  1.00  0.00     0.031 A 
ATOM     41  C   UNL     1      -7.444   5.309  -4.973  1.00  0.00     0.074 A 
ATOM     42  C   UNL     1      -6.586   2.991  -4.915  1.00  0.00     0.049 A 
ATOM     43  N   UNL     1      -8.732   5.099  -5.074  1.00  0.00    -0.248 NA
ATOM     44  C   UNL     1      -7.067   6.732  -4.939  1.00  0.00     0.031 C 
ATOM     45  C   UNL     1      -5.581   1.928  -4.883  1.00  0.00     0.029 A 
ATOM     46  N   UNL     1      -7.782   2.322  -4.982  1.00  0.00    -0.354 N 
ATOM     47  C   UNL     1      -9.319   6.359  -5.119  1.00  0.00     0.074 A 
ATOM     48  C   UNL     1      -8.249   7.327  -5.000  1.00  0.00     0.031 C 
ATOM     49  C   UNL     1      -6.204   0.739  -4.940  1.00  0.00     0.029 A 
ATOM     50  C   UNL     1      -7.649   0.955  -4.989  1.00  0.00     0.049 A 
ATOM     51  H   UNL     1      -8.653   2.779  -5.021  1.00  0.00     0.167 HD
ATOM     52  C   UNL     1     -10.627   6.682  -5.256  1.00  0.00     0.031 A 
ATOM     53  C   UNL     1      -8.585  -0.013  -5.026  1.00  0.00     0.031 A 
ATOM     54  C   UNL     1     -11.691   5.717  -5.356  1.00  0.00     0.049 A 
ATOM     55  C   UNL     1     -10.038   0.371  -5.114  1.00  0.00     0.074 A 
ATOM     56  C   UNL     1     -13.048   5.944  -5.511  1.00  0.00     0.029 A 
ATOM     57  N   UNL     1     -11.520   4.342  -5.301  1.00  0.00    -0.354 N 
ATOM     58  N   UNL     1     -10.572   1.567  -5.188  1.00  0.00    -0.248 NA
ATOM     59  C   UNL     1     -11.013  -0.728  -5.137  1.00  0.00     0.031 C 
ATOM     60  C   UNL     1     -13.703   4.707  -5.493  1.00  0.00     0.029 A 
ATOM     61  C   UNL     1     -12.748   3.708  -5.388  1.00  0.00     0.049 A 
ATOM     62  H   UNL     1     -10.653   3.884  -5.214  1.00  0.00     0.167 HD
ATOM     63  C   UNL     1     -11.945   1.364  -5.284  1.00  0.00     0.074 A 
ATOM     64  C   UNL     1     -12.155  -0.070  -5.283  1.00  0.00     0.031 C 
ATOM     65  C   UNL     1     -12.942   2.280  -5.367  1.00  0.00     0.031 A 
BRANCH  52  66
ATOM     66  C   UNL     1     -10.983   8.146  -5.273  1.00  0.00    -0.014 A 
ATOM     67  C   UNL     1     -10.674   8.959  -6.378  1.00  0.00     0.010 A 
ATOM     68  C   UNL     1     -11.670   8.708  -4.181  1.00  0.00     0.010 A 
ATOM     69  C   UNL     1     -11.010  10.316  -6.375  1.00  0.00     0.020 A 
ATOM     70  C   UNL     1     -12.031  10.058  -4.185  1.00  0.00     0.020 A 
ATOM     71  C   UNL     1     -11.684  10.858  -5.276  1.00  0.00     0.054 A 
BRANCH  71  72
ATOM     72  S   UNL     1     -12.127  12.617  -5.305  1.00  0.00     0.124 S 
ATOM     73  O   UNL     1     -10.830  13.258  -5.104  1.00  0.00    -0.237 OA
ATOM     74  O   UNL     1     -12.708  12.779  -6.636  1.00  0.00    -0.237 OA
ATOM     75  O   UNL     1     -13.069  12.756  -4.197  1.00  0.00    -0.744 OA
ENDBRANCH  71  72
ENDBRANCH  52  66
BRANCH  53  76
ATOM     76  C   UNL     1      -8.175  -1.443  -4.970  1.00  0.00    -0.014 A 
ATOM     77  C   UNL     1      -8.317  -2.279  -6.091  1.00  0.00     0.010 A 
ATOM     78  C   UNL     1      -7.630  -1.973  -3.786  1.00  0.00     0.010 A 
ATOM     79  C   UNL     1      -7.934  -3.622  -6.024  1.00  0.00     0.020 A 
ATOM     80  C   UNL     1      -7.221  -3.307  -3.724  1.00  0.00     0.020 A 
ATOM     81  C   UNL     1      -7.385  -4.127  -4.841  1.00  0.00     0.054 A 
BRANCH  81  82
ATOM     82  S   UNL     1      -6.838  -5.856  -4.795  1.00  0.00     0.124 S 
ATOM     83  O   UNL     1      -8.107  -6.574  -4.723  1.00  0.00    -0.237 OA
ATOM     84  O   UNL     1      -6.105  -5.989  -6.051  1.00  0.00    -0.237 OA
ATOM     85  O   UNL     1      -6.012  -5.920  -3.591  1.00  0.00    -0.744 OA
ENDBRANCH  81  82
ENDBRANCH  53  76
BRANCH  65  86
ATOM     86  C   UNL     1     -14.350   1.754  -5.477  1.00  0.00    -0.014 A 
ATOM     87  C   UNL     1     -14.987   1.143  -4.382  1.00  0.00     0.010 A 
ATOM     88  C   UNL     1     -15.053   1.895  -6.688  1.00  0.00     0.010 A 
ATOM     89  C   UNL     1     -16.285   0.640  -4.510  1.00  0.00     0.020 A 
ATOM     90  C   UNL     1     -16.361   1.419  -6.811  1.00  0.00     0.020 A 
ATOM     91  C   UNL     1     -16.961   0.776  -5.726  1.00  0.00     0.054 A 
BRANCH  91  92
ATOM     92  S   UNL     1     -18.649   0.125  -5.866  1.00  0.00     0.124 S 
ATOM     93  O   UNL     1     -18.412  -1.313  -5.961  1.00  0.00    -0.237 OA
ATOM     94  O   UNL     1     -19.273   0.579  -4.625  1.00  0.00    -0.237 OA
ATOM     95  O   UNL     1     -19.163   0.754  -7.080  1.00  0.00    -0.744 OA
ENDBRANCH  91  92
ENDBRANCH  65  86
ENDBRANCH  39  40
ENDBRANCH  32  34
ENDBRANCH  31  32
ENDBRANCH  30  31
ENDBRANCH  29  30
ENDBRANCH   1  29
TORSDOF 23
