REMARK SMILES COc1cc([C@@H]2[NH2+][C@H](C(=O)OCCOCCOC(=O)c3ccc(-c4c5nc(c(-c6ccc(S(=O)(=O)[O-])cc6)c6ccc([nH]6)c(-c6ccc(S(=O)(=O)[O-])cc6)c6nc(c(-c7ccc(S(=O)(=O)[O-])cc7)c7ccc4[nH]7)C=C6)C=C5)cc3)CS2)ccc1OCc1ccc(Cl)cc1
REMARK SMILES IDX 13 1 12 2 11 3 9 4 10 5 8 6 6 7 7 8 81 9 80 12 5 13 3 14
REMARK SMILES IDX 4 15 84 16 83 17 82 18 2 19 1 20 85 21 86 22 87 23 88 24
REMARK SMILES IDX 93 25 89 26 92 27 90 28 91 29 14 30 15 31 16 32 17 33 18 34
REMARK SMILES IDX 19 35 20 36 21 37 79 38 22 39 78 40 23 41 24 42 25 43 72 44
REMARK SMILES IDX 26 45 77 46 71 47 73 48 27 49 76 50 70 51 69 52 28 54 58 55
REMARK SMILES IDX 39 56 57 57 40 58 43 59 56 60 74 61 41 62 42 63 55 65 75 66
REMARK SMILES IDX 44 67 29 68 30 69 38 70 31 71 37 72 32 73 33 74 34 75 35 76
REMARK SMILES IDX 36 77 59 78 60 79 68 80 61 81 67 82 62 83 63 84 64 85 65 86
REMARK SMILES IDX 66 87 45 88 46 89 54 90 47 91 53 92 48 93 49 94 50 95 51 96
REMARK SMILES IDX 52 97
REMARK H PARENT 7 10 7 11 73 53 43 64
REMARK Flexibility Score: inf
ROOT
ATOM      1  C   UNL     1       4.474   5.792  -4.041  1.00  0.00     0.202 C 
ENDROOT
BRANCH   1   2
ATOM      2  C   UNL     1       4.011   7.018  -3.248  1.00  0.00     0.261 C 
BRANCH   2   3
ATOM      3  O   UNL     1       2.607   6.891  -2.959  1.00  0.00    -0.459 OA
BRANCH   3   4
ATOM      4  C   UNL     1       1.777   7.888  -3.358  1.00  0.00     0.365 C 
ATOM      5  O   UNL     1       2.139   8.985  -3.769  1.00  0.00    -0.245 OA
BRANCH   4   6
ATOM      6  C   UNL     1       0.300   7.504  -3.203  1.00  0.00     0.304 C 
ATOM      7  C   UNL     1      -0.639   5.404  -2.399  1.00  0.00     0.274 C 
ATOM      8  N   UNL     1       0.059   6.062  -3.503  1.00  0.00    -0.319 N 
ATOM      9  S   UNL     1      -1.397   6.673  -1.365  1.00  0.00    -0.087 SA
ATOM     10  H   UNL     1      -0.508   5.987  -4.347  1.00  0.00     0.348 HD
ATOM     11  H   UNL     1       0.961   5.604  -3.635  1.00  0.00     0.348 HD
ATOM     12  C   UNL     1      -0.183   7.921  -1.823  1.00  0.00     0.153 C 
BRANCH   7  13
ATOM     13  C   UNL     1       0.262   4.432  -1.656  1.00  0.00     0.024 A 
ATOM     14  C   UNL     1       0.900   2.117  -1.124  1.00  0.00     0.161 A 
ATOM     15  C   UNL     1       0.079   3.042  -1.799  1.00  0.00     0.061 A 
ATOM     16  C   UNL     1       1.943   2.571  -0.315  1.00  0.00     0.161 A 
ATOM     17  C   UNL     1       2.159   3.947  -0.210  1.00  0.00     0.051 A 
ATOM     18  C   UNL     1       1.327   4.862  -0.855  1.00  0.00     0.015 A 
BRANCH  14  19
ATOM     19  O   UNL     1       0.741   0.780  -1.375  1.00  0.00    -0.493 OA
ATOM     20  C   UNL     1      -0.518   0.286  -0.921  1.00  0.00     0.278 C 
ENDBRANCH  14  19
BRANCH  16  21
ATOM     21  O   UNL     1       2.825   1.855   0.440  1.00  0.00    -0.485 OA
BRANCH  21  22
ATOM     22  C   UNL     1       2.519   0.534   0.882  1.00  0.00     0.265 C 
BRANCH  22  23
ATOM     23  C   UNL     1       1.438   0.410   1.932  1.00  0.00    -0.011 A 
ATOM     24  C   UNL     1       0.879   1.517   2.582  1.00  0.00     0.009 A 
ATOM     25  C   UNL     1       0.999  -0.877   2.284  1.00  0.00     0.009 A 
ATOM     26  C   UNL     1      -0.144   1.347   3.515  1.00  0.00     0.021 A 
ATOM     27  C   UNL     1      -0.015  -1.049   3.226  1.00  0.00     0.021 A 
ATOM     28  C   UNL     1      -0.592   0.066   3.827  1.00  0.00     0.041 A 
ATOM     29  Cl  UNL     1      -1.871  -0.139   4.959  1.00  0.00    -0.084 Cl
ENDBRANCH  22  23
ENDBRANCH  21  22
ENDBRANCH  16  21
ENDBRANCH   7  13
ENDBRANCH   4   6
ENDBRANCH   3   4
ENDBRANCH   2   3
ENDBRANCH   1   2
BRANCH   1  30
ATOM     30  O   UNL     1       4.146   5.857  -5.435  1.00  0.00    -0.374 OA
BRANCH  30  31
ATOM     31  C   UNL     1       2.811   5.478  -5.765  1.00  0.00     0.202 C 
BRANCH  31  32
ATOM     32  C   UNL     1       2.607   3.990  -6.068  1.00  0.00     0.261 C 
BRANCH  32  33
ATOM     33  O   UNL     1       2.995   3.144  -4.976  1.00  0.00    -0.460 OA
BRANCH  33  34
ATOM     34  C   UNL     1       4.247   2.636  -5.076  1.00  0.00     0.338 C 
ATOM     35  O   UNL     1       5.028   2.779  -6.008  1.00  0.00    -0.246 OA
BRANCH  34  36
ATOM     36  C   UNL     1       4.617   1.945  -3.828  1.00  0.00     0.060 A 
ATOM     37  C   UNL     1       5.877   2.200  -3.277  1.00  0.00     0.016 A 
ATOM     38  C   UNL     1       3.773   1.004  -3.242  1.00  0.00     0.016 A 
ATOM     39  C   UNL     1       6.307   1.494  -2.149  1.00  0.00     0.010 A 
ATOM     40  C   UNL     1       4.213   0.300  -2.117  1.00  0.00     0.010 A 
ATOM     41  C   UNL     1       5.486   0.522  -1.560  1.00  0.00    -0.014 A 
BRANCH  41  42
ATOM     42  C   UNL     1       5.987  -0.308  -0.424  1.00  0.00     0.031 A 
ATOM     43  C   UNL     1       6.157  -1.800  -0.595  1.00  0.00     0.074 A 
ATOM     44  C   UNL     1       6.276   0.248   0.772  1.00  0.00     0.049 A 
ATOM     45  N   UNL     1       6.584  -2.688   0.268  1.00  0.00    -0.248 NA
ATOM     46  C   UNL     1       5.765  -2.371  -1.893  1.00  0.00     0.031 C 
ATOM     47  C   UNL     1       6.100   1.660   1.121  1.00  0.00     0.029 A 
ATOM     48  N   UNL     1       6.764  -0.316   1.928  1.00  0.00    -0.354 N 
ATOM     49  C   UNL     1       6.493  -3.918  -0.374  1.00  0.00     0.074 A 
ATOM     50  C   UNL     1       5.910  -3.670  -1.674  1.00  0.00     0.031 C 
ATOM     51  C   UNL     1       6.488   1.853   2.394  1.00  0.00     0.029 A 
ATOM     52  C   UNL     1       6.936   0.582   2.957  1.00  0.00     0.049 A 
ATOM     53  H   UNL     1       6.970  -1.275   2.012  1.00  0.00     0.167 HD
ATOM     54  C   UNL     1       6.888  -5.142   0.053  1.00  0.00     0.031 A 
ATOM     55  C   UNL     1       7.412   0.408   4.207  1.00  0.00     0.031 A 
ATOM     56  C   UNL     1       7.526  -5.398   1.317  1.00  0.00     0.049 A 
ATOM     57  C   UNL     1       7.889  -0.953   4.644  1.00  0.00     0.074 A 
ATOM     58  C   UNL     1       8.057  -6.587   1.787  1.00  0.00     0.029 A 
ATOM     59  N   UNL     1       7.728  -4.451   2.307  1.00  0.00    -0.354 N 
ATOM     60  N   UNL     1       7.887  -2.083   3.978  1.00  0.00    -0.248 NA
ATOM     61  C   UNL     1       8.461  -1.052   5.996  1.00  0.00     0.031 C 
ATOM     62  C   UNL     1       8.552  -6.367   3.078  1.00  0.00     0.029 A 
ATOM     63  C   UNL     1       8.365  -5.031   3.392  1.00  0.00     0.049 A 
ATOM     64  H   UNL     1       7.459  -3.506   2.249  1.00  0.00     0.167 HD
ATOM     65  C   UNL     1       8.496  -3.014   4.815  1.00  0.00     0.074 A 
ATOM     66  C   UNL     1       8.860  -2.316   6.029  1.00  0.00     0.031 C 
ATOM     67  C   UNL     1       8.737  -4.330   4.593  1.00  0.00     0.031 A 
BRANCH  54  68
ATOM     68  C   UNL     1       6.661  -6.307  -0.874  1.00  0.00    -0.014 A 
ATOM     69  C   UNL     1       7.411  -6.449  -2.056  1.00  0.00     0.010 A 
ATOM     70  C   UNL     1       5.714  -7.293  -0.542  1.00  0.00     0.010 A 
ATOM     71  C   UNL     1       7.182  -7.526  -2.915  1.00  0.00     0.020 A 
ATOM     72  C   UNL     1       5.503  -8.388  -1.384  1.00  0.00     0.020 A 
ATOM     73  C   UNL     1       6.225  -8.486  -2.576  1.00  0.00     0.054 A 
BRANCH  73  74
ATOM     74  S   UNL     1       5.960  -9.886  -3.699  1.00  0.00     0.124 S 
ATOM     75  O   UNL     1       5.184  -9.267  -4.771  1.00  0.00    -0.237 OA
ATOM     76  O   UNL     1       7.322 -10.276  -4.055  1.00  0.00    -0.237 OA
ATOM     77  O   UNL     1       5.232 -10.852  -2.881  1.00  0.00    -0.744 OA
ENDBRANCH  73  74
ENDBRANCH  54  68
BRANCH  55  78
ATOM     78  C   UNL     1       7.521   1.563   5.141  1.00  0.00    -0.014 A 
ATOM     79  C   UNL     1       8.782   2.103   5.453  1.00  0.00     0.010 A 
ATOM     80  C   UNL     1       6.377   2.094   5.761  1.00  0.00     0.010 A 
ATOM     81  C   UNL     1       8.902   3.127   6.397  1.00  0.00     0.020 A 
ATOM     82  C   UNL     1       6.491   3.136   6.688  1.00  0.00     0.020 A 
ATOM     83  C   UNL     1       7.755   3.633   7.013  1.00  0.00     0.054 A 
BRANCH  83  84
ATOM     84  S   UNL     1       7.932   4.973   8.224  1.00  0.00     0.124 S 
ATOM     85  O   UNL     1       8.428   4.260   9.396  1.00  0.00    -0.237 OA
ATOM     86  O   UNL     1       8.889   5.865   7.573  1.00  0.00    -0.237 OA
ATOM     87  O   UNL     1       6.577   5.507   8.340  1.00  0.00    -0.744 OA
ENDBRANCH  83  84
ENDBRANCH  55  78
BRANCH  67  88
ATOM     88  C   UNL     1       9.477  -5.090   5.661  1.00  0.00    -0.014 A 
ATOM     89  C   UNL     1       8.864  -5.423   6.882  1.00  0.00     0.010 A 
ATOM     90  C   UNL     1      10.804  -5.495   5.429  1.00  0.00     0.010 A 
ATOM     91  C   UNL     1       9.580  -6.107   7.869  1.00  0.00     0.020 A 
ATOM     92  C   UNL     1      11.515  -6.201   6.403  1.00  0.00     0.020 A 
ATOM     93  C   UNL     1      10.905  -6.484   7.626  1.00  0.00     0.054 A 
BRANCH  93  94
ATOM     94  S   UNL     1      11.813  -7.384   8.913  1.00  0.00     0.124 S 
ATOM     95  O   UNL     1      12.173  -6.311   9.836  1.00  0.00    -0.237 OA
ATOM     96  O   UNL     1      10.819  -8.332   9.409  1.00  0.00    -0.237 OA
ATOM     97  O   UNL     1      12.931  -7.985   8.190  1.00  0.00    -0.744 OA
ENDBRANCH  93  94
ENDBRANCH  67  88
ENDBRANCH  41  42
ENDBRANCH  34  36
ENDBRANCH  33  34
ENDBRANCH  32  33
ENDBRANCH  31  32
ENDBRANCH  30  31
ENDBRANCH   1  30
TORSDOF 22
