REMARK SMILES CCc1cc(OC(F)(F)F)cc2c1O[C@H](C(F)(F)F)C(C(=O)OCCOCCOC(=O)c1ccc(-c3c4nc(c(-c5ccc(S(=O)(=O)[O-])cc5)c5ccc([nH]5)c(-c5ccc(S(=O)(=O)[O-])cc5)c5nc(c(-c6ccc(S(=O)(=O)[O-])cc6)c6ccc3[nH]6)C=C5)C=C4)cc1)=C2
REMARK SMILES IDX 27 1 26 2 25 3 24 4 23 5 21 6 22 7 20 8 3 9 4 10 13 11 5 12
REMARK SMILES IDX 12 13 14 14 11 15 92 16 15 17 2 18 1 19 6 20 7 21 8 22 9 23
REMARK SMILES IDX 10 24 16 25 17 26 18 27 19 28 28 29 29 30 30 31 31 32 32 33
REMARK SMILES IDX 33 34 91 35 34 36 90 37 35 38 36 39 37 40 84 41 38 42 89 43
REMARK SMILES IDX 83 44 85 45 39 46 88 47 82 48 81 49 40 51 70 52 51 53 69 54
REMARK SMILES IDX 52 55 55 56 68 57 86 58 53 59 54 60 67 62 87 63 56 64 41 65
REMARK SMILES IDX 42 66 50 67 43 68 49 69 44 70 45 71 46 72 47 73 48 74 71 75
REMARK SMILES IDX 72 76 80 77 73 78 79 79 74 80 75 81 76 82 77 83 78 84 57 85
REMARK SMILES IDX 58 86 66 87 59 88 65 89 60 90 61 91 62 92 63 93 64 94
REMARK H PARENT 85 50 55 61
REMARK Flexibility Score: inf
ROOT
ATOM      1  C   UNL     1       5.865  -0.670   5.390  1.00  0.00     0.202 C 
ENDROOT
BRANCH   1   2
ATOM      2  O   UNL     1       5.648  -0.139   6.696  1.00  0.00    -0.374 OA
BRANCH   2   3
ATOM      3  C   UNL     1       4.947  -0.957   7.630  1.00  0.00     0.202 C 
BRANCH   3   4
ATOM      4  C   UNL     1       3.421  -0.993   7.504  1.00  0.00     0.261 C 
BRANCH   4   5
ATOM      5  O   UNL     1       2.996  -1.603   6.271  1.00  0.00    -0.460 OA
BRANCH   5   6
ATOM      6  C   UNL     1       2.519  -0.735   5.350  1.00  0.00     0.338 C 
ATOM      7  O   UNL     1       2.382   0.471   5.498  1.00  0.00    -0.246 OA
BRANCH   6   8
ATOM      8  C   UNL     1       2.290  -1.379   4.043  1.00  0.00     0.087 C 
ATOM      9  C   UNL     1       0.799  -2.353   0.267  1.00  0.00    -0.002 A 
ATOM     10  C   UNL     1       0.630  -3.711  -0.060  1.00  0.00     0.054 A 
ATOM     11  C   UNL     1       1.285  -2.051   1.543  1.00  0.00     0.131 A 
ATOM     12  C   UNL     1       0.926  -4.729   0.854  1.00  0.00     0.130 A 
ATOM     13  C   UNL     1       1.567  -3.057   2.491  1.00  0.00     0.021 A 
ATOM     14  O   UNL     1       1.422  -0.732   1.873  1.00  0.00    -0.475 OA
ATOM     15  C   UNL     1       1.399  -4.394   2.129  1.00  0.00     0.058 A 
ATOM     16  C   UNL     1       1.925  -2.660   3.863  1.00  0.00     0.027 C 
ATOM     17  C   UNL     1       2.433  -0.456   2.861  1.00  0.00     0.316 C 
BRANCH   9  18
ATOM     18  C   UNL     1       0.378  -1.336  -0.778  1.00  0.00     0.036 C 
ATOM     19  C   UNL     1       0.754   0.133  -0.609  1.00  0.00     0.009 C 
ENDBRANCH   9  18
BRANCH  12  20
ATOM     20  O   UNL     1       0.782  -6.070   0.628  1.00  0.00    -0.406 OA
BRANCH  20  21
ATOM     21  C   UNL     1       0.105  -6.469  -0.553  1.00  0.00     0.573 C 
ATOM     22  F   UNL     1      -1.128  -5.921  -0.622  1.00  0.00    -0.132 F 
ATOM     23  F   UNL     1       0.807  -6.127  -1.656  1.00  0.00    -0.132 F 
ATOM     24  F   UNL     1      -0.035  -7.813  -0.548  1.00  0.00    -0.132 F 
ENDBRANCH  20  21
ENDBRANCH  12  20
BRANCH  17  25
ATOM     25  C   UNL     1       3.852  -0.470   2.256  1.00  0.00     0.430 C 
ATOM     26  F   UNL     1       4.439  -1.690   2.306  1.00  0.00    -0.167 F 
ATOM     27  F   UNL     1       3.859  -0.081   0.959  1.00  0.00    -0.167 F 
ATOM     28  F   UNL     1       4.671   0.383   2.916  1.00  0.00    -0.167 F 
ENDBRANCH  17  25
ENDBRANCH   6   8
ENDBRANCH   5   6
ENDBRANCH   4   5
ENDBRANCH   3   4
ENDBRANCH   2   3
ENDBRANCH   1   2
BRANCH   1  29
ATOM     29  C   UNL     1       7.001  -1.683   5.217  1.00  0.00     0.261 C 
BRANCH  29  30
ATOM     30  O   UNL     1       6.769  -2.885   5.968  1.00  0.00    -0.460 OA
BRANCH  30  31
ATOM     31  C   UNL     1       7.564  -3.023   7.055  1.00  0.00     0.338 C 
ATOM     32  O   UNL     1       8.492  -2.297   7.387  1.00  0.00    -0.246 OA
BRANCH  31  33
ATOM     33  C   UNL     1       7.042  -4.087   7.930  1.00  0.00     0.060 A 
ATOM     34  C   UNL     1       6.878  -3.773   9.285  1.00  0.00     0.016 A 
ATOM     35  C   UNL     1       6.776  -5.375   7.460  1.00  0.00     0.016 A 
ATOM     36  C   UNL     1       6.509  -4.763  10.189  1.00  0.00     0.010 A 
ATOM     37  C   UNL     1       6.412  -6.372   8.373  1.00  0.00     0.010 A 
ATOM     38  C   UNL     1       6.319  -6.078   9.745  1.00  0.00    -0.014 A 
BRANCH  38  39
ATOM     39  C   UNL     1       6.178  -7.160  10.749  1.00  0.00     0.031 A 
ATOM     40  C   UNL     1       7.388  -7.981  11.106  1.00  0.00     0.074 A 
ATOM     41  C   UNL     1       5.008  -7.364  11.378  1.00  0.00     0.049 A 
ATOM     42  N   UNL     1       7.503  -8.944  11.984  1.00  0.00    -0.248 NA
ATOM     43  C   UNL     1       8.632  -7.675  10.382  1.00  0.00     0.031 C 
ATOM     44  C   UNL     1       3.779  -6.606  11.145  1.00  0.00     0.029 A 
ATOM     45  N   UNL     1       4.666  -8.270  12.350  1.00  0.00    -0.354 N 
ATOM     46  C   UNL     1       8.828  -9.360  11.917  1.00  0.00     0.074 A 
ATOM     47  C   UNL     1       9.469  -8.568  10.890  1.00  0.00     0.031 C 
ATOM     48  C   UNL     1       2.816  -7.078  11.956  1.00  0.00     0.029 A 
ATOM     49  C   UNL     1       3.353  -8.186  12.744  1.00  0.00     0.049 A 
ATOM     50  H   UNL     1       5.302  -8.919  12.729  1.00  0.00     0.167 HD
ATOM     51  C   UNL     1       9.457 -10.309  12.650  1.00  0.00     0.031 A 
ATOM     52  C   UNL     1       2.660  -8.927  13.631  1.00  0.00     0.031 A 
ATOM     53  C   UNL     1       8.814 -11.104  13.661  1.00  0.00     0.049 A 
ATOM     54  C   UNL     1       3.364 -10.022  14.386  1.00  0.00     0.074 A 
ATOM     55  C   UNL     1       9.368 -12.080  14.470  1.00  0.00     0.029 A 
ATOM     56  N   UNL     1       7.471 -11.021  13.997  1.00  0.00    -0.354 N 
ATOM     57  N   UNL     1       4.625 -10.381  14.333  1.00  0.00    -0.248 NA
ATOM     58  C   UNL     1       2.554 -10.806  15.328  1.00  0.00     0.031 C 
ATOM     59  C   UNL     1       8.348 -12.626  15.257  1.00  0.00     0.029 A 
ATOM     60  C   UNL     1       7.171 -11.950  14.979  1.00  0.00     0.049 A 
ATOM     61  H   UNL     1       6.826 -10.395  13.596  1.00  0.00     0.167 HD
ATOM     62  C   UNL     1       4.763 -11.418  15.250  1.00  0.00     0.074 A 
ATOM     63  C   UNL     1       3.462 -11.616  15.855  1.00  0.00     0.031 C 
ATOM     64  C   UNL     1       5.868 -12.140  15.565  1.00  0.00     0.031 A 
BRANCH  51  65
ATOM     65  C   UNL     1      10.912 -10.559  12.357  1.00  0.00    -0.014 A 
ATOM     66  C   UNL     1      11.901  -9.629  12.725  1.00  0.00     0.010 A 
ATOM     67  C   UNL     1      11.299 -11.758  11.730  1.00  0.00     0.010 A 
ATOM     68  C   UNL     1      13.246  -9.876  12.437  1.00  0.00     0.020 A 
ATOM     69  C   UNL     1      12.646 -12.020  11.463  1.00  0.00     0.020 A 
ATOM     70  C   UNL     1      13.610 -11.068  11.804  1.00  0.00     0.054 A 
BRANCH  70  71
ATOM     71  S   UNL     1      15.364 -11.372  11.457  1.00  0.00     0.124 S 
ATOM     72  O   UNL     1      15.613 -10.457  10.345  1.00  0.00    -0.237 OA
ATOM     73  O   UNL     1      16.007 -11.015  12.719  1.00  0.00    -0.237 OA
ATOM     74  O   UNL     1      15.410 -12.791  11.117  1.00  0.00    -0.744 OA
ENDBRANCH  70  71
ENDBRANCH  51  65
BRANCH  52  75
ATOM     75  C   UNL     1       1.210  -8.664  13.843  1.00  0.00    -0.014 A 
ATOM     76  C   UNL     1       0.748  -8.108  15.048  1.00  0.00     0.010 A 
ATOM     77  C   UNL     1       0.283  -8.969  12.830  1.00  0.00     0.010 A 
ATOM     78  C   UNL     1      -0.617  -7.874  15.242  1.00  0.00     0.020 A 
ATOM     79  C   UNL     1      -1.079  -8.712  13.009  1.00  0.00     0.020 A 
ATOM     80  C   UNL     1      -1.522  -8.175  14.219  1.00  0.00     0.054 A 
BRANCH  80  81
ATOM     81  S   UNL     1      -3.282  -7.811  14.468  1.00  0.00     0.124 S 
ATOM     82  O   UNL     1      -3.685  -8.873  15.384  1.00  0.00    -0.237 OA
ATOM     83  O   UNL     1      -3.248  -6.465  15.034  1.00  0.00    -0.237 OA
ATOM     84  O   UNL     1      -3.841  -7.897  13.121  1.00  0.00    -0.744 OA
ENDBRANCH  80  81
ENDBRANCH  52  75
BRANCH  64  85
ATOM     85  C   UNL     1       5.724 -13.198  16.627  1.00  0.00    -0.014 A 
ATOM     86  C   UNL     1       5.034 -14.396  16.371  1.00  0.00     0.010 A 
ATOM     87  C   UNL     1       6.330 -13.010  17.882  1.00  0.00     0.010 A 
ATOM     88  C   UNL     1       4.923 -15.373  17.365  1.00  0.00     0.020 A 
ATOM     89  C   UNL     1       6.246 -13.996  18.869  1.00  0.00     0.020 A 
ATOM     90  C   UNL     1       5.528 -15.165  18.608  1.00  0.00     0.054 A 
BRANCH  90  91
ATOM     91  S   UNL     1       5.401 -16.463  19.870  1.00  0.00     0.124 S 
ATOM     92  O   UNL     1       4.019 -16.317  20.318  1.00  0.00    -0.237 OA
ATOM     93  O   UNL     1       5.691 -17.678  19.112  1.00  0.00    -0.237 OA
ATOM     94  O   UNL     1       6.418 -16.092  20.852  1.00  0.00    -0.744 OA
ENDBRANCH  90  91
ENDBRANCH  64  85
ENDBRANCH  38  39
ENDBRANCH  31  33
ENDBRANCH  30  31
ENDBRANCH  29  30
ENDBRANCH   1  29
TORSDOF 21
