REMARK SMILES COc1cc([C@@H]2CC(=O)Nc3c(C(=O)OCCOCCOC(=O)c4ccc(-c5c6nc(c(-c7ccc(S(=O)(=O)[O-])cc7)c7ccc([nH]7)c(-c7ccc(S(=O)(=O)[O-])cc7)c7nc(c(-c8ccc(S(=O)(=O)[O-])cc8)c8ccc5[nH]8)C=C7)C=C6)cc4)cn(-c4ccc(F)cc4)c32)c(OC)c2c1OCO2
REMARK SMILES IDX 19 1 18 2 17 3 16 4 15 5 13 6 14 7 12 8 6 9 7 10 93 11 8 12
REMARK SMILES IDX 11 13 85 14 9 15 10 16 84 17 5 19 3 20 4 21 98 22 97 23
REMARK SMILES IDX 99 24 94 25 101 26 100 27 2 28 1 29 95 30 96 31 86 32 87 33
REMARK SMILES IDX 92 34 88 35 91 36 89 37 90 38 20 39 21 40 22 41 23 42 24 43
REMARK SMILES IDX 25 44 83 45 26 46 82 47 27 48 28 49 29 50 76 51 30 52 81 53
REMARK SMILES IDX 75 54 77 55 31 56 80 57 74 58 73 59 32 61 62 62 43 63 61 64
REMARK SMILES IDX 44 65 47 66 60 67 78 68 45 69 46 70 59 72 79 73 48 74 33 75
REMARK SMILES IDX 34 76 42 77 35 78 41 79 36 80 37 81 38 82 39 83 40 84 63 85
REMARK SMILES IDX 64 86 72 87 65 88 71 89 66 90 67 91 68 92 69 93 70 94 49 95
REMARK SMILES IDX 50 96 58 97 51 98 57 99 52 100 53 101 54 102 55 103 56 104
REMARK H PARENT 10 18 77 60 47 71
REMARK Flexibility Score: inf
ROOT
ATOM      1  C   UNL     1      -2.027 -10.276   5.374  1.00  0.00     0.202 C 
ENDROOT
BRANCH   1   2
ATOM      2  O   UNL     1      -1.057 -11.260   5.720  1.00  0.00    -0.374 OA
BRANCH   2   3
ATOM      3  C   UNL     1       0.031 -10.977   6.599  1.00  0.00     0.202 C 
BRANCH   3   4
ATOM      4  C   UNL     1       1.142 -10.031   6.146  1.00  0.00     0.261 C 
BRANCH   4   5
ATOM      5  O   UNL     1       0.670  -8.693   5.945  1.00  0.00    -0.460 OA
BRANCH   5   6
ATOM      6  C   UNL     1       0.448  -8.376   4.643  1.00  0.00     0.341 C 
ATOM      7  O   UNL     1       0.743  -9.095   3.686  1.00  0.00    -0.246 OA
BRANCH   6   8
ATOM      8  C   UNL     1      -0.282  -7.139   4.477  1.00  0.00     0.102 A 
ATOM      9  C   UNL     1      -0.612  -3.498   4.731  1.00  0.00     0.082 C 
ATOM     10  C   UNL     1      -0.382  -3.295   6.239  1.00  0.00     0.115 C 
ATOM     11  C   UNL     1      -0.801  -4.958   4.457  1.00  0.00     0.055 A 
ATOM     12  C   UNL     1       0.460  -4.374   6.912  1.00  0.00     0.225 C 
ATOM     13  C   UNL     1      -0.260  -5.953   5.239  1.00  0.00     0.078 A 
ATOM     14  N   UNL     1      -1.444  -5.548   3.394  1.00  0.00    -0.317 N 
ATOM     15  O   UNL     1       1.141  -4.135   7.909  1.00  0.00    -0.275 OA
ATOM     16  N   UNL     1       0.368  -5.658   6.427  1.00  0.00    -0.324 N 
ATOM     17  C   UNL     1      -1.139  -6.888   3.413  1.00  0.00     0.109 A 
ATOM     18  H   UNL     1       0.766  -6.392   6.948  1.00  0.00     0.170 HD
BRANCH   9  19
ATOM     19  C   UNL     1       0.507  -2.878   3.871  1.00  0.00     0.012 A 
ATOM     20  C   UNL     1       1.067  -1.189   2.167  1.00  0.00     0.165 A 
ATOM     21  C   UNL     1       0.176  -1.734   3.097  1.00  0.00     0.059 A 
ATOM     22  C   UNL     1       2.326  -1.753   2.079  1.00  0.00     0.211 A 
ATOM     23  C   UNL     1       2.689  -2.834   2.859  1.00  0.00     0.211 A 
ATOM     24  O   UNL     1       3.345  -1.350   1.266  1.00  0.00    -0.449 OA
ATOM     25  C   UNL     1       1.812  -3.421   3.759  1.00  0.00     0.168 A 
ATOM     26  O   UNL     1       3.969  -3.232   2.600  1.00  0.00    -0.449 OA
ATOM     27  C   UNL     1       4.404  -2.222   1.683  1.00  0.00     0.468 C 
BRANCH  20  28
ATOM     28  O   UNL     1       0.594  -0.130   1.449  1.00  0.00    -0.493 OA
ATOM     29  C   UNL     1       1.050  -0.058   0.102  1.00  0.00     0.278 C 
ENDBRANCH  20  28
BRANCH  25  30
ATOM     30  O   UNL     1       2.093  -4.505   4.528  1.00  0.00    -0.492 OA
ATOM     31  C   UNL     1       3.409  -5.023   4.596  1.00  0.00     0.278 C 
ENDBRANCH  25  30
ENDBRANCH   9  19
BRANCH  14  32
ATOM     32  C   UNL     1      -2.147  -4.928   2.346  1.00  0.00     0.046 A 
ATOM     33  C   UNL     1      -1.452  -4.120   1.443  1.00  0.00     0.029 A 
ATOM     34  C   UNL     1      -3.516  -5.168   2.195  1.00  0.00     0.029 A 
ATOM     35  C   UNL     1      -2.146  -3.480   0.420  1.00  0.00     0.041 A 
ATOM     36  C   UNL     1      -4.204  -4.524   1.165  1.00  0.00     0.041 A 
ATOM     37  C   UNL     1      -3.516  -3.679   0.296  1.00  0.00     0.123 A 
ATOM     38  F   UNL     1      -4.182  -3.055  -0.684  1.00  0.00    -0.207 F 
ENDBRANCH  14  32
ENDBRANCH   6   8
ENDBRANCH   5   6
ENDBRANCH   4   5
ENDBRANCH   3   4
ENDBRANCH   2   3
ENDBRANCH   1   2
BRANCH   1  39
ATOM     39  C   UNL     1      -2.981  -9.729   6.428  1.00  0.00     0.261 C 
BRANCH  39  40
ATOM     40  O   UNL     1      -2.290  -9.291   7.581  1.00  0.00    -0.460 OA
BRANCH  40  41
ATOM     41  C   UNL     1      -2.228 -10.230   8.551  1.00  0.00     0.338 C 
ATOM     42  O   UNL     1      -2.564 -11.405   8.464  1.00  0.00    -0.246 OA
BRANCH  41  43
ATOM     43  C   UNL     1      -1.775  -9.595   9.792  1.00  0.00     0.060 A 
ATOM     44  C   UNL     1      -1.881 -10.408  10.923  1.00  0.00     0.016 A 
ATOM     45  C   UNL     1      -1.832  -8.200   9.854  1.00  0.00     0.016 A 
ATOM     46  C   UNL     1      -2.450  -9.855  12.041  1.00  0.00     0.010 A 
ATOM     47  C   UNL     1      -2.444  -7.660  10.949  1.00  0.00     0.010 A 
ATOM     48  C   UNL     1      -2.847  -8.520  11.972  1.00  0.00    -0.014 A 
BRANCH  48  49
ATOM     49  C   UNL     1      -3.652  -7.984  13.040  1.00  0.00     0.031 A 
ATOM     50  C   UNL     1      -2.801  -7.469  14.131  1.00  0.00     0.074 A 
ATOM     51  C   UNL     1      -4.984  -7.837  12.916  1.00  0.00     0.049 A 
ATOM     52  N   UNL     1      -2.525  -8.048  15.254  1.00  0.00    -0.248 NA
ATOM     53  C   UNL     1      -1.914  -6.334  13.805  1.00  0.00     0.031 C 
ATOM     54  C   UNL     1      -5.822  -8.035  11.729  1.00  0.00     0.029 A 
ATOM     55  N   UNL     1      -5.866  -7.339  13.813  1.00  0.00    -0.354 N 
ATOM     56  C   UNL     1      -1.622  -7.188  15.864  1.00  0.00     0.074 A 
ATOM     57  C   UNL     1      -1.040  -6.409  14.806  1.00  0.00     0.031 C 
ATOM     58  C   UNL     1      -7.001  -7.391  11.912  1.00  0.00     0.029 A 
ATOM     59  C   UNL     1      -7.031  -6.832  13.255  1.00  0.00     0.049 A 
ATOM     60  H   UNL     1      -5.695  -7.336  14.783  1.00  0.00     0.167 HD
ATOM     61  C   UNL     1      -1.721  -6.872  17.184  1.00  0.00     0.031 A 
ATOM     62  C   UNL     1      -7.855  -5.913  13.832  1.00  0.00     0.031 A 
ATOM     63  C   UNL     1      -2.578  -7.795  17.885  1.00  0.00     0.049 A 
ATOM     64  C   UNL     1      -7.508  -5.881  15.285  1.00  0.00     0.074 A 
ATOM     65  C   UNL     1      -2.594  -9.168  18.036  1.00  0.00     0.029 A 
ATOM     66  N   UNL     1      -3.853  -7.363  18.181  1.00  0.00    -0.354 N 
ATOM     67  N   UNL     1      -7.690  -6.897  16.087  1.00  0.00    -0.248 NA
ATOM     68  C   UNL     1      -6.478  -4.938  15.709  1.00  0.00     0.031 C 
ATOM     69  C   UNL     1      -3.968  -9.532  17.934  1.00  0.00     0.029 A 
ATOM     70  C   UNL     1      -4.723  -8.362  17.825  1.00  0.00     0.049 A 
ATOM     71  H   UNL     1      -4.095  -6.495  18.576  1.00  0.00     0.167 HD
ATOM     72  C   UNL     1      -6.542  -6.954  16.869  1.00  0.00     0.074 A 
ATOM     73  C   UNL     1      -5.855  -5.684  16.627  1.00  0.00     0.031 C 
ATOM     74  C   UNL     1      -6.088  -8.133  17.393  1.00  0.00     0.031 A 
BRANCH  61  75
ATOM     75  C   UNL     1      -1.421  -5.486  17.709  1.00  0.00    -0.014 A 
ATOM     76  C   UNL     1      -1.470  -5.264  19.096  1.00  0.00     0.010 A 
ATOM     77  C   UNL     1      -1.340  -4.340  16.886  1.00  0.00     0.010 A 
ATOM     78  C   UNL     1      -1.493  -3.964  19.619  1.00  0.00     0.020 A 
ATOM     79  C   UNL     1      -1.311  -3.045  17.395  1.00  0.00     0.020 A 
ATOM     80  C   UNL     1      -1.422  -2.864  18.762  1.00  0.00     0.054 A 
BRANCH  80  81
ATOM     81  S   UNL     1      -1.537  -1.193  19.434  1.00  0.00     0.124 S 
ATOM     82  O   UNL     1      -2.902  -1.172  19.950  1.00  0.00    -0.237 OA
ATOM     83  O   UNL     1      -0.476  -1.194  20.438  1.00  0.00    -0.237 OA
ATOM     84  O   UNL     1      -1.290  -0.339  18.275  1.00  0.00    -0.744 OA
ENDBRANCH  80  81
ENDBRANCH  61  75
BRANCH  62  85
ATOM     85  C   UNL     1      -8.550  -4.788  13.134  1.00  0.00    -0.014 A 
ATOM     86  C   UNL     1      -9.509  -3.983  13.782  1.00  0.00     0.010 A 
ATOM     87  C   UNL     1      -8.082  -4.339  11.881  1.00  0.00     0.010 A 
ATOM     88  C   UNL     1      -9.944  -2.765  13.216  1.00  0.00     0.020 A 
ATOM     89  C   UNL     1      -8.514  -3.137  11.308  1.00  0.00     0.020 A 
ATOM     90  C   UNL     1      -9.430  -2.342  11.987  1.00  0.00     0.054 A 
BRANCH  90  91
ATOM     91  S   UNL     1      -9.864  -0.703  11.328  1.00  0.00     0.124 S 
ATOM     92  O   UNL     1     -11.270  -0.870  10.973  1.00  0.00    -0.237 OA
ATOM     93  O   UNL     1      -9.597   0.178  12.460  1.00  0.00    -0.237 OA
ATOM     94  O   UNL     1      -8.956  -0.537  10.192  1.00  0.00    -0.744 OA
ENDBRANCH  90  91
ENDBRANCH  62  85
BRANCH  74  95
ATOM     95  C   UNL     1      -6.975  -9.357  17.340  1.00  0.00    -0.014 A 
ATOM     96  C   UNL     1      -7.432  -9.960  16.151  1.00  0.00     0.010 A 
ATOM     97  C   UNL     1      -7.194 -10.030  18.555  1.00  0.00     0.010 A 
ATOM     98  C   UNL     1      -8.108 -11.192  16.186  1.00  0.00     0.020 A 
ATOM     99  C   UNL     1      -7.848 -11.262  18.596  1.00  0.00     0.020 A 
ATOM    100  C   UNL     1      -8.312 -11.835  17.412  1.00  0.00     0.054 A 
BRANCH 100 101
ATOM    101  S   UNL     1      -9.155 -13.442  17.460  1.00  0.00     0.124 S 
ATOM    102  O   UNL     1     -10.516 -13.097  17.058  1.00  0.00    -0.237 OA
ATOM    103  O   UNL     1      -8.396 -14.236  16.497  1.00  0.00    -0.237 OA
ATOM    104  O   UNL     1      -9.012 -13.869  18.851  1.00  0.00    -0.744 OA
ENDBRANCH 100 101
ENDBRANCH  74  95
ENDBRANCH  48  49
ENDBRANCH  41  43
ENDBRANCH  40  41
ENDBRANCH  39  40
ENDBRANCH   1  39
TORSDOF 21
