REMARK SMILES O=C(OCCOCCOC(=O)c1ccc(-c2c3nc(c(-c4ccc(S(=O)(=O)[O-])cc4)c4ccc([nH]4)c(-c4ccc(S(=O)(=O)[O-])cc4)c4nc(c(-c5ccc(S(=O)(=O)[O-])cc5)c5ccc2[nH]5)C=C4)C=C3)cc1)C1=Cc2cc(Cl)cc(-c3ccccc3)c2O[C@@H]1C(F)(F)F
REMARK SMILES IDX 7 1 6 2 5 3 4 4 3 5 2 6 1 7 72 8 73 9 88 10 74 11 87 12
REMARK SMILES IDX 75 13 86 14 76 15 79 16 77 17 78 18 89 19 90 20 91 21 92 22
REMARK SMILES IDX 80 23 81 24 85 25 82 26 84 27 83 28 8 29 9 30 10 31 11 32
REMARK SMILES IDX 12 33 13 34 71 35 14 36 70 37 15 38 16 39 17 40 64 41 18 42
REMARK SMILES IDX 69 43 63 44 65 45 19 46 68 47 62 48 61 49 20 51 50 52 31 53
REMARK SMILES IDX 49 54 32 55 35 56 48 57 66 58 33 59 34 60 47 62 67 63 36 64
REMARK SMILES IDX 21 65 22 66 30 67 23 68 29 69 24 70 25 71 26 72 27 73 28 74
REMARK SMILES IDX 51 75 52 76 60 77 53 78 59 79 54 80 55 81 56 82 57 83 58 84
REMARK SMILES IDX 37 85 38 86 46 87 39 88 45 89 40 90 41 91 42 92 43 93 44 94
REMARK H PARENT 65 50 35 61
REMARK Flexibility Score: inf
ROOT
ATOM      1  C   UNL     1       2.700  -1.036  -2.952  1.00  0.00     0.202 C 
ENDROOT
BRANCH   1   2
ATOM      2  O   UNL     1       4.006  -0.613  -2.461  1.00  0.00    -0.374 OA
BRANCH   2   3
ATOM      3  C   UNL     1       4.491   0.184  -1.085  1.00  0.00     0.202 C 
BRANCH   3   4
ATOM      4  C   UNL     1       3.675   0.038   0.928  1.00  0.00     0.261 C 
BRANCH   4   5
ATOM      5  O   UNL     1       2.697   1.083   1.586  1.00  0.00    -0.460 OA
BRANCH   5   6
ATOM      6  C   UNL     1       2.808   2.317   1.080  1.00  0.00     0.338 C 
ATOM      7  O   UNL     1       2.161   3.313   1.273  1.00  0.00    -0.246 OA
BRANCH   6   8
ATOM      8  C   UNL     1       3.682   1.922   0.007  1.00  0.00     0.087 C 
ATOM      9  C   UNL     1       5.060   1.769   0.469  1.00  0.00     0.027 C 
ATOM     10  C   UNL     1       2.580   0.494  -0.693  1.00  0.00     0.316 C 
ATOM     11  C   UNL     1       5.874   0.173   0.652  1.00  0.00     0.019 A 
ATOM     12  O   UNL     1       3.441  -1.248  -0.476  1.00  0.00    -0.475 OA
ATOM     13  C   UNL     1       7.080   0.213   1.300  1.00  0.00     0.032 A 
ATOM     14  C   UNL     1       5.114  -1.358   0.278  1.00  0.00     0.135 A 
ATOM     15  C   UNL     1       7.593  -1.027   1.665  1.00  0.00     0.042 A 
ATOM     16  C   UNL     1       5.783  -2.577   0.621  1.00  0.00     0.026 A 
ATOM     17  Cl  UNL     1       9.105  -1.031   2.512  1.00  0.00    -0.084 Cl
ATOM     18  C   UNL     1       6.974  -2.304   1.384  1.00  0.00     0.033 A 
BRANCH  10  19
ATOM     19  C   UNL     1       2.079   1.363  -1.970  1.00  0.00     0.430 C 
ATOM     20  F   UNL     1       1.050   0.829  -2.660  1.00  0.00    -0.167 F 
ATOM     21  F   UNL     1       1.579   2.550  -1.508  1.00  0.00    -0.167 F 
ATOM     22  F   UNL     1       3.047   1.729  -2.842  1.00  0.00    -0.167 F 
ENDBRANCH  10  19
BRANCH  16  23
ATOM     23  C   UNL     1       5.445  -4.131   0.339  1.00  0.00    -0.015 A 
ATOM     24  C   UNL     1       3.959  -4.433   1.333  1.00  0.00     0.009 A 
ATOM     25  C   UNL     1       5.863  -5.525  -1.082  1.00  0.00     0.009 A 
ATOM     26  C   UNL     1       2.965  -5.843   0.987  1.00  0.00     0.001 A 
ATOM     27  C   UNL     1       4.734  -6.907  -1.324  1.00  0.00     0.001 A 
ATOM     28  C   UNL     1       3.332  -7.017  -0.288  1.00  0.00     0.000 A 
ENDBRANCH  16  23
ENDBRANCH   6   8
ENDBRANCH   5   6
ENDBRANCH   4   5
ENDBRANCH   3   4
ENDBRANCH   2   3
ENDBRANCH   1   2
BRANCH   1  29
ATOM     29  C   UNL     1       2.589  -2.390  -3.659  1.00  0.00     0.261 C 
BRANCH  29  30
ATOM     30  O   UNL     1       3.234  -3.360  -2.882  1.00  0.00    -0.460 OA
BRANCH  30  31
ATOM     31  C   UNL     1       4.565  -3.209  -2.978  1.00  0.00     0.338 C 
ATOM     32  O   UNL     1       5.229  -2.676  -3.846  1.00  0.00    -0.246 OA
BRANCH  31  33
ATOM     33  C   UNL     1       5.085  -3.754  -1.758  1.00  0.00     0.060 A 
ATOM     34  C   UNL     1       6.832  -3.602  -1.464  1.00  0.00     0.016 A 
ATOM     35  C   UNL     1       4.123  -4.926  -0.759  1.00  0.00     0.016 A 
ATOM     36  C   UNL     1       7.694  -4.598  -0.267  1.00  0.00     0.010 A 
ATOM     37  C   UNL     1       5.162  -6.018   0.586  1.00  0.00     0.010 A 
ATOM     38  C   UNL     1       6.923  -5.806   0.734  1.00  0.00    -0.014 A 
BRANCH  38  39
ATOM     39  C   UNL     1       7.627  -6.893   1.472  1.00  0.00     0.031 A 
ATOM     40  C   UNL     1       7.950  -8.231   0.825  1.00  0.00     0.074 A 
ATOM     41  C   UNL     1       7.681  -6.793   2.810  1.00  0.00     0.049 A 
ATOM     42  N   UNL     1       8.422  -9.333   1.365  1.00  0.00    -0.248 NA
ATOM     43  C   UNL     1       7.645  -8.380  -0.603  1.00  0.00     0.031 C 
ATOM     44  C   UNL     1       7.206  -5.648   3.582  1.00  0.00     0.029 A 
ATOM     45  N   UNL     1       8.099  -7.689   3.759  1.00  0.00    -0.354 N 
ATOM     46  C   UNL     1       8.461 -10.286   0.344  1.00  0.00     0.074 A 
ATOM     47  C   UNL     1       7.874  -9.668  -0.820  1.00  0.00     0.031 C 
ATOM     48  C   UNL     1       7.348  -5.911   4.889  1.00  0.00     0.029 A 
ATOM     49  C   UNL     1       7.926  -7.241   5.045  1.00  0.00     0.049 A 
ATOM     50  H   UNL     1       8.485  -8.568   3.539  1.00  0.00     0.167 HD
ATOM     51  C   UNL     1       8.982 -11.542   0.350  1.00  0.00     0.031 A 
ATOM     52  C   UNL     1       8.216  -7.829   6.220  1.00  0.00     0.031 A 
ATOM     53  C   UNL     1       9.560 -12.151   1.521  1.00  0.00     0.049 A 
ATOM     54  C   UNL     1       8.885  -9.175   6.212  1.00  0.00     0.074 A 
ATOM     55  C   UNL     1      10.247 -13.348   1.632  1.00  0.00     0.029 A 
ATOM     56  N   UNL     1       9.509 -11.603   2.793  1.00  0.00    -0.354 N 
ATOM     57  N   UNL     1       9.121  -9.976   5.199  1.00  0.00    -0.248 NA
ATOM     58  C   UNL     1       9.383  -9.668   7.502  1.00  0.00     0.031 C 
ATOM     59  C   UNL     1      10.566 -13.547   2.980  1.00  0.00     0.029 A 
ATOM     60  C   UNL     1      10.136 -12.442   3.698  1.00  0.00     0.049 A 
ATOM     61  H   UNL     1       9.088 -10.743   3.021  1.00  0.00     0.167 HD
ATOM     62  C   UNL     1       9.829 -11.051   5.726  1.00  0.00     0.074 A 
ATOM     63  C   UNL     1      10.009 -10.777   7.138  1.00  0.00     0.031 C 
ATOM     64  C   UNL     1      10.292 -12.164   5.103  1.00  0.00     0.031 A 
BRANCH  51  65
ATOM     65  C   UNL     1       9.039 -12.314  -0.956  1.00  0.00    -0.014 A 
ATOM     66  C   UNL     1       9.823 -11.841  -2.026  1.00  0.00     0.010 A 
ATOM     67  C   UNL     1       8.412 -13.569  -1.092  1.00  0.00     0.010 A 
ATOM     68  C   UNL     1       9.954 -12.579  -3.206  1.00  0.00     0.020 A 
ATOM     69  C   UNL     1       8.567 -14.329  -2.261  1.00  0.00     0.020 A 
ATOM     70  C   UNL     1       9.331 -13.823  -3.315  1.00  0.00     0.054 A 
BRANCH  70  71
ATOM     71  S   UNL     1       9.582 -14.781  -4.837  1.00  0.00     0.124 S 
ATOM     72  O   UNL     1       8.860 -13.980  -5.822  1.00  0.00    -0.237 OA
ATOM     73  O   UNL     1      11.036 -14.783  -4.975  1.00  0.00    -0.237 OA
ATOM     74  O   UNL     1       8.985 -16.080  -4.535  1.00  0.00    -0.744 OA
ENDBRANCH  70  71
ENDBRANCH  51  65
BRANCH  52  75
ATOM     75  C   UNL     1       7.978  -7.091   7.488  1.00  0.00    -0.014 A 
ATOM     76  C   UNL     1       9.067  -6.572   8.211  1.00  0.00     0.010 A 
ATOM     77  C   UNL     1       6.673  -6.876   7.965  1.00  0.00     0.010 A 
ATOM     78  C   UNL     1       8.860  -5.894   9.413  1.00  0.00     0.020 A 
ATOM     79  C   UNL     1       6.460  -6.166   9.150  1.00  0.00     0.020 A 
ATOM     80  C   UNL     1       7.557  -5.696   9.876  1.00  0.00     0.054 A 
BRANCH  80  81
ATOM     81  S   UNL     1       7.319  -4.793  11.430  1.00  0.00     0.124 S 
ATOM     82  O   UNL     1       7.832  -5.742  12.414  1.00  0.00    -0.237 OA
ATOM     83  O   UNL     1       8.129  -3.595  11.223  1.00  0.00    -0.237 OA
ATOM     84  O   UNL     1       5.877  -4.562  11.475  1.00  0.00    -0.744 OA
ENDBRANCH  80  81
ENDBRANCH  52  75
BRANCH  64  85
ATOM     85  C   UNL     1      11.057 -13.151   5.945  1.00  0.00    -0.014 A 
ATOM     86  C   UNL     1      10.427 -13.879   6.971  1.00  0.00     0.010 A 
ATOM     87  C   UNL     1      12.428 -13.353   5.705  1.00  0.00     0.010 A 
ATOM     88  C   UNL     1      11.169 -14.737   7.785  1.00  0.00     0.020 A 
ATOM     89  C   UNL     1      13.165 -14.242   6.490  1.00  0.00     0.020 A 
ATOM     90  C   UNL     1      12.535 -14.909   7.543  1.00  0.00     0.054 A 
BRANCH  90  91
ATOM     91  S   UNL     1      13.473 -16.027   8.617  1.00  0.00     0.124 S 
ATOM     92  O   UNL     1      13.527 -15.273   9.866  1.00  0.00    -0.237 OA
ATOM     93  O   UNL     1      12.635 -17.223   8.641  1.00  0.00    -0.237 OA
ATOM     94  O   UNL     1      14.751 -16.181   7.927  1.00  0.00    -0.744 OA
ENDBRANCH  90  91
ENDBRANCH  64  85
ENDBRANCH  38  39
ENDBRANCH  31  33
ENDBRANCH  30  31
ENDBRANCH  29  30
ENDBRANCH   1  29
TORSDOF 19
