REMARK SMILES N#Cc1ccc(C(=O)N2CCC[C@H]2C(=O)OCCOCCOC(=O)c2ccc(-c3c4nc(c(-c5ccc(S(=O)(=O)[O-])cc5)c5ccc([nH]5)c(-c5ccc(S(=O)(=O)[O-])cc5)c5nc(c(-c6ccc(S(=O)(=O)[O-])cc6)c6ccc3[nH]6)C=C5)C=C4)cc2)cc1
REMARK SMILES IDX 19 1 18 2 17 3 16 4 14 5 15 6 13 7 9 8 10 9 11 10 12 11 7 12
REMARK SMILES IDX 8 13 6 14 3 15 4 16 86 17 5 18 85 19 2 20 1 21 20 22 21 23
REMARK SMILES IDX 22 24 23 25 24 26 25 27 26 28 84 29 27 30 83 31 28 32 29 33
REMARK SMILES IDX 30 34 77 35 31 36 82 37 76 38 78 39 32 40 81 41 75 42 74 43
REMARK SMILES IDX 33 45 63 46 44 47 62 48 45 49 48 50 61 51 79 52 46 53 47 54
REMARK SMILES IDX 60 56 80 57 49 58 34 59 35 60 43 61 36 62 42 63 37 64 38 65
REMARK SMILES IDX 39 66 40 67 41 68 64 69 65 70 73 71 66 72 72 73 67 74 68 75
REMARK SMILES IDX 69 76 70 77 71 78 50 79 51 80 59 81 52 82 58 83 53 84 54 85
REMARK SMILES IDX 55 86 56 87 57 88
REMARK H PARENT 78 44 48 55
REMARK Flexibility Score: inf
ROOT
ATOM      1  O   UNL     1       9.524  -1.492   2.131  1.00  0.00    -0.374 OA
ENDROOT
BRANCH   1   2
ATOM      2  C   UNL     1       9.558  -0.097   1.827  1.00  0.00     0.202 C 
BRANCH   2   3
ATOM      3  C   UNL     1       8.624   0.453   0.743  1.00  0.00     0.261 C 
BRANCH   3   4
ATOM      4  O   UNL     1       7.275   0.076   1.011  1.00  0.00    -0.462 OA
BRANCH   4   5
ATOM      5  C   UNL     1       6.721  -0.799   0.127  1.00  0.00     0.328 C 
ATOM      6  O   UNL     1       7.181  -1.103  -0.968  1.00  0.00    -0.250 OA
BRANCH   5   7
ATOM      7  C   UNL     1       5.493  -1.458   0.761  1.00  0.00     0.195 C 
ATOM      8  N   UNL     1       4.322  -1.276  -0.064  1.00  0.00    -0.325 N 
ATOM      9  C   UNL     1       4.176  -2.404  -0.963  1.00  0.00     0.121 C 
ATOM     10  C   UNL     1       4.596  -3.572  -0.086  1.00  0.00     0.024 C 
ATOM     11  C   UNL     1       5.670  -2.986   0.836  1.00  0.00     0.039 C 
BRANCH   8  12
ATOM     12  C   UNL     1       3.601  -0.117   0.099  1.00  0.00     0.254 C 
ATOM     13  O   UNL     1       4.127   0.897   0.556  1.00  0.00    -0.269 OA
BRANCH  12  14
ATOM     14  C   UNL     1       2.132  -0.107  -0.100  1.00  0.00     0.040 A 
ATOM     15  C   UNL     1      -0.669   0.051  -0.112  1.00  0.00     0.052 A 
ATOM     16  C   UNL     1       0.097   1.216  -0.197  1.00  0.00     0.020 A 
ATOM     17  C   UNL     1      -0.036  -1.191  -0.011  1.00  0.00     0.020 A 
ATOM     18  C   UNL     1       1.492   1.136  -0.197  1.00  0.00     0.015 A 
ATOM     19  C   UNL     1       1.357  -1.266   0.024  1.00  0.00     0.015 A 
BRANCH  15  20
ATOM     20  C   UNL     1      -2.102   0.118  -0.087  1.00  0.00     0.099 C 
ATOM     21  N   UNL     1      -3.259   0.141  -0.061  1.00  0.00    -0.192 NA
ENDBRANCH  15  20
ENDBRANCH  12  14
ENDBRANCH   8  12
ENDBRANCH   5   7
ENDBRANCH   4   5
ENDBRANCH   3   4
ENDBRANCH   2   3
ENDBRANCH   1   2
BRANCH   1  22
ATOM     22  C   UNL     1       8.390  -2.022   2.810  1.00  0.00     0.202 C 
BRANCH  22  23
ATOM     23  C   UNL     1       8.114  -1.685   4.281  1.00  0.00     0.261 C 
BRANCH  23  24
ATOM     24  O   UNL     1       8.046  -0.283   4.555  1.00  0.00    -0.460 OA
BRANCH  24  25
ATOM     25  C   UNL     1       9.184   0.216   5.098  1.00  0.00     0.338 C 
ATOM     26  O   UNL     1      10.199  -0.400   5.374  1.00  0.00    -0.246 OA
BRANCH  25  27
ATOM     27  C   UNL     1       9.107   1.684   5.135  1.00  0.00     0.060 A 
ATOM     28  C   UNL     1      10.103   2.405   4.464  1.00  0.00     0.016 A 
ATOM     29  C   UNL     1       8.126   2.336   5.881  1.00  0.00     0.016 A 
ATOM     30  C   UNL     1      10.152   3.788   4.578  1.00  0.00     0.010 A 
ATOM     31  C   UNL     1       8.184   3.725   6.002  1.00  0.00     0.010 A 
ATOM     32  C   UNL     1       9.220   4.449   5.385  1.00  0.00    -0.014 A 
BRANCH  32  33
ATOM     33  C   UNL     1       9.416   5.881   5.705  1.00  0.00     0.031 A 
ATOM     34  C   UNL     1       9.939   6.259   7.063  1.00  0.00     0.074 A 
ATOM     35  C   UNL     1       9.154   6.825   4.786  1.00  0.00     0.049 A 
ATOM     36  N   UNL     1      10.153   7.446   7.567  1.00  0.00    -0.248 NA
ATOM     37  C   UNL     1      10.255   5.149   7.976  1.00  0.00     0.031 C 
ATOM     38  C   UNL     1       8.700   6.571   3.419  1.00  0.00     0.029 A 
ATOM     39  N   UNL     1       9.238   8.190   4.868  1.00  0.00    -0.354 N 
ATOM     40  C   UNL     1      10.616   7.228   8.860  1.00  0.00     0.074 A 
ATOM     41  C   UNL     1      10.605   5.797   9.076  1.00  0.00     0.031 C 
ATOM     42  C   UNL     1       8.556   7.746   2.785  1.00  0.00     0.029 A 
ATOM     43  C   UNL     1       8.860   8.832   3.715  1.00  0.00     0.049 A 
ATOM     44  H   UNL     1       9.539   8.665   5.676  1.00  0.00     0.167 HD
ATOM     45  C   UNL     1      11.021   8.136   9.780  1.00  0.00     0.031 A 
ATOM     46  C   UNL     1       8.755  10.148   3.447  1.00  0.00     0.031 A 
ATOM     47  C   UNL     1      10.995   9.560   9.562  1.00  0.00     0.049 A 
ATOM     48  C   UNL     1       9.105  11.143   4.520  1.00  0.00     0.074 A 
ATOM     49  C   UNL     1      11.383  10.571  10.423  1.00  0.00     0.029 A 
ATOM     50  N   UNL     1      10.541  10.175   8.403  1.00  0.00    -0.354 N 
ATOM     51  N   UNL     1       9.558  10.927   5.733  1.00  0.00    -0.248 NA
ATOM     52  C   UNL     1       8.937  12.563   4.183  1.00  0.00     0.031 C 
ATOM     53  C   UNL     1      11.093  11.797   9.814  1.00  0.00     0.029 A 
ATOM     54  C   UNL     1      10.606  11.552   8.540  1.00  0.00     0.049 A 
ATOM     55  H   UNL     1      10.221   9.702   7.601  1.00  0.00     0.167 HD
ATOM     56  C   UNL     1       9.765  12.185   6.290  1.00  0.00     0.074 A 
ATOM     57  C   UNL     1       9.397  13.153   5.277  1.00  0.00     0.031 C 
ATOM     58  C   UNL     1      10.226  12.508   7.525  1.00  0.00     0.031 A 
BRANCH  45  59
ATOM     59  C   UNL     1      11.471   7.607  11.120  1.00  0.00    -0.014 A 
ATOM     60  C   UNL     1      12.625   6.810  11.247  1.00  0.00     0.010 A 
ATOM     61  C   UNL     1      10.720   7.901  12.273  1.00  0.00     0.010 A 
ATOM     62  C   UNL     1      12.975   6.258  12.482  1.00  0.00     0.020 A 
ATOM     63  C   UNL     1      11.090   7.385  13.519  1.00  0.00     0.020 A 
ATOM     64  C   UNL     1      12.199   6.543  13.610  1.00  0.00     0.054 A 
BRANCH  64  65
ATOM     65  S   UNL     1      12.662   5.792  15.194  1.00  0.00     0.124 S 
ATOM     66  O   UNL     1      12.335   4.386  14.967  1.00  0.00    -0.237 OA
ATOM     67  O   UNL     1      14.087   6.097  15.288  1.00  0.00    -0.237 OA
ATOM     68  O   UNL     1      11.814   6.478  16.166  1.00  0.00    -0.744 OA
ENDBRANCH  64  65
ENDBRANCH  45  59
BRANCH  46  69
ATOM     69  C   UNL     1       8.318  10.593   2.096  1.00  0.00    -0.014 A 
ATOM     70  C   UNL     1       9.225  11.237   1.236  1.00  0.00     0.010 A 
ATOM     71  C   UNL     1       7.007  10.347   1.648  1.00  0.00     0.010 A 
ATOM     72  C   UNL     1       8.828  11.630  -0.044  1.00  0.00     0.020 A 
ATOM     73  C   UNL     1       6.616  10.709   0.356  1.00  0.00     0.020 A 
ATOM     74  C   UNL     1       7.530  11.353  -0.480  1.00  0.00     0.054 A 
BRANCH  74  75
ATOM     75  S   UNL     1       7.069  11.805  -2.176  1.00  0.00     0.124 S 
ATOM     76  O   UNL     1       7.071  13.263  -2.115  1.00  0.00    -0.237 OA
ATOM     77  O   UNL     1       8.143  11.202  -2.961  1.00  0.00    -0.237 OA
ATOM     78  O   UNL     1       5.756  11.188  -2.351  1.00  0.00    -0.744 OA
ENDBRANCH  74  75
ENDBRANCH  46  69
BRANCH  58  79
ATOM     79  C   UNL     1      10.402  13.973   7.841  1.00  0.00    -0.014 A 
ATOM     80  C   UNL     1       9.299  14.833   7.990  1.00  0.00     0.010 A 
ATOM     81  C   UNL     1      11.697  14.484   8.045  1.00  0.00     0.010 A 
ATOM     82  C   UNL     1       9.492  16.182   8.302  1.00  0.00     0.020 A 
ATOM     83  C   UNL     1      11.892  15.822   8.394  1.00  0.00     0.020 A 
ATOM     84  C   UNL     1      10.787  16.667   8.507  1.00  0.00     0.054 A 
BRANCH  84  85
ATOM     85  S   UNL     1      11.004  18.410   8.959  1.00  0.00     0.124 S 
ATOM     86  O   UNL     1      10.636  19.094   7.722  1.00  0.00    -0.237 OA
ATOM     87  O   UNL     1      10.067  18.569  10.068  1.00  0.00    -0.237 OA
ATOM     88  O   UNL     1      12.416  18.502   9.325  1.00  0.00    -0.744 OA
ENDBRANCH  84  85
ENDBRANCH  58  79
ENDBRANCH  32  33
ENDBRANCH  25  27
ENDBRANCH  24  25
ENDBRANCH  23  24
ENDBRANCH  22  23
ENDBRANCH   1  22
TORSDOF 20
