REMARK SMILES O=C(OCCOCCOC(=O)[C@@H]1CC=CC[C@H]1C(=O)N1CC[NH+](Cc2ccc3c(c2)OCO3)CC1)c1ccc(-c2c3nc(c(-c4ccc(S(=O)(=O)[O-])cc4)c4ccc([nH]4)c(-c4ccc(S(=O)(=O)[O-])cc4)c4nc(c(-c5ccc(S(=O)(=O)[O-])cc5)c5ccc2[nH]5)C=C4)C=C3)cc1
REMARK SMILES IDX 6 1 5 2 4 3 3 4 2 5 1 6 36 7 37 8 95 9 38 10 94 11 39 12
REMARK SMILES IDX 40 13 41 14 88 15 42 16 93 17 87 18 89 19 43 20 92 21 86 22
REMARK SMILES IDX 85 23 44 25 74 26 55 27 73 28 56 29 59 30 72 31 90 32 57 33
REMARK SMILES IDX 58 34 71 36 91 37 60 38 45 39 46 40 54 41 47 42 53 43 48 44
REMARK SMILES IDX 49 45 50 46 51 47 52 48 75 49 76 50 84 51 77 52 83 53 78 54
REMARK SMILES IDX 79 55 80 56 81 57 82 58 61 59 62 60 70 61 63 62 69 63 64 64
REMARK SMILES IDX 65 65 66 66 67 67 68 68 7 69 8 70 9 71 10 72 11 73 12 74
REMARK SMILES IDX 13 75 17 76 14 77 16 78 15 79 18 80 19 81 20 82 21 83 35 84
REMARK SMILES IDX 22 85 34 86 23 87 24 89 25 90 26 91 30 92 27 93 29 94 28 95
REMARK SMILES IDX 31 96 33 97 32 98
REMARK H PARENT 89 24 59 35 23 88
REMARK Flexibility Score: inf
ROOT
ATOM      1  O   UNL     1       4.505   6.843  -2.134  1.00  0.00    -0.374 OA
ENDROOT
BRANCH   1   2
ATOM      2  C   UNL     1       5.253   6.324  -3.231  1.00  0.00     0.202 C 
BRANCH   2   3
ATOM      3  C   UNL     1       4.981   7.087  -4.526  1.00  0.00     0.261 C 
BRANCH   3   4
ATOM      4  O   UNL     1       5.027   8.502  -4.289  1.00  0.00    -0.460 OA
BRANCH   4   5
ATOM      5  C   UNL     1       3.971   9.258  -3.892  1.00  0.00     0.338 C 
ATOM      6  O   UNL     1       4.172  10.387  -3.450  1.00  0.00    -0.246 OA
BRANCH   5   7
ATOM      7  C   UNL     1       2.561   8.825  -4.113  1.00  0.00     0.060 A 
ATOM      8  C   UNL     1       2.034   7.594  -3.711  1.00  0.00     0.016 A 
ATOM      9  C   UNL     1       1.692   9.775  -4.672  1.00  0.00     0.016 A 
ATOM     10  C   UNL     1       0.695   7.286  -3.920  1.00  0.00     0.010 A 
ATOM     11  C   UNL     1       0.334   9.487  -4.844  1.00  0.00     0.010 A 
ATOM     12  C   UNL     1      -0.166   8.233  -4.479  1.00  0.00    -0.014 A 
BRANCH  12  13
ATOM     13  C   UNL     1      -1.579   7.855  -4.693  1.00  0.00     0.031 A 
ATOM     14  C   UNL     1      -2.048   7.526  -6.074  1.00  0.00     0.074 A 
ATOM     15  C   UNL     1      -2.388   7.711  -3.627  1.00  0.00     0.049 A 
ATOM     16  N   UNL     1      -3.231   7.137  -6.465  1.00  0.00    -0.248 NA
ATOM     17  C   UNL     1      -1.065   7.668  -7.161  1.00  0.00     0.031 C 
ATOM     18  C   UNL     1      -2.001   7.999  -2.248  1.00  0.00     0.029 A 
ATOM     19  N   UNL     1      -3.670   7.235  -3.520  1.00  0.00    -0.354 N 
ATOM     20  C   UNL     1      -3.155   7.041  -7.847  1.00  0.00     0.074 A 
ATOM     21  C   UNL     1      -1.804   7.394  -8.227  1.00  0.00     0.031 C 
ATOM     22  C   UNL     1      -2.989   7.610  -1.428  1.00  0.00     0.029 A 
ATOM     23  C   UNL     1      -4.085   7.073  -2.217  1.00  0.00     0.049 A 
ATOM     24  H   UNL     1      -4.237   7.030  -4.298  1.00  0.00     0.167 HD
ATOM     25  C   UNL     1      -4.140   6.714  -8.714  1.00  0.00     0.031 A 
ATOM     26  C   UNL     1      -5.212   6.529  -1.718  1.00  0.00     0.031 A 
ATOM     27  C   UNL     1      -5.477   6.382  -8.301  1.00  0.00     0.049 A 
ATOM     28  C   UNL     1      -6.259   6.090  -2.702  1.00  0.00     0.074 A 
ATOM     29  C   UNL     1      -6.593   6.141  -9.080  1.00  0.00     0.029 A 
ATOM     30  N   UNL     1      -5.871   6.226  -6.977  1.00  0.00    -0.354 N 
ATOM     31  N   UNL     1      -6.201   6.089  -4.014  1.00  0.00    -0.248 NA
ATOM     32  C   UNL     1      -7.535   5.620  -2.151  1.00  0.00     0.031 C 
ATOM     33  C   UNL     1      -7.669   5.866  -8.226  1.00  0.00     0.029 A 
ATOM     34  C   UNL     1      -7.210   5.885  -6.917  1.00  0.00     0.049 A 
ATOM     35  H   UNL     1      -5.282   6.341  -6.197  1.00  0.00     0.167 HD
ATOM     36  C   UNL     1      -7.449   5.666  -4.447  1.00  0.00     0.074 A 
ATOM     37  C   UNL     1      -8.213   5.342  -3.256  1.00  0.00     0.031 C 
ATOM     38  C   UNL     1      -7.940   5.594  -5.709  1.00  0.00     0.031 A 
BRANCH  25  39
ATOM     39  C   UNL     1      -3.812   6.795 -10.179  1.00  0.00    -0.014 A 
ATOM     40  C   UNL     1      -2.990   5.838 -10.801  1.00  0.00     0.010 A 
ATOM     41  C   UNL     1      -4.308   7.870 -10.938  1.00  0.00     0.010 A 
ATOM     42  C   UNL     1      -2.637   5.979 -12.147  1.00  0.00     0.020 A 
ATOM     43  C   UNL     1      -3.976   8.001 -12.290  1.00  0.00     0.020 A 
ATOM     44  C   UNL     1      -3.126   7.064 -12.880  1.00  0.00     0.054 A 
BRANCH  44  45
ATOM     45  S   UNL     1      -2.649   7.228 -14.623  1.00  0.00     0.124 S 
ATOM     46  O   UNL     1      -1.259   7.664 -14.515  1.00  0.00    -0.237 OA
ATOM     47  O   UNL     1      -2.844   5.875 -15.138  1.00  0.00    -0.237 OA
ATOM     48  O   UNL     1      -3.577   8.228 -15.145  1.00  0.00    -0.744 OA
ENDBRANCH  44  45
ENDBRANCH  25  39
BRANCH  26  49
ATOM     49  C   UNL     1      -5.418   6.393  -0.244  1.00  0.00    -0.014 A 
ATOM     50  C   UNL     1      -5.546   5.125   0.353  1.00  0.00     0.010 A 
ATOM     51  C   UNL     1      -5.487   7.533   0.579  1.00  0.00     0.010 A 
ATOM     52  C   UNL     1      -5.763   5.001   1.732  1.00  0.00     0.020 A 
ATOM     53  C   UNL     1      -5.665   7.413   1.961  1.00  0.00     0.020 A 
ATOM     54  C   UNL     1      -5.823   6.148   2.528  1.00  0.00     0.054 A 
BRANCH  54  55
ATOM     55  S   UNL     1      -6.071   5.982   4.319  1.00  0.00     0.124 S 
ATOM     56  O   UNL     1      -7.519   5.826   4.410  1.00  0.00    -0.237 OA
ATOM     57  O   UNL     1      -5.286   4.795   4.649  1.00  0.00    -0.237 OA
ATOM     58  O   UNL     1      -5.540   7.236   4.850  1.00  0.00    -0.744 OA
ENDBRANCH  54  55
ENDBRANCH  26  49
BRANCH  38  59
ATOM     59  C   UNL     1      -9.378   5.182  -5.843  1.00  0.00    -0.014 A 
ATOM     60  C   UNL     1     -10.411   6.066  -5.482  1.00  0.00     0.010 A 
ATOM     61  C   UNL     1      -9.698   3.915  -6.359  1.00  0.00     0.010 A 
ATOM     62  C   UNL     1     -11.745   5.672  -5.594  1.00  0.00     0.020 A 
ATOM     63  C   UNL     1     -11.033   3.527  -6.495  1.00  0.00     0.020 A 
ATOM     64  C   UNL     1     -12.046   4.402  -6.094  1.00  0.00     0.054 A 
BRANCH  64  65
ATOM     65  S   UNL     1     -13.786   3.918  -6.249  1.00  0.00     0.124 S 
ATOM     66  O   UNL     1     -14.144   3.627  -4.864  1.00  0.00    -0.237 OA
ATOM     67  O   UNL     1     -14.403   5.112  -6.822  1.00  0.00    -0.237 OA
ATOM     68  O   UNL     1     -13.743   2.759  -7.139  1.00  0.00    -0.744 OA
ENDBRANCH  64  65
ENDBRANCH  38  59
ENDBRANCH  12  13
ENDBRANCH   5   7
ENDBRANCH   4   5
ENDBRANCH   3   4
ENDBRANCH   2   3
ENDBRANCH   1   2
BRANCH   1  69
ATOM     69  C   UNL     1       5.244   7.651  -1.220  1.00  0.00     0.202 C 
BRANCH  69  70
ATOM     70  C   UNL     1       5.400   6.916   0.111  1.00  0.00     0.261 C 
BRANCH  70  71
ATOM     71  O   UNL     1       5.853   5.568  -0.121  1.00  0.00    -0.463 OA
BRANCH  71  72
ATOM     72  C   UNL     1       4.852   4.651  -0.268  1.00  0.00     0.310 C 
ATOM     73  O   UNL     1       3.675   4.874  -0.028  1.00  0.00    -0.252 OA
BRANCH  72  74
ATOM     74  C   UNL     1       5.367   3.287  -0.708  1.00  0.00     0.115 C 
ATOM     75  C   UNL     1       6.869   3.302  -1.062  1.00  0.00     0.043 C 
ATOM     76  C   UNL     1       4.581   2.723  -1.902  1.00  0.00     0.097 C 
ATOM     77  C   UNL     1       7.344   2.021  -1.688  1.00  0.00    -0.030 C 
ATOM     78  C   UNL     1       5.020   1.282  -2.224  1.00  0.00     0.041 C 
ATOM     79  C   UNL     1       6.509   1.104  -2.195  1.00  0.00    -0.030 C 
BRANCH  76  80
ATOM     80  C   UNL     1       3.051   2.751  -1.948  1.00  0.00     0.227 C 
ATOM     81  O   UNL     1       2.505   3.257  -2.934  1.00  0.00    -0.275 OA
ATOM     82  N   UNL     1       2.354   1.961  -1.044  1.00  0.00    -0.331 N 
ATOM     83  C   UNL     1       1.086   1.405  -1.508  1.00  0.00     0.181 C 
ATOM     84  C   UNL     1       2.380   2.245   0.387  1.00  0.00     0.181 C 
ATOM     85  C   UNL     1       0.558   0.264  -0.612  1.00  0.00     0.284 C 
ATOM     86  C   UNL     1       1.886   1.074   1.251  1.00  0.00     0.284 C 
ATOM     87  N   UNL     1       0.616   0.462   0.845  1.00  0.00    -0.328 N 
ATOM     88  H   UNL     1       0.604  -0.474   1.251  1.00  0.00     0.348 HD
BRANCH  87  89
ATOM     89  C   UNL     1      -0.588   1.042   1.464  1.00  0.00     0.299 C 
BRANCH  89  90
ATOM     90  C   UNL     1      -0.848   2.504   1.190  1.00  0.00     0.010 A 
ATOM     91  C   UNL     1      -1.483   2.902  -0.008  1.00  0.00     0.013 A 
ATOM     92  C   UNL     1      -0.371   3.483   2.080  1.00  0.00     0.060 A 
ATOM     93  C   UNL     1      -1.503   4.243  -0.397  1.00  0.00     0.051 A 
ATOM     94  C   UNL     1      -0.419   4.798   1.680  1.00  0.00     0.166 A 
ATOM     95  C   UNL     1      -0.934   5.160   0.459  1.00  0.00     0.165 A 
ATOM     96  O   UNL     1       0.084   5.858   2.369  1.00  0.00    -0.454 OA
ATOM     97  O   UNL     1      -0.771   6.484   0.212  1.00  0.00    -0.454 OA
ATOM     98  C   UNL     1      -0.264   6.936   1.477  1.00  0.00     0.468 C 
ENDBRANCH  89  90
ENDBRANCH  87  89
ENDBRANCH  76  80
ENDBRANCH  72  74
ENDBRANCH  71  72
ENDBRANCH  70  71
ENDBRANCH  69  70
ENDBRANCH   1  69
TORSDOF 20
