REMARK SMILES Nc1ccc(Cl)c(SC[C@H]2CC[C@H](C(=O)OCCOCCOC(=O)c3ccc(-c4c5nc(c(-c6ccc(S(=O)(=O)[O-])cc6)c6ccc([nH]6)c(-c6ccc(S(=O)(=O)[O-])cc6)c6nc(c(-c7ccc(S(=O)(=O)[O-])cc7)c7ccc4[nH]7)C=C6)C=C5)cc3)O2)c1
REMARK SMILES IDX 18 1 17 2 16 3 14 4 15 5 13 6 10 7 11 8 85 9 12 10 9 11 8 12
REMARK SMILES IDX 7 13 2 14 3 15 86 16 4 17 5 18 6 19 1 20 19 23 20 24 21 25
REMARK SMILES IDX 22 26 23 27 24 28 25 29 26 30 84 31 27 32 83 33 28 34 29 35
REMARK SMILES IDX 30 36 77 37 31 38 82 39 76 40 78 41 32 42 81 43 75 44 74 45
REMARK SMILES IDX 33 47 63 48 44 49 62 50 45 51 48 52 61 53 79 54 46 55 47 56
REMARK SMILES IDX 60 58 80 59 49 60 34 61 35 62 43 63 36 64 42 65 37 66 38 67
REMARK SMILES IDX 39 68 40 69 41 70 64 71 65 72 73 73 66 74 72 75 67 76 68 77
REMARK SMILES IDX 69 78 70 79 71 80 50 81 51 82 59 83 52 84 58 85 53 86 54 87
REMARK SMILES IDX 55 88 56 89 57 90
REMARK H PARENT 1 21 1 22 78 46 48 57
REMARK Flexibility Score: inf
ROOT
ATOM      1  C   UNL     1      -5.864  -2.665  -1.841  1.00  0.00     0.202 C 
ENDROOT
BRANCH   1   2
ATOM      2  C   UNL     1      -4.416  -2.171  -1.822  1.00  0.00     0.261 C 
BRANCH   2   3
ATOM      3  O   UNL     1      -3.607  -2.861  -0.858  1.00  0.00    -0.461 OA
BRANCH   3   4
ATOM      4  C   UNL     1      -3.288  -2.135   0.248  1.00  0.00     0.335 C 
ATOM      5  O   UNL     1      -3.691  -1.000   0.486  1.00  0.00    -0.249 OA
BRANCH   4   6
ATOM      6  C   UNL     1      -2.369  -2.899   1.192  1.00  0.00     0.228 C 
ATOM      7  C   UNL     1      -0.533  -4.321   1.043  1.00  0.00     0.129 C 
ATOM      8  C   UNL     1      -1.745  -5.213   1.232  1.00  0.00     0.036 C 
ATOM      9  O   UNL     1      -1.062  -3.060   0.627  1.00  0.00    -0.362 OA
ATOM     10  C   UNL     1      -2.847  -4.271   1.648  1.00  0.00     0.047 C 
BRANCH   7  11
ATOM     11  C   UNL     1       0.435  -4.212   2.243  1.00  0.00     0.107 C 
BRANCH  11  12
ATOM     12  S   UNL     1      -0.017  -3.192   3.708  1.00  0.00    -0.122 SA
BRANCH  12  13
ATOM     13  C   UNL     1       0.096  -1.468   3.157  1.00  0.00     0.028 A 
ATOM     14  C   UNL     1       0.561   0.189   1.404  1.00  0.00     0.033 A 
ATOM     15  C   UNL     1       0.066   1.199   2.221  1.00  0.00     0.027 A 
ATOM     16  C   UNL     1       0.641  -1.114   1.912  1.00  0.00     0.042 A 
ATOM     17  C   UNL     1      -0.425   0.896   3.490  1.00  0.00     0.024 A 
ATOM     18  C   UNL     1      -0.427  -0.427   3.951  1.00  0.00     0.054 A 
ATOM     19  Cl  UNL     1      -1.109  -0.692   5.523  1.00  0.00    -0.083 Cl
BRANCH  14  20
ATOM     20  N   UNL     1       1.084   0.483   0.153  1.00  0.00    -0.399 N 
ATOM     21  H   UNL     1       1.026   1.400  -0.202  1.00  0.00     0.156 HD
ATOM     22  H   UNL     1       1.514  -0.224  -0.380  1.00  0.00     0.156 HD
ENDBRANCH  14  20
ENDBRANCH  12  13
ENDBRANCH  11  12
ENDBRANCH   7  11
ENDBRANCH   4   6
ENDBRANCH   3   4
ENDBRANCH   2   3
ENDBRANCH   1   2
BRANCH   1  23
ATOM     23  O   UNL     1      -6.652  -2.423  -0.677  1.00  0.00    -0.374 OA
BRANCH  23  24
ATOM     24  C   UNL     1      -6.447  -3.272   0.450  1.00  0.00     0.202 C 
BRANCH  24  25
ATOM     25  C   UNL     1      -6.974  -4.710   0.342  1.00  0.00     0.261 C 
BRANCH  25  26
ATOM     26  O   UNL     1      -6.243  -5.495  -0.620  1.00  0.00    -0.460 OA
BRANCH  26  27
ATOM     27  C   UNL     1      -6.971  -5.928  -1.678  1.00  0.00     0.338 C 
ATOM     28  O   UNL     1      -8.174  -5.782  -1.856  1.00  0.00    -0.246 OA
BRANCH  27  29
ATOM     29  C   UNL     1      -6.078  -6.458  -2.723  1.00  0.00     0.060 A 
ATOM     30  C   UNL     1      -6.090  -5.829  -3.975  1.00  0.00     0.016 A 
ATOM     31  C   UNL     1      -5.296  -7.593  -2.507  1.00  0.00     0.016 A 
ATOM     32  C   UNL     1      -5.331  -6.345  -5.024  1.00  0.00     0.010 A 
ATOM     33  C   UNL     1      -4.548  -8.119  -3.567  1.00  0.00     0.010 A 
ATOM     34  C   UNL     1      -4.577  -7.510  -4.835  1.00  0.00    -0.014 A 
BRANCH  34  35
ATOM     35  C   UNL     1      -3.889  -8.145  -5.984  1.00  0.00     0.031 A 
ATOM     36  C   UNL     1      -4.532  -9.314  -6.677  1.00  0.00     0.074 A 
ATOM     37  C   UNL     1      -2.699  -7.681  -6.407  1.00  0.00     0.049 A 
ATOM     38  N   UNL     1      -4.068 -10.055  -7.649  1.00  0.00    -0.248 NA
ATOM     39  C   UNL     1      -5.877  -9.695  -6.216  1.00  0.00     0.031 C 
ATOM     40  C   UNL     1      -1.998  -6.523  -5.854  1.00  0.00     0.029 A 
ATOM     41  N   UNL     1      -1.864  -8.139  -7.396  1.00  0.00    -0.354 N 
ATOM     42  C   UNL     1      -5.056 -10.996  -7.912  1.00  0.00     0.074 A 
ATOM     43  C   UNL     1      -6.138 -10.743  -6.985  1.00  0.00     0.031 C 
ATOM     44  C   UNL     1      -0.830  -6.370  -6.502  1.00  0.00     0.029 A 
ATOM     45  C   UNL     1      -0.683  -7.443  -7.484  1.00  0.00     0.049 A 
ATOM     46  H   UNL     1      -2.090  -8.895  -7.986  1.00  0.00     0.167 HD
ATOM     47  C   UNL     1      -5.062 -11.981  -8.842  1.00  0.00     0.031 A 
ATOM     48  C   UNL     1       0.408  -7.664  -8.244  1.00  0.00     0.031 A 
ATOM     49  C   UNL     1      -3.976 -12.242  -9.751  1.00  0.00     0.049 A 
ATOM     50  C   UNL     1       0.423  -8.830  -9.197  1.00  0.00     0.074 A 
ATOM     51  C   UNL     1      -3.897 -13.205 -10.742  1.00  0.00     0.029 A 
ATOM     52  N   UNL     1      -2.776 -11.549  -9.770  1.00  0.00    -0.354 N 
ATOM     53  N   UNL     1      -0.529  -9.696  -9.451  1.00  0.00    -0.248 NA
ATOM     54  C   UNL     1       1.660  -9.053  -9.959  1.00  0.00     0.031 C 
ATOM     55  C   UNL     1      -2.624 -13.135 -11.318  1.00  0.00     0.029 A 
ATOM     56  C   UNL     1      -1.933 -12.090 -10.726  1.00  0.00     0.049 A 
ATOM     57  H   UNL     1      -2.555 -10.786  -9.189  1.00  0.00     0.167 HD
ATOM     58  C   UNL     1      -0.011 -10.556 -10.414  1.00  0.00     0.074 A 
ATOM     59  C   UNL     1       1.331 -10.097 -10.707  1.00  0.00     0.031 C 
ATOM     60  C   UNL     1      -0.595 -11.630 -11.001  1.00  0.00     0.031 A 
BRANCH  47  61
ATOM     61  C   UNL     1      -6.267 -12.880  -8.897  1.00  0.00    -0.014 A 
ATOM     62  C   UNL     1      -7.494 -12.425  -9.411  1.00  0.00     0.010 A 
ATOM     63  C   UNL     1      -6.158 -14.215  -8.466  1.00  0.00     0.010 A 
ATOM     64  C   UNL     1      -8.600 -13.280  -9.460  1.00  0.00     0.020 A 
ATOM     65  C   UNL     1      -7.254 -15.079  -8.535  1.00  0.00     0.020 A 
ATOM     66  C   UNL     1      -8.473 -14.600  -9.017  1.00  0.00     0.054 A 
BRANCH  66  67
ATOM     67  S   UNL     1      -9.919 -15.692  -9.109  1.00  0.00     0.124 S 
ATOM     68  O   UNL     1     -10.754 -15.175  -8.027  1.00  0.00    -0.237 OA
ATOM     69  O   UNL     1     -10.420 -15.448 -10.459  1.00  0.00    -0.237 OA
ATOM     70  O   UNL     1      -9.364 -17.024  -8.884  1.00  0.00    -0.744 OA
ENDBRANCH  66  67
ENDBRANCH  47  61
BRANCH  48  71
ATOM     71  C   UNL     1       1.601  -6.785  -8.100  1.00  0.00    -0.014 A 
ATOM     72  C   UNL     1       1.969  -5.898  -9.126  1.00  0.00     0.010 A 
ATOM     73  C   UNL     1       2.372  -6.830  -6.923  1.00  0.00     0.010 A 
ATOM     74  C   UNL     1       3.091  -5.077  -8.980  1.00  0.00     0.020 A 
ATOM     75  C   UNL     1       3.479  -5.992  -6.764  1.00  0.00     0.020 A 
ATOM     76  C   UNL     1       3.836  -5.126  -7.798  1.00  0.00     0.054 A 
BRANCH  76  77
ATOM     77  S   UNL     1       5.249  -4.005  -7.604  1.00  0.00     0.124 S 
ATOM     78  O   UNL     1       6.248  -4.623  -8.470  1.00  0.00    -0.237 OA
ATOM     79  O   UNL     1       4.707  -2.731  -8.070  1.00  0.00    -0.237 OA
ATOM     80  O   UNL     1       5.536  -4.064  -6.173  1.00  0.00    -0.744 OA
ENDBRANCH  76  77
ENDBRANCH  48  71
BRANCH  60  81
ATOM     81  C   UNL     1       0.205 -12.384 -12.030  1.00  0.00    -0.014 A 
ATOM     82  C   UNL     1       1.261 -13.230 -11.646  1.00  0.00     0.010 A 
ATOM     83  C   UNL     1      -0.153 -12.306 -13.388  1.00  0.00     0.010 A 
ATOM     84  C   UNL     1       1.954 -13.973 -12.606  1.00  0.00     0.020 A 
ATOM     85  C   UNL     1       0.522 -13.067 -14.347  1.00  0.00     0.020 A 
ATOM     86  C   UNL     1       1.578 -13.890 -13.950  1.00  0.00     0.054 A 
BRANCH  86  87
ATOM     87  S   UNL     1       2.450 -14.916 -15.166  1.00  0.00     0.124 S 
ATOM     88  O   UNL     1       3.737 -14.232 -15.273  1.00  0.00    -0.237 OA
ATOM     89  O   UNL     1       2.486 -16.223 -14.515  1.00  0.00    -0.237 OA
ATOM     90  O   UNL     1       1.604 -14.840 -16.354  1.00  0.00    -0.744 OA
ENDBRANCH  86  87
ENDBRANCH  60  81
ENDBRANCH  34  35
ENDBRANCH  27  29
ENDBRANCH  26  27
ENDBRANCH  25  26
ENDBRANCH  24  25
ENDBRANCH  23  24
ENDBRANCH   1  23
TORSDOF 21
