REMARK SMILES CN(C)c1c(Cl)cccc1NS(=O)(=O)c1ccc(F)c(C(=O)OCCOCCOC(=O)c2ccc(-c3c4nc(c(-c5ccc(S(=O)(=O)[O-])cc5)c5ccc([nH]5)c(-c5ccc(S(=O)(=O)[O-])cc5)c5nc(c(-c6ccc(S(=O)(=O)[O-])cc6)c6ccc3[nH]6)C=C5)C=C4)cc2)c1
REMARK SMILES IDX 25 1 24 2 23 3 21 4 22 5 20 6 15 7 16 8 92 9 17 10 18 11
REMARK SMILES IDX 19 12 12 13 13 14 14 15 11 16 10 18 4 19 5 20 6 21 7 22 9 23
REMARK SMILES IDX 8 24 2 25 1 26 3 27 26 28 27 29 28 30 29 31 30 32 31 33
REMARK SMILES IDX 32 34 33 35 91 36 34 37 90 38 35 39 36 40 37 41 84 42 38 43
REMARK SMILES IDX 89 44 83 45 85 46 39 47 88 48 82 49 81 50 40 52 70 53 51 54
REMARK SMILES IDX 69 55 52 56 55 57 68 58 86 59 53 60 54 61 67 63 87 64 56 65
REMARK SMILES IDX 41 66 42 67 50 68 43 69 49 70 44 71 45 72 46 73 47 74 48 75
REMARK SMILES IDX 71 76 72 77 80 78 73 79 79 80 74 81 75 82 76 83 77 84 78 85
REMARK SMILES IDX 57 86 58 87 66 88 59 89 65 90 60 91 61 92 62 93 63 94 64 95
REMARK H PARENT 11 17 85 51 55 62
REMARK Flexibility Score: inf
ROOT
ATOM      1  C   UNL     1      -0.253  -0.743   9.818  1.00  0.00     0.202 C 
ENDROOT
BRANCH   1   2
ATOM      2  C   UNL     1       0.802   0.140   9.148  1.00  0.00     0.261 C 
BRANCH   2   3
ATOM      3  O   UNL     1       0.200   1.332   8.620  1.00  0.00    -0.460 OA
BRANCH   3   4
ATOM      4  C   UNL     1       0.368   1.506   7.293  1.00  0.00     0.341 C 
ATOM      5  O   UNL     1       1.080   0.855   6.543  1.00  0.00    -0.246 OA
BRANCH   4   6
ATOM      6  C   UNL     1      -0.603   2.477   6.773  1.00  0.00     0.097 A 
ATOM      7  C   UNL     1      -1.995   3.103   4.907  1.00  0.00     0.088 A 
ATOM      8  C   UNL     1      -2.231   4.355   5.490  1.00  0.00     0.025 A 
ATOM      9  C   UNL     1      -1.248   2.137   5.579  1.00  0.00     0.041 A 
ATOM     10  C   UNL     1      -1.644   4.657   6.724  1.00  0.00     0.041 A 
ATOM     11  C   UNL     1      -0.813   3.725   7.351  1.00  0.00     0.137 A 
ATOM     12  F   UNL     1      -0.188   4.079   8.481  1.00  0.00    -0.206 F 
BRANCH   7  13
ATOM     13  S   UNL     1      -2.577   2.735   3.276  1.00  0.00     0.261 S 
ATOM     14  O   UNL     1      -3.520   3.763   2.902  1.00  0.00    -0.201 OA
ATOM     15  O   UNL     1      -2.987   1.342   3.284  1.00  0.00    -0.201 OA
BRANCH  13  16
ATOM     16  N   UNL     1      -1.275   2.854   2.188  1.00  0.00    -0.277 N 
ATOM     17  H   UNL     1      -1.468   3.130   1.263  1.00  0.00     0.180 HD
BRANCH  16  18
ATOM     18  C   UNL     1       0.107   2.571   2.542  1.00  0.00     0.074 A 
ATOM     19  C   UNL     1       0.851   1.687   1.700  1.00  0.00     0.080 A 
ATOM     20  C   UNL     1       2.193   1.422   2.081  1.00  0.00     0.066 A 
ATOM     21  Cl  UNL     1       3.299   0.465   1.147  1.00  0.00    -0.082 Cl
ATOM     22  C   UNL     1       2.757   2.017   3.217  1.00  0.00     0.023 A 
ATOM     23  C   UNL     1       0.748   3.282   3.558  1.00  0.00     0.029 A 
ATOM     24  C   UNL     1       2.046   2.963   3.940  1.00  0.00     0.004 A 
BRANCH  19  25
ATOM     25  N   UNL     1       0.234   1.209   0.521  1.00  0.00    -0.375 N 
ATOM     26  C   UNL     1       0.498  -0.141   0.035  1.00  0.00     0.143 C 
ATOM     27  C   UNL     1      -0.002   2.228  -0.511  1.00  0.00     0.143 C 
ENDBRANCH  19  25
ENDBRANCH  16  18
ENDBRANCH  13  16
ENDBRANCH   7  13
ENDBRANCH   4   6
ENDBRANCH   3   4
ENDBRANCH   2   3
ENDBRANCH   1   2
BRANCH   1  28
ATOM     28  O   UNL     1      -1.257  -1.304   8.970  1.00  0.00    -0.374 OA
BRANCH  28  29
ATOM     29  C   UNL     1      -2.276  -0.440   8.472  1.00  0.00     0.202 C 
BRANCH  29  30
ATOM     30  C   UNL     1      -3.384  -0.002   9.440  1.00  0.00     0.261 C 
BRANCH  30  31
ATOM     31  O   UNL     1      -2.888   0.711  10.583  1.00  0.00    -0.460 OA
BRANCH  31  32
ATOM     32  C   UNL     1      -2.919  -0.006  11.734  1.00  0.00     0.338 C 
ATOM     33  O   UNL     1      -3.370  -1.130  11.886  1.00  0.00    -0.246 OA
BRANCH  32  34
ATOM     34  C   UNL     1      -2.160   0.683  12.795  1.00  0.00     0.060 A 
ATOM     35  C   UNL     1      -1.198  -0.071  13.480  1.00  0.00     0.016 A 
ATOM     36  C   UNL     1      -2.443   1.994  13.183  1.00  0.00     0.016 A 
ATOM     37  C   UNL     1      -0.569   0.457  14.602  1.00  0.00     0.010 A 
ATOM     38  C   UNL     1      -1.813   2.522  14.316  1.00  0.00     0.010 A 
ATOM     39  C   UNL     1      -0.911   1.736  15.058  1.00  0.00    -0.014 A 
BRANCH  39  40
ATOM     40  C   UNL     1      -0.453   2.158  16.404  1.00  0.00     0.031 A 
ATOM     41  C   UNL     1      -1.399   2.026  17.569  1.00  0.00     0.074 A 
ATOM     42  C   UNL     1       0.809   2.579  16.602  1.00  0.00     0.049 A 
ATOM     43  N   UNL     1      -1.191   2.273  18.836  1.00  0.00    -0.248 NA
ATOM     44  C   UNL     1      -2.758   1.549  17.264  1.00  0.00     0.031 C 
ATOM     45  C   UNL     1       1.829   2.712  15.562  1.00  0.00     0.029 A 
ATOM     46  N   UNL     1       1.449   2.962  17.753  1.00  0.00    -0.354 N 
ATOM     47  C   UNL     1      -2.390   1.986  19.479  1.00  0.00     0.074 A 
ATOM     48  C   UNL     1      -3.331   1.580  18.458  1.00  0.00     0.031 C 
ATOM     49  C   UNL     1       2.971   3.143  16.125  1.00  0.00     0.029 A 
ATOM     50  C   UNL     1       2.757   3.336  17.559  1.00  0.00     0.049 A 
ATOM     51  H   UNL     1       1.013   2.967  18.636  1.00  0.00     0.167 HD
ATOM     52  C   UNL     1      -2.681   2.044  20.801  1.00  0.00     0.031 A 
ATOM     53  C   UNL     1       3.675   3.788  18.435  1.00  0.00     0.031 A 
ATOM     54  C   UNL     1      -1.748   2.458  21.815  1.00  0.00     0.049 A 
ATOM     55  C   UNL     1       3.313   3.896  19.893  1.00  0.00     0.074 A 
ATOM     56  C   UNL     1      -1.942   2.538  23.183  1.00  0.00     0.029 A 
ATOM     57  N   UNL     1      -0.445   2.867  21.571  1.00  0.00    -0.354 N 
ATOM     58  N   UNL     1       2.183   3.593  20.488  1.00  0.00    -0.248 NA
ATOM     59  C   UNL     1       4.358   4.391  20.801  1.00  0.00     0.031 C 
ATOM     60  C   UNL     1      -0.773   3.045  23.761  1.00  0.00     0.029 A 
ATOM     61  C   UNL     1       0.169   3.223  22.760  1.00  0.00     0.049 A 
ATOM     62  H   UNL     1      -0.020   2.899  20.684  1.00  0.00     0.167 HD
ATOM     63  C   UNL     1       2.390   3.835  21.842  1.00  0.00     0.074 A 
ATOM     64  C   UNL     1       3.757   4.295  21.979  1.00  0.00     0.031 C 
ATOM     65  C   UNL     1       1.529   3.685  22.880  1.00  0.00     0.031 A 
BRANCH  52  66
ATOM     66  C   UNL     1      -4.082   1.682  21.218  1.00  0.00    -0.014 A 
ATOM     67  C   UNL     1      -4.533   0.350  21.180  1.00  0.00     0.010 A 
ATOM     68  C   UNL     1      -4.951   2.686  21.681  1.00  0.00     0.010 A 
ATOM     69  C   UNL     1      -5.842   0.036  21.557  1.00  0.00     0.020 A 
ATOM     70  C   UNL     1      -6.252   2.372  22.084  1.00  0.00     0.020 A 
ATOM     71  C   UNL     1      -6.695   1.050  22.002  1.00  0.00     0.054 A 
BRANCH  71  72
ATOM     72  S   UNL     1      -8.384   0.614  22.500  1.00  0.00     0.124 S 
ATOM     73  O   UNL     1      -9.021   0.362  21.210  1.00  0.00    -0.237 OA
ATOM     74  O   UNL     1      -8.178  -0.563  23.339  1.00  0.00    -0.237 OA
ATOM     75  O   UNL     1      -8.856   1.804  23.205  1.00  0.00    -0.744 OA
ENDBRANCH  71  72
ENDBRANCH  52  66
BRANCH  53  76
ATOM     76  C   UNL     1       5.028   4.178  17.955  1.00  0.00    -0.014 A 
ATOM     77  C   UNL     1       6.158   3.406  18.276  1.00  0.00     0.010 A 
ATOM     78  C   UNL     1       5.190   5.330  17.163  1.00  0.00     0.010 A 
ATOM     79  C   UNL     1       7.426   3.786  17.826  1.00  0.00     0.020 A 
ATOM     80  C   UNL     1       6.452   5.699  16.690  1.00  0.00     0.020 A 
ATOM     81  C   UNL     1       7.565   4.929  17.034  1.00  0.00     0.054 A 
BRANCH  81  82
ATOM     82  S   UNL     1       9.211   5.373  16.413  1.00  0.00     0.124 S 
ATOM     83  O   UNL     1       9.854   5.906  17.610  1.00  0.00    -0.237 OA
ATOM     84  O   UNL     1       9.724   4.092  15.935  1.00  0.00    -0.237 OA
ATOM     85  O   UNL     1       8.928   6.351  15.365  1.00  0.00    -0.744 OA
ENDBRANCH  81  82
ENDBRANCH  53  76
BRANCH  65  86
ATOM     86  C   UNL     1       2.048   3.990  24.260  1.00  0.00    -0.014 A 
ATOM     87  C   UNL     1       2.301   5.310  24.673  1.00  0.00     0.010 A 
ATOM     88  C   UNL     1       2.249   2.937  25.172  1.00  0.00     0.010 A 
ATOM     89  C   UNL     1       2.784   5.568  25.959  1.00  0.00     0.020 A 
ATOM     90  C   UNL     1       2.705   3.193  26.468  1.00  0.00     0.020 A 
ATOM     91  C   UNL     1       2.988   4.507  26.847  1.00  0.00     0.054 A 
BRANCH  91  92
ATOM     92  S   UNL     1       3.593   4.868  28.518  1.00  0.00     0.124 S 
ATOM     93  O   UNL     1       5.004   5.156  28.274  1.00  0.00    -0.237 OA
ATOM     94  O   UNL     1       2.778   6.013  28.916  1.00  0.00    -0.237 OA
ATOM     95  O   UNL     1       3.327   3.635  29.256  1.00  0.00    -0.744 OA
ENDBRANCH  91  92
ENDBRANCH  65  86
ENDBRANCH  39  40
ENDBRANCH  32  34
ENDBRANCH  31  32
ENDBRANCH  30  31
ENDBRANCH  29  30
ENDBRANCH  28  29
ENDBRANCH   1  28
TORSDOF 21
