REMARK SMILES Cc1cc(C(=O)Nc2c(Cl)cc(Cl)cc2C(=O)OCCOCCOC(=O)c2ccc(-c3c4nc(c(-c5ccc(S(=O)(=O)[O-])cc5)c5ccc([nH]5)c(-c5ccc(S(=O)(=O)[O-])cc5)c5nc(c(-c6ccc(S(=O)(=O)[O-])cc6)c6ccc3[nH]6)C=C5)C=C4)cc2)c(C)s1
REMARK SMILES IDX 22 1 21 2 20 3 19 4 18 5 16 6 17 7 15 8 8 9 9 10 10 11 11 12
REMARK SMILES IDX 14 13 12 14 13 15 7 16 5 17 6 18 4 20 1 21 2 22 3 23 89 24
REMARK SMILES IDX 87 25 88 26 23 27 24 28 25 29 26 30 27 31 28 32 86 33 29 34
REMARK SMILES IDX 85 35 30 36 31 37 32 38 79 39 33 40 84 41 78 42 80 43 34 44
REMARK SMILES IDX 83 45 77 46 76 47 35 49 65 50 46 51 64 52 47 53 50 54 63 55
REMARK SMILES IDX 81 56 48 57 49 58 62 60 82 61 51 62 36 63 37 64 45 65 38 66
REMARK SMILES IDX 44 67 39 68 40 69 41 70 42 71 43 72 66 73 67 74 75 75 68 76
REMARK SMILES IDX 74 77 69 78 70 79 71 80 72 81 73 82 52 83 53 84 61 85 54 86
REMARK SMILES IDX 60 87 55 88 56 89 57 90 58 91 59 92
REMARK H PARENT 7 19 80 48 50 59
REMARK Flexibility Score: inf
ROOT
ATOM      1  C   UNL     1      -0.704  -5.343   3.814  1.00  0.00     0.202 C 
ENDROOT
BRANCH   1   2
ATOM      2  O   UNL     1      -0.085  -6.605   4.066  1.00  0.00    -0.374 OA
BRANCH   2   3
ATOM      3  C   UNL     1       1.206  -6.829   3.498  1.00  0.00     0.202 C 
BRANCH   3   4
ATOM      4  C   UNL     1       1.230  -7.263   2.030  1.00  0.00     0.261 C 
BRANCH   4   5
ATOM      5  O   UNL     1       0.658  -6.254   1.175  1.00  0.00    -0.460 OA
BRANCH   5   6
ATOM      6  C   UNL     1      -0.564  -6.557   0.682  1.00  0.00     0.340 C 
ATOM      7  O   UNL     1      -1.139  -7.631   0.799  1.00  0.00    -0.246 OA
BRANCH   6   8
ATOM      8  C   UNL     1      -1.228  -5.394   0.030  1.00  0.00     0.086 A 
ATOM      9  C   UNL     1      -0.589  -4.266  -0.527  1.00  0.00     0.075 A 
ATOM     10  C   UNL     1      -1.360  -3.452  -1.382  1.00  0.00     0.067 A 
ATOM     11  Cl  UNL     1      -0.640  -2.393  -2.550  1.00  0.00    -0.082 Cl
ATOM     12  C   UNL     1      -2.756  -3.548  -1.405  1.00  0.00     0.043 A 
ATOM     13  C   UNL     1      -2.634  -5.474   0.016  1.00  0.00     0.038 A 
ATOM     14  C   UNL     1      -3.389  -4.518  -0.646  1.00  0.00     0.043 A 
ATOM     15  Cl  UNL     1      -5.104  -4.571  -0.561  1.00  0.00    -0.084 Cl
BRANCH   9  16
ATOM     16  N   UNL     1       0.746  -3.973  -0.162  1.00  0.00    -0.320 N 
ATOM     17  C   UNL     1       1.407  -2.781   0.111  1.00  0.00     0.256 C 
ATOM     18  O   UNL     1       2.613  -2.866   0.346  1.00  0.00    -0.269 OA
ATOM     19  H   UNL     1       1.320  -4.769  -0.085  1.00  0.00     0.170 HD
BRANCH  17  20
ATOM     20  C   UNL     1       0.693  -1.494   0.224  1.00  0.00     0.054 A 
ATOM     21  C   UNL     1      -2.546   0.469   0.382  1.00  0.00     0.056 C 
ATOM     22  C   UNL     1      -1.142  -0.026   0.372  1.00  0.00     0.003 A 
ATOM     23  C   UNL     1      -0.674  -1.293   0.642  1.00  0.00     0.029 A 
ATOM     24  S   UNL     1       0.136   1.026  -0.010  1.00  0.00    -0.145 S 
ATOM     25  C   UNL     1       1.288  -0.251   0.008  1.00  0.00     0.014 A 
ATOM     26  C   UNL     1       2.716   0.126  -0.243  1.00  0.00     0.057 C 
ENDBRANCH  17  20
ENDBRANCH   9  16
ENDBRANCH   6   8
ENDBRANCH   5   6
ENDBRANCH   4   5
ENDBRANCH   3   4
ENDBRANCH   2   3
ENDBRANCH   1   2
BRANCH   1  27
ATOM     27  C   UNL     1      -0.190  -4.144   4.620  1.00  0.00     0.261 C 
BRANCH  27  28
ATOM     28  O   UNL     1       1.148  -3.777   4.242  1.00  0.00    -0.460 OA
BRANCH  28  29
ATOM     29  C   UNL     1       2.092  -4.042   5.175  1.00  0.00     0.338 C 
ATOM     30  O   UNL     1       1.904  -4.487   6.302  1.00  0.00    -0.246 OA
BRANCH  29  31
ATOM     31  C   UNL     1       3.439  -3.912   4.592  1.00  0.00     0.060 A 
ATOM     32  C   UNL     1       4.328  -4.980   4.777  1.00  0.00     0.016 A 
ATOM     33  C   UNL     1       3.851  -2.752   3.933  1.00  0.00     0.016 A 
ATOM     34  C   UNL     1       5.649  -4.870   4.352  1.00  0.00     0.010 A 
ATOM     35  C   UNL     1       5.182  -2.641   3.515  1.00  0.00     0.010 A 
ATOM     36  C   UNL     1       6.095  -3.684   3.755  1.00  0.00    -0.014 A 
BRANCH  36  37
ATOM     37  C   UNL     1       7.543  -3.488   3.508  1.00  0.00     0.031 A 
ATOM     38  C   UNL     1       8.349  -2.676   4.485  1.00  0.00     0.074 A 
ATOM     39  C   UNL     1       8.140  -4.052   2.443  1.00  0.00     0.049 A 
ATOM     40  N   UNL     1       9.618  -2.361   4.451  1.00  0.00    -0.248 NA
ATOM     41  C   UNL     1       7.627  -2.150   5.655  1.00  0.00     0.031 C 
ATOM     42  C   UNL     1       7.475  -4.891   1.447  1.00  0.00     0.029 A 
ATOM     43  N   UNL     1       9.444  -3.995   2.019  1.00  0.00    -0.354 N 
ATOM     44  C   UNL     1       9.847  -1.596   5.589  1.00  0.00     0.074 A 
ATOM     45  C   UNL     1       8.579  -1.470   6.276  1.00  0.00     0.031 C 
ATOM     46  C   UNL     1       8.374  -5.263   0.521  1.00  0.00     0.029 A 
ATOM     47  C   UNL     1       9.668  -4.661   0.839  1.00  0.00     0.049 A 
ATOM     48  H   UNL     1      10.152  -3.523   2.515  1.00  0.00     0.167 HD
ATOM     49  C   UNL     1      11.008  -1.052   6.027  1.00  0.00     0.031 A 
ATOM     50  C   UNL     1      10.782  -4.753   0.086  1.00  0.00     0.031 A 
ATOM     51  C   UNL     1      12.262  -1.159   5.328  1.00  0.00     0.049 A 
ATOM     52  C   UNL     1      12.046  -4.079   0.551  1.00  0.00     0.074 A 
ATOM     53  C   UNL     1      13.496  -0.647   5.689  1.00  0.00     0.029 A 
ATOM     54  N   UNL     1      12.441  -1.816   4.119  1.00  0.00    -0.354 N 
ATOM     55  N   UNL     1      12.252  -3.376   1.640  1.00  0.00    -0.248 NA
ATOM     56  C   UNL     1      13.229  -4.218  -0.309  1.00  0.00     0.031 C 
ATOM     57  C   UNL     1      14.409  -0.947   4.672  1.00  0.00     0.029 A 
ATOM     58  C   UNL     1      13.758  -1.701   3.708  1.00  0.00     0.049 A 
ATOM     59  H   UNL     1      11.735  -2.293   3.626  1.00  0.00     0.167 HD
ATOM     60  C   UNL     1      13.594  -3.010   1.607  1.00  0.00     0.074 A 
ATOM     61  C   UNL     1      14.153  -3.581   0.399  1.00  0.00     0.031 C 
ATOM     62  C   UNL     1      14.300  -2.271   2.499  1.00  0.00     0.031 A 
BRANCH  49  63
ATOM     63  C   UNL     1      10.963  -0.262   7.308  1.00  0.00    -0.014 A 
ATOM     64  C   UNL     1      10.774  -0.896   8.549  1.00  0.00     0.010 A 
ATOM     65  C   UNL     1      11.131   1.135   7.272  1.00  0.00     0.010 A 
ATOM     66  C   UNL     1      10.710  -0.144   9.726  1.00  0.00     0.020 A 
ATOM     67  C   UNL     1      11.095   1.887   8.450  1.00  0.00     0.020 A 
ATOM     68  C   UNL     1      10.865   1.244   9.668  1.00  0.00     0.054 A 
BRANCH  68  69
ATOM     69  S   UNL     1      10.783   2.195  11.210  1.00  0.00     0.124 S 
ATOM     70  O   UNL     1       9.356   2.144  11.520  1.00  0.00    -0.237 OA
ATOM     71  O   UNL     1      11.647   1.430  12.105  1.00  0.00    -0.237 OA
ATOM     72  O   UNL     1      11.292   3.512  10.834  1.00  0.00    -0.744 OA
ENDBRANCH  68  69
ENDBRANCH  49  63
BRANCH  50  73
ATOM     73  C   UNL     1      10.742  -5.498  -1.202  1.00  0.00    -0.014 A 
ATOM     74  C   UNL     1      11.412  -6.724  -1.347  1.00  0.00     0.010 A 
ATOM     75  C   UNL     1      10.009  -4.986  -2.290  1.00  0.00     0.010 A 
ATOM     76  C   UNL     1      11.359  -7.421  -2.559  1.00  0.00     0.020 A 
ATOM     77  C   UNL     1       9.931  -5.692  -3.493  1.00  0.00     0.020 A 
ATOM     78  C   UNL     1      10.614  -6.902  -3.623  1.00  0.00     0.054 A 
BRANCH  78  79
ATOM     79  S   UNL     1      10.504  -7.857  -5.162  1.00  0.00     0.124 S 
ATOM     80  O   UNL     1      11.832  -7.665  -5.735  1.00  0.00    -0.237 OA
ATOM     81  O   UNL     1      10.212  -9.204  -4.677  1.00  0.00    -0.237 OA
ATOM     82  O   UNL     1       9.409  -7.214  -5.885  1.00  0.00    -0.744 OA
ENDBRANCH  78  79
ENDBRANCH  50  73
BRANCH  62  83
ATOM     83  C   UNL     1      15.767  -2.061   2.223  1.00  0.00    -0.014 A 
ATOM     84  C   UNL     1      16.202  -1.202   1.198  1.00  0.00     0.010 A 
ATOM     85  C   UNL     1      16.723  -2.689   3.042  1.00  0.00     0.010 A 
ATOM     86  C   UNL     1      17.568  -1.001   0.977  1.00  0.00     0.020 A 
ATOM     87  C   UNL     1      18.088  -2.469   2.842  1.00  0.00     0.020 A 
ATOM     88  C   UNL     1      18.503  -1.636   1.801  1.00  0.00     0.054 A 
BRANCH  88  89
ATOM     89  S   UNL     1      20.268  -1.325   1.523  1.00  0.00     0.124 S 
ATOM     90  O   UNL     1      20.524  -2.090   0.306  1.00  0.00    -0.237 OA
ATOM     91  O   UNL     1      20.319   0.128   1.374  1.00  0.00    -0.237 OA
ATOM     92  O   UNL     1      20.907  -1.843   2.731  1.00  0.00    -0.744 OA
ENDBRANCH  88  89
ENDBRANCH  62  83
ENDBRANCH  36  37
ENDBRANCH  29  31
ENDBRANCH  28  29
ENDBRANCH  27  28
ENDBRANCH   1  27
TORSDOF 19
