REMARK SMILES C[C@H](NC(=O)N1CC[C@H](C(=O)OCCOCCOC(=O)c2ccc(-c3c4nc(c(-c5ccc(S(=O)(=O)[O-])cc5)c5ccc([nH]5)c(-c5ccc(S(=O)(=O)[O-])cc5)c5nc(c(-c6ccc(S(=O)(=O)[O-])cc6)c6ccc3[nH]6)C=C5)C=C4)cc2)[C@H]1C)c1ccsc1
REMARK SMILES IDX 15 1 14 2 13 3 12 4 10 5 11 6 9 7 6 8 7 9 81 10 8 11 82 12
REMARK SMILES IDX 4 13 3 14 5 16 2 17 1 18 83 19 84 20 87 21 85 22 86 23 16 24
REMARK SMILES IDX 17 25 18 26 19 27 20 28 21 29 22 30 80 31 23 32 79 33 24 34
REMARK SMILES IDX 25 35 26 36 73 37 27 38 78 39 72 40 74 41 28 42 77 43 71 44
REMARK SMILES IDX 70 45 29 47 59 48 40 49 58 50 41 51 44 52 57 53 75 54 42 55
REMARK SMILES IDX 43 56 56 58 76 59 45 60 30 61 31 62 39 63 32 64 38 65 33 66
REMARK SMILES IDX 34 67 35 68 36 69 37 70 60 71 61 72 69 73 62 74 68 75 63 76
REMARK SMILES IDX 64 77 65 78 66 79 67 80 46 81 47 82 55 83 48 84 54 85 49 86
REMARK SMILES IDX 50 87 51 88 52 89 53 90
REMARK H PARENT 3 15 74 46 44 57
REMARK Flexibility Score: inf
ROOT
ATOM      1  O   UNL     1       5.993   3.154  -1.690  1.00  0.00    -0.374 OA
ENDROOT
BRANCH   1   2
ATOM      2  C   UNL     1       6.287   4.542  -1.816  1.00  0.00     0.202 C 
BRANCH   2   3
ATOM      3  C   UNL     1       5.142   5.484  -2.200  1.00  0.00     0.261 C 
BRANCH   3   4
ATOM      4  O   UNL     1       4.010   5.407  -1.317  1.00  0.00    -0.463 OA
BRANCH   4   5
ATOM      5  C   UNL     1       2.880   4.880  -1.873  1.00  0.00     0.311 C 
ATOM      6  O   UNL     1       2.802   4.442  -3.011  1.00  0.00    -0.252 OA
BRANCH   5   7
ATOM      7  C   UNL     1       1.710   4.987  -0.910  1.00  0.00     0.123 C 
ATOM      8  N   UNL     1       0.675   2.831  -0.796  1.00  0.00    -0.321 N 
ATOM      9  C   UNL     1       0.069   3.572  -1.907  1.00  0.00     0.122 C 
ATOM     10  C   UNL     1       1.509   3.755  -0.002  1.00  0.00     0.098 C 
ATOM     11  C   UNL     1       0.389   5.041  -1.679  1.00  0.00     0.039 C 
ATOM     12  C   UNL     1       0.815   4.241   1.280  1.00  0.00     0.032 C 
BRANCH   8  13
ATOM     13  C   UNL     1       1.099   1.562  -1.105  1.00  0.00     0.318 C 
ATOM     14  N   UNL     1       1.080   0.559  -0.214  1.00  0.00    -0.331 N 
ATOM     15  H   UNL     1       1.579  -0.219  -0.552  1.00  0.00     0.165 HD
ATOM     16  O   UNL     1       1.460   1.240  -2.239  1.00  0.00    -0.249 OA
BRANCH  14  17
ATOM     17  C   UNL     1       0.535   0.290   1.103  1.00  0.00     0.112 C 
ATOM     18  C   UNL     1       1.356   0.828   2.261  1.00  0.00     0.036 C 
BRANCH  17  19
ATOM     19  C   UNL     1      -0.965   0.457   1.161  1.00  0.00    -0.015 A 
ATOM     20  C   UNL     1      -1.875  -0.657   1.293  1.00  0.00     0.017 A 
ATOM     21  C   UNL     1      -1.690   1.632   1.094  1.00  0.00     0.070 A 
ATOM     22  C   UNL     1      -3.200  -0.282   1.323  1.00  0.00     0.065 A 
ATOM     23  S   UNL     1      -3.382   1.408   1.198  1.00  0.00    -0.152 S 
ENDBRANCH  17  19
ENDBRANCH  14  17
ENDBRANCH   8  13
ENDBRANCH   5   7
ENDBRANCH   4   5
ENDBRANCH   3   4
ENDBRANCH   2   3
ENDBRANCH   1   2
BRANCH   1  24
ATOM     24  C   UNL     1       5.265   2.746  -0.534  1.00  0.00     0.202 C 
BRANCH  24  25
ATOM     25  C   UNL     1       6.024   2.705   0.798  1.00  0.00     0.261 C 
BRANCH  25  26
ATOM     26  O   UNL     1       6.442   4.011   1.235  1.00  0.00    -0.460 OA
BRANCH  26  27
ATOM     27  C   UNL     1       7.787   4.202   1.246  1.00  0.00     0.338 C 
ATOM     28  O   UNL     1       8.650   3.380   1.001  1.00  0.00    -0.246 OA
BRANCH  27  29
ATOM     29  C   UNL     1       8.083   5.637   1.426  1.00  0.00     0.060 A 
ATOM     30  C   UNL     1       8.827   6.280   0.428  1.00  0.00     0.016 A 
ATOM     31  C   UNL     1       7.703   6.320   2.582  1.00  0.00     0.016 A 
ATOM     32  C   UNL     1       9.220   7.606   0.596  1.00  0.00     0.010 A 
ATOM     33  C   UNL     1       8.112   7.646   2.755  1.00  0.00     0.010 A 
ATOM     34  C   UNL     1       8.894   8.285   1.776  1.00  0.00    -0.014 A 
BRANCH  34  35
ATOM     35  C   UNL     1       9.479   9.620   2.046  1.00  0.00     0.031 A 
ATOM     36  C   UNL     1      10.700   9.719   2.917  1.00  0.00     0.074 A 
ATOM     37  C   UNL     1       8.937  10.728   1.510  1.00  0.00     0.049 A 
ATOM     38  N   UNL     1      11.349  10.782   3.315  1.00  0.00    -0.248 NA
ATOM     39  C   UNL     1      11.265   8.449   3.399  1.00  0.00     0.031 C 
ATOM     40  C   UNL     1       7.794  10.753   0.599  1.00  0.00     0.029 A 
ATOM     41  N   UNL     1       9.281  12.047   1.659  1.00  0.00    -0.354 N 
ATOM     42  C   UNL     1      12.397  10.312   4.098  1.00  0.00     0.074 A 
ATOM     43  C   UNL     1      12.277   8.870   4.143  1.00  0.00     0.031 C 
ATOM     44  C   UNL     1       7.532  12.029   0.267  1.00  0.00     0.029 A 
ATOM     45  C   UNL     1       8.460  12.910   0.974  1.00  0.00     0.049 A 
ATOM     46  H   UNL     1      10.043  12.347   2.204  1.00  0.00     0.167 HD
ATOM     47  C   UNL     1      13.373  11.016   4.721  1.00  0.00     0.031 A 
ATOM     48  C   UNL     1       8.447  14.257   0.937  1.00  0.00     0.031 A 
ATOM     49  C   UNL     1      13.467  12.451   4.702  1.00  0.00     0.049 A 
ATOM     50  C   UNL     1       9.463  15.025   1.740  1.00  0.00     0.074 A 
ATOM     51  C   UNL     1      14.417  13.262   5.298  1.00  0.00     0.029 A 
ATOM     52  N   UNL     1      12.565  13.293   4.067  1.00  0.00    -0.354 N 
ATOM     53  N   UNL     1      10.456  14.568   2.466  1.00  0.00    -0.248 NA
ATOM     54  C   UNL     1       9.349  16.490   1.726  1.00  0.00     0.031 C 
ATOM     55  C   UNL     1      14.055  14.595   5.074  1.00  0.00     0.029 A 
ATOM     56  C   UNL     1      12.912  14.615   4.289  1.00  0.00     0.049 A 
ATOM     57  H   UNL     1      11.792  12.994   3.536  1.00  0.00     0.167 HD
ATOM     58  C   UNL     1      11.099  15.690   2.979  1.00  0.00     0.074 A 
ATOM     59  C   UNL     1      10.387  16.847   2.473  1.00  0.00     0.031 C 
ATOM     60  C   UNL     1      12.183  15.756   3.792  1.00  0.00     0.031 A 
BRANCH  47  61
ATOM     61  C   UNL     1      14.380  10.229   5.518  1.00  0.00    -0.014 A 
ATOM     62  C   UNL     1      15.334   9.411   4.885  1.00  0.00     0.010 A 
ATOM     63  C   UNL     1      14.361  10.295   6.923  1.00  0.00     0.010 A 
ATOM     64  C   UNL     1      16.204   8.622   5.643  1.00  0.00     0.020 A 
ATOM     65  C   UNL     1      15.248   9.529   7.684  1.00  0.00     0.020 A 
ATOM     66  C   UNL     1      16.145   8.676   7.039  1.00  0.00     0.054 A 
BRANCH  66  67
ATOM     67  S   UNL     1      17.260   7.616   8.000  1.00  0.00     0.124 S 
ATOM     68  O   UNL     1      16.643   6.303   7.833  1.00  0.00    -0.237 OA
ATOM     69  O   UNL     1      18.542   7.798   7.323  1.00  0.00    -0.237 OA
ATOM     70  O   UNL     1      17.188   8.171   9.350  1.00  0.00    -0.744 OA
ENDBRANCH  66  67
ENDBRANCH  47  61
BRANCH  48  71
ATOM     71  C   UNL     1       7.428  14.963   0.116  1.00  0.00    -0.014 A 
ATOM     72  C   UNL     1       7.803  15.629  -1.063  1.00  0.00     0.010 A 
ATOM     73  C   UNL     1       6.072  14.946   0.491  1.00  0.00     0.010 A 
ATOM     74  C   UNL     1       6.841  16.261  -1.855  1.00  0.00     0.020 A 
ATOM     75  C   UNL     1       5.104  15.556  -0.311  1.00  0.00     0.020 A 
ATOM     76  C   UNL     1       5.496  16.214  -1.479  1.00  0.00     0.054 A 
BRANCH  76  77
ATOM     77  S   UNL     1       4.256  16.969  -2.568  1.00  0.00     0.124 S 
ATOM     78  O   UNL     1       4.491  18.393  -2.354  1.00  0.00    -0.237 OA
ATOM     79  O   UNL     1       4.636  16.454  -3.881  1.00  0.00    -0.237 OA
ATOM     80  O   UNL     1       2.989  16.457  -2.050  1.00  0.00    -0.744 OA
ENDBRANCH  76  77
ENDBRANCH  48  71
BRANCH  60  81
ATOM     81  C   UNL     1      12.676  17.124   4.183  1.00  0.00    -0.014 A 
ATOM     82  C   UNL     1      11.980  17.903   5.123  1.00  0.00     0.010 A 
ATOM     83  C   UNL     1      13.890  17.604   3.657  1.00  0.00     0.010 A 
ATOM     84  C   UNL     1      12.480  19.147   5.519  1.00  0.00     0.020 A 
ATOM     85  C   UNL     1      14.406  18.835   4.069  1.00  0.00     0.020 A 
ATOM     86  C   UNL     1      13.693  19.603   4.992  1.00  0.00     0.054 A 
BRANCH  86  87
ATOM     87  S   UNL     1      14.354  21.190   5.572  1.00  0.00     0.124 S 
ATOM     88  O   UNL     1      13.471  22.147   4.911  1.00  0.00    -0.237 OA
ATOM     89  O   UNL     1      14.200  21.090   7.022  1.00  0.00    -0.237 OA
ATOM     90  O   UNL     1      15.736  21.185   5.098  1.00  0.00    -0.744 OA
ENDBRANCH  86  87
ENDBRANCH  60  81
ENDBRANCH  34  35
ENDBRANCH  27  29
ENDBRANCH  26  27
ENDBRANCH  25  26
ENDBRANCH  24  25
ENDBRANCH   1  24
TORSDOF 20
