REMARK SMILES CCc1ccc(N2C(=O)C[C@@H](SC[C@@H](NC(C)=O)C(=O)OCCOCCOC(=O)c3ccc(-c4c5nc(c(-c6ccc(S(=O)(=O)[O-])cc6)c6ccc([nH]6)c(-c6ccc(S(=O)(=O)[O-])cc6)c6nc(c(-c7ccc(S(=O)(=O)[O-])cc7)c7ccc4[nH]7)C=C6)C=C5)cc3)C2=O)cc1
REMARK SMILES IDX 23 1 22 2 21 3 19 4 20 5 14 6 13 7 12 8 11 9 7 10 8 11 90 12
REMARK SMILES IDX 9 13 10 14 91 15 6 16 3 17 4 18 93 19 5 20 92 21 2 22 1 23
REMARK SMILES IDX 15 24 16 25 17 27 18 28 24 29 25 30 26 31 27 32 28 33 29 34
REMARK SMILES IDX 30 35 31 36 89 37 32 38 88 39 33 40 34 41 35 42 82 43 36 44
REMARK SMILES IDX 87 45 81 46 83 47 37 48 86 49 80 50 79 51 38 53 68 54 49 55
REMARK SMILES IDX 67 56 50 57 53 58 66 59 84 60 51 61 52 62 65 64 85 65 54 66
REMARK SMILES IDX 39 67 40 68 48 69 41 70 47 71 42 72 43 73 44 74 45 75 46 76
REMARK SMILES IDX 69 77 70 78 78 79 71 80 77 81 72 82 73 83 74 84 75 85 76 86
REMARK SMILES IDX 55 87 56 88 64 89 57 90 63 91 58 92 59 93 60 94 61 95 62 96
REMARK H PARENT 15 26 83 52 53 63
REMARK Flexibility Score: inf
ROOT
ATOM      1  C   UNL     1       3.591  -8.831   0.368  1.00  0.00     0.202 C 
ENDROOT
BRANCH   1   2
ATOM      2  C   UNL     1       4.367  -7.770  -0.416  1.00  0.00     0.261 C 
BRANCH   2   3
ATOM      3  O   UNL     1       3.809  -7.497  -1.708  1.00  0.00    -0.462 OA
BRANCH   3   4
ATOM      4  C   UNL     1       4.578  -7.878  -2.763  1.00  0.00     0.329 C 
ATOM      5  O   UNL     1       5.649  -8.475  -2.679  1.00  0.00    -0.250 OA
BRANCH   4   6
ATOM      6  C   UNL     1       4.026  -7.407  -4.115  1.00  0.00     0.202 C 
BRANCH   6   7
ATOM      7  C   UNL     1       2.549  -6.990  -4.147  1.00  0.00     0.107 C 
BRANCH   7   8
ATOM      8  S   UNL     1       1.809  -7.347  -5.808  1.00  0.00    -0.145 SA
BRANCH   8   9
ATOM      9  C   UNL     1       1.546  -5.686  -6.529  1.00  0.00     0.146 C 
ATOM     10  N   UNL     1       1.720  -3.715  -5.276  1.00  0.00    -0.250 N 
ATOM     11  C   UNL     1       2.862  -3.773  -6.044  1.00  0.00     0.235 C 
ATOM     12  C   UNL     1       0.855  -4.747  -5.583  1.00  0.00     0.247 C 
ATOM     13  O   UNL     1       3.832  -3.026  -6.074  1.00  0.00    -0.274 OA
ATOM     14  C   UNL     1       2.795  -4.960  -6.955  1.00  0.00     0.125 C 
ATOM     15  O   UNL     1      -0.302  -4.923  -5.222  1.00  0.00    -0.273 OA
BRANCH  10  16
ATOM     16  C   UNL     1       1.435  -2.706  -4.307  1.00  0.00     0.052 A 
ATOM     17  C   UNL     1       0.775  -0.685  -2.422  1.00  0.00    -0.048 A 
ATOM     18  C   UNL     1       0.126  -1.919  -2.398  1.00  0.00     0.006 A 
ATOM     19  C   UNL     1       1.785  -0.479  -3.365  1.00  0.00     0.006 A 
ATOM     20  C   UNL     1       0.453  -2.912  -3.325  1.00  0.00     0.027 A 
ATOM     21  C   UNL     1       2.113  -1.479  -4.291  1.00  0.00     0.027 A 
BRANCH  17  22
ATOM     22  C   UNL     1       0.393   0.395  -1.444  1.00  0.00     0.032 C 
ATOM     23  C   UNL     1       0.842   0.068  -0.032  1.00  0.00     0.009 C 
ENDBRANCH  17  22
ENDBRANCH  10  16
ENDBRANCH   8   9
ENDBRANCH   7   8
ENDBRANCH   6   7
BRANCH   6  24
ATOM     24  N   UNL     1       4.961  -6.416  -4.653  1.00  0.00    -0.342 N 
ATOM     25  C   UNL     1       5.158  -5.213  -4.011  1.00  0.00     0.217 C 
ATOM     26  H   UNL     1       5.454  -6.612  -5.482  1.00  0.00     0.164 HD
ATOM     27  C   UNL     1       6.296  -4.402  -4.561  1.00  0.00     0.114 C 
ATOM     28  O   UNL     1       4.493  -4.866  -3.044  1.00  0.00    -0.275 OA
ENDBRANCH   6  24
ENDBRANCH   4   6
ENDBRANCH   3   4
ENDBRANCH   2   3
ENDBRANCH   1   2
BRANCH   1  29
ATOM     29  O   UNL     1       3.254 -10.032  -0.320  1.00  0.00    -0.374 OA
BRANCH  29  30
ATOM     30  C   UNL     1       2.198  -9.977  -1.280  1.00  0.00     0.202 C 
BRANCH  30  31
ATOM     31  C   UNL     1       0.788  -9.652  -0.769  1.00  0.00     0.261 C 
BRANCH  31  32
ATOM     32  O   UNL     1       0.655  -8.291  -0.312  1.00  0.00    -0.460 OA
BRANCH  32  33
ATOM     33  C   UNL     1       0.256  -8.167   0.977  1.00  0.00     0.338 C 
ATOM     34  O   UNL     1      -0.017  -9.076   1.753  1.00  0.00    -0.246 OA
BRANCH  33  35
ATOM     35  C   UNL     1       0.339  -6.768   1.427  1.00  0.00     0.060 A 
ATOM     36  C   UNL     1       1.172  -6.482   2.516  1.00  0.00     0.016 A 
ATOM     37  C   UNL     1      -0.499  -5.784   0.898  1.00  0.00     0.016 A 
ATOM     38  C   UNL     1       1.129  -5.226   3.118  1.00  0.00     0.010 A 
ATOM     39  C   UNL     1      -0.546  -4.525   1.509  1.00  0.00     0.010 A 
ATOM     40  C   UNL     1       0.237  -4.253   2.647  1.00  0.00    -0.014 A 
BRANCH  40  41
ATOM     41  C   UNL     1       0.018  -3.016   3.439  1.00  0.00     0.031 A 
ATOM     42  C   UNL     1      -1.187  -2.927   4.341  1.00  0.00     0.074 A 
ATOM     43  C   UNL     1       0.904  -2.004   3.396  1.00  0.00     0.049 A 
ATOM     44  N   UNL     1      -1.588  -1.932   5.089  1.00  0.00    -0.248 NA
ATOM     45  C   UNL     1      -2.047  -4.120   4.415  1.00  0.00     0.031 C 
ATOM     46  C   UNL     1       2.140  -1.992   2.615  1.00  0.00     0.029 A 
ATOM     47  N   UNL     1       0.889  -0.780   4.020  1.00  0.00    -0.354 N 
ATOM     48  C   UNL     1      -2.741  -2.378   5.727  1.00  0.00     0.074 A 
ATOM     49  C   UNL     1      -2.994  -3.721   5.253  1.00  0.00     0.031 C 
ATOM     50  C   UNL     1       2.755  -0.808   2.789  1.00  0.00     0.029 A 
ATOM     51  C   UNL     1       1.940   0.031   3.663  1.00  0.00     0.049 A 
ATOM     52  H   UNL     1       0.193  -0.511   4.661  1.00  0.00     0.167 HD
ATOM     53  C   UNL     1      -3.512  -1.733   6.635  1.00  0.00     0.031 A 
ATOM     54  C   UNL     1       2.197   1.316   3.979  1.00  0.00     0.031 A 
ATOM     55  C   UNL     1      -3.267  -0.393   7.098  1.00  0.00     0.049 A 
ATOM     56  C   UNL     1       1.266   2.049   4.909  1.00  0.00     0.074 A 
ATOM     57  C   UNL     1      -3.993   0.346   8.017  1.00  0.00     0.029 A 
ATOM     58  N   UNL     1      -2.219   0.409   6.678  1.00  0.00    -0.354 N 
ATOM     59  N   UNL     1       0.183   1.610   5.505  1.00  0.00    -0.248 NA
ATOM     60  C   UNL     1       1.601   3.446   5.220  1.00  0.00     0.031 C 
ATOM     61  C   UNL     1      -3.409   1.613   8.117  1.00  0.00     0.029 A 
ATOM     62  C   UNL     1      -2.289   1.643   7.301  1.00  0.00     0.049 A 
ATOM     63  H   UNL     1      -1.526   0.142   6.031  1.00  0.00     0.167 HD
ATOM     64  C   UNL     1      -0.272   2.667   6.288  1.00  0.00     0.074 A 
ATOM     65  C   UNL     1       0.655   3.762   6.094  1.00  0.00     0.031 C 
ATOM     66  C   UNL     1      -1.356   2.722   7.101  1.00  0.00     0.031 A 
BRANCH  53  67
ATOM     67  C   UNL     1      -4.712  -2.463   7.178  1.00  0.00    -0.014 A 
ATOM     68  C   UNL     1      -4.564  -3.507   8.109  1.00  0.00     0.010 A 
ATOM     69  C   UNL     1      -6.006  -2.060   6.801  1.00  0.00     0.010 A 
ATOM     70  C   UNL     1      -5.688  -4.151   8.634  1.00  0.00     0.020 A 
ATOM     71  C   UNL     1      -7.133  -2.688   7.340  1.00  0.00     0.020 A 
ATOM     72  C   UNL     1      -6.966  -3.738   8.245  1.00  0.00     0.054 A 
BRANCH  72  73
ATOM     73  S   UNL     1      -8.408  -4.565   8.972  1.00  0.00     0.124 S 
ATOM     74  O   UNL     1      -8.389  -5.857   8.290  1.00  0.00    -0.237 OA
ATOM     75  O   UNL     1      -8.075  -4.601  10.393  1.00  0.00    -0.237 OA
ATOM     76  O   UNL     1      -9.524  -3.691   8.619  1.00  0.00    -0.744 OA
ENDBRANCH  72  73
ENDBRANCH  53  67
BRANCH  54  77
ATOM     77  C   UNL     1       3.368   2.014   3.380  1.00  0.00    -0.014 A 
ATOM     78  C   UNL     1       4.482   2.364   4.161  1.00  0.00     0.010 A 
ATOM     79  C   UNL     1       3.356   2.359   2.016  1.00  0.00     0.010 A 
ATOM     80  C   UNL     1       5.551   3.067   3.595  1.00  0.00     0.020 A 
ATOM     81  C   UNL     1       4.433   3.036   1.439  1.00  0.00     0.020 A 
ATOM     82  C   UNL     1       5.518   3.400   2.237  1.00  0.00     0.054 A 
BRANCH  82  83
ATOM     83  S   UNL     1       6.924   4.289   1.512  1.00  0.00     0.124 S 
ATOM     84  O   UNL     1       6.707   5.647   2.000  1.00  0.00    -0.237 OA
ATOM     85  O   UNL     1       8.071   3.587   2.082  1.00  0.00    -0.237 OA
ATOM     86  O   UNL     1       6.740   4.102   0.075  1.00  0.00    -0.744 OA
ENDBRANCH  82  83
ENDBRANCH  54  77
BRANCH  66  87
ATOM     87  C   UNL     1      -1.577   3.993   7.878  1.00  0.00    -0.014 A 
ATOM     88  C   UNL     1      -2.045   5.160   7.250  1.00  0.00     0.010 A 
ATOM     89  C   UNL     1      -1.364   3.999   9.268  1.00  0.00     0.010 A 
ATOM     90  C   UNL     1      -2.266   6.322   7.995  1.00  0.00     0.020 A 
ATOM     91  C   UNL     1      -1.608   5.151  10.021  1.00  0.00     0.020 A 
ATOM     92  C   UNL     1      -2.044   6.310   9.377  1.00  0.00     0.054 A 
BRANCH  92  93
ATOM     93  S   UNL     1      -2.378   7.817  10.330  1.00  0.00     0.124 S 
ATOM     94  O   UNL     1      -1.230   8.652   9.991  1.00  0.00    -0.237 OA
ATOM     95  O   UNL     1      -3.660   8.262   9.789  1.00  0.00    -0.237 OA
ATOM     96  O   UNL     1      -2.422   7.348  11.713  1.00  0.00    -0.744 OA
ENDBRANCH  92  93
ENDBRANCH  66  87
ENDBRANCH  40  41
ENDBRANCH  33  35
ENDBRANCH  32  33
ENDBRANCH  31  32
ENDBRANCH  30  31
ENDBRANCH  29  30
ENDBRANCH   1  29
TORSDOF 23
