REMARK SMILES COc1c(C(=O)OCCOCCOC(=O)c2ccc(-c3c4nc(c(-c5ccc(S(=O)(=O)[O-])cc5)c5ccc([nH]5)c(-c5ccc(S(=O)(=O)[O-])cc5)c5nc(c(-c6ccc(S(=O)(=O)[O-])cc6)c6ccc3[nH]6)C=C5)C=C4)cc2)cccc1-c1cccc(C)c1
REMARK SMILES IDX 11 1 10 2 9 3 8 4 7 5 5 6 6 7 4 8 3 9 79 10 76 11 78 12
REMARK SMILES IDX 77 13 2 14 1 15 80 16 81 17 86 18 82 19 84 20 83 21 85 22
REMARK SMILES IDX 12 23 13 24 14 25 15 26 16 27 17 28 75 29 18 30 74 31 19 32
REMARK SMILES IDX 20 33 21 34 68 35 22 36 73 37 67 38 69 39 23 40 72 41 66 42
REMARK SMILES IDX 65 43 24 45 54 46 35 47 53 48 36 49 39 50 52 51 70 52 37 53
REMARK SMILES IDX 38 54 51 56 71 57 40 58 25 59 26 60 34 61 27 62 33 63 28 64
REMARK SMILES IDX 29 65 30 66 31 67 32 68 55 69 56 70 64 71 57 72 63 73 58 74
REMARK SMILES IDX 59 75 60 76 61 77 62 78 41 79 42 80 50 81 43 82 49 83 44 84
REMARK SMILES IDX 45 85 46 86 47 87 48 88
REMARK H PARENT 69 44 39 55
REMARK Flexibility Score: inf
ROOT
ATOM      1  C   UNL     1      -2.752  -0.245  -3.679  1.00  0.00     0.202 C 
ENDROOT
BRANCH   1   2
ATOM      2  O   UNL     1      -3.967  -0.787  -3.165  1.00  0.00    -0.374 OA
BRANCH   2   3
ATOM      3  C   UNL     1      -4.046  -0.988  -1.750  1.00  0.00     0.202 C 
BRANCH   3   4
ATOM      4  C   UNL     1      -3.278  -2.196  -1.205  1.00  0.00     0.261 C 
BRANCH   4   5
ATOM      5  O   UNL     1      -1.864  -1.974  -1.332  1.00  0.00    -0.460 OA
BRANCH   5   6
ATOM      6  C   UNL     1      -1.172  -2.948  -1.968  1.00  0.00     0.342 C 
ATOM      7  O   UNL     1      -1.592  -4.046  -2.305  1.00  0.00    -0.246 OA
BRANCH   6   8
ATOM      8  C   UNL     1       0.117  -2.413  -2.457  1.00  0.00     0.102 A 
ATOM      9  C   UNL     1       1.031  -1.721  -1.647  1.00  0.00     0.141 A 
ATOM     10  C   UNL     1       2.288  -1.334  -2.172  1.00  0.00     0.025 A 
ATOM     11  C   UNL     1       0.397  -2.629  -3.814  1.00  0.00     0.019 A 
ATOM     12  C   UNL     1       2.528  -1.545  -3.547  1.00  0.00     0.012 A 
ATOM     13  C   UNL     1       1.588  -2.172  -4.365  1.00  0.00     0.002 A 
BRANCH   9  14
ATOM     14  O   UNL     1       0.709  -1.522  -0.326  1.00  0.00    -0.495 OA
ATOM     15  C   UNL     1       0.533  -0.133  -0.023  1.00  0.00     0.278 C 
ENDBRANCH   9  14
BRANCH  10  16
ATOM     16  C   UNL     1       3.385  -0.820  -1.327  1.00  0.00    -0.014 A 
ATOM     17  C   UNL     1       4.094   0.346  -1.658  1.00  0.00     0.009 A 
ATOM     18  C   UNL     1       3.762  -1.511  -0.161  1.00  0.00     0.012 A 
ATOM     19  C   UNL     1       5.132   0.808  -0.844  1.00  0.00     0.001 A 
ATOM     20  C   UNL     1       4.785  -1.046   0.674  1.00  0.00    -0.051 A 
ATOM     21  C   UNL     1       5.473   0.116   0.318  1.00  0.00     0.003 A 
ATOM     22  C   UNL     1       5.131  -1.782   1.934  1.00  0.00     0.044 C 
ENDBRANCH  10  16
ENDBRANCH   6   8
ENDBRANCH   5   6
ENDBRANCH   4   5
ENDBRANCH   3   4
ENDBRANCH   2   3
ENDBRANCH   1   2
BRANCH   1  23
ATOM     23  C   UNL     1      -2.572   1.274  -3.568  1.00  0.00     0.261 C 
BRANCH  23  24
ATOM     24  O   UNL     1      -2.546   1.730  -2.205  1.00  0.00    -0.460 OA
BRANCH  24  25
ATOM     25  C   UNL     1      -3.670   2.376  -1.814  1.00  0.00     0.338 C 
ATOM     26  O   UNL     1      -4.637   2.657  -2.510  1.00  0.00    -0.246 OA
BRANCH  25  27
ATOM     27  C   UNL     1      -3.669   2.576  -0.353  1.00  0.00     0.060 A 
ATOM     28  C   UNL     1      -4.821   2.194   0.345  1.00  0.00     0.016 A 
ATOM     29  C   UNL     1      -2.609   3.196   0.313  1.00  0.00     0.016 A 
ATOM     30  C   UNL     1      -4.944   2.486   1.701  1.00  0.00     0.010 A 
ATOM     31  C   UNL     1      -2.736   3.493   1.676  1.00  0.00     0.010 A 
ATOM     32  C   UNL     1      -3.920   3.175   2.366  1.00  0.00    -0.014 A 
BRANCH  32  33
ATOM     33  C   UNL     1      -4.170   3.682   3.738  1.00  0.00     0.031 A 
ATOM     34  C   UNL     1      -4.556   5.125   3.929  1.00  0.00     0.074 A 
ATOM     35  C   UNL     1      -4.124   2.850   4.795  1.00  0.00     0.049 A 
ATOM     36  N   UNL     1      -4.858   5.762   5.031  1.00  0.00    -0.248 NA
ATOM     37  C   UNL     1      -4.613   5.960   2.717  1.00  0.00     0.031 C 
ATOM     38  C   UNL     1      -3.797   1.425   4.737  1.00  0.00     0.029 A 
ATOM     39  N   UNL     1      -4.363   3.087   6.125  1.00  0.00    -0.354 N 
ATOM     40  C   UNL     1      -5.152   7.066   4.647  1.00  0.00     0.074 A 
ATOM     41  C   UNL     1      -4.949   7.141   3.216  1.00  0.00     0.031 C 
ATOM     42  C   UNL     1      -3.855   0.914   5.980  1.00  0.00     0.029 A 
ATOM     43  C   UNL     1      -4.201   1.977   6.920  1.00  0.00     0.049 A 
ATOM     44  H   UNL     1      -4.625   3.968   6.477  1.00  0.00     0.167 HD
ATOM     45  C   UNL     1      -5.570   8.104   5.410  1.00  0.00     0.031 A 
ATOM     46  C   UNL     1      -4.311   1.837   8.256  1.00  0.00     0.031 A 
ATOM     47  C   UNL     1      -5.754   8.039   6.836  1.00  0.00     0.049 A 
ATOM     48  C   UNL     1      -4.716   3.024   9.092  1.00  0.00     0.074 A 
ATOM     49  C   UNL     1      -6.155   9.042   7.701  1.00  0.00     0.029 A 
ATOM     50  N   UNL     1      -5.551   6.905   7.608  1.00  0.00    -0.354 N 
ATOM     51  N   UNL     1      -4.998   4.247   8.709  1.00  0.00    -0.248 NA
ATOM     52  C   UNL     1      -4.837   2.803  10.540  1.00  0.00     0.031 C 
ATOM     53  C   UNL     1      -6.155   8.525   9.002  1.00  0.00     0.029 A 
ATOM     54  C   UNL     1      -5.809   7.186   8.939  1.00  0.00     0.049 A 
ATOM     55  H   UNL     1      -5.265   6.029   7.261  1.00  0.00     0.167 HD
ATOM     56  C   UNL     1      -5.357   4.932   9.866  1.00  0.00     0.074 A 
ATOM     57  C   UNL     1      -5.276   3.983  10.957  1.00  0.00     0.031 C 
ATOM     58  C   UNL     1      -5.723   6.230  10.014  1.00  0.00     0.031 A 
BRANCH  45  59
ATOM     59  C   UNL     1      -5.847   9.410   4.713  1.00  0.00    -0.014 A 
ATOM     60  C   UNL     1      -6.980   9.563   3.893  1.00  0.00     0.010 A 
ATOM     61  C   UNL     1      -4.990  10.508   4.909  1.00  0.00     0.010 A 
ATOM     62  C   UNL     1      -7.234  10.782   3.257  1.00  0.00     0.020 A 
ATOM     63  C   UNL     1      -5.254  11.735   4.295  1.00  0.00     0.020 A 
ATOM     64  C   UNL     1      -6.367  11.860   3.460  1.00  0.00     0.054 A 
BRANCH  64  65
ATOM     65  S   UNL     1      -6.736  13.438   2.644  1.00  0.00     0.124 S 
ATOM     66  O   UNL     1      -6.396  13.144   1.254  1.00  0.00    -0.237 OA
ATOM     67  O   UNL     1      -8.159  13.616   2.918  1.00  0.00    -0.237 OA
ATOM     68  O   UNL     1      -5.852  14.389   3.313  1.00  0.00    -0.744 OA
ENDBRANCH  64  65
ENDBRANCH  45  59
BRANCH  46  69
ATOM     69  C   UNL     1      -4.016   0.526   8.897  1.00  0.00    -0.014 A 
ATOM     70  C   UNL     1      -5.036  -0.232   9.499  1.00  0.00     0.010 A 
ATOM     71  C   UNL     1      -2.695   0.044   8.934  1.00  0.00     0.010 A 
ATOM     72  C   UNL     1      -4.734  -1.430  10.155  1.00  0.00     0.020 A 
ATOM     73  C   UNL     1      -2.394  -1.166   9.562  1.00  0.00     0.020 A 
ATOM     74  C   UNL     1      -3.414  -1.887  10.186  1.00  0.00     0.054 A 
BRANCH  74  75
ATOM     75  S   UNL     1      -3.044  -3.453  11.023  1.00  0.00     0.124 S 
ATOM     76  O   UNL     1      -3.105  -3.067  12.429  1.00  0.00    -0.237 OA
ATOM     77  O   UNL     1      -4.120  -4.324  10.558  1.00  0.00    -0.237 OA
ATOM     78  O   UNL     1      -1.714  -3.800  10.525  1.00  0.00    -0.744 OA
ENDBRANCH  74  75
ENDBRANCH  46  69
BRANCH  58  79
ATOM     79  C   UNL     1      -6.104   6.685  11.399  1.00  0.00    -0.014 A 
ATOM     80  C   UNL     1      -5.141   6.835  12.412  1.00  0.00     0.010 A 
ATOM     81  C   UNL     1      -7.449   6.983  11.683  1.00  0.00     0.010 A 
ATOM     82  C   UNL     1      -5.524   7.222  13.700  1.00  0.00     0.020 A 
ATOM     83  C   UNL     1      -7.832   7.399  12.961  1.00  0.00     0.020 A 
ATOM     84  C   UNL     1      -6.870   7.494  13.967  1.00  0.00     0.054 A 
BRANCH  84  85
ATOM     85  S   UNL     1      -7.345   8.001  15.643  1.00  0.00     0.124 S 
ATOM     86  O   UNL     1      -7.296   6.734  16.368  1.00  0.00    -0.237 OA
ATOM     87  O   UNL     1      -6.306   8.966  15.995  1.00  0.00    -0.237 OA
ATOM     88  O   UNL     1      -8.679   8.569  15.468  1.00  0.00    -0.744 OA
ENDBRANCH  84  85
ENDBRANCH  58  79
ENDBRANCH  32  33
ENDBRANCH  25  27
ENDBRANCH  24  25
ENDBRANCH  23  24
ENDBRANCH   1  23
TORSDOF 19
