REMARK SMILES O=C(OCCOCCOC(=O)[C@H]1CC=CC[C@@H]1C(=O)N[C@@H]1CCCN(c2ccccc2F)C1=O)c1ccc(-c2c3nc(c(-c4ccc(S(=O)(=O)[O-])cc4)c4ccc([nH]4)c(-c4ccc(S(=O)(=O)[O-])cc4)c4nc(c(-c5ccc(S(=O)(=O)[O-])cc5)c5ccc2[nH]5)C=C4)C=C3)cc1
REMARK SMILES IDX 6 1 5 2 4 3 3 4 2 5 1 6 35 7 36 8 94 9 37 10 93 11 38 12
REMARK SMILES IDX 39 13 40 14 87 15 41 16 92 17 86 18 88 19 42 20 91 21 85 22
REMARK SMILES IDX 84 23 43 25 73 26 54 27 72 28 55 29 58 30 71 31 89 32 56 33
REMARK SMILES IDX 57 34 70 36 90 37 59 38 44 39 45 40 53 41 46 42 52 43 47 44
REMARK SMILES IDX 48 45 49 46 50 47 51 48 74 49 75 50 83 51 76 52 82 53 77 54
REMARK SMILES IDX 78 55 79 56 80 57 81 58 60 59 61 60 69 61 62 62 68 63 63 64
REMARK SMILES IDX 64 65 65 66 66 67 67 68 7 69 8 70 9 71 10 72 11 73 12 74
REMARK SMILES IDX 13 75 17 76 14 77 16 78 15 79 18 80 19 81 20 82 21 84 22 85
REMARK SMILES IDX 33 86 23 87 25 88 34 89 24 90 26 91 27 92 31 93 28 94 30 95
REMARK SMILES IDX 32 96 29 97
REMARK H PARENT 88 24 58 35 20 83
REMARK Flexibility Score: inf
ROOT
ATOM      1  O   UNL     1       7.221 -11.958  -3.324  1.00  0.00    -0.374 OA
ENDROOT
BRANCH   1   2
ATOM      2  C   UNL     1       6.026 -11.185  -3.365  1.00  0.00     0.202 C 
BRANCH   2   3
ATOM      3  C   UNL     1       5.024 -11.759  -4.371  1.00  0.00     0.261 C 
BRANCH   3   4
ATOM      4  O   UNL     1       4.896 -13.178  -4.204  1.00  0.00    -0.460 OA
BRANCH   4   5
ATOM      5  C   UNL     1       5.861 -14.068  -4.575  1.00  0.00     0.338 C 
ATOM      6  O   UNL     1       5.978 -15.127  -3.981  1.00  0.00    -0.246 OA
BRANCH   5   7
ATOM      7  C   UNL     1       6.618 -13.857  -5.848  1.00  0.00     0.060 A 
ATOM      8  C   UNL     1       7.306 -12.688  -6.193  1.00  0.00     0.016 A 
ATOM      9  C   UNL     1       6.696 -14.960  -6.710  1.00  0.00     0.016 A 
ATOM     10  C   UNL     1       7.990 -12.585  -7.397  1.00  0.00     0.010 A 
ATOM     11  C   UNL     1       7.424 -14.881  -7.898  1.00  0.00     0.010 A 
ATOM     12  C   UNL     1       8.062 -13.684  -8.248  1.00  0.00    -0.014 A 
BRANCH  12  13
ATOM     13  C   UNL     1       8.766 -13.547  -9.535  1.00  0.00     0.031 A 
ATOM     14  C   UNL     1       7.953 -13.482 -10.789  1.00  0.00     0.074 A 
ATOM     15  C   UNL     1      10.106 -13.426  -9.548  1.00  0.00     0.049 A 
ATOM     16  N   UNL     1       8.348 -13.508 -12.031  1.00  0.00    -0.248 NA
ATOM     17  C   UNL     1       6.493 -13.371 -10.618  1.00  0.00     0.031 C 
ATOM     18  C   UNL     1      10.960 -13.363  -8.357  1.00  0.00     0.029 A 
ATOM     19  N   UNL     1      10.984 -13.318 -10.592  1.00  0.00    -0.354 N 
ATOM     20  C   UNL     1       7.186 -13.466 -12.791  1.00  0.00     0.074 A 
ATOM     21  C   UNL     1       6.072 -13.402 -11.873  1.00  0.00     0.031 C 
ATOM     22  C   UNL     1      12.237 -13.205  -8.740  1.00  0.00     0.029 A 
ATOM     23  C   UNL     1      12.299 -13.239 -10.196  1.00  0.00     0.049 A 
ATOM     24  H   UNL     1      10.702 -13.298 -11.535  1.00  0.00     0.167 HD
ATOM     25  C   UNL     1       7.072 -13.501 -14.139  1.00  0.00     0.031 A 
ATOM     26  C   UNL     1      13.424 -13.242 -10.936  1.00  0.00     0.031 A 
ATOM     27  C   UNL     1       8.210 -13.579 -15.014  1.00  0.00     0.049 A 
ATOM     28  C   UNL     1      13.274 -13.354 -12.429  1.00  0.00     0.074 A 
ATOM     29  C   UNL     1       8.242 -13.694 -16.390  1.00  0.00     0.029 A 
ATOM     30  N   UNL     1       9.531 -13.544 -14.580  1.00  0.00    -0.354 N 
ATOM     31  N   UNL     1      12.172 -13.406 -13.142  1.00  0.00    -0.248 NA
ATOM     32  C   UNL     1      14.509 -13.427 -13.216  1.00  0.00     0.031 C 
ATOM     33  C   UNL     1       9.584 -13.768 -16.784  1.00  0.00     0.029 A 
ATOM     34  C   UNL     1      10.388 -13.644 -15.659  1.00  0.00     0.049 A 
ATOM     35  H   UNL     1       9.814 -13.460 -13.641  1.00  0.00     0.167 HD
ATOM     36  C   UNL     1      12.579 -13.508 -14.465  1.00  0.00     0.074 A 
ATOM     37  C   UNL     1      14.030 -13.490 -14.452  1.00  0.00     0.031 C 
ATOM     38  C   UNL     1      11.829 -13.616 -15.590  1.00  0.00     0.031 A 
BRANCH  25  39
ATOM     39  C   UNL     1       5.680 -13.550 -14.708  1.00  0.00    -0.014 A 
ATOM     40  C   UNL     1       4.826 -12.432 -14.672  1.00  0.00     0.010 A 
ATOM     41  C   UNL     1       5.198 -14.758 -15.244  1.00  0.00     0.010 A 
ATOM     42  C   UNL     1       3.501 -12.538 -15.108  1.00  0.00     0.020 A 
ATOM     43  C   UNL     1       3.882 -14.862 -15.704  1.00  0.00     0.020 A 
ATOM     44  C   UNL     1       3.034 -13.757 -15.610  1.00  0.00     0.054 A 
BRANCH  44  45
ATOM     45  S   UNL     1       1.303 -13.880 -16.142  1.00  0.00     0.124 S 
ATOM     46  O   UNL     1       0.597 -13.912 -14.863  1.00  0.00    -0.237 OA
ATOM     47  O   UNL     1       1.121 -12.664 -16.929  1.00  0.00    -0.237 OA
ATOM     48  O   UNL     1       1.263 -15.125 -16.905  1.00  0.00    -0.744 OA
ENDBRANCH  44  45
ENDBRANCH  25  39
BRANCH  26  49
ATOM     49  C   UNL     1      14.760 -13.202 -10.276  1.00  0.00    -0.014 A 
ATOM     50  C   UNL     1      15.607 -12.090 -10.421  1.00  0.00     0.010 A 
ATOM     51  C   UNL     1      15.185 -14.275  -9.469  1.00  0.00     0.010 A 
ATOM     52  C   UNL     1      16.852 -12.056  -9.782  1.00  0.00     0.020 A 
ATOM     53  C   UNL     1      16.415 -14.233  -8.805  1.00  0.00     0.020 A 
ATOM     54  C   UNL     1      17.247 -13.127  -8.975  1.00  0.00     0.054 A 
BRANCH  54  55
ATOM     55  S   UNL     1      18.843 -13.039  -8.112  1.00  0.00     0.124 S 
ATOM     56  O   UNL     1      19.790 -13.262  -9.200  1.00  0.00    -0.237 OA
ATOM     57  O   UNL     1      18.828 -11.690  -7.552  1.00  0.00    -0.237 OA
ATOM     58  O   UNL     1      18.758 -14.114  -7.126  1.00  0.00    -0.744 OA
ENDBRANCH  54  55
ENDBRANCH  26  49
BRANCH  38  59
ATOM     59  C   UNL     1      12.572 -13.685 -16.893  1.00  0.00    -0.014 A 
ATOM     60  C   UNL     1      13.226 -14.862 -17.294  1.00  0.00     0.010 A 
ATOM     61  C   UNL     1      12.549 -12.574 -17.756  1.00  0.00     0.010 A 
ATOM     62  C   UNL     1      13.866 -14.920 -18.532  1.00  0.00     0.020 A 
ATOM     63  C   UNL     1      13.167 -12.638 -19.005  1.00  0.00     0.020 A 
ATOM     64  C   UNL     1      13.831 -13.808 -19.380  1.00  0.00     0.054 A 
BRANCH  64  65
ATOM     65  S   UNL     1      14.616 -13.927 -21.010  1.00  0.00     0.124 S 
ATOM     66  O   UNL     1      16.032 -13.819 -20.672  1.00  0.00    -0.237 OA
ATOM     67  O   UNL     1      14.180 -15.239 -21.481  1.00  0.00    -0.237 OA
ATOM     68  O   UNL     1      14.060 -12.793 -21.745  1.00  0.00    -0.744 OA
ENDBRANCH  64  65
ENDBRANCH  38  59
ENDBRANCH  12  13
ENDBRANCH   5   7
ENDBRANCH   4   5
ENDBRANCH   3   4
ENDBRANCH   2   3
ENDBRANCH   1   2
BRANCH   1  69
ATOM     69  C   UNL     1       7.811 -12.101  -2.040  1.00  0.00     0.202 C 
BRANCH  69  70
ATOM     70  C   UNL     1       8.866 -11.037  -1.748  1.00  0.00     0.261 C 
BRANCH  70  71
ATOM     71  O   UNL     1       8.349  -9.696  -1.876  1.00  0.00    -0.463 OA
BRANCH  71  72
ATOM     72  C   UNL     1       8.724  -9.041  -3.018  1.00  0.00     0.310 C 
ATOM     73  O   UNL     1       9.350  -9.556  -3.935  1.00  0.00    -0.252 OA
BRANCH  72  74
ATOM     74  C   UNL     1       8.255  -7.591  -2.988  1.00  0.00     0.115 C 
ATOM     75  C   UNL     1       9.267  -6.673  -3.682  1.00  0.00     0.043 C 
ATOM     76  C   UNL     1       6.833  -7.460  -3.556  1.00  0.00     0.097 C 
ATOM     77  C   UNL     1       9.148  -6.679  -5.169  1.00  0.00    -0.030 C 
ATOM     78  C   UNL     1       6.849  -7.680  -5.100  1.00  0.00     0.041 C 
ATOM     79  C   UNL     1       8.069  -7.150  -5.805  1.00  0.00    -0.030 C 
BRANCH  76  80
ATOM     80  C   UNL     1       6.159  -6.133  -3.210  1.00  0.00     0.224 C 
ATOM     81  O   UNL     1       5.599  -5.455  -4.077  1.00  0.00    -0.275 OA
ATOM     82  N   UNL     1       6.117  -5.610  -1.961  1.00  0.00    -0.344 N 
ATOM     83  H   UNL     1       6.248  -4.634  -1.976  1.00  0.00     0.164 HD
BRANCH  82  84
ATOM     84  C   UNL     1       5.929  -6.107  -0.586  1.00  0.00     0.172 C 
ATOM     85  C   UNL     1       6.502  -7.457  -0.195  1.00  0.00     0.037 C 
ATOM     86  C   UNL     1       4.447  -5.854  -0.182  1.00  0.00     0.249 C 
ATOM     87  C   UNL     1       6.022  -7.875   1.183  1.00  0.00     0.025 C 
ATOM     88  N   UNL     1       3.905  -6.686   0.801  1.00  0.00    -0.308 N 
ATOM     89  O   UNL     1       3.895  -4.824  -0.585  1.00  0.00    -0.272 OA
ATOM     90  C   UNL     1       4.514  -7.964   1.154  1.00  0.00     0.126 C 
BRANCH  88  91
ATOM     91  C   UNL     1       2.614  -6.420   1.347  1.00  0.00     0.080 A 
ATOM     92  C   UNL     1       2.438  -6.467   2.739  1.00  0.00     0.029 A 
ATOM     93  C   UNL     1       1.508  -6.118   0.543  1.00  0.00     0.146 A 
ATOM     94  C   UNL     1       1.189  -6.204   3.308  1.00  0.00     0.002 A 
ATOM     95  C   UNL     1       0.258  -5.865   1.108  1.00  0.00     0.041 A 
ATOM     96  F   UNL     1       1.598  -6.165  -0.794  1.00  0.00    -0.205 F 
ATOM     97  C   UNL     1       0.099  -5.903   2.493  1.00  0.00     0.003 A 
ENDBRANCH  88  91
ENDBRANCH  82  84
ENDBRANCH  76  80
ENDBRANCH  72  74
ENDBRANCH  71  72
ENDBRANCH  70  71
ENDBRANCH  69  70
ENDBRANCH   1  69
TORSDOF 20
