REMARK SMILES O=C(OCCOCCOC(=O)c1ccc(-c2c3nc(c(-c4ccc(S(=O)(=O)[O-])cc4)c4ccc([nH]4)c(-c4ccc(S(=O)(=O)[O-])cc4)c4nc(c(-c5ccc(S(=O)(=O)[O-])cc5)c5ccc2[nH]5)C=C4)C=C3)cc1)c1ccc(N[C@H]2OC[C@@H](O)[C@@H](O)[C@H]2O)cc1
REMARK SMILES IDX 6 1 5 2 4 3 3 4 2 5 1 6 72 7 73 8 87 9 74 10 86 11 75 12
REMARK SMILES IDX 76 13 77 15 78 16 84 17 79 18 82 19 80 20 85 21 83 23 81 25
REMARK SMILES IDX 7 27 8 28 9 29 10 30 11 31 12 32 13 33 71 34 14 35 70 36
REMARK SMILES IDX 15 37 16 38 17 39 64 40 18 41 69 42 63 43 65 44 19 45 68 46
REMARK SMILES IDX 62 47 61 48 20 50 50 51 31 52 49 53 32 54 35 55 48 56 66 57
REMARK SMILES IDX 33 58 34 59 47 61 67 62 36 63 21 64 22 65 30 66 23 67 29 68
REMARK SMILES IDX 24 69 25 70 26 71 27 72 28 73 51 74 52 75 60 76 53 77 59 78
REMARK SMILES IDX 54 79 55 80 56 81 57 82 58 83 37 84 38 85 46 86 39 87 45 88
REMARK SMILES IDX 40 89 41 90 42 91 43 92 44 93
REMARK H PARENT 76 14 85 22 83 24 81 26 65 49 35 60
REMARK Flexibility Score: inf
ROOT
ATOM      1  O   UNL     1       3.058  -1.060   9.493  1.00  0.00    -0.374 OA
ENDROOT
BRANCH   1   2
ATOM      2  C   UNL     1       2.414  -2.297   9.796  1.00  0.00     0.202 C 
BRANCH   2   3
ATOM      3  C   UNL     1       3.354  -3.503   9.801  1.00  0.00     0.261 C 
BRANCH   3   4
ATOM      4  O   UNL     1       4.429  -3.309  10.746  1.00  0.00    -0.460 OA
BRANCH   4   5
ATOM      5  C   UNL     1       5.755  -3.275  10.459  1.00  0.00     0.338 C 
ATOM      6  O   UNL     1       6.592  -3.324  11.355  1.00  0.00    -0.246 OA
BRANCH   5   7
ATOM      7  C   UNL     1       6.226  -3.164   9.056  1.00  0.00     0.060 A 
ATOM      8  C   UNL     1       5.649  -2.275   8.163  1.00  0.00     0.018 A 
ATOM      9  C   UNL     1       7.354  -3.877   8.641  1.00  0.00     0.018 A 
ATOM     10  C   UNL     1       6.105  -2.170   6.858  1.00  0.00     0.026 A 
ATOM     11  C   UNL     1       7.843  -3.732   7.329  1.00  0.00     0.026 A 
ATOM     12  C   UNL     1       7.207  -2.893   6.404  1.00  0.00     0.036 A 
BRANCH  12  13
ATOM     13  N   UNL     1       7.727  -2.713   5.129  1.00  0.00    -0.358 N 
ATOM     14  H   UNL     1       8.558  -3.173   4.872  1.00  0.00     0.163 HD
BRANCH  13  15
ATOM     15  C   UNL     1       7.052  -1.849   4.168  1.00  0.00     0.244 C 
ATOM     16  O   UNL     1       7.079  -0.509   4.677  1.00  0.00    -0.353 OA
ATOM     17  C   UNL     1       7.799  -1.840   2.822  1.00  0.00     0.195 C 
ATOM     18  C   UNL     1       6.283   0.389   3.896  1.00  0.00     0.197 C 
ATOM     19  C   UNL     1       7.058  -0.882   1.873  1.00  0.00     0.178 C 
ATOM     20  C   UNL     1       6.873   0.516   2.493  1.00  0.00     0.171 C 
BRANCH  17  21
ATOM     21  O   UNL     1       9.158  -1.381   3.022  1.00  0.00    -0.386 OA
ATOM     22  H   UNL     1       9.145  -0.488   3.400  1.00  0.00     0.211 HD
ENDBRANCH  17  21
BRANCH  19  23
ATOM     23  O   UNL     1       7.767  -0.777   0.636  1.00  0.00    -0.387 OA
ATOM     24  H   UNL     1       8.649  -0.408   0.800  1.00  0.00     0.211 HD
ENDBRANCH  19  23
BRANCH  20  25
ATOM     25  O   UNL     1       8.142   1.185   2.571  1.00  0.00    -0.388 OA
ATOM     26  H   UNL     1       8.745   0.670   3.129  1.00  0.00     0.211 HD
ENDBRANCH  20  25
ENDBRANCH  13  15
ENDBRANCH  12  13
ENDBRANCH   5   7
ENDBRANCH   4   5
ENDBRANCH   3   4
ENDBRANCH   2   3
ENDBRANCH   1   2
BRANCH   1  27
ATOM     27  C   UNL     1       3.685  -0.404  10.605  1.00  0.00     0.202 C 
BRANCH  27  28
ATOM     28  C   UNL     1       3.420   1.102  10.510  1.00  0.00     0.261 C 
BRANCH  28  29
ATOM     29  O   UNL     1       2.017   1.317  10.705  1.00  0.00    -0.460 OA
BRANCH  29  30
ATOM     30  C   UNL     1       1.261   1.112   9.592  1.00  0.00     0.338 C 
ATOM     31  O   UNL     1       1.598   1.264   8.436  1.00  0.00    -0.246 OA
BRANCH  30  32
ATOM     32  C   UNL     1       0.012   0.441  10.024  1.00  0.00     0.060 A 
ATOM     33  C   UNL     1      -0.589  -0.479   9.153  1.00  0.00     0.016 A 
ATOM     34  C   UNL     1      -0.528   0.669  11.293  1.00  0.00     0.016 A 
ATOM     35  C   UNL     1      -1.756  -1.144   9.533  1.00  0.00     0.010 A 
ATOM     36  C   UNL     1      -1.687   0.007  11.675  1.00  0.00     0.010 A 
ATOM     37  C   UNL     1      -2.325  -0.870  10.781  1.00  0.00    -0.014 A 
BRANCH  37  38
ATOM     38  C   UNL     1      -3.702  -1.291  11.110  1.00  0.00     0.031 A 
ATOM     39  C   UNL     1      -4.789  -0.267  10.947  1.00  0.00     0.074 A 
ATOM     40  C   UNL     1      -3.952  -2.494  11.651  1.00  0.00     0.049 A 
ATOM     41  N   UNL     1      -6.024  -0.295  11.365  1.00  0.00    -0.248 NA
ATOM     42  C   UNL     1      -4.412   0.972  10.244  1.00  0.00     0.031 C 
ATOM     43  C   UNL     1      -2.967  -3.557  11.842  1.00  0.00     0.029 A 
ATOM     44  N   UNL     1      -5.109  -3.000  12.184  1.00  0.00    -0.354 N 
ATOM     45  C   UNL     1      -6.562   0.937  11.011  1.00  0.00     0.074 A 
ATOM     46  C   UNL     1      -5.515   1.693  10.362  1.00  0.00     0.031 C 
ATOM     47  C   UNL     1      -3.555  -4.580  12.489  1.00  0.00     0.029 A 
ATOM     48  C   UNL     1      -4.940  -4.221  12.792  1.00  0.00     0.049 A 
ATOM     49  H   UNL     1      -5.976  -2.535  12.136  1.00  0.00     0.167 HD
ATOM     50  C   UNL     1      -7.817   1.398  11.219  1.00  0.00     0.031 A 
ATOM     51  C   UNL     1      -5.794  -4.941  13.546  1.00  0.00     0.031 A 
ATOM     52  C   UNL     1      -8.836   0.638  11.887  1.00  0.00     0.049 A 
ATOM     53  C   UNL     1      -7.180  -4.405  13.790  1.00  0.00     0.074 A 
ATOM     54  C   UNL     1     -10.154   0.981  12.119  1.00  0.00     0.029 A 
ATOM     55  N   UNL     1      -8.639  -0.617  12.447  1.00  0.00    -0.354 N 
ATOM     56  N   UNL     1      -7.700  -3.263  13.404  1.00  0.00    -0.248 NA
ATOM     57  C   UNL     1      -8.097  -5.254  14.563  1.00  0.00     0.031 C 
ATOM     58  C   UNL     1     -10.740  -0.043  12.869  1.00  0.00     0.029 A 
ATOM     59  C   UNL     1      -9.806  -1.054  13.047  1.00  0.00     0.049 A 
ATOM     60  H   UNL     1      -7.795  -1.122  12.420  1.00  0.00     0.167 HD
ATOM     61  C   UNL     1      -9.013  -3.267  13.863  1.00  0.00     0.074 A 
ATOM     62  C   UNL     1      -9.209  -4.527  14.552  1.00  0.00     0.031 C 
ATOM     63  C   UNL     1      -9.973  -2.318  13.721  1.00  0.00     0.031 A 
BRANCH  50  64
ATOM     64  C   UNL     1      -8.120   2.800  10.764  1.00  0.00    -0.014 A 
ATOM     65  C   UNL     1      -8.155   3.138   9.398  1.00  0.00     0.010 A 
ATOM     66  C   UNL     1      -8.353   3.804  11.721  1.00  0.00     0.010 A 
ATOM     67  C   UNL     1      -8.355   4.463   9.001  1.00  0.00     0.020 A 
ATOM     68  C   UNL     1      -8.585   5.125  11.327  1.00  0.00     0.020 A 
ATOM     69  C   UNL     1      -8.559   5.450   9.970  1.00  0.00     0.054 A 
BRANCH  69  70
ATOM     70  S   UNL     1      -8.800   7.164   9.429  1.00  0.00     0.124 S 
ATOM     71  O   UNL     1      -7.448   7.543   9.026  1.00  0.00    -0.237 OA
ATOM     72  O   UNL     1      -9.763   7.024   8.339  1.00  0.00    -0.237 OA
ATOM     73  O   UNL     1      -9.306   7.837  10.622  1.00  0.00    -0.744 OA
ENDBRANCH  69  70
ENDBRANCH  50  64
BRANCH  51  74
ATOM     74  C   UNL     1      -5.342  -6.232  14.131  1.00  0.00    -0.014 A 
ATOM     75  C   UNL     1      -5.802  -7.454  13.612  1.00  0.00     0.010 A 
ATOM     76  C   UNL     1      -4.393  -6.245  15.171  1.00  0.00     0.010 A 
ATOM     77  C   UNL     1      -5.316  -8.665  14.116  1.00  0.00     0.020 A 
ATOM     78  C   UNL     1      -3.887  -7.453  15.660  1.00  0.00     0.020 A 
ATOM     79  C   UNL     1      -4.353  -8.657  15.129  1.00  0.00     0.054 A 
BRANCH  79  80
ATOM     80  S   UNL     1      -3.664 -10.239  15.691  1.00  0.00     0.124 S 
ATOM     81  O   UNL     1      -4.774 -10.802  16.451  1.00  0.00    -0.237 OA
ATOM     82  O   UNL     1      -3.353 -10.911  14.432  1.00  0.00    -0.237 OA
ATOM     83  O   UNL     1      -2.499  -9.844  16.481  1.00  0.00    -0.744 OA
ENDBRANCH  79  80
ENDBRANCH  51  74
BRANCH  63  84
ATOM     84  C   UNL     1     -11.339  -2.614  14.278  1.00  0.00    -0.014 A 
ATOM     85  C   UNL     1     -11.595  -2.553  15.658  1.00  0.00     0.010 A 
ATOM     86  C   UNL     1     -12.406  -2.843  13.389  1.00  0.00     0.010 A 
ATOM     87  C   UNL     1     -12.896  -2.722  16.140  1.00  0.00     0.020 A 
ATOM     88  C   UNL     1     -13.711  -2.987  13.865  1.00  0.00     0.020 A 
ATOM     89  C   UNL     1     -13.946  -2.931  15.240  1.00  0.00     0.054 A 
BRANCH  89  90
ATOM     90  S   UNL     1     -15.637  -3.061  15.884  1.00  0.00     0.124 S 
ATOM     91  O   UNL     1     -15.626  -4.386  16.500  1.00  0.00    -0.237 OA
ATOM     92  O   UNL     1     -15.713  -1.937  16.813  1.00  0.00    -0.237 OA
ATOM     93  O   UNL     1     -16.473  -2.935  14.693  1.00  0.00    -0.744 OA
ENDBRANCH  89  90
ENDBRANCH  63  84
ENDBRANCH  37  38
ENDBRANCH  30  32
ENDBRANCH  29  30
ENDBRANCH  28  29
ENDBRANCH  27  28
ENDBRANCH   1  27
TORSDOF 22
