REMARK SMILES Cc1ccc(-c2nn(CCC(=O)OCCOCCOC(=O)c3ccc(-c4c5nc(c(-c6ccc(S(=O)(=O)[O-])cc6)c6ccc([nH]6)c(-c6ccc(S(=O)(=O)[O-])cc6)c6nc(c(-c7ccc(S(=O)(=O)[O-])cc7)c7ccc4[nH]7)C=C6)C=C5)cc3)c(=O)c3noc(C)c23)cc1C
REMARK SMILES IDX 16 1 15 2 14 3 13 4 11 5 12 6 10 7 9 8 8 9 6 10 7 11 89 12
REMARK SMILES IDX 84 13 87 14 82 15 85 16 86 17 88 18 83 19 5 20 1 21 2 22
REMARK SMILES IDX 3 23 91 24 4 25 90 26 92 27 17 28 18 29 19 30 20 31 21 32
REMARK SMILES IDX 22 33 23 34 81 35 24 36 80 37 25 38 26 39 27 40 74 41 28 42
REMARK SMILES IDX 79 43 73 44 75 45 29 46 78 47 72 48 71 49 30 51 60 52 41 53
REMARK SMILES IDX 59 54 42 55 45 56 58 57 76 58 43 59 44 60 57 62 77 63 46 64
REMARK SMILES IDX 31 65 32 66 40 67 33 68 39 69 34 70 35 71 36 72 37 73 38 74
REMARK SMILES IDX 61 75 62 76 70 77 63 78 69 79 64 80 65 81 66 82 67 83 68 84
REMARK SMILES IDX 47 85 48 86 56 87 49 88 55 89 50 90 51 91 52 92 53 93 54 94
REMARK H PARENT 75 50 45 61
REMARK Flexibility Score: inf
ROOT
ATOM      1  O   UNL     1      -9.087  -5.015  -0.381  1.00  0.00    -0.374 OA
ENDROOT
BRANCH   1   2
ATOM      2  C   UNL     1      -7.898  -5.645   0.104  1.00  0.00     0.202 C 
BRANCH   2   3
ATOM      3  C   UNL     1      -6.910  -6.127  -0.978  1.00  0.00     0.261 C 
BRANCH   3   4
ATOM      4  O   UNL     1      -6.091  -5.086  -1.555  1.00  0.00    -0.463 OA
BRANCH   4   5
ATOM      5  C   UNL     1      -6.497  -4.536  -2.724  1.00  0.00     0.307 C 
ATOM      6  O   UNL     1      -7.453  -4.916  -3.389  1.00  0.00    -0.252 OA
BRANCH   5   7
ATOM      7  C   UNL     1      -5.574  -3.422  -3.176  1.00  0.00     0.146 C 
BRANCH   7   8
ATOM      8  C   UNL     1      -5.564  -2.160  -2.309  1.00  0.00     0.160 C 
BRANCH   8   9
ATOM      9  N   UNL     1      -4.707  -2.241  -1.123  1.00  0.00    -0.227 N 
ATOM     10  C   UNL     1      -2.706  -1.561  -0.109  1.00  0.00     0.104 A 
ATOM     11  N   UNL     1      -3.496  -1.539  -1.152  1.00  0.00    -0.169 NA
ATOM     12  C   UNL     1      -3.018  -2.383   1.030  1.00  0.00     0.078 A 
ATOM     13  C   UNL     1      -4.250  -3.035   1.075  1.00  0.00     0.183 A 
ATOM     14  C   UNL     1      -2.427  -2.712   2.228  1.00  0.00     0.143 A 
ATOM     15  C   UNL     1      -5.207  -2.840   0.034  1.00  0.00     0.296 A 
ATOM     16  N   UNL     1      -4.398  -3.796   2.162  1.00  0.00    -0.074 NA
ATOM     17  O   UNL     1      -3.239  -3.590   2.892  1.00  0.00    -0.360 OA
ATOM     18  C   UNL     1      -1.194  -2.352   2.948  1.00  0.00     0.091 C 
ATOM     19  O   UNL     1      -6.389  -3.154   0.158  1.00  0.00    -0.265 OA
BRANCH  10  20
ATOM     20  C   UNL     1      -1.497  -0.742  -0.100  1.00  0.00     0.003 A 
ATOM     21  C   UNL     1       2.046   1.667   0.039  1.00  0.00     0.044 C 
ATOM     22  C   UNL     1       0.821   0.796  -0.018  1.00  0.00    -0.048 A 
ATOM     23  C   UNL     1      -0.445   1.410  -0.014  1.00  0.00     0.004 A 
ATOM     24  C   UNL     1       0.915  -0.610  -0.071  1.00  0.00    -0.048 A 
ATOM     25  C   UNL     1      -1.607   0.645  -0.056  1.00  0.00     0.011 A 
ATOM     26  C   UNL     1      -0.257  -1.371  -0.129  1.00  0.00     0.014 A 
ATOM     27  C   UNL     1       2.214  -1.365  -0.034  1.00  0.00     0.044 C 
ENDBRANCH  10  20
ENDBRANCH   8   9
ENDBRANCH   7   8
ENDBRANCH   5   7
ENDBRANCH   4   5
ENDBRANCH   3   4
ENDBRANCH   2   3
ENDBRANCH   1   2
BRANCH   1  28
ATOM     28  C   UNL     1      -9.033  -3.607  -0.585  1.00  0.00     0.202 C 
BRANCH  28  29
ATOM     29  C   UNL     1      -9.253  -2.662   0.623  1.00  0.00     0.261 C 
BRANCH  29  30
ATOM     30  O   UNL     1      -8.401  -2.809   1.772  1.00  0.00    -0.460 OA
BRANCH  30  31
ATOM     31  C   UNL     1      -8.813  -3.740   2.659  1.00  0.00     0.338 C 
ATOM     32  O   UNL     1      -9.769  -4.489   2.520  1.00  0.00    -0.246 OA
BRANCH  31  33
ATOM     33  C   UNL     1      -7.963  -3.794   3.870  1.00  0.00     0.060 A 
ATOM     34  C   UNL     1      -7.798  -5.051   4.461  1.00  0.00     0.016 A 
ATOM     35  C   UNL     1      -7.487  -2.650   4.519  1.00  0.00     0.016 A 
ATOM     36  C   UNL     1      -7.226  -5.165   5.725  1.00  0.00     0.010 A 
ATOM     37  C   UNL     1      -6.917  -2.768   5.796  1.00  0.00     0.010 A 
ATOM     38  C   UNL     1      -6.807  -4.022   6.420  1.00  0.00    -0.014 A 
BRANCH  38  39
ATOM     39  C   UNL     1      -6.215  -4.229   7.763  1.00  0.00     0.031 A 
ATOM     40  C   UNL     1      -4.987  -3.429   8.058  1.00  0.00     0.074 A 
ATOM     41  C   UNL     1      -6.983  -4.601   8.815  1.00  0.00     0.049 A 
ATOM     42  N   UNL     1      -5.030  -2.167   8.372  1.00  0.00    -0.248 NA
ATOM     43  C   UNL     1      -3.638  -3.920   7.783  1.00  0.00     0.031 C 
ATOM     44  C   UNL     1      -8.372  -4.152   8.998  1.00  0.00     0.029 A 
ATOM     45  N   UNL     1      -6.666  -5.201  10.015  1.00  0.00    -0.354 N 
ATOM     46  C   UNL     1      -3.737  -1.678   8.312  1.00  0.00     0.074 A 
ATOM     47  C   UNL     1      -2.906  -2.804   7.944  1.00  0.00     0.031 C 
ATOM     48  C   UNL     1      -8.719  -4.328  10.289  1.00  0.00     0.029 A 
ATOM     49  C   UNL     1      -7.651  -5.036  10.990  1.00  0.00     0.049 A 
ATOM     50  H   UNL     1      -5.829  -5.696  10.168  1.00  0.00     0.167 HD
ATOM     51  C   UNL     1      -3.434  -0.379   8.581  1.00  0.00     0.031 A 
ATOM     52  C   UNL     1      -7.415  -4.962  12.332  1.00  0.00     0.031 A 
ATOM     53  C   UNL     1      -4.550   0.432   8.978  1.00  0.00     0.049 A 
ATOM     54  C   UNL     1      -6.857  -3.564  12.435  1.00  0.00     0.074 A 
ATOM     55  C   UNL     1      -5.447   1.294   8.386  1.00  0.00     0.029 A 
ATOM     56  N   UNL     1      -4.963   0.353  10.287  1.00  0.00    -0.354 N 
ATOM     57  N   UNL     1      -7.545  -2.453  12.406  1.00  0.00    -0.248 NA
ATOM     58  C   UNL     1      -5.426  -3.402  12.164  1.00  0.00     0.031 C 
ATOM     59  C   UNL     1      -6.592   1.302   9.246  1.00  0.00     0.029 A 
ATOM     60  C   UNL     1      -6.334   0.410  10.287  1.00  0.00     0.049 A 
ATOM     61  H   UNL     1      -4.383   0.271  11.078  1.00  0.00     0.167 HD
ATOM     62  C   UNL     1      -6.710  -1.518  11.790  1.00  0.00     0.074 A 
ATOM     63  C   UNL     1      -5.415  -2.165  11.687  1.00  0.00     0.031 C 
ATOM     64  C   UNL     1      -7.143  -0.357  11.214  1.00  0.00     0.031 A 
BRANCH  51  65
ATOM     65  C   UNL     1      -2.066   0.182   8.665  1.00  0.00    -0.014 A 
ATOM     66  C   UNL     1      -1.540   0.418   9.949  1.00  0.00     0.010 A 
ATOM     67  C   UNL     1      -1.388   0.686   7.545  1.00  0.00     0.010 A 
ATOM     68  C   UNL     1      -0.398   1.195  10.123  1.00  0.00     0.020 A 
ATOM     69  C   UNL     1      -0.227   1.457   7.714  1.00  0.00     0.020 A 
ATOM     70  C   UNL     1       0.244   1.726   9.004  1.00  0.00     0.054 A 
BRANCH  70  71
ATOM     71  S   UNL     1       1.667   2.815   9.282  1.00  0.00     0.124 S 
ATOM     72  O   UNL     1       1.073   3.920  10.029  1.00  0.00    -0.237 OA
ATOM     73  O   UNL     1       2.571   1.954  10.041  1.00  0.00    -0.237 OA
ATOM     74  O   UNL     1       2.116   3.147   7.932  1.00  0.00    -0.744 OA
ENDBRANCH  70  71
ENDBRANCH  51  65
BRANCH  52  75
ATOM     75  C   UNL     1      -6.756  -6.170  12.934  1.00  0.00    -0.014 A 
ATOM     76  C   UNL     1      -7.378  -7.418  12.706  1.00  0.00     0.010 A 
ATOM     77  C   UNL     1      -5.556  -6.174  13.666  1.00  0.00     0.010 A 
ATOM     78  C   UNL     1      -6.746  -8.621  13.030  1.00  0.00     0.020 A 
ATOM     79  C   UNL     1      -4.899  -7.377  13.970  1.00  0.00     0.020 A 
ATOM     80  C   UNL     1      -5.480  -8.592  13.608  1.00  0.00     0.054 A 
BRANCH  80  81
ATOM     81  S   UNL     1      -4.578 -10.155  13.786  1.00  0.00     0.124 S 
ATOM     82  O   UNL     1      -5.438 -10.915  14.687  1.00  0.00    -0.237 OA
ATOM     83  O   UNL     1      -4.529 -10.635  12.406  1.00  0.00    -0.237 OA
ATOM     84  O   UNL     1      -3.291  -9.749  14.344  1.00  0.00    -0.744 OA
ENDBRANCH  80  81
ENDBRANCH  52  75
BRANCH  64  85
ATOM     85  C   UNL     1      -8.587   0.001  11.393  1.00  0.00    -0.014 A 
ATOM     86  C   UNL     1      -9.071   0.369  12.657  1.00  0.00     0.010 A 
ATOM     87  C   UNL     1      -9.454   0.075  10.285  1.00  0.00     0.010 A 
ATOM     88  C   UNL     1     -10.371   0.861  12.803  1.00  0.00     0.020 A 
ATOM     89  C   UNL     1     -10.749   0.583  10.421  1.00  0.00     0.020 A 
ATOM     90  C   UNL     1     -11.194   0.990  11.680  1.00  0.00     0.054 A 
BRANCH  90  91
ATOM     91  S   UNL     1     -12.824   1.756  11.884  1.00  0.00     0.124 S 
ATOM     92  O   UNL     1     -13.512   0.811  12.759  1.00  0.00    -0.237 OA
ATOM     93  O   UNL     1     -12.492   3.044  12.491  1.00  0.00    -0.237 OA
ATOM     94  O   UNL     1     -13.348   1.837  10.522  1.00  0.00    -0.744 OA
ENDBRANCH  90  91
ENDBRANCH  64  85
ENDBRANCH  38  39
ENDBRANCH  31  33
ENDBRANCH  30  31
ENDBRANCH  29  30
ENDBRANCH  28  29
ENDBRANCH   1  28
TORSDOF 20
