REMARK SMILES Cc1cc(=O)n(Cc2cc(C(=O)OCCOCCOC(=O)c3ccc(-c4c5nc(c(-c6ccc(S(=O)(=O)[O-])cc6)c6ccc([nH]6)c(-c6ccc(S(=O)(=O)[O-])cc6)c6nc(c(-c7ccc(S(=O)(=O)[O-])cc7)c7ccc4[nH]7)C=C6)C=C5)cc3)oc2C)cc1[N+](=O)[O-]
REMARK SMILES IDX 16 1 15 2 14 3 13 4 11 5 12 6 10 7 8 8 9 9 83 10 82 11 84 12
REMARK SMILES IDX 7 13 6 14 1 15 2 16 3 17 86 18 4 19 85 20 5 21 87 22 88 23
REMARK SMILES IDX 89 24 17 25 18 26 19 27 20 28 21 29 22 30 23 31 81 32 24 33
REMARK SMILES IDX 80 34 25 35 26 36 27 37 74 38 28 39 79 40 73 41 75 42 29 43
REMARK SMILES IDX 78 44 72 45 71 46 30 48 60 49 41 50 59 51 42 52 45 53 58 54
REMARK SMILES IDX 76 55 43 56 44 57 57 59 77 60 46 61 31 62 32 63 40 64 33 65
REMARK SMILES IDX 39 66 34 67 35 68 36 69 37 70 38 71 61 72 62 73 70 74 63 75
REMARK SMILES IDX 69 76 64 77 65 78 66 79 67 80 68 81 47 82 48 83 56 84 49 85
REMARK SMILES IDX 55 86 50 87 51 88 52 89 53 90 54 91
REMARK H PARENT 75 47 45 58
REMARK Flexibility Score: inf
ROOT
ATOM      1  O   UNL     1       4.760  -5.320  -8.356  1.00  0.00    -0.374 OA
ENDROOT
BRANCH   1   2
ATOM      2  C   UNL     1       4.819  -5.962  -7.080  1.00  0.00     0.202 C 
BRANCH   2   3
ATOM      3  C   UNL     1       5.216  -5.024  -5.936  1.00  0.00     0.261 C 
BRANCH   3   4
ATOM      4  O   UNL     1       4.180  -4.055  -5.707  1.00  0.00    -0.457 OA
BRANCH   4   5
ATOM      5  C   UNL     1       4.417  -2.804  -6.197  1.00  0.00     0.374 C 
ATOM      6  O   UNL     1       5.495  -2.411  -6.629  1.00  0.00    -0.242 OA
BRANCH   5   7
ATOM      7  C   UNL     1       3.184  -2.053  -6.207  1.00  0.00     0.212 A 
ATOM      8  C   UNL     1       1.114  -1.155  -5.983  1.00  0.00     0.014 A 
ATOM      9  C   UNL     1       1.952  -2.255  -5.616  1.00  0.00     0.064 A 
ATOM     10  C   UNL     1       1.875  -0.397  -6.854  1.00  0.00     0.107 A 
ATOM     11  O   UNL     1       3.124  -0.922  -6.973  1.00  0.00    -0.454 OA
ATOM     12  C   UNL     1       1.632   0.821  -7.653  1.00  0.00     0.088 C 
BRANCH   8  13
ATOM     13  C   UNL     1      -0.275  -0.894  -5.488  1.00  0.00     0.164 C 
BRANCH  13  14
ATOM     14  N   UNL     1      -0.192  -0.615  -4.053  1.00  0.00    -0.304 N 
ATOM     15  C   UNL     1       0.791   0.069   0.082  1.00  0.00     0.052 C 
ATOM     16  C   UNL     1       0.368  -0.153  -1.342  1.00  0.00     0.034 A 
ATOM     17  C   UNL     1       0.027  -1.391  -1.752  1.00  0.00     0.082 A 
ATOM     18  C   UNL     1       0.346   0.933  -2.319  1.00  0.00     0.288 A 
ATOM     19  C   UNL     1      -0.309  -1.686  -3.171  1.00  0.00     0.251 A 
ATOM     20  C   UNL     1       0.096   0.673  -3.616  1.00  0.00     0.175 A 
ATOM     21  O   UNL     1      -0.616  -2.829  -3.493  1.00  0.00    -0.269 OA
BRANCH  18  22
ATOM     22  N   UNL     1       0.578   2.346  -1.992  1.00  0.00     0.064 N 
ATOM     23  O   UNL     1       0.072   3.202  -2.736  1.00  0.00    -0.258 OA
ATOM     24  O   UNL     1       1.264   2.614  -0.999  1.00  0.00    -0.258 OA
ENDBRANCH  18  22
ENDBRANCH  13  14
ENDBRANCH   8  13
ENDBRANCH   5   7
ENDBRANCH   4   5
ENDBRANCH   3   4
ENDBRANCH   2   3
ENDBRANCH   1   2
BRANCH   1  25
ATOM     25  C   UNL     1       3.486  -4.782  -8.723  1.00  0.00     0.202 C 
BRANCH  25  26
ATOM     26  C   UNL     1       2.553  -5.784  -9.409  1.00  0.00     0.261 C 
BRANCH  26  27
ATOM     27  O   UNL     1       2.026  -6.717  -8.449  1.00  0.00    -0.460 OA
BRANCH  27  28
ATOM     28  C   UNL     1       2.543  -7.969  -8.504  1.00  0.00     0.338 C 
ATOM     29  O   UNL     1       3.310  -8.406  -9.345  1.00  0.00    -0.246 OA
BRANCH  28  30
ATOM     30  C   UNL     1       2.177  -8.710  -7.274  1.00  0.00     0.060 A 
ATOM     31  C   UNL     1       0.948  -8.534  -6.633  1.00  0.00     0.016 A 
ATOM     32  C   UNL     1       3.115  -9.615  -6.757  1.00  0.00     0.016 A 
ATOM     33  C   UNL     1       0.650  -9.284  -5.491  1.00  0.00     0.010 A 
ATOM     34  C   UNL     1       2.813 -10.369  -5.622  1.00  0.00     0.010 A 
ATOM     35  C   UNL     1       1.572 -10.221  -4.989  1.00  0.00    -0.014 A 
BRANCH  35  36
ATOM     36  C   UNL     1       1.172 -11.138  -3.894  1.00  0.00     0.031 A 
ATOM     37  C   UNL     1       1.671 -10.964  -2.492  1.00  0.00     0.074 A 
ATOM     38  C   UNL     1       0.346 -12.160  -4.190  1.00  0.00     0.049 A 
ATOM     39  N   UNL     1       1.291 -11.590  -1.408  1.00  0.00    -0.248 NA
ATOM     40  C   UNL     1       2.736  -9.974  -2.276  1.00  0.00     0.031 C 
ATOM     41  C   UNL     1      -0.156 -12.465  -5.530  1.00  0.00     0.029 A 
ATOM     42  N   UNL     1      -0.229 -13.115  -3.390  1.00  0.00    -0.354 N 
ATOM     43  C   UNL     1       2.051 -11.059  -0.375  1.00  0.00     0.074 A 
ATOM     44  C   UNL     1       2.952 -10.094  -0.971  1.00  0.00     0.031 C 
ATOM     45  C   UNL     1      -0.997 -13.506  -5.455  1.00  0.00     0.029 A 
ATOM     46  C   UNL     1      -1.084 -13.952  -4.066  1.00  0.00     0.049 A 
ATOM     47  H   UNL     1      -0.047 -13.193  -2.425  1.00  0.00     0.167 HD
ATOM     48  C   UNL     1       1.986 -11.340   0.949  1.00  0.00     0.031 A 
ATOM     49  C   UNL     1      -1.876 -14.948  -3.623  1.00  0.00     0.031 A 
ATOM     50  C   UNL     1       1.102 -12.322   1.526  1.00  0.00     0.049 A 
ATOM     51  C   UNL     1      -1.946 -15.235  -2.151  1.00  0.00     0.074 A 
ATOM     52  C   UNL     1       0.929 -12.637   2.863  1.00  0.00     0.029 A 
ATOM     53  N   UNL     1       0.257 -13.156   0.808  1.00  0.00    -0.354 N 
ATOM     54  N   UNL     1      -1.300 -14.649  -1.172  1.00  0.00    -0.248 NA
ATOM     55  C   UNL     1      -2.870 -16.291  -1.719  1.00  0.00     0.031 C 
ATOM     56  C   UNL     1       0.028 -13.703   2.949  1.00  0.00     0.029 A 
ATOM     57  C   UNL     1      -0.418 -14.004   1.672  1.00  0.00     0.049 A 
ATOM     58  H   UNL     1       0.152 -13.147  -0.171  1.00  0.00     0.167 HD
ATOM     59  C   UNL     1      -1.756 -15.249  -0.004  1.00  0.00     0.074 A 
ATOM     60  C   UNL     1      -2.741 -16.236  -0.398  1.00  0.00     0.031 C 
ATOM     61  C   UNL     1      -1.392 -14.994   1.277  1.00  0.00     0.031 A 
BRANCH  48  62
ATOM     62  C   UNL     1       2.882 -10.568   1.883  1.00  0.00    -0.014 A 
ATOM     63  C   UNL     1       3.902 -11.230   2.591  1.00  0.00     0.010 A 
ATOM     64  C   UNL     1       2.643  -9.207   2.145  1.00  0.00     0.010 A 
ATOM     65  C   UNL     1       4.656 -10.552   3.554  1.00  0.00     0.020 A 
ATOM     66  C   UNL     1       3.411  -8.518   3.089  1.00  0.00     0.020 A 
ATOM     67  C   UNL     1       4.400  -9.200   3.801  1.00  0.00     0.054 A 
BRANCH  67  68
ATOM     68  S   UNL     1       5.386  -8.332   5.052  1.00  0.00     0.124 S 
ATOM     69  O   UNL     1       4.778  -8.789   6.296  1.00  0.00    -0.237 OA
ATOM     70  O   UNL     1       6.739  -8.821   4.791  1.00  0.00    -0.237 OA
ATOM     71  O   UNL     1       5.174  -6.921   4.731  1.00  0.00    -0.744 OA
ENDBRANCH  67  68
ENDBRANCH  48  62
BRANCH  49  72
ATOM     72  C   UNL     1      -2.732 -15.662  -4.608  1.00  0.00    -0.014 A 
ATOM     73  C   UNL     1      -2.154 -16.519  -5.563  1.00  0.00     0.010 A 
ATOM     74  C   UNL     1      -4.106 -15.375  -4.687  1.00  0.00     0.010 A 
ATOM     75  C   UNL     1      -2.919 -17.022  -6.618  1.00  0.00     0.020 A 
ATOM     76  C   UNL     1      -4.881 -15.898  -5.726  1.00  0.00     0.020 A 
ATOM     77  C   UNL     1      -4.273 -16.689  -6.704  1.00  0.00     0.054 A 
BRANCH  77  78
ATOM     78  S   UNL     1      -5.225 -17.271  -8.135  1.00  0.00     0.124 S 
ATOM     79  O   UNL     1      -4.756 -16.374  -9.189  1.00  0.00    -0.237 OA
ATOM     80  O   UNL     1      -4.800 -18.663  -8.258  1.00  0.00    -0.237 OA
ATOM     81  O   UNL     1      -6.613 -17.079  -7.723  1.00  0.00    -0.744 OA
ENDBRANCH  77  78
ENDBRANCH  49  72
BRANCH  61  82
ATOM     82  C   UNL     1      -2.054 -15.785   2.377  1.00  0.00    -0.014 A 
ATOM     83  C   UNL     1      -2.905 -15.131   3.287  1.00  0.00     0.010 A 
ATOM     84  C   UNL     1      -1.744 -17.141   2.585  1.00  0.00     0.010 A 
ATOM     85  C   UNL     1      -3.410 -15.807   4.401  1.00  0.00     0.020 A 
ATOM     86  C   UNL     1      -2.270 -17.829   3.683  1.00  0.00     0.020 A 
ATOM     87  C   UNL     1      -3.081 -17.150   4.597  1.00  0.00     0.054 A 
BRANCH  87  88
ATOM     88  S   UNL     1      -3.728 -18.008   6.059  1.00  0.00     0.124 S 
ATOM     89  O   UNL     1      -2.834 -17.536   7.113  1.00  0.00    -0.237 OA
ATOM     90  O   UNL     1      -5.104 -17.523   6.137  1.00  0.00    -0.237 OA
ATOM     91  O   UNL     1      -3.594 -19.421   5.713  1.00  0.00    -0.744 OA
ENDBRANCH  87  88
ENDBRANCH  61  82
ENDBRANCH  35  36
ENDBRANCH  28  30
ENDBRANCH  27  28
ENDBRANCH  26  27
ENDBRANCH  25  26
ENDBRANCH   1  25
TORSDOF 20
