REMARK SMILES C[C@@H](Oc1ccccc1Cl)C(=O)N1CC[C@H](C(=O)OCCOCCOC(=O)c2ccc(-c3c4nc(c(-c5ccc(S(=O)(=O)[O-])cc5)c5ccc([nH]5)c(-c5ccc(S(=O)(=O)[O-])cc5)c5nc(c(-c6ccc(S(=O)(=O)[O-])cc6)c6ccc3[nH]6)C=C5)C=C4)cc2)[C@@H]1C
REMARK SMILES IDX 21 1 20 2 19 3 17 4 18 5 16 6 13 7 14 8 88 9 15 10 89 11
REMARK SMILES IDX 11 12 12 13 2 14 1 15 3 16 4 17 5 18 9 19 6 20 8 21 10 22
REMARK SMILES IDX 7 23 22 24 23 25 24 26 25 27 26 28 27 29 28 30 29 31 87 32
REMARK SMILES IDX 30 33 86 34 31 35 32 36 33 37 80 38 34 39 85 40 79 41 81 42
REMARK SMILES IDX 35 43 84 44 78 45 77 46 36 48 66 49 47 50 65 51 48 52 51 53
REMARK SMILES IDX 64 54 82 55 49 56 50 57 63 59 83 60 52 61 37 62 38 63 46 64
REMARK SMILES IDX 39 65 45 66 40 67 41 68 42 69 43 70 44 71 67 72 68 73 76 74
REMARK SMILES IDX 69 75 75 76 70 77 71 78 72 79 73 80 74 81 53 82 54 83 62 84
REMARK SMILES IDX 55 85 61 86 56 87 57 88 58 89 59 90 60 91
REMARK H PARENT 81 47 51 58
REMARK Flexibility Score: inf
ROOT
ATOM      1  C   UNL     1      -5.213   4.580  -1.826  1.00  0.00     0.202 C 
ENDROOT
BRANCH   1   2
ATOM      2  C   UNL     1      -5.575   3.708  -0.621  1.00  0.00     0.261 C 
BRANCH   2   3
ATOM      3  O   UNL     1      -4.457   3.618   0.279  1.00  0.00    -0.463 OA
BRANCH   3   4
ATOM      4  C   UNL     1      -4.036   2.359   0.578  1.00  0.00     0.311 C 
ATOM      5  O   UNL     1      -4.635   1.333   0.288  1.00  0.00    -0.252 OA
BRANCH   4   6
ATOM      6  C   UNL     1      -2.711   2.412   1.324  1.00  0.00     0.123 C 
ATOM      7  N   UNL     1      -1.649   0.289   1.636  1.00  0.00    -0.336 N 
ATOM      8  C   UNL     1      -2.772   0.379   2.555  1.00  0.00     0.121 C 
ATOM      9  C   UNL     1      -1.584   1.488   0.786  1.00  0.00     0.096 C 
ATOM     10  C   UNL     1      -2.959   1.881   2.733  1.00  0.00     0.039 C 
ATOM     11  C   UNL     1      -1.657   1.183  -0.711  1.00  0.00     0.032 C 
BRANCH   7  12
ATOM     12  C   UNL     1      -0.734  -0.728   1.815  1.00  0.00     0.263 C 
ATOM     13  O   UNL     1      -1.067  -1.772   2.393  1.00  0.00    -0.271 OA
BRANCH  12  14
ATOM     14  C   UNL     1       0.743  -0.559   1.399  1.00  0.00     0.259 C 
ATOM     15  C   UNL     1       1.004  -0.662  -0.095  1.00  0.00     0.064 C 
BRANCH  14  16
ATOM     16  O   UNL     1       1.267   0.672   1.920  1.00  0.00    -0.479 OA
BRANCH  16  17
ATOM     17  C   UNL     1       2.565   0.537   2.343  1.00  0.00     0.139 A 
ATOM     18  C   UNL     1       2.828  -0.107   3.555  1.00  0.00     0.048 A 
ATOM     19  C   UNL     1       3.616   1.087   1.600  1.00  0.00     0.083 A 
ATOM     20  C   UNL     1       4.146  -0.259   3.991  1.00  0.00     0.004 A 
ATOM     21  C   UNL     1       4.933   0.919   2.031  1.00  0.00     0.024 A 
ATOM     22  Cl  UNL     1       3.333   1.974   0.148  1.00  0.00    -0.080 Cl
ATOM     23  C   UNL     1       5.197   0.241   3.223  1.00  0.00     0.002 A 
ENDBRANCH  16  17
ENDBRANCH  14  16
ENDBRANCH  12  14
ENDBRANCH   7  12
ENDBRANCH   4   6
ENDBRANCH   3   4
ENDBRANCH   2   3
ENDBRANCH   1   2
BRANCH   1  24
ATOM     24  O   UNL     1      -4.226   4.062  -2.723  1.00  0.00    -0.374 OA
BRANCH  24  25
ATOM     25  C   UNL     1      -2.876   4.027  -2.272  1.00  0.00     0.202 C 
BRANCH  25  26
ATOM     26  C   UNL     1      -2.059   5.323  -2.313  1.00  0.00     0.261 C 
BRANCH  26  27
ATOM     27  O   UNL     1      -2.693   6.406  -1.625  1.00  0.00    -0.460 OA
BRANCH  27  28
ATOM     28  C   UNL     1      -3.319   7.281  -2.447  1.00  0.00     0.338 C 
ATOM     29  O   UNL     1      -3.318   7.276  -3.672  1.00  0.00    -0.246 OA
BRANCH  28  30
ATOM     30  C   UNL     1      -4.186   8.168  -1.658  1.00  0.00     0.060 A 
ATOM     31  C   UNL     1      -5.535   8.242  -2.028  1.00  0.00     0.016 A 
ATOM     32  C   UNL     1      -3.686   8.946  -0.612  1.00  0.00     0.016 A 
ATOM     33  C   UNL     1      -6.381   9.137  -1.385  1.00  0.00     0.010 A 
ATOM     34  C   UNL     1      -4.536   9.854   0.025  1.00  0.00     0.010 A 
ATOM     35  C   UNL     1      -5.875   9.978  -0.386  1.00  0.00    -0.014 A 
BRANCH  35  36
ATOM     36  C   UNL     1      -6.713  11.094   0.105  1.00  0.00     0.031 A 
ATOM     37  C   UNL     1      -6.492  12.467  -0.466  1.00  0.00     0.074 A 
ATOM     38  C   UNL     1      -7.684  10.875   1.008  1.00  0.00     0.049 A 
ATOM     39  N   UNL     1      -7.108  13.586  -0.190  1.00  0.00    -0.248 NA
ATOM     40  C   UNL     1      -5.437  12.595  -1.486  1.00  0.00     0.031 C 
ATOM     41  C   UNL     1      -8.017   9.576   1.594  1.00  0.00     0.029 A 
ATOM     42  N   UNL     1      -8.572  11.744   1.588  1.00  0.00    -0.354 N 
ATOM     43  C   UNL     1      -6.513  14.552  -0.994  1.00  0.00     0.074 A 
ATOM     44  C   UNL     1      -5.468  13.894  -1.746  1.00  0.00     0.031 C 
ATOM     45  C   UNL     1      -9.038   9.736   2.454  1.00  0.00     0.029 A 
ATOM     46  C   UNL     1      -9.407  11.149   2.502  1.00  0.00     0.049 A 
ATOM     47  H   UNL     1      -8.608  12.703   1.369  1.00  0.00     0.167 HD
ATOM     48  C   UNL     1      -6.817  15.867  -1.101  1.00  0.00     0.031 A 
ATOM     49  C   UNL     1     -10.349  11.688   3.300  1.00  0.00     0.031 A 
ATOM     50  C   UNL     1      -7.849  16.516  -0.338  1.00  0.00     0.049 A 
ATOM     51  C   UNL     1     -10.619  13.168   3.216  1.00  0.00     0.074 A 
ATOM     52  C   UNL     1      -8.245  17.841  -0.378  1.00  0.00     0.029 A 
ATOM     53  N   UNL     1      -8.645  15.888   0.609  1.00  0.00    -0.354 N 
ATOM     54  N   UNL     1     -10.065  14.064   2.434  1.00  0.00    -0.248 NA
ATOM     55  C   UNL     1     -11.650  13.706   4.114  1.00  0.00     0.031 C 
ATOM     56  C   UNL     1      -9.239  18.027   0.589  1.00  0.00     0.029 A 
ATOM     57  C   UNL     1      -9.510  16.804   1.182  1.00  0.00     0.049 A 
ATOM     58  H   UNL     1      -8.601  14.932   0.840  1.00  0.00     0.167 HD
ATOM     59  C   UNL     1     -10.698  15.267   2.727  1.00  0.00     0.074 A 
ATOM     60  C   UNL     1     -11.687  14.979   3.747  1.00  0.00     0.031 C 
ATOM     61  C   UNL     1     -10.485  16.499   2.199  1.00  0.00     0.031 A 
BRANCH  48  62
ATOM     62  C   UNL     1      -5.992  16.697  -2.050  1.00  0.00    -0.014 A 
ATOM     63  C   UNL     1      -6.109  16.547  -3.444  1.00  0.00     0.010 A 
ATOM     64  C   UNL     1      -5.109  17.664  -1.538  1.00  0.00     0.010 A 
ATOM     65  C   UNL     1      -5.329  17.323  -4.306  1.00  0.00     0.020 A 
ATOM     66  C   UNL     1      -4.348  18.462  -2.397  1.00  0.00     0.020 A 
ATOM     67  C   UNL     1      -4.452  18.274  -3.777  1.00  0.00     0.054 A 
BRANCH  67  68
ATOM     68  S   UNL     1      -3.469  19.284  -4.920  1.00  0.00     0.124 S 
ATOM     69  O   UNL     1      -2.498  18.313  -5.419  1.00  0.00    -0.237 OA
ATOM     70  O   UNL     1      -4.465  19.731  -5.890  1.00  0.00    -0.237 OA
ATOM     71  O   UNL     1      -2.917  20.334  -4.069  1.00  0.00    -0.744 OA
ENDBRANCH  67  68
ENDBRANCH  48  62
BRANCH  49  72
ATOM     72  C   UNL     1     -11.093  10.826   4.258  1.00  0.00    -0.014 A 
ATOM     73  C   UNL     1     -12.462  10.563   4.079  1.00  0.00     0.010 A 
ATOM     74  C   UNL     1     -10.427  10.257   5.360  1.00  0.00     0.010 A 
ATOM     75  C   UNL     1     -13.155   9.760   4.990  1.00  0.00     0.020 A 
ATOM     76  C   UNL     1     -11.109   9.431   6.257  1.00  0.00     0.020 A 
ATOM     77  C   UNL     1     -12.472   9.196   6.073  1.00  0.00     0.054 A 
BRANCH  77  78
ATOM     78  S   UNL     1     -13.378   8.115   7.213  1.00  0.00     0.124 S 
ATOM     79  O   UNL     1     -14.200   9.070   7.950  1.00  0.00    -0.237 OA
ATOM     80  O   UNL     1     -14.099   7.230   6.301  1.00  0.00    -0.237 OA
ATOM     81  O   UNL     1     -12.319   7.471   7.987  1.00  0.00    -0.744 OA
ENDBRANCH  77  78
ENDBRANCH  49  72
BRANCH  61  82
ATOM     82  C   UNL     1     -11.360  17.624   2.688  1.00  0.00    -0.014 A 
ATOM     83  C   UNL     1     -11.212  18.158   3.980  1.00  0.00     0.010 A 
ATOM     84  C   UNL     1     -12.310  18.189   1.817  1.00  0.00     0.010 A 
ATOM     85  C   UNL     1     -12.023  19.214   4.404  1.00  0.00     0.020 A 
ATOM     86  C   UNL     1     -13.101  19.265   2.227  1.00  0.00     0.020 A 
ATOM     87  C   UNL     1     -12.963  19.760   3.525  1.00  0.00     0.054 A 
BRANCH  87  88
ATOM     88  S   UNL     1     -13.977  21.155   4.087  1.00  0.00     0.124 S 
ATOM     89  O   UNL     1     -14.905  20.504   5.008  1.00  0.00    -0.237 OA
ATOM     90  O   UNL     1     -12.992  22.038   4.707  1.00  0.00    -0.237 OA
ATOM     91  O   UNL     1     -14.577  21.666   2.856  1.00  0.00    -0.744 OA
ENDBRANCH  87  88
ENDBRANCH  61  82
ENDBRANCH  35  36
ENDBRANCH  28  30
ENDBRANCH  27  28
ENDBRANCH  26  27
ENDBRANCH  25  26
ENDBRANCH  24  25
ENDBRANCH   1  24
TORSDOF 21
