REMARK SMILES O=C(OCCOCCOC(=O)c1cc(Br)ccc1N1CC2(CCCCC2)C1)c1ccc(-c2c3nc(c(-c4ccc(S(=O)(=O)[O-])cc4)c4ccc([nH]4)c(-c4ccc(S(=O)(=O)[O-])cc4)c4nc(c(-c5ccc(S(=O)(=O)[O-])cc5)c5ccc2[nH]5)C=C4)C=C3)cc1
REMARK SMILES IDX 5 1 4 2 3 3 2 4 1 5 28 6 29 7 87 8 30 9 86 10 31 11 32 12
REMARK SMILES IDX 33 13 80 14 34 15 85 16 79 17 81 18 35 19 84 20 78 21 77 22
REMARK SMILES IDX 36 24 66 25 47 26 65 27 48 28 51 29 64 30 82 31 49 32 50 33
REMARK SMILES IDX 63 35 83 36 52 37 37 38 38 39 46 40 39 41 45 42 40 43 41 44
REMARK SMILES IDX 42 45 43 46 44 47 67 48 68 49 76 50 69 51 75 52 70 53 71 54
REMARK SMILES IDX 72 55 73 56 74 57 53 58 54 59 62 60 55 61 61 62 56 63 57 64
REMARK SMILES IDX 58 65 59 66 60 67 6 68 7 69 8 70 9 71 10 72 11 73 12 74
REMARK SMILES IDX 13 75 18 76 14 77 17 78 15 79 16 80 19 81 20 82 27 83 21 84
REMARK SMILES IDX 22 85 26 86 23 87 25 88 24 89
REMARK H PARENT 81 23 51 34
REMARK Flexibility Score: inf
ROOT
ATOM      1  C   UNL     1       2.876  -1.691  -0.051  1.00  0.00     0.202 C 
ENDROOT
BRANCH   1   2
ATOM      2  C   UNL     1       2.979  -0.633   1.051  1.00  0.00     0.261 C 
BRANCH   2   3
ATOM      3  O   UNL     1       1.702   0.021   1.210  1.00  0.00    -0.460 OA
BRANCH   3   4
ATOM      4  C   UNL     1       1.240   1.000   0.394  1.00  0.00     0.338 C 
ATOM      5  O   UNL     1       0.043   1.100   0.144  1.00  0.00    -0.246 OA
BRANCH   4   6
ATOM      6  C   UNL     1       2.150   2.103   0.005  1.00  0.00     0.060 A 
ATOM      7  C   UNL     1       3.180   1.934  -0.913  1.00  0.00     0.016 A 
ATOM      8  C   UNL     1       1.860   3.394   0.463  1.00  0.00     0.016 A 
ATOM      9  C   UNL     1       3.956   3.009  -1.320  1.00  0.00     0.010 A 
ATOM     10  C   UNL     1       2.613   4.489   0.014  1.00  0.00     0.010 A 
ATOM     11  C   UNL     1       3.679   4.299  -0.877  1.00  0.00    -0.014 A 
BRANCH  11  12
ATOM     12  C   UNL     1       4.567   5.404  -1.314  1.00  0.00     0.031 A 
ATOM     13  C   UNL     1       5.379   6.134  -0.286  1.00  0.00     0.074 A 
ATOM     14  C   UNL     1       4.730   5.675  -2.626  1.00  0.00     0.049 A 
ATOM     15  N   UNL     1       6.095   7.219  -0.415  1.00  0.00    -0.248 NA
ATOM     16  C   UNL     1       5.388   5.564   1.072  1.00  0.00     0.031 C 
ATOM     17  C   UNL     1       4.107   4.937  -3.730  1.00  0.00     0.029 A 
ATOM     18  N   UNL     1       5.501   6.618  -3.259  1.00  0.00    -0.354 N 
ATOM     19  C   UNL     1       6.580   7.501   0.856  1.00  0.00     0.074 A 
ATOM     20  C   UNL     1       6.097   6.463   1.738  1.00  0.00     0.031 C 
ATOM     21  C   UNL     1       4.569   5.412  -4.896  1.00  0.00     0.029 A 
ATOM     22  C   UNL     1       5.418   6.566  -4.632  1.00  0.00     0.049 A 
ATOM     23  H   UNL     1       6.059   7.269  -2.777  1.00  0.00     0.167 HD
ATOM     24  C   UNL     1       7.339   8.552   1.247  1.00  0.00     0.031 A 
ATOM     25  C   UNL     1       5.921   7.391  -5.571  1.00  0.00     0.031 A 
ATOM     26  C   UNL     1       7.815   9.562   0.341  1.00  0.00     0.049 A 
ATOM     27  C   UNL     1       6.689   8.600  -5.110  1.00  0.00     0.074 A 
ATOM     28  C   UNL     1       8.525  10.714   0.624  1.00  0.00     0.029 A 
ATOM     29  N   UNL     1       7.636   9.528  -1.036  1.00  0.00    -0.354 N 
ATOM     30  N   UNL     1       7.027   8.940  -3.888  1.00  0.00    -0.248 NA
ATOM     31  C   UNL     1       7.111   9.553  -6.143  1.00  0.00     0.031 C 
ATOM     32  C   UNL     1       8.733  11.400  -0.578  1.00  0.00     0.029 A 
ATOM     33  C   UNL     1       8.210  10.644  -1.617  1.00  0.00     0.049 A 
ATOM     34  H   UNL     1       7.170   8.813  -1.527  1.00  0.00     0.167 HD
ATOM     35  C   UNL     1       7.706  10.146  -4.004  1.00  0.00     0.074 A 
ATOM     36  C   UNL     1       7.752  10.462  -5.419  1.00  0.00     0.031 C 
ATOM     37  C   UNL     1       8.237  10.928  -3.031  1.00  0.00     0.031 A 
BRANCH  24  38
ATOM     38  C   UNL     1       7.591   8.703   2.723  1.00  0.00    -0.014 A 
ATOM     39  C   UNL     1       8.453   7.843   3.427  1.00  0.00     0.010 A 
ATOM     40  C   UNL     1       6.916   9.719   3.426  1.00  0.00     0.010 A 
ATOM     41  C   UNL     1       8.588   7.960   4.814  1.00  0.00     0.020 A 
ATOM     42  C   UNL     1       7.071   9.858   4.807  1.00  0.00     0.020 A 
ATOM     43  C   UNL     1       7.888   8.961   5.497  1.00  0.00     0.054 A 
BRANCH  43  44
ATOM     44  S   UNL     1       8.062   9.078   7.298  1.00  0.00     0.124 S 
ATOM     45  O   UNL     1       7.293   7.921   7.750  1.00  0.00    -0.237 OA
ATOM     46  O   UNL     1       9.507   8.984   7.488  1.00  0.00    -0.237 OA
ATOM     47  O   UNL     1       7.478  10.378   7.620  1.00  0.00    -0.744 OA
ENDBRANCH  43  44
ENDBRANCH  24  38
BRANCH  25  48
ATOM     48  C   UNL     1       5.632   7.152  -7.016  1.00  0.00    -0.014 A 
ATOM     49  C   UNL     1       6.659   6.838  -7.923  1.00  0.00     0.010 A 
ATOM     50  C   UNL     1       4.306   7.215  -7.490  1.00  0.00     0.010 A 
ATOM     51  C   UNL     1       6.366   6.588  -9.270  1.00  0.00     0.020 A 
ATOM     52  C   UNL     1       4.005   6.932  -8.825  1.00  0.00     0.020 A 
ATOM     53  C   UNL     1       5.039   6.630  -9.711  1.00  0.00     0.054 A 
BRANCH  53  54
ATOM     54  S   UNL     1       4.671   6.234 -11.444  1.00  0.00     0.124 S 
ATOM     55  O   UNL     1       5.135   7.432 -12.135  1.00  0.00    -0.237 OA
ATOM     56  O   UNL     1       5.462   5.026 -11.668  1.00  0.00    -0.237 OA
ATOM     57  O   UNL     1       3.224   6.029 -11.448  1.00  0.00    -0.744 OA
ENDBRANCH  53  54
ENDBRANCH  25  48
BRANCH  37  58
ATOM     58  C   UNL     1       8.944  12.181  -3.466  1.00  0.00    -0.014 A 
ATOM     59  C   UNL     1       8.227  13.305  -3.912  1.00  0.00     0.010 A 
ATOM     60  C   UNL     1      10.344  12.252  -3.359  1.00  0.00     0.010 A 
ATOM     61  C   UNL     1       8.904  14.475  -4.263  1.00  0.00     0.020 A 
ATOM     62  C   UNL     1      11.021  13.428  -3.683  1.00  0.00     0.020 A 
ATOM     63  C   UNL     1      10.297  14.529  -4.144  1.00  0.00     0.054 A 
BRANCH  63  64
ATOM     64  S   UNL     1      11.148  16.077  -4.551  1.00  0.00     0.124 S 
ATOM     65  O   UNL     1      11.077  16.089  -6.009  1.00  0.00    -0.237 OA
ATOM     66  O   UNL     1      10.329  17.080  -3.874  1.00  0.00    -0.237 OA
ATOM     67  O   UNL     1      12.486  15.894  -3.993  1.00  0.00    -0.744 OA
ENDBRANCH  63  64
ENDBRANCH  37  58
ENDBRANCH  11  12
ENDBRANCH   4   6
ENDBRANCH   3   4
ENDBRANCH   2   3
ENDBRANCH   1   2
BRANCH   1  68
ATOM     68  O   UNL     1       2.953  -1.030  -1.306  1.00  0.00    -0.374 OA
BRANCH  68  69
ATOM     69  C   UNL     1       2.005  -1.406  -2.297  1.00  0.00     0.202 C 
BRANCH  69  70
ATOM     70  C   UNL     1       2.733  -2.034  -3.482  1.00  0.00     0.261 C 
BRANCH  70  71
ATOM     71  O   UNL     1       3.530  -3.127  -2.997  1.00  0.00    -0.460 OA
BRANCH  71  72
ATOM     72  C   UNL     1       4.842  -2.845  -2.744  1.00  0.00     0.340 C 
ATOM     73  O   UNL     1       5.439  -1.846  -3.105  1.00  0.00    -0.246 OA
BRANCH  72  74
ATOM     74  C   UNL     1       5.390  -3.942  -1.893  1.00  0.00     0.084 A 
ATOM     75  C   UNL     1       4.846  -5.231  -2.067  1.00  0.00     0.033 A 
ATOM     76  C   UNL     1       6.421  -3.729  -0.945  1.00  0.00     0.051 A 
ATOM     77  C   UNL     1       5.287  -6.290  -1.286  1.00  0.00     0.018 A 
ATOM     78  C   UNL     1       6.852  -4.827  -0.182  1.00  0.00     0.028 A 
ATOM     79  Br  UNL     1       4.521  -8.002  -1.515  1.00  0.00    -0.051 Br
ATOM     80  C   UNL     1       6.283  -6.094  -0.338  1.00  0.00     0.018 A 
BRANCH  76  81
ATOM     81  N   UNL     1       7.021  -2.477  -0.738  1.00  0.00    -0.370 N 
ATOM     82  C   UNL     1       6.519  -1.369   0.017  1.00  0.00     0.125 C 
ATOM     83  C   UNL     1       8.388  -2.110  -0.499  1.00  0.00     0.125 C 
ATOM     84  C   UNL     1       7.870  -0.664  -0.273  1.00  0.00     0.005 C 
ATOM     85  C   UNL     1       8.482   0.129   0.886  1.00  0.00     0.011 C 
ATOM     86  C   UNL     1       7.888   0.176  -1.562  1.00  0.00     0.011 C 
ATOM     87  C   UNL     1       7.708   1.434   1.099  1.00  0.00     0.001 C 
ATOM     88  C   UNL     1       7.078   1.446  -1.346  1.00  0.00     0.001 C 
ATOM     89  C   UNL     1       7.619   2.267  -0.181  1.00  0.00     0.000 C 
ENDBRANCH  76  81
ENDBRANCH  72  74
ENDBRANCH  71  72
ENDBRANCH  70  71
ENDBRANCH  69  70
ENDBRANCH  68  69
ENDBRANCH   1  68
TORSDOF 18
