REMARK SMILES O=C(OCCOCCOC(=O)c1ccc(NC(=O)c2ccc([N+](=O)[O-])cc2Cl)cc1Cl)c1ccc(-c2c3nc(c(-c4ccc(S(=O)(=O)[O-])cc4)c4ccc([nH]4)c(-c4ccc(S(=O)(=O)[O-])cc4)c4nc(c(-c5ccc(S(=O)(=O)[O-])cc5)c5ccc2[nH]5)C=C4)C=C3)cc1
REMARK SMILES IDX 6 1 5 2 4 3 3 4 2 5 1 6 32 7 33 8 91 9 34 10 90 11 35 12
REMARK SMILES IDX 36 13 37 14 84 15 38 16 89 17 83 18 85 19 39 20 88 21 82 22
REMARK SMILES IDX 81 23 40 25 70 26 51 27 69 28 52 29 55 30 68 31 86 32 53 33
REMARK SMILES IDX 54 34 67 36 87 37 56 38 41 39 42 40 50 41 43 42 49 43 44 44
REMARK SMILES IDX 45 45 46 46 47 47 48 48 71 49 72 50 80 51 73 52 79 53 74 54
REMARK SMILES IDX 75 55 76 56 77 57 78 58 57 59 58 60 66 61 59 62 65 63 60 64
REMARK SMILES IDX 61 65 62 66 63 67 64 68 7 69 8 70 9 71 10 72 11 73 12 74
REMARK SMILES IDX 13 75 30 76 14 77 29 78 31 79 15 80 16 81 17 82 18 84 19 85
REMARK SMILES IDX 20 86 27 87 21 88 26 89 28 90 22 91 23 92 24 93 25 94
REMARK H PARENT 85 24 55 35 16 83
REMARK Flexibility Score: inf
ROOT
ATOM      1  O   UNL     1       4.129  -0.215   1.899  1.00  0.00    -0.374 OA
ENDROOT
BRANCH   1   2
ATOM      2  C   UNL     1       4.415   1.118   1.476  1.00  0.00     0.202 C 
BRANCH   2   3
ATOM      3  C   UNL     1       4.164   1.405  -0.011  1.00  0.00     0.261 C 
BRANCH   3   4
ATOM      4  O   UNL     1       2.792   1.144  -0.356  1.00  0.00    -0.460 OA
BRANCH   4   5
ATOM      5  C   UNL     1       2.295   0.128  -1.101  1.00  0.00     0.338 C 
ATOM      6  O   UNL     1       1.103   0.154  -1.406  1.00  0.00    -0.246 OA
BRANCH   5   7
ATOM      7  C   UNL     1       3.109  -1.046  -1.545  1.00  0.00     0.060 A 
ATOM      8  C   UNL     1       4.255  -1.504  -0.893  1.00  0.00     0.016 A 
ATOM      9  C   UNL     1       2.619  -1.803  -2.623  1.00  0.00     0.016 A 
ATOM     10  C   UNL     1       4.923  -2.643  -1.306  1.00  0.00     0.010 A 
ATOM     11  C   UNL     1       3.260  -2.982  -3.019  1.00  0.00     0.010 A 
ATOM     12  C   UNL     1       4.415  -3.402  -2.353  1.00  0.00    -0.014 A 
BRANCH  12  13
ATOM     13  C   UNL     1       5.156  -4.615  -2.728  1.00  0.00     0.031 A 
ATOM     14  C   UNL     1       6.020  -4.577  -3.946  1.00  0.00     0.074 A 
ATOM     15  C   UNL     1       5.138  -5.671  -1.892  1.00  0.00     0.049 A 
ATOM     16  N   UNL     1       6.739  -5.530  -4.469  1.00  0.00    -0.248 NA
ATOM     17  C   UNL     1       6.103  -3.291  -4.662  1.00  0.00     0.031 C 
ATOM     18  C   UNL     1       4.415  -5.724  -0.614  1.00  0.00     0.029 A 
ATOM     19  N   UNL     1       5.763  -6.885  -1.966  1.00  0.00    -0.354 N 
ATOM     20  C   UNL     1       7.332  -4.973  -5.594  1.00  0.00     0.074 A 
ATOM     21  C   UNL     1       6.903  -3.596  -5.674  1.00  0.00     0.031 C 
ATOM     22  C   UNL     1       4.654  -6.905  -0.022  1.00  0.00     0.029 A 
ATOM     23  C   UNL     1       5.477  -7.716  -0.908  1.00  0.00     0.049 A 
ATOM     24  H   UNL     1       6.360  -7.140  -2.706  1.00  0.00     0.167 HD
ATOM     25  C   UNL     1       8.147  -5.579  -6.484  1.00  0.00     0.031 A 
ATOM     26  C   UNL     1       5.809  -9.006  -0.711  1.00  0.00     0.031 A 
ATOM     27  C   UNL     1       8.544  -6.956  -6.372  1.00  0.00     0.049 A 
ATOM     28  C   UNL     1       6.631  -9.681  -1.777  1.00  0.00     0.074 A 
ATOM     29  C   UNL     1       9.331  -7.698  -7.231  1.00  0.00     0.029 A 
ATOM     30  N   UNL     1       8.173  -7.797  -5.332  1.00  0.00    -0.354 N 
ATOM     31  N   UNL     1       7.160  -9.158  -2.860  1.00  0.00    -0.248 NA
ATOM     32  C   UNL     1       6.886 -11.116  -1.611  1.00  0.00     0.031 C 
ATOM     33  C   UNL     1       9.383  -9.007  -6.742  1.00  0.00     0.029 A 
ATOM     34  C   UNL     1       8.683  -9.063  -5.545  1.00  0.00     0.049 A 
ATOM     35  H   UNL     1       7.627  -7.531  -4.557  1.00  0.00     0.167 HD
ATOM     36  C   UNL     1       7.818 -10.199  -3.500  1.00  0.00     0.074 A 
ATOM     37  C   UNL     1       7.649 -11.373  -2.665  1.00  0.00     0.031 C 
ATOM     38  C   UNL     1       8.491 -10.198  -4.678  1.00  0.00     0.031 A 
BRANCH  25  39
ATOM     39  C   UNL     1       8.579  -4.790  -7.687  1.00  0.00    -0.014 A 
ATOM     40  C   UNL     1       9.552  -3.779  -7.601  1.00  0.00     0.010 A 
ATOM     41  C   UNL     1       8.017  -5.097  -8.940  1.00  0.00     0.010 A 
ATOM     42  C   UNL     1       9.945  -3.080  -8.747  1.00  0.00     0.020 A 
ATOM     43  C   UNL     1       8.423  -4.417 -10.090  1.00  0.00     0.020 A 
ATOM     44  C   UNL     1       9.381  -3.407  -9.985  1.00  0.00     0.054 A 
BRANCH  44  45
ATOM     45  S   UNL     1       9.950  -2.524 -11.464  1.00  0.00     0.124 S 
ATOM     46  O   UNL     1       9.375  -1.196 -11.264  1.00  0.00    -0.237 OA
ATOM     47  O   UNL     1      11.403  -2.605 -11.343  1.00  0.00    -0.237 OA
ATOM     48  O   UNL     1       9.376  -3.289 -12.569  1.00  0.00    -0.744 OA
ENDBRANCH  44  45
ENDBRANCH  25  39
BRANCH  26  49
ATOM     49  C   UNL     1       5.286  -9.763   0.463  1.00  0.00    -0.014 A 
ATOM     50  C   UNL     1       6.151 -10.331   1.414  1.00  0.00     0.010 A 
ATOM     51  C   UNL     1       3.898  -9.961   0.609  1.00  0.00     0.010 A 
ATOM     52  C   UNL     1       5.644 -11.117   2.457  1.00  0.00     0.020 A 
ATOM     53  C   UNL     1       3.385 -10.714   1.668  1.00  0.00     0.020 A 
ATOM     54  C   UNL     1       4.264 -11.310   2.572  1.00  0.00     0.054 A 
BRANCH  54  55
ATOM     55  S   UNL     1       3.627 -12.345   3.919  1.00  0.00     0.124 S 
ATOM     56  O   UNL     1       3.994 -13.684   3.470  1.00  0.00    -0.237 OA
ATOM     57  O   UNL     1       4.359 -11.843   5.079  1.00  0.00    -0.237 OA
ATOM     58  O   UNL     1       2.194 -12.057   3.922  1.00  0.00    -0.744 OA
ENDBRANCH  54  55
ENDBRANCH  26  49
BRANCH  38  59
ATOM     59  C   UNL     1       9.107 -11.499  -5.109  1.00  0.00    -0.014 A 
ATOM     60  C   UNL     1       8.308 -12.553  -5.586  1.00  0.00     0.010 A 
ATOM     61  C   UNL     1      10.506 -11.636  -5.102  1.00  0.00     0.010 A 
ATOM     62  C   UNL     1       8.901 -13.736  -6.026  1.00  0.00     0.020 A 
ATOM     63  C   UNL     1      11.103 -12.806  -5.572  1.00  0.00     0.020 A 
ATOM     64  C   UNL     1      10.295 -13.853  -6.021  1.00  0.00     0.054 A 
BRANCH  64  65
ATOM     65  S   UNL     1      11.041 -15.377  -6.657  1.00  0.00     0.124 S 
ATOM     66  O   UNL     1      10.750 -16.326  -5.587  1.00  0.00    -0.237 OA
ATOM     67  O   UNL     1      10.314 -15.592  -7.905  1.00  0.00    -0.237 OA
ATOM     68  O   UNL     1      12.452 -15.030  -6.816  1.00  0.00    -0.744 OA
ENDBRANCH  64  65
ENDBRANCH  38  59
ENDBRANCH  12  13
ENDBRANCH   5   7
ENDBRANCH   4   5
ENDBRANCH   3   4
ENDBRANCH   2   3
ENDBRANCH   1   2
BRANCH   1  69
ATOM     69  C   UNL     1       2.745  -0.506   2.148  1.00  0.00     0.202 C 
BRANCH  69  70
ATOM     70  C   UNL     1       2.618  -1.262   3.470  1.00  0.00     0.261 C 
BRANCH  70  71
ATOM     71  O   UNL     1       3.089  -0.382   4.502  1.00  0.00    -0.460 OA
BRANCH  71  72
ATOM     72  C   UNL     1       4.398  -0.527   4.824  1.00  0.00     0.339 C 
ATOM     73  O   UNL     1       5.113  -1.481   4.612  1.00  0.00    -0.246 OA
BRANCH  72  74
ATOM     74  C   UNL     1       4.920   0.795   5.235  1.00  0.00     0.078 A 
ATOM     75  C   UNL     1       6.145   1.174   4.666  1.00  0.00     0.019 A 
ATOM     76  C   UNL     1       4.264   1.676   6.092  1.00  0.00     0.057 A 
ATOM     77  C   UNL     1       6.694   2.434   4.926  1.00  0.00     0.027 A 
ATOM     78  C   UNL     1       4.817   2.941   6.337  1.00  0.00     0.047 A 
ATOM     79  Cl  UNL     1       2.803   1.284   6.927  1.00  0.00    -0.083 Cl
ATOM     80  C   UNL     1       6.023   3.341   5.743  1.00  0.00     0.043 A 
BRANCH  80  81
ATOM     81  N   UNL     1       6.480   4.633   6.065  1.00  0.00    -0.322 N 
ATOM     82  C   UNL     1       7.479   5.432   5.561  1.00  0.00     0.257 C 
ATOM     83  H   UNL     1       5.982   5.051   6.804  1.00  0.00     0.170 HD
ATOM     84  O   UNL     1       7.809   6.459   6.152  1.00  0.00    -0.269 OA
BRANCH  82  85
ATOM     85  C   UNL     1       8.173   5.111   4.307  1.00  0.00     0.059 A 
ATOM     86  C   UNL     1       9.543   4.817   4.390  1.00  0.00     0.022 A 
ATOM     87  C   UNL     1       7.518   5.105   3.068  1.00  0.00     0.060 A 
ATOM     88  C   UNL     1      10.242   4.432   3.244  1.00  0.00     0.086 A 
ATOM     89  C   UNL     1       8.212   4.716   1.920  1.00  0.00     0.107 A 
ATOM     90  Cl  UNL     1       5.861   5.557   2.891  1.00  0.00    -0.083 Cl
ATOM     91  C   UNL     1       9.566   4.362   2.018  1.00  0.00     0.270 A 
BRANCH  91  92
ATOM     92  N   UNL     1      10.278   3.895   0.823  1.00  0.00     0.062 N 
ATOM     93  O   UNL     1      11.511   3.803   0.891  1.00  0.00    -0.258 OA
ATOM     94  O   UNL     1       9.596   3.616  -0.171  1.00  0.00    -0.258 OA
ENDBRANCH  91  92
ENDBRANCH  82  85
ENDBRANCH  80  81
ENDBRANCH  72  74
ENDBRANCH  71  72
ENDBRANCH  70  71
ENDBRANCH  69  70
ENDBRANCH   1  69
TORSDOF 20
