REMARK SMILES CC[C@@](C)(NC(=O)c1c(C)cc(C)[nH]c1=O)C(=O)OCCOCCOC(=O)c1ccc(-c2c3nc(c(-c4ccc(S(=O)(=O)[O-])cc4)c4ccc([nH]4)c(-c4ccc(S(=O)(=O)[O-])cc4)c4nc(c(-c5ccc(S(=O)(=O)[O-])cc5)c5ccc2[nH]5)C=C4)C=C3)cc1
REMARK SMILES IDX 23 1 22 2 21 3 20 4 19 5 17 6 18 7 3 8 4 9 2 10 1 11 5 12
REMARK SMILES IDX 6 13 7 15 8 16 9 17 15 18 10 19 11 20 14 21 16 22 12 23
REMARK SMILES IDX 13 25 24 26 25 27 26 28 27 29 28 30 29 31 87 32 30 33 86 34
REMARK SMILES IDX 31 35 32 36 33 37 80 38 34 39 85 40 79 41 81 42 35 43 84 44
REMARK SMILES IDX 78 45 77 46 36 48 66 49 47 50 65 51 48 52 51 53 64 54 82 55
REMARK SMILES IDX 49 56 50 57 63 59 83 60 52 61 37 62 38 63 46 64 39 65 45 66
REMARK SMILES IDX 40 67 41 68 42 69 43 70 44 71 67 72 68 73 76 74 69 75 75 76
REMARK SMILES IDX 70 77 71 78 72 79 73 80 74 81 53 82 54 83 62 84 55 85 61 86
REMARK SMILES IDX 56 87 57 88 58 89 59 90 60 91
REMARK H PARENT 5 14 14 24 81 47 51 58
REMARK Flexibility Score: inf
ROOT
ATOM      1  C   UNL     1       2.467   2.662  -2.755  1.00  0.00     0.202 C 
ENDROOT
BRANCH   1   2
ATOM      2  O   UNL     1       3.825   2.408  -2.374  1.00  0.00    -0.374 OA
BRANCH   2   3
ATOM      3  C   UNL     1       4.147   1.801  -1.100  1.00  0.00     0.202 C 
BRANCH   3   4
ATOM      4  C   UNL     1       4.495   0.287  -1.096  1.00  0.00     0.261 C 
BRANCH   4   5
ATOM      5  O   UNL     1       3.543  -0.436  -1.853  1.00  0.00    -0.462 OA
BRANCH   5   6
ATOM      6  C   UNL     1       2.401  -0.807  -1.260  1.00  0.00     0.331 C 
ATOM      7  O   UNL     1       2.322  -1.160  -0.087  1.00  0.00    -0.249 OA
BRANCH   6   8
ATOM      8  C   UNL     1       1.243  -0.663  -2.265  1.00  0.00     0.135 C 
ATOM      9  C   UNL     1       0.615  -2.036  -2.544  1.00  0.00     0.047 C 
BRANCH   8  10
ATOM     10  C   UNL     1       0.088   0.228  -1.607  1.00  0.00     0.037 C 
ATOM     11  C   UNL     1      -0.165   0.087  -0.100  1.00  0.00     0.007 C 
ENDBRANCH   8  10
BRANCH   8  12
ATOM     12  N   UNL     1       1.695  -0.015  -3.599  1.00  0.00    -0.336 N 
ATOM     13  C   UNL     1       2.753  -0.259  -4.485  1.00  0.00     0.258 C 
ATOM     14  H   UNL     1       1.115   0.728  -3.885  1.00  0.00     0.165 HD
ATOM     15  O   UNL     1       2.390  -0.689  -5.590  1.00  0.00    -0.269 OA
BRANCH  13  16
ATOM     16  C   UNL     1       4.300   0.124  -4.289  1.00  0.00     0.107 A 
ATOM     17  C   UNL     1       5.107   1.268  -4.295  1.00  0.00    -0.031 A 
ATOM     18  C   UNL     1       5.112  -1.177  -4.336  1.00  0.00     0.261 A 
ATOM     19  C   UNL     1       5.043   2.812  -4.555  1.00  0.00     0.045 C 
ATOM     20  C   UNL     1       6.537   1.164  -4.002  1.00  0.00     0.025 A 
ATOM     21  N   UNL     1       6.488  -1.111  -4.319  1.00  0.00    -0.326 N 
ATOM     22  O   UNL     1       4.572  -2.281  -4.382  1.00  0.00    -0.269 OA
ATOM     23  C   UNL     1       7.202   0.025  -4.104  1.00  0.00     0.015 A 
ATOM     24  H   UNL     1       6.989  -1.945  -4.472  1.00  0.00     0.169 HD
ATOM     25  C   UNL     1       8.680  -0.003  -3.936  1.00  0.00     0.064 C 
ENDBRANCH  13  16
ENDBRANCH   8  12
ENDBRANCH   6   8
ENDBRANCH   5   6
ENDBRANCH   4   5
ENDBRANCH   3   4
ENDBRANCH   2   3
ENDBRANCH   1   2
BRANCH   1  26
ATOM     26  C   UNL     1       2.027   2.918  -4.331  1.00  0.00     0.261 C 
BRANCH  26  27
ATOM     27  O   UNL     1       2.541   2.012  -5.419  1.00  0.00    -0.460 OA
BRANCH  27  28
ATOM     28  C   UNL     1       2.811   2.377  -6.728  1.00  0.00     0.338 C 
ATOM     29  O   UNL     1       2.513   3.471  -7.187  1.00  0.00    -0.246 OA
BRANCH  28  30
ATOM     30  C   UNL     1       3.611   1.344  -7.571  1.00  0.00     0.060 A 
ATOM     31  C   UNL     1       4.969   1.059  -7.347  1.00  0.00     0.016 A 
ATOM     32  C   UNL     1       3.089   0.765  -8.733  1.00  0.00     0.016 A 
ATOM     33  C   UNL     1       5.733   0.131  -8.096  1.00  0.00     0.010 A 
ATOM     34  C   UNL     1       3.874  -0.112  -9.553  1.00  0.00     0.010 A 
ATOM     35  C   UNL     1       5.203  -0.459  -9.236  1.00  0.00    -0.014 A 
BRANCH  35  36
ATOM     36  C   UNL     1       6.077  -1.250 -10.172  1.00  0.00     0.031 A 
ATOM     37  C   UNL     1       6.850  -0.520 -11.248  1.00  0.00     0.074 A 
ATOM     38  C   UNL     1       6.271  -2.584 -10.071  1.00  0.00     0.049 A 
ATOM     39  N   UNL     1       7.441  -0.984 -12.322  1.00  0.00    -0.248 NA
ATOM     40  C   UNL     1       6.994   0.932 -11.067  1.00  0.00     0.031 C 
ATOM     41  C   UNL     1       5.817  -3.432  -8.972  1.00  0.00     0.029 A 
ATOM     42  N   UNL     1       6.911  -3.464 -10.924  1.00  0.00    -0.354 N 
ATOM     43  C   UNL     1       7.988   0.123 -12.967  1.00  0.00     0.074 A 
ATOM     44  C   UNL     1       7.682   1.275 -12.146  1.00  0.00     0.031 C 
ATOM     45  C   UNL     1       6.164  -4.709  -9.231  1.00  0.00     0.029 A 
ATOM     46  C   UNL     1       6.796  -4.786 -10.549  1.00  0.00     0.049 A 
ATOM     47  H   UNL     1       7.404  -3.174 -11.725  1.00  0.00     0.167 HD
ATOM     48  C   UNL     1       8.656   0.184 -14.148  1.00  0.00     0.031 A 
ATOM     49  C   UNL     1       7.105  -5.926 -11.210  1.00  0.00     0.031 A 
ATOM     50  C   UNL     1       8.927  -0.959 -14.983  1.00  0.00     0.049 A 
ATOM     51  C   UNL     1       7.662  -5.848 -12.614  1.00  0.00     0.074 A 
ATOM     52  C   UNL     1       9.482  -0.996 -16.251  1.00  0.00     0.029 A 
ATOM     53  N   UNL     1       8.666  -2.274 -14.626  1.00  0.00    -0.354 N 
ATOM     54  N   UNL     1       8.004  -4.788 -13.310  1.00  0.00    -0.248 NA
ATOM     55  C   UNL     1       7.852  -7.119 -13.332  1.00  0.00     0.031 C 
ATOM     56  C   UNL     1       9.513  -2.329 -16.679  1.00  0.00     0.029 A 
ATOM     57  C   UNL     1       9.040  -3.129 -15.651  1.00  0.00     0.049 A 
ATOM     58  H   UNL     1       8.274  -2.558 -13.770  1.00  0.00     0.167 HD
ATOM     59  C   UNL     1       8.468  -5.266 -14.534  1.00  0.00     0.074 A 
ATOM     60  C   UNL     1       8.373  -6.710 -14.482  1.00  0.00     0.031 C 
ATOM     61  C   UNL     1       8.935  -4.567 -15.601  1.00  0.00     0.031 A 
BRANCH  48  62
ATOM     62  C   UNL     1       9.043   1.555 -14.647  1.00  0.00    -0.014 A 
ATOM     63  C   UNL     1      10.070   2.301 -14.041  1.00  0.00     0.010 A 
ATOM     64  C   UNL     1       8.343   2.117 -15.732  1.00  0.00     0.010 A 
ATOM     65  C   UNL     1      10.346   3.604 -14.470  1.00  0.00     0.020 A 
ATOM     66  C   UNL     1       8.636   3.408 -16.183  1.00  0.00     0.020 A 
ATOM     67  C   UNL     1       9.619   4.154 -15.531  1.00  0.00     0.054 A 
BRANCH  67  68
ATOM     68  S   UNL     1       9.972   5.859 -16.040  1.00  0.00     0.124 S 
ATOM     69  O   UNL     1       9.442   6.626 -14.916  1.00  0.00    -0.237 OA
ATOM     70  O   UNL     1      11.427   5.861 -16.169  1.00  0.00    -0.237 OA
ATOM     71  O   UNL     1       9.238   6.008 -17.295  1.00  0.00    -0.744 OA
ENDBRANCH  67  68
ENDBRANCH  48  62
BRANCH  49  72
ATOM     72  C   UNL     1       6.834  -7.258 -10.584  1.00  0.00    -0.014 A 
ATOM     73  C   UNL     1       7.892  -8.109 -10.213  1.00  0.00     0.010 A 
ATOM     74  C   UNL     1       5.513  -7.683 -10.342  1.00  0.00     0.010 A 
ATOM     75  C   UNL     1       7.636  -9.336  -9.586  1.00  0.00     0.020 A 
ATOM     76  C   UNL     1       5.254  -8.896  -9.692  1.00  0.00     0.020 A 
ATOM     77  C   UNL     1       6.319  -9.713  -9.311  1.00  0.00     0.054 A 
BRANCH  77  78
ATOM     78  S   UNL     1       6.022 -11.249  -8.388  1.00  0.00     0.124 S 
ATOM     79  O   UNL     1       6.428 -12.271  -9.348  1.00  0.00    -0.237 OA
ATOM     80  O   UNL     1       6.895 -11.090  -7.228  1.00  0.00    -0.237 OA
ATOM     81  O   UNL     1       4.591 -11.204  -8.093  1.00  0.00    -0.744 OA
ENDBRANCH  77  78
ENDBRANCH  49  72
BRANCH  61  82
ATOM     82  C   UNL     1       9.428  -5.351 -16.793  1.00  0.00    -0.014 A 
ATOM     83  C   UNL     1       8.541  -6.017 -17.657  1.00  0.00     0.010 A 
ATOM     84  C   UNL     1      10.807  -5.380 -17.078  1.00  0.00     0.010 A 
ATOM     85  C   UNL     1       9.026  -6.729 -18.760  1.00  0.00     0.020 A 
ATOM     86  C   UNL     1      11.293  -6.068 -18.194  1.00  0.00     0.020 A 
ATOM     87  C   UNL     1      10.400  -6.753 -19.019  1.00  0.00     0.054 A 
BRANCH  87  88
ATOM     88  S   UNL     1      11.002  -7.669 -20.466  1.00  0.00     0.124 S 
ATOM     89  O   UNL     1      10.810  -9.056 -20.050  1.00  0.00    -0.237 OA
ATOM     90  O   UNL     1      10.118  -7.204 -21.531  1.00  0.00    -0.237 OA
ATOM     91  O   UNL     1      12.395  -7.245 -20.591  1.00  0.00    -0.744 OA
ENDBRANCH  87  88
ENDBRANCH  61  82
ENDBRANCH  35  36
ENDBRANCH  28  30
ENDBRANCH  27  28
ENDBRANCH  26  27
ENDBRANCH   1  26
TORSDOF 20
