REMARK SMILES CCOC(=O)c1c(NC(=O)[C@@H]2[C@@H](C(=O)OCCOCCOC(=O)c3ccc(-c4c5nc(c(-c6ccc(S(=O)(=O)[O-])cc6)c6ccc([nH]6)c(-c6ccc(S(=O)(=O)[O-])cc6)c6nc(c(-c7ccc(S(=O)(=O)[O-])cc7)c7ccc4[nH]7)C=C6)C=C5)cc3)[C@@H]3C=C[C@H]2CC3)sc2c1CCC2
REMARK SMILES IDX 17 1 16 2 15 3 13 4 14 5 12 6 11 7 87 8 84 9 86 10 88 11
REMARK SMILES IDX 85 12 89 13 9 14 8 15 10 17 7 18 6 19 92 20 90 21 91 22
REMARK SMILES IDX 93 23 95 24 94 25 4 26 5 27 3 28 2 29 1 30 18 31 19 32 20 33
REMARK SMILES IDX 21 34 22 35 23 36 24 37 25 38 83 39 26 40 82 41 27 42 28 43
REMARK SMILES IDX 29 44 76 45 30 46 81 47 75 48 77 49 31 50 80 51 74 52 73 53
REMARK SMILES IDX 32 55 62 56 43 57 61 58 44 59 47 60 60 61 78 62 45 63 46 64
REMARK SMILES IDX 59 66 79 67 48 68 33 69 34 70 42 71 35 72 41 73 36 74 37 75
REMARK SMILES IDX 38 76 39 77 40 78 63 79 64 80 72 81 65 82 71 83 66 84 67 85
REMARK SMILES IDX 68 86 69 87 70 88 49 89 50 90 58 91 51 92 57 93 52 94 53 95
REMARK SMILES IDX 54 96 55 97 56 98
REMARK H PARENT 8 16 77 54 47 65
REMARK Flexibility Score: inf
ROOT
ATOM      1  C   UNL     1       7.300   3.784   8.216  1.00  0.00     0.202 C 
ENDROOT
BRANCH   1   2
ATOM      2  C   UNL     1       7.182   3.215   6.789  1.00  0.00     0.261 C 
BRANCH   2   3
ATOM      3  O   UNL     1       6.932   4.157   5.721  1.00  0.00    -0.463 OA
BRANCH   3   4
ATOM      4  C   UNL     1       5.616   4.349   5.489  1.00  0.00     0.310 C 
ATOM      5  O   UNL     1       4.740   3.875   6.212  1.00  0.00    -0.252 OA
BRANCH   4   6
ATOM      6  C   UNL     1       5.241   5.107   4.231  1.00  0.00     0.119 C 
ATOM      7  C   UNL     1       6.054   4.926   2.957  1.00  0.00     0.100 C 
ATOM      8  C   UNL     1       6.201   6.342   2.295  1.00  0.00     0.025 C 
ATOM      9  C   UNL     1       4.536   6.505   4.282  1.00  0.00     0.026 C 
ATOM     10  C   UNL     1       4.804   6.751   1.876  1.00  0.00    -0.027 C 
ATOM     11  C   UNL     1       6.660   7.397   3.358  1.00  0.00     0.009 C 
ATOM     12  C   UNL     1       3.933   6.813   2.898  1.00  0.00    -0.027 C 
ATOM     13  C   UNL     1       5.524   7.662   4.368  1.00  0.00     0.009 C 
BRANCH   7  14
ATOM     14  C   UNL     1       5.501   3.884   1.905  1.00  0.00     0.229 C 
ATOM     15  N   UNL     1       4.427   3.019   1.986  1.00  0.00    -0.317 N 
ATOM     16  H   UNL     1       4.439   2.338   1.274  1.00  0.00     0.170 HD
ATOM     17  O   UNL     1       6.201   3.725   0.885  1.00  0.00    -0.274 OA
BRANCH  15  18
ATOM     18  C   UNL     1       3.333   2.880   2.831  1.00  0.00     0.110 A 
ATOM     19  C   UNL     1       2.518   1.796   3.184  1.00  0.00     0.098 A 
ATOM     20  C   UNL     1       1.863   2.131   4.417  1.00  0.00    -0.017 A 
ATOM     21  S   UNL     1       2.315   4.241   3.251  1.00  0.00    -0.122 S 
ATOM     22  C   UNL     1       2.032   3.456   4.707  1.00  0.00     0.011 A 
ATOM     23  C   UNL     1       1.016   1.495   5.460  1.00  0.00     0.038 C 
ATOM     24  C   UNL     1       1.578   3.867   6.046  1.00  0.00     0.047 C 
ATOM     25  C   UNL     1       0.575   2.723   6.344  1.00  0.00     0.010 C 
BRANCH  19  26
ATOM     26  C   UNL     1       2.361   0.589   2.418  1.00  0.00     0.341 C 
ATOM     27  O   UNL     1       3.269   0.010   1.833  1.00  0.00    -0.246 OA
BRANCH  26  28
ATOM     28  O   UNL     1       1.034   0.308   2.302  1.00  0.00    -0.462 OA
BRANCH  28  29
ATOM     29  C   UNL     1       0.630  -0.615   1.288  1.00  0.00     0.230 C 
ATOM     30  C   UNL     1       0.902  -0.089  -0.112  1.00  0.00     0.049 C 
ENDBRANCH  28  29
ENDBRANCH  26  28
ENDBRANCH  19  26
ENDBRANCH  15  18
ENDBRANCH   7  14
ENDBRANCH   4   6
ENDBRANCH   3   4
ENDBRANCH   2   3
ENDBRANCH   1   2
BRANCH   1  31
ATOM     31  O   UNL     1       6.322   4.682   8.725  1.00  0.00    -0.374 OA
BRANCH  31  32
ATOM     32  C   UNL     1       6.081   5.935   8.106  1.00  0.00     0.202 C 
BRANCH  32  33
ATOM     33  C   UNL     1       7.226   6.810   7.624  1.00  0.00     0.261 C 
BRANCH  33  34
ATOM     34  O   UNL     1       8.297   6.133   7.006  1.00  0.00    -0.460 OA
BRANCH  34  35
ATOM     35  C   UNL     1       9.413   6.174   7.762  1.00  0.00     0.338 C 
ATOM     36  O   UNL     1       9.463   6.237   8.979  1.00  0.00    -0.246 OA
BRANCH  35  37
ATOM     37  C   UNL     1      10.556   6.374   6.874  1.00  0.00     0.060 A 
ATOM     38  C   UNL     1      11.784   6.535   7.507  1.00  0.00     0.016 A 
ATOM     39  C   UNL     1      10.365   6.684   5.515  1.00  0.00     0.016 A 
ATOM     40  C   UNL     1      12.778   7.184   6.820  1.00  0.00     0.010 A 
ATOM     41  C   UNL     1      11.362   7.338   4.829  1.00  0.00     0.010 A 
ATOM     42  C   UNL     1      12.530   7.640   5.515  1.00  0.00    -0.014 A 
BRANCH  42  43
ATOM     43  C   UNL     1      13.630   8.282   4.836  1.00  0.00     0.031 A 
ATOM     44  C   UNL     1      14.734   7.331   4.588  1.00  0.00     0.074 A 
ATOM     45  C   UNL     1      13.648   9.572   4.465  1.00  0.00     0.049 A 
ATOM     46  N   UNL     1      15.835   7.244   5.253  1.00  0.00    -0.248 NA
ATOM     47  C   UNL     1      14.481   6.205   3.674  1.00  0.00     0.031 C 
ATOM     48  C   UNL     1      12.553  10.541   4.434  1.00  0.00     0.029 A 
ATOM     49  N   UNL     1      14.691  10.272   3.951  1.00  0.00    -0.354 N 
ATOM     50  C   UNL     1      16.523   6.184   4.685  1.00  0.00     0.074 A 
ATOM     51  C   UNL     1      15.570   5.465   3.876  1.00  0.00     0.031 C 
ATOM     52  C   UNL     1      12.940  11.624   3.714  1.00  0.00     0.029 A 
ATOM     53  C   UNL     1      14.347  11.485   3.372  1.00  0.00     0.049 A 
ATOM     54  H   UNL     1      15.619   9.945   3.987  1.00  0.00     0.167 HD
ATOM     55  C   UNL     1      17.881   6.142   4.702  1.00  0.00     0.031 A 
ATOM     56  C   UNL     1      15.163  12.274   2.626  1.00  0.00     0.031 A 
ATOM     57  C   UNL     1      18.432   7.040   5.683  1.00  0.00     0.049 A 
ATOM     58  C   UNL     1      16.559  11.907   2.978  1.00  0.00     0.074 A 
ATOM     59  C   UNL     1      18.331   7.146   7.057  1.00  0.00     0.029 A 
ATOM     60  N   UNL     1      18.859   8.269   5.235  1.00  0.00    -0.354 N 
ATOM     61  N   UNL     1      17.076  12.124   4.155  1.00  0.00    -0.248 NA
ATOM     62  C   UNL     1      17.221  10.880   2.189  1.00  0.00     0.031 C 
ATOM     63  C   UNL     1      18.253   8.546   7.316  1.00  0.00     0.029 A 
ATOM     64  C   UNL     1      18.389   9.224   6.102  1.00  0.00     0.049 A 
ATOM     65  H   UNL     1      19.405   8.434   4.433  1.00  0.00     0.167 HD
ATOM     66  C   UNL     1      17.826  10.989   4.431  1.00  0.00     0.074 A 
ATOM     67  C   UNL     1      17.952  10.301   3.147  1.00  0.00     0.031 C 
ATOM     68  C   UNL     1      18.038  10.577   5.716  1.00  0.00     0.031 A 
BRANCH  55  69
ATOM     69  C   UNL     1      18.670   5.615   3.535  1.00  0.00    -0.014 A 
ATOM     70  C   UNL     1      20.067   5.502   3.641  1.00  0.00     0.010 A 
ATOM     71  C   UNL     1      18.108   5.472   2.247  1.00  0.00     0.010 A 
ATOM     72  C   UNL     1      20.860   5.288   2.506  1.00  0.00     0.020 A 
ATOM     73  C   UNL     1      18.882   5.215   1.119  1.00  0.00     0.020 A 
ATOM     74  C   UNL     1      20.259   5.149   1.252  1.00  0.00     0.054 A 
BRANCH  74  75
ATOM     75  S   UNL     1      21.292   4.935  -0.215  1.00  0.00     0.124 S 
ATOM     76  O   UNL     1      21.986   6.216  -0.285  1.00  0.00    -0.237 OA
ATOM     77  O   UNL     1      22.113   3.785   0.154  1.00  0.00    -0.237 OA
ATOM     78  O   UNL     1      20.325   4.686  -1.282  1.00  0.00    -0.744 OA
ENDBRANCH  74  75
ENDBRANCH  55  69
BRANCH  56  79
ATOM     79  C   UNL     1      14.825  13.033   1.395  1.00  0.00    -0.014 A 
ATOM     80  C   UNL     1      15.726  13.966   0.846  1.00  0.00     0.010 A 
ATOM     81  C   UNL     1      13.745  12.618   0.590  1.00  0.00     0.010 A 
ATOM     82  C   UNL     1      15.588  14.417  -0.480  1.00  0.00     0.020 A 
ATOM     83  C   UNL     1      13.598  13.065  -0.730  1.00  0.00     0.020 A 
ATOM     84  C   UNL     1      14.535  13.945  -1.267  1.00  0.00     0.054 A 
BRANCH  84  85
ATOM     85  S   UNL     1      14.465  14.386  -3.031  1.00  0.00     0.124 S 
ATOM     86  O   UNL     1      14.115  15.802  -2.984  1.00  0.00    -0.237 OA
ATOM     87  O   UNL     1      15.818  14.084  -3.489  1.00  0.00    -0.237 OA
ATOM     88  O   UNL     1      13.425  13.507  -3.564  1.00  0.00    -0.744 OA
ENDBRANCH  84  85
ENDBRANCH  56  79
BRANCH  68  89
ATOM     89  C   UNL     1      17.694  11.531   6.841  1.00  0.00    -0.014 A 
ATOM     90  C   UNL     1      16.399  12.026   7.098  1.00  0.00     0.010 A 
ATOM     91  C   UNL     1      18.715  11.828   7.761  1.00  0.00     0.010 A 
ATOM     92  C   UNL     1      16.145  12.819   8.231  1.00  0.00     0.020 A 
ATOM     93  C   UNL     1      18.466  12.599   8.898  1.00  0.00     0.020 A 
ATOM     94  C   UNL     1      17.184  13.101   9.124  1.00  0.00     0.054 A 
BRANCH  94  95
ATOM     95  S   UNL     1      16.854  14.097  10.606  1.00  0.00     0.124 S 
ATOM     96  O   UNL     1      16.581  15.418  10.047  1.00  0.00    -0.237 OA
ATOM     97  O   UNL     1      15.707  13.418  11.205  1.00  0.00    -0.237 OA
ATOM     98  O   UNL     1      18.093  13.997  11.376  1.00  0.00    -0.744 OA
ENDBRANCH  94  95
ENDBRANCH  68  89
ENDBRANCH  42  43
ENDBRANCH  35  37
ENDBRANCH  34  35
ENDBRANCH  33  34
ENDBRANCH  32  33
ENDBRANCH  31  32
ENDBRANCH   1  31
TORSDOF 22
