REMARK SMILES O=C(CCc1nc(-c2ccccc2)c(-c2ccccc2)o1)OCCOCCOC(=O)c1ccc(-c2c3nc(c(-c4ccc(S(=O)(=O)[O-])cc4)c4ccc([nH]4)c(-c4ccc(S(=O)(=O)[O-])cc4)c4nc(c(-c5ccc(S(=O)(=O)[O-])cc5)c5ccc2[nH]5)C=C4)C=C3)cc1
REMARK SMILES IDX 25 1 24 2 23 3 22 4 2 5 1 6 3 7 4 8 5 9 6 10 21 11 7 12
REMARK SMILES IDX 14 13 8 14 9 15 13 16 10 17 12 18 11 19 15 20 16 21 20 22
REMARK SMILES IDX 17 23 19 24 18 25 26 26 27 27 28 28 29 29 30 30 31 31 32 32
REMARK SMILES IDX 90 33 33 34 89 35 34 36 35 37 36 38 83 39 37 40 88 41 82 42
REMARK SMILES IDX 84 43 38 44 87 45 81 46 80 47 39 49 69 50 50 51 68 52 51 53
REMARK SMILES IDX 54 54 67 55 85 56 52 57 53 58 66 60 86 61 55 62 40 63 41 64
REMARK SMILES IDX 49 65 42 66 48 67 43 68 44 69 45 70 46 71 47 72 70 73 71 74
REMARK SMILES IDX 79 75 72 76 78 77 73 78 74 79 75 80 76 81 77 82 56 83 57 84
REMARK SMILES IDX 65 85 58 86 64 87 59 88 60 89 61 90 62 91 63 92
REMARK H PARENT 84 48 54 59
REMARK Flexibility Score: inf
ROOT
ATOM      1  O   UNL     1       3.939   0.109  -2.597  1.00  0.00    -0.374 OA
ENDROOT
BRANCH   1   2
ATOM      2  C   UNL     1       4.394  -0.460  -1.373  1.00  0.00     0.202 C 
BRANCH   2   3
ATOM      3  C   UNL     1       3.344  -0.889  -0.344  1.00  0.00     0.261 C 
BRANCH   3   4
ATOM      4  O   UNL     1       2.165  -0.073  -0.241  1.00  0.00    -0.463 OA
BRANCH   4   5
ATOM      5  C   UNL     1       2.093   0.980   0.601  1.00  0.00     0.306 C 
ATOM      6  O   UNL     1       1.094   1.173   1.289  1.00  0.00    -0.252 OA
BRANCH   5   7
ATOM      7  C   UNL     1       3.160   2.031   0.456  1.00  0.00     0.132 C 
BRANCH   7   8
ATOM      8  C   UNL     1       3.871   2.343   1.762  1.00  0.00     0.109 C 
BRANCH   8   9
ATOM      9  C   UNL     1       4.731   1.229   2.238  1.00  0.00     0.196 A 
ATOM     10  N   UNL     1       4.367   0.008   2.583  1.00  0.00    -0.213 NA
ATOM     11  O   UNL     1       6.085   1.463   2.282  1.00  0.00    -0.440 OA
ATOM     12  C   UNL     1       5.553  -0.612   2.870  1.00  0.00     0.117 A 
ATOM     13  C   UNL     1       6.601   0.265   2.684  1.00  0.00     0.162 A 
BRANCH  12  14
ATOM     14  C   UNL     1       5.786  -2.026   3.058  1.00  0.00     0.004 A 
ATOM     15  C   UNL     1       6.503  -2.490   4.171  1.00  0.00     0.010 A 
ATOM     16  C   UNL     1       5.623  -2.856   1.952  1.00  0.00     0.010 A 
ATOM     17  C   UNL     1       7.160  -3.719   4.119  1.00  0.00     0.001 A 
ATOM     18  C   UNL     1       6.304  -4.058   1.900  1.00  0.00     0.001 A 
ATOM     19  C   UNL     1       7.104  -4.474   2.957  1.00  0.00     0.000 A 
ENDBRANCH  12  14
BRANCH  13  20
ATOM     20  C   UNL     1       8.037   0.102   2.807  1.00  0.00     0.020 A 
ATOM     21  C   UNL     1       8.666   0.534   3.979  1.00  0.00     0.012 A 
ATOM     22  C   UNL     1       8.737  -0.729   1.918  1.00  0.00     0.012 A 
ATOM     23  C   UNL     1       9.961   0.109   4.279  1.00  0.00     0.001 A 
ATOM     24  C   UNL     1      10.035  -1.149   2.218  1.00  0.00     0.001 A 
ATOM     25  C   UNL     1      10.640  -0.739   3.404  1.00  0.00     0.000 A 
ENDBRANCH  13  20
ENDBRANCH   8   9
ENDBRANCH   7   8
ENDBRANCH   5   7
ENDBRANCH   4   5
ENDBRANCH   3   4
ENDBRANCH   2   3
ENDBRANCH   1   2
BRANCH   1  26
ATOM     26  C   UNL     1       2.714  -0.358  -3.146  1.00  0.00     0.202 C 
BRANCH  26  27
ATOM     27  C   UNL     1       2.686  -1.765  -3.748  1.00  0.00     0.261 C 
BRANCH  27  28
ATOM     28  O   UNL     1       3.214  -2.804  -2.909  1.00  0.00    -0.460 OA
BRANCH  28  29
ATOM     29  C   UNL     1       4.472  -3.210  -3.231  1.00  0.00     0.338 C 
ATOM     30  O   UNL     1       5.205  -2.702  -4.056  1.00  0.00    -0.246 OA
BRANCH  29  31
ATOM     31  C   UNL     1       4.893  -4.341  -2.365  1.00  0.00     0.060 A 
ATOM     32  C   UNL     1       6.246  -4.436  -2.025  1.00  0.00     0.016 A 
ATOM     33  C   UNL     1       4.002  -5.340  -1.953  1.00  0.00     0.016 A 
ATOM     34  C   UNL     1       6.705  -5.532  -1.287  1.00  0.00     0.010 A 
ATOM     35  C   UNL     1       4.465  -6.439  -1.211  1.00  0.00     0.010 A 
ATOM     36  C   UNL     1       5.819  -6.546  -0.872  1.00  0.00    -0.014 A 
BRANCH  36  37
ATOM     37  C   UNL     1       6.378  -7.754  -0.199  1.00  0.00     0.031 A 
ATOM     38  C   UNL     1       7.114  -8.748  -1.047  1.00  0.00     0.074 A 
ATOM     39  C   UNL     1       6.287  -7.958   1.132  1.00  0.00     0.049 A 
ATOM     40  N   UNL     1       7.815  -9.787  -0.680  1.00  0.00    -0.248 NA
ATOM     41  C   UNL     1       7.000  -8.571  -2.504  1.00  0.00     0.031 C 
ATOM     42  C   UNL     1       5.494  -7.159   2.055  1.00  0.00     0.029 A 
ATOM     43  N   UNL     1       6.925  -8.862   1.954  1.00  0.00    -0.354 N 
ATOM     44  C   UNL     1       8.187 -10.417  -1.860  1.00  0.00     0.074 A 
ATOM     45  C   UNL     1       7.659  -9.628  -2.952  1.00  0.00     0.031 C 
ATOM     46  C   UNL     1       5.817  -7.488   3.318  1.00  0.00     0.029 A 
ATOM     47  C   UNL     1       6.782  -8.582   3.300  1.00  0.00     0.049 A 
ATOM     48  H   UNL     1       7.434  -9.633   1.615  1.00  0.00     0.167 HD
ATOM     49  C   UNL     1       8.869 -11.574  -2.017  1.00  0.00     0.031 A 
ATOM     50  C   UNL     1       7.375  -9.131   4.384  1.00  0.00     0.031 A 
ATOM     51  C   UNL     1       9.332 -12.392  -0.929  1.00  0.00     0.049 A 
ATOM     52  C   UNL     1       8.231 -10.360   4.176  1.00  0.00     0.074 A 
ATOM     53  C   UNL     1       9.982 -13.612  -0.986  1.00  0.00     0.029 A 
ATOM     54  N   UNL     1       9.188 -12.076   0.413  1.00  0.00    -0.354 N 
ATOM     55  N   UNL     1       8.597 -10.929   3.051  1.00  0.00    -0.248 NA
ATOM     56  C   UNL     1       8.703 -11.056   5.382  1.00  0.00     0.031 C 
ATOM     57  C   UNL     1      10.191 -14.055   0.324  1.00  0.00     0.029 A 
ATOM     58  C   UNL     1       9.732 -13.080   1.195  1.00  0.00     0.049 A 
ATOM     59  H   UNL     1       8.761 -11.259   0.759  1.00  0.00     0.167 HD
ATOM     60  C   UNL     1       9.303 -12.070   3.418  1.00  0.00     0.074 A 
ATOM     61  C   UNL     1       9.389 -12.064   4.863  1.00  0.00     0.031 C 
ATOM     62  C   UNL     1       9.796 -13.062   2.634  1.00  0.00     0.031 A 
BRANCH  49  63
ATOM     63  C   UNL     1       9.081 -12.052  -3.425  1.00  0.00    -0.014 A 
ATOM     64  C   UNL     1       9.984 -11.400  -4.283  1.00  0.00     0.010 A 
ATOM     65  C   UNL     1       8.370 -13.171  -3.894  1.00  0.00     0.010 A 
ATOM     66  C   UNL     1      10.153 -11.845  -5.595  1.00  0.00     0.020 A 
ATOM     67  C   UNL     1       8.558 -13.636  -5.197  1.00  0.00     0.020 A 
ATOM     68  C   UNL     1       9.441 -12.962  -6.043  1.00  0.00     0.054 A 
BRANCH  68  69
ATOM     69  S   UNL     1       9.715 -13.541  -7.738  1.00  0.00     0.124 S 
ATOM     70  O   UNL     1       9.070 -12.491  -8.523  1.00  0.00    -0.237 OA
ATOM     71  O   UNL     1      11.172 -13.586  -7.826  1.00  0.00    -0.237 OA
ATOM     72  O   UNL     1       9.050 -14.841  -7.773  1.00  0.00    -0.744 OA
ENDBRANCH  68  69
ENDBRANCH  49  63
BRANCH  50  73
ATOM     73  C   UNL     1       7.171  -8.590   5.768  1.00  0.00    -0.014 A 
ATOM     74  C   UNL     1       8.272  -8.169   6.545  1.00  0.00     0.010 A 
ATOM     75  C   UNL     1       5.894  -8.551   6.354  1.00  0.00     0.010 A 
ATOM     76  C   UNL     1       8.105  -7.765   7.877  1.00  0.00     0.020 A 
ATOM     77  C   UNL     1       5.714  -8.102   7.669  1.00  0.00     0.020 A 
ATOM     78  C   UNL     1       6.824  -7.736   8.431  1.00  0.00     0.054 A 
BRANCH  78  79
ATOM     79  S   UNL     1       6.613  -7.195  10.152  1.00  0.00     0.124 S 
ATOM     80  O   UNL     1       7.043  -8.374  10.896  1.00  0.00    -0.237 OA
ATOM     81  O   UNL     1       7.501  -6.037  10.233  1.00  0.00    -0.237 OA
ATOM     82  O   UNL     1       5.188  -6.883  10.237  1.00  0.00    -0.744 OA
ENDBRANCH  78  79
ENDBRANCH  50  73
BRANCH  62  83
ATOM     83  C   UNL     1      10.460 -14.223   3.326  1.00  0.00    -0.014 A 
ATOM     84  C   UNL     1       9.712 -15.141   4.085  1.00  0.00     0.010 A 
ATOM     85  C   UNL     1      11.845 -14.420   3.184  1.00  0.00     0.010 A 
ATOM     86  C   UNL     1      10.344 -16.208   4.729  1.00  0.00     0.020 A 
ATOM     87  C   UNL     1      12.476 -15.503   3.800  1.00  0.00     0.020 A 
ATOM     88  C   UNL     1      11.724 -16.379   4.586  1.00  0.00     0.054 A 
BRANCH  88  89
ATOM     89  S   UNL     1      12.520 -17.779   5.419  1.00  0.00     0.124 S 
ATOM     90  O   UNL     1      12.497 -17.353   6.816  1.00  0.00    -0.237 OA
ATOM     91  O   UNL     1      11.638 -18.895   5.087  1.00  0.00    -0.237 OA
ATOM     92  O   UNL     1      13.846 -17.837   4.808  1.00  0.00    -0.744 OA
ENDBRANCH  88  89
ENDBRANCH  62  83
ENDBRANCH  36  37
ENDBRANCH  29  31
ENDBRANCH  28  29
ENDBRANCH  27  28
ENDBRANCH  26  27
ENDBRANCH   1  26
TORSDOF 21
