REMARK SMILES O=C(OCCOCCOC(=O)c1[nH]ncc1C[NH+]1CCC([N@H+]2CCC[C@@H](C(=O)N3CCCC3)C2)CC1)c1ccc(-c2c3nc(c(-c4ccc(S(=O)(=O)[O-])cc4)c4ccc([nH]4)c(-c4ccc(S(=O)(=O)[O-])cc4)c4nc(c(-c5ccc(S(=O)(=O)[O-])cc5)c5ccc2[nH]5)C=C4)C=C3)cc1
REMARK SMILES IDX 7 1 6 2 5 3 4 4 3 5 2 6 1 7 37 8 38 9 96 10 39 11 95 12
REMARK SMILES IDX 40 13 41 14 42 15 89 16 43 17 94 18 88 19 90 20 44 21 93 22
REMARK SMILES IDX 87 23 86 24 45 26 75 27 56 28 74 29 57 30 60 31 73 32 91 33
REMARK SMILES IDX 58 34 59 35 72 37 92 38 61 39 46 40 47 41 55 42 48 43 54 44
REMARK SMILES IDX 49 45 50 46 51 47 52 48 53 49 76 50 77 51 85 52 78 53 84 54
REMARK SMILES IDX 79 55 80 56 81 57 82 58 83 59 62 60 63 61 71 62 64 63 70 64
REMARK SMILES IDX 65 65 66 66 67 67 68 68 69 69 8 70 9 71 10 72 11 73 12 74
REMARK SMILES IDX 13 75 16 76 14 77 15 79 17 80 18 81 19 82 36 83 20 85 35 86
REMARK SMILES IDX 21 87 22 88 23 89 34 90 24 92 26 93 25 94 27 95 28 96 29 97
REMARK SMILES IDX 30 98 33 99 31 100 32 101
REMARK H PARENT 90 25 60 36 13 78 18 84 22 91
REMARK Flexibility Score: inf
ROOT
ATOM      1  C   UNL     1       2.692  -0.682  -1.868  1.00  0.00     0.202 C 
ENDROOT
BRANCH   1   2
ATOM      2  O   UNL     1       3.998  -0.630  -1.290  1.00  0.00    -0.374 OA
BRANCH   2   3
ATOM      3  C   UNL     1       4.248  -1.408  -0.122  1.00  0.00     0.202 C 
BRANCH   3   4
ATOM      4  C   UNL     1       3.991  -0.688   1.197  1.00  0.00     0.261 C 
BRANCH   4   5
ATOM      5  O   UNL     1       2.606  -0.333   1.290  1.00  0.00    -0.460 OA
BRANCH   5   6
ATOM      6  C   UNL     1       2.041   0.840   0.924  1.00  0.00     0.338 C 
ATOM      7  O   UNL     1       0.815   0.930   0.925  1.00  0.00    -0.246 OA
BRANCH   6   8
ATOM      8  C   UNL     1       2.833   2.045   0.540  1.00  0.00     0.060 A 
ATOM      9  C   UNL     1       4.040   2.019  -0.161  1.00  0.00     0.016 A 
ATOM     10  C   UNL     1       2.261   3.293   0.820  1.00  0.00     0.016 A 
ATOM     11  C   UNL     1       4.675   3.169  -0.571  1.00  0.00     0.010 A 
ATOM     12  C   UNL     1       2.889   4.469   0.406  1.00  0.00     0.010 A 
ATOM     13  C   UNL     1       4.099   4.396  -0.292  1.00  0.00    -0.014 A 
BRANCH  13  14
ATOM     14  C   UNL     1       4.905   5.572  -0.621  1.00  0.00     0.031 A 
ATOM     15  C   UNL     1       5.664   6.214   0.492  1.00  0.00     0.074 A 
ATOM     16  C   UNL     1       5.082   5.902  -1.912  1.00  0.00     0.049 A 
ATOM     17  N   UNL     1       6.412   7.278   0.467  1.00  0.00    -0.248 NA
ATOM     18  C   UNL     1       5.583   5.556   1.810  1.00  0.00     0.031 C 
ATOM     19  C   UNL     1       4.512   5.179  -3.056  1.00  0.00     0.029 A 
ATOM     20  N   UNL     1       5.821   6.897  -2.482  1.00  0.00    -0.354 N 
ATOM     21  C   UNL     1       6.855   7.445   1.772  1.00  0.00     0.074 A 
ATOM     22  C   UNL     1       6.299   6.374   2.564  1.00  0.00     0.031 C 
ATOM     23  C   UNL     1       4.935   5.754  -4.192  1.00  0.00     0.029 A 
ATOM     24  C   UNL     1       5.731   6.926  -3.853  1.00  0.00     0.049 A 
ATOM     25  H   UNL     1       6.364   7.533  -1.963  1.00  0.00     0.167 HD
ATOM     26  C   UNL     1       7.645   8.430   2.253  1.00  0.00     0.031 A 
ATOM     27  C   UNL     1       6.205   7.838  -4.721  1.00  0.00     0.031 A 
ATOM     28  C   UNL     1       8.155   9.481   1.419  1.00  0.00     0.049 A 
ATOM     29  C   UNL     1       6.969   8.998  -4.143  1.00  0.00     0.074 A 
ATOM     30  C   UNL     1       8.901  10.586   1.777  1.00  0.00     0.029 A 
ATOM     31  N   UNL     1       7.963   9.548   0.043  1.00  0.00    -0.354 N 
ATOM     32  N   UNL     1       7.310   9.215  -2.891  1.00  0.00    -0.248 NA
ATOM     33  C   UNL     1       7.402  10.039  -5.078  1.00  0.00     0.031 C 
ATOM     34  C   UNL     1       9.103  11.354   0.625  1.00  0.00     0.029 A 
ATOM     35  C   UNL     1       8.553  10.689  -0.463  1.00  0.00     0.049 A 
ATOM     36  H   UNL     1       7.477   8.879  -0.492  1.00  0.00     0.167 HD
ATOM     37  C   UNL     1       8.018  10.408  -2.891  1.00  0.00     0.074 A 
ATOM     38  C   UNL     1       8.070  10.853  -4.272  1.00  0.00     0.031 C 
ATOM     39  C   UNL     1       8.576  11.080  -1.852  1.00  0.00     0.031 A 
BRANCH  26  40
ATOM     40  C   UNL     1       7.885   8.453   3.736  1.00  0.00    -0.014 A 
ATOM     41  C   UNL     1       8.677   7.483   4.377  1.00  0.00     0.010 A 
ATOM     42  C   UNL     1       7.262   9.447   4.511  1.00  0.00     0.010 A 
ATOM     43  C   UNL     1       8.806   7.483   5.770  1.00  0.00     0.020 A 
ATOM     44  C   UNL     1       7.412   9.470   5.900  1.00  0.00     0.020 A 
ATOM     45  C   UNL     1       8.170   8.476   6.522  1.00  0.00     0.054 A 
BRANCH  45  46
ATOM     46  S   UNL     1       8.361   8.460   8.325  1.00  0.00     0.124 S 
ATOM     47  O   UNL     1       7.569   7.292   8.703  1.00  0.00    -0.237 OA
ATOM     48  O   UNL     1       9.805   8.319   8.491  1.00  0.00    -0.237 OA
ATOM     49  O   UNL     1       7.811   9.747   8.745  1.00  0.00    -0.744 OA
ENDBRANCH  45  46
ENDBRANCH  26  40
BRANCH  27  50
ATOM     50  C   UNL     1       5.902   7.729  -6.175  1.00  0.00    -0.014 A 
ATOM     51  C   UNL     1       6.924   7.549  -7.121  1.00  0.00     0.010 A 
ATOM     52  C   UNL     1       4.568   7.803  -6.625  1.00  0.00     0.010 A 
ATOM     53  C   UNL     1       6.622   7.465  -8.486  1.00  0.00     0.020 A 
ATOM     54  C   UNL     1       4.258   7.687  -7.982  1.00  0.00     0.020 A 
ATOM     55  C   UNL     1       5.290   7.534  -8.907  1.00  0.00     0.054 A 
BRANCH  55  56
ATOM     56  S   UNL     1       4.921   7.396 -10.679  1.00  0.00     0.124 S 
ATOM     57  O   UNL     1       5.439   8.659 -11.196  1.00  0.00    -0.237 OA
ATOM     58  O   UNL     1       5.666   6.200 -11.063  1.00  0.00    -0.237 OA
ATOM     59  O   UNL     1       3.467   7.255 -10.717  1.00  0.00    -0.744 OA
ENDBRANCH  55  56
ENDBRANCH  27  50
BRANCH  39  60
ATOM     60  C   UNL     1       9.328  12.337  -2.186  1.00  0.00    -0.014 A 
ATOM     61  C   UNL     1       8.657  13.508  -2.573  1.00  0.00     0.010 A 
ATOM     62  C   UNL     1      10.726  12.355  -2.031  1.00  0.00     0.010 A 
ATOM     63  C   UNL     1       9.379  14.675  -2.828  1.00  0.00     0.020 A 
ATOM     64  C   UNL     1      11.445  13.528  -2.249  1.00  0.00     0.020 A 
ATOM     65  C   UNL     1      10.768  14.677  -2.659  1.00  0.00     0.054 A 
BRANCH  65  66
ATOM     66  S   UNL     1      11.673  16.221  -2.937  1.00  0.00     0.124 S 
ATOM     67  O   UNL     1      11.612  16.351  -4.390  1.00  0.00    -0.237 OA
ATOM     68  O   UNL     1      10.884  17.193  -2.183  1.00  0.00    -0.237 OA
ATOM     69  O   UNL     1      13.001  15.948  -2.390  1.00  0.00    -0.744 OA
ENDBRANCH  65  66
ENDBRANCH  39  60
ENDBRANCH  13  14
ENDBRANCH   6   8
ENDBRANCH   5   6
ENDBRANCH   4   5
ENDBRANCH   3   4
ENDBRANCH   2   3
ENDBRANCH   1   2
BRANCH   1  70
ATOM     70  C   UNL     1       2.846  -0.979  -3.362  1.00  0.00     0.261 C 
BRANCH  70  71
ATOM     71  O   UNL     1       3.398  -2.295  -3.485  1.00  0.00    -0.459 OA
BRANCH  71  72
ATOM     72  C   UNL     1       4.718  -2.405  -3.180  1.00  0.00     0.356 C 
ATOM     73  O   UNL     1       5.585  -1.565  -3.398  1.00  0.00    -0.244 OA
BRANCH  72  74
ATOM     74  C   UNL     1       4.912  -3.612  -2.428  1.00  0.00     0.152 A 
ATOM     75  N   UNL     1       5.953  -3.793  -1.564  1.00  0.00    -0.271 N 
ATOM     76  C   UNL     1       4.206  -4.808  -2.411  1.00  0.00     0.059 A 
ATOM     77  N   UNL     1       5.848  -4.912  -0.825  1.00  0.00    -0.183 NA
ATOM     78  H   UNL     1       6.707  -3.164  -1.488  1.00  0.00     0.190 HD
ATOM     79  C   UNL     1       4.801  -5.541  -1.361  1.00  0.00     0.145 A 
BRANCH  76  80
ATOM     80  C   UNL     1       3.133  -5.245  -3.356  1.00  0.00     0.303 C 
BRANCH  80  81
ATOM     81  N   UNL     1       3.700  -5.700  -4.643  1.00  0.00    -0.331 N 
ATOM     82  C   UNL     1       4.586  -4.706  -5.264  1.00  0.00     0.268 C 
ATOM     83  C   UNL     1       4.354  -7.005  -4.522  1.00  0.00     0.268 C 
ATOM     84  H   UNL     1       2.908  -5.811  -5.275  1.00  0.00     0.348 HD
ATOM     85  C   UNL     1       5.129  -5.122  -6.611  1.00  0.00     0.126 C 
ATOM     86  C   UNL     1       4.830  -7.505  -5.885  1.00  0.00     0.126 C 
ATOM     87  C   UNL     1       5.803  -6.497  -6.513  1.00  0.00     0.195 C 
BRANCH  87  88
ATOM     88  N   UNL     1       6.375  -6.988  -7.788  1.00  0.00    -0.331 N 
ATOM     89  C   UNL     1       5.401  -7.003  -8.890  1.00  0.00     0.262 C 
ATOM     90  C   UNL     1       7.547  -6.165  -8.144  1.00  0.00     0.275 C 
ATOM     91  H   UNL     1       6.656  -7.958  -7.646  1.00  0.00     0.348 HD
ATOM     92  C   UNL     1       6.027  -7.518 -10.185  1.00  0.00     0.062 C 
ATOM     93  C   UNL     1       8.230  -6.638  -9.431  1.00  0.00     0.134 C 
ATOM     94  C   UNL     1       7.236  -6.673 -10.584  1.00  0.00     0.025 C 
BRANCH  93  95
ATOM     95  C   UNL     1       9.399  -5.694  -9.666  1.00  0.00     0.231 C 
ATOM     96  O   UNL     1       9.323  -4.489  -9.425  1.00  0.00    -0.274 OA
ATOM     97  N   UNL     1      10.592  -6.278 -10.003  1.00  0.00    -0.342 N 
ATOM     98  C   UNL     1      10.816  -7.466 -10.796  1.00  0.00     0.119 C 
ATOM     99  C   UNL     1      11.836  -5.720  -9.514  1.00  0.00     0.119 C 
ATOM    100  C   UNL     1      12.111  -8.015 -10.232  1.00  0.00     0.023 C 
ATOM    101  C   UNL     1      12.898  -6.759  -9.857  1.00  0.00     0.023 C 
ENDBRANCH  93  95
ENDBRANCH  87  88
ENDBRANCH  80  81
ENDBRANCH  76  80
ENDBRANCH  72  74
ENDBRANCH  71  72
ENDBRANCH  70  71
ENDBRANCH   1  70
TORSDOF 21
