REMARK SMILES Cc1c(Br)c(C)c2c(c1Br)O[C@H](C(F)(F)F)C(C(=O)OCCOCCOC(=O)c1ccc(-c3c4nc(c(-c5ccc(S(=O)(=O)[O-])cc5)c5ccc([nH]5)c(-c5ccc(S(=O)(=O)[O-])cc5)c5nc(c(-c6ccc(S(=O)(=O)[O-])cc6)c6ccc3[nH]6)C=C5)C=C4)cc1)=C2
REMARK SMILES IDX 24 1 23 2 22 3 21 4 20 5 18 6 19 7 17 8 1 9 2 10 3 11 9 12
REMARK SMILES IDX 4 13 5 14 8 15 10 16 6 17 7 18 11 19 89 20 12 21 13 22 14 23
REMARK SMILES IDX 15 24 16 25 25 26 26 27 27 28 28 29 29 30 30 31 88 32 31 33
REMARK SMILES IDX 87 34 32 35 33 36 34 37 81 38 35 39 86 40 80 41 82 42 36 43
REMARK SMILES IDX 85 44 79 45 78 46 37 48 67 49 48 50 66 51 49 52 52 53 65 54
REMARK SMILES IDX 83 55 50 56 51 57 64 59 84 60 53 61 38 62 39 63 47 64 40 65
REMARK SMILES IDX 46 66 41 67 42 68 43 69 44 70 45 71 68 72 69 73 77 74 70 75
REMARK SMILES IDX 76 76 71 77 72 78 73 79 74 80 75 81 54 82 55 83 63 84 56 85
REMARK SMILES IDX 62 86 57 87 58 88 59 89 60 90 61 91
REMARK H PARENT 82 47 52 58
REMARK Flexibility Score: inf
ROOT
ATOM      1  C   UNL     1       0.046  -1.326   8.929  1.00  0.00     0.202 C 
ENDROOT
BRANCH   1   2
ATOM      2  O   UNL     1      -1.040  -1.461   9.847  1.00  0.00    -0.374 OA
BRANCH   2   3
ATOM      3  C   UNL     1      -1.620  -2.755  10.005  1.00  0.00     0.202 C 
BRANCH   3   4
ATOM      4  C   UNL     1      -2.597  -3.213   8.918  1.00  0.00     0.261 C 
BRANCH   4   5
ATOM      5  O   UNL     1      -1.994  -3.184   7.615  1.00  0.00    -0.460 OA
BRANCH   5   6
ATOM      6  C   UNL     1      -2.491  -2.237   6.787  1.00  0.00     0.338 C 
ATOM      7  O   UNL     1      -3.451  -1.511   6.994  1.00  0.00    -0.246 OA
BRANCH   6   8
ATOM      8  C   UNL     1      -1.611  -2.085   5.613  1.00  0.00     0.087 C 
ATOM      9  C   UNL     1       1.046  -0.072   0.023  1.00  0.00     0.047 C 
ATOM     10  C   UNL     1       0.508  -0.228   1.427  1.00  0.00    -0.019 A 
ATOM     11  C   UNL     1       0.115   0.891   2.200  1.00  0.00     0.025 A 
ATOM     12  C   UNL     1       0.426  -1.507   2.018  1.00  0.00     0.064 A 
ATOM     13  Br  UNL     1       0.387   2.656   1.492  1.00  0.00    -0.050 Br
ATOM     14  C   UNL     1      -0.461   0.733   3.484  1.00  0.00    -0.026 A 
ATOM     15  C   UNL     1      -0.158  -1.685   3.284  1.00  0.00     0.142 A 
ATOM     16  Br  UNL     1       1.108  -3.053   1.111  1.00  0.00    -0.046 Br
ATOM     17  C   UNL     1      -0.889   1.909   4.337  1.00  0.00     0.046 C 
ATOM     18  C   UNL     1      -0.645  -0.579   3.990  1.00  0.00     0.022 A 
ATOM     19  O   UNL     1      -0.194  -2.961   3.787  1.00  0.00    -0.474 OA
ATOM     20  C   UNL     1      -1.385  -0.824   5.226  1.00  0.00     0.027 C 
ATOM     21  C   UNL     1      -1.051  -3.282   4.913  1.00  0.00     0.316 C 
BRANCH  21  22
ATOM     22  C   UNL     1      -2.137  -4.261   4.444  1.00  0.00     0.430 C 
ATOM     23  F   UNL     1      -1.597  -5.309   3.780  1.00  0.00    -0.167 F 
ATOM     24  F   UNL     1      -2.833  -4.771   5.486  1.00  0.00    -0.167 F 
ATOM     25  F   UNL     1      -3.024  -3.664   3.615  1.00  0.00    -0.167 F 
ENDBRANCH  21  22
ENDBRANCH   6   8
ENDBRANCH   5   6
ENDBRANCH   4   5
ENDBRANCH   3   4
ENDBRANCH   2   3
ENDBRANCH   1   2
BRANCH   1  26
ATOM     26  C   UNL     1       1.396  -1.933   9.329  1.00  0.00     0.261 C 
BRANCH  26  27
ATOM     27  O   UNL     1       1.364  -3.372   9.351  1.00  0.00    -0.460 OA
BRANCH  27  28
ATOM     28  C   UNL     1       1.545  -3.924  10.576  1.00  0.00     0.338 C 
ATOM     29  O   UNL     1       1.784  -3.337  11.622  1.00  0.00    -0.246 OA
BRANCH  28  30
ATOM     30  C   UNL     1       1.221  -5.360  10.532  1.00  0.00     0.060 A 
ATOM     31  C   UNL     1       0.207  -5.824  11.380  1.00  0.00     0.016 A 
ATOM     32  C   UNL     1       1.950  -6.249   9.741  1.00  0.00     0.016 A 
ATOM     33  C   UNL     1      -0.055  -7.188  11.470  1.00  0.00     0.010 A 
ATOM     34  C   UNL     1       1.695  -7.621   9.844  1.00  0.00     0.010 A 
ATOM     35  C   UNL     1       0.715  -8.098  10.733  1.00  0.00    -0.014 A 
BRANCH  35  36
ATOM     36  C   UNL     1       0.587  -9.548  11.009  1.00  0.00     0.031 A 
ATOM     37  C   UNL     1       1.575 -10.203  11.936  1.00  0.00     0.074 A 
ATOM     38  C   UNL     1      -0.426 -10.261  10.485  1.00  0.00     0.049 A 
ATOM     39  N   UNL     1       1.645 -11.450  12.323  1.00  0.00    -0.248 NA
ATOM     40  C   UNL     1       2.619  -9.335  12.509  1.00  0.00     0.031 C 
ATOM     41  C   UNL     1      -1.478  -9.725   9.622  1.00  0.00     0.029 A 
ATOM     42  N   UNL     1      -0.739 -11.591  10.613  1.00  0.00    -0.354 N 
ATOM     43  C   UNL     1       2.732 -11.517  13.185  1.00  0.00     0.074 A 
ATOM     44  C   UNL     1       3.315 -10.194  13.239  1.00  0.00     0.031 C 
ATOM     45  C   UNL     1      -2.327 -10.718   9.303  1.00  0.00     0.029 A 
ATOM     46  C   UNL     1      -1.861 -11.963   9.911  1.00  0.00     0.049 A 
ATOM     47  H   UNL     1      -0.211 -12.219  11.156  1.00  0.00     0.167 HD
ATOM     48  C   UNL     1       3.197 -12.582  13.880  1.00  0.00     0.031 A 
ATOM     49  C   UNL     1      -2.438 -13.172   9.766  1.00  0.00     0.031 A 
ATOM     50  C   UNL     1       2.627 -13.901  13.811  1.00  0.00     0.049 A 
ATOM     51  C   UNL     1      -1.841 -14.364  10.467  1.00  0.00     0.074 A 
ATOM     52  C   UNL     1       3.030 -15.047  14.475  1.00  0.00     0.029 A 
ATOM     53  N   UNL     1       1.537 -14.252  13.030  1.00  0.00    -0.354 N 
ATOM     54  N   UNL     1      -0.816 -14.411  11.284  1.00  0.00    -0.248 NA
ATOM     55  C   UNL     1      -2.478 -15.667  10.225  1.00  0.00     0.031 C 
ATOM     56  C   UNL     1       2.217 -16.103  14.052  1.00  0.00     0.029 A 
ATOM     57  C   UNL     1       1.272 -15.604  13.171  1.00  0.00     0.049 A 
ATOM     58  H   UNL     1       1.028 -13.633  12.459  1.00  0.00     0.167 HD
ATOM     59  C   UNL     1      -0.698 -15.742  11.670  1.00  0.00     0.074 A 
ATOM     60  C   UNL     1      -1.763 -16.466  11.007  1.00  0.00     0.031 C 
ATOM     61  C   UNL     1       0.211 -16.312  12.499  1.00  0.00     0.031 A 
BRANCH  48  62
ATOM     62  C   UNL     1       4.398 -12.369  14.761  1.00  0.00    -0.014 A 
ATOM     63  C   UNL     1       4.292 -11.655  15.968  1.00  0.00     0.010 A 
ATOM     64  C   UNL     1       5.637 -12.933  14.404  1.00  0.00     0.010 A 
ATOM     65  C   UNL     1       5.411 -11.484  16.788  1.00  0.00     0.020 A 
ATOM     66  C   UNL     1       6.752 -12.784  15.233  1.00  0.00     0.020 A 
ATOM     67  C   UNL     1       6.634 -12.050  16.415  1.00  0.00     0.054 A 
BRANCH  67  68
ATOM     68  S   UNL     1       8.060 -11.834  17.515  1.00  0.00     0.124 S 
ATOM     69  O   UNL     1       8.353 -10.412  17.353  1.00  0.00    -0.237 OA
ATOM     70  O   UNL     1       7.521 -12.220  18.816  1.00  0.00    -0.237 OA
ATOM     71  O   UNL     1       9.064 -12.742  16.965  1.00  0.00    -0.744 OA
ENDBRANCH  67  68
ENDBRANCH  48  62
BRANCH  49  72
ATOM     72  C   UNL     1      -3.651 -13.316   8.915  1.00  0.00    -0.014 A 
ATOM     73  C   UNL     1      -4.903 -13.585   9.495  1.00  0.00     0.010 A 
ATOM     74  C   UNL     1      -3.561 -13.169   7.518  1.00  0.00     0.010 A 
ATOM     75  C   UNL     1      -6.042 -13.708   8.693  1.00  0.00     0.020 A 
ATOM     76  C   UNL     1      -4.702 -13.266   6.716  1.00  0.00     0.020 A 
ATOM     77  C   UNL     1      -5.935 -13.541   7.309  1.00  0.00     0.054 A 
BRANCH  77  78
ATOM     78  S   UNL     1      -7.439 -13.643   6.299  1.00  0.00     0.124 S 
ATOM     79  O   UNL     1      -7.754 -15.066   6.365  1.00  0.00    -0.237 OA
ATOM     80  O   UNL     1      -8.355 -12.758   7.013  1.00  0.00    -0.237 OA
ATOM     81  O   UNL     1      -7.007 -13.157   4.991  1.00  0.00    -0.744 OA
ENDBRANCH  77  78
ENDBRANCH  49  72
BRANCH  61  82
ATOM     82  C   UNL     1       0.096 -17.791  12.756  1.00  0.00    -0.014 A 
ATOM     83  C   UNL     1       0.479 -18.726  11.778  1.00  0.00     0.010 A 
ATOM     84  C   UNL     1      -0.309 -18.250  14.023  1.00  0.00     0.010 A 
ATOM     85  C   UNL     1       0.446 -20.095  12.060  1.00  0.00     0.020 A 
ATOM     86  C   UNL     1      -0.319 -19.616  14.316  1.00  0.00     0.020 A 
ATOM     87  C   UNL     1       0.053 -20.530  13.330  1.00  0.00     0.054 A 
BRANCH  87  88
ATOM     88  S   UNL     1       0.088 -22.308  13.688  1.00  0.00     0.124 S 
ATOM     89  O   UNL     1      -1.034 -22.802  12.895  1.00  0.00    -0.237 OA
ATOM     90  O   UNL     1       1.413 -22.703  13.217  1.00  0.00    -0.237 OA
ATOM     91  O   UNL     1      -0.097 -22.375  15.136  1.00  0.00    -0.744 OA
ENDBRANCH  87  88
ENDBRANCH  61  82
ENDBRANCH  35  36
ENDBRANCH  28  30
ENDBRANCH  27  28
ENDBRANCH  26  27
ENDBRANCH   1  26
TORSDOF 18
