REMARK SMILES Cc1cc(C)n([C@@H](C(=O)OCCOCCOC(=O)c2ccc(-c3c4nc(c(-c5ccc(S(=O)(=O)[O-])cc5)c5ccc([nH]5)c(-c5ccc(S(=O)(=O)[O-])cc5)c5nc(c(-c6ccc(S(=O)(=O)[O-])cc6)c6ccc3[nH]6)C=C5)C=C4)cc2)C(C)C)n1
REMARK SMILES IDX 14 1 13 2 12 3 11 4 10 5 8 6 9 7 7 8 6 9 1 10 2 11 3 12
REMARK SMILES IDX 82 13 4 14 5 15 79 16 80 17 81 18 15 19 16 20 17 21 18 22
REMARK SMILES IDX 19 23 20 24 78 25 21 26 77 27 22 28 23 29 24 30 71 31 25 32
REMARK SMILES IDX 76 33 70 34 72 35 26 36 75 37 69 38 68 39 27 41 57 42 38 43
REMARK SMILES IDX 56 44 39 45 42 46 55 47 73 48 40 49 41 50 54 52 74 53 43 54
REMARK SMILES IDX 28 55 29 56 37 57 30 58 36 59 31 60 32 61 33 62 34 63 35 64
REMARK SMILES IDX 58 65 59 66 67 67 60 68 66 69 61 70 62 71 63 72 64 73 65 74
REMARK SMILES IDX 44 75 45 76 53 77 46 78 52 79 47 80 48 81 49 82 50 83 51 84
REMARK H PARENT 72 40 42 51
REMARK Flexibility Score: inf
ROOT
ATOM      1  C   UNL     1      -2.642   4.737   4.235  1.00  0.00     0.202 C 
ENDROOT
BRANCH   1   2
ATOM      2  O   UNL     1      -3.374   5.856   3.749  1.00  0.00    -0.374 OA
BRANCH   2   3
ATOM      3  C   UNL     1      -3.758   5.875   2.377  1.00  0.00     0.202 C 
BRANCH   3   4
ATOM      4  C   UNL     1      -2.654   5.860   1.312  1.00  0.00     0.261 C 
BRANCH   4   5
ATOM      5  O   UNL     1      -1.603   4.902   1.559  1.00  0.00    -0.462 OA
BRANCH   5   6
ATOM      6  C   UNL     1      -0.358   5.431   1.692  1.00  0.00     0.331 C 
ATOM      7  O   UNL     1      -0.133   6.634   1.557  1.00  0.00    -0.250 OA
BRANCH   6   8
ATOM      8  C   UNL     1       0.765   4.451   2.024  1.00  0.00     0.219 C 
BRANCH   8   9
ATOM      9  N   UNL     1       0.405   3.021   1.933  1.00  0.00    -0.255 N 
ATOM     10  C   UNL     1       0.753   0.165  -0.172  1.00  0.00     0.069 C 
ATOM     11  C   UNL     1       0.468   1.136   0.912  1.00  0.00     0.060 A 
ATOM     12  C   UNL     1       0.173   0.845   2.251  1.00  0.00     0.048 A 
ATOM     13  N   UNL     1       0.559   2.452   0.706  1.00  0.00    -0.177 NA
ATOM     14  C   UNL     1       0.207   2.056   2.913  1.00  0.00     0.037 A 
ATOM     15  C   UNL     1       0.167   2.230   4.386  1.00  0.00     0.066 C 
ENDBRANCH   8   9
BRANCH   8  16
ATOM     16  C   UNL     1       1.614   4.828   3.280  1.00  0.00     0.019 C 
ATOM     17  C   UNL     1       2.979   4.124   3.220  1.00  0.00     0.010 C 
ATOM     18  C   UNL     1       1.860   6.327   3.484  1.00  0.00     0.010 C 
ENDBRANCH   8  16
ENDBRANCH   6   8
ENDBRANCH   5   6
ENDBRANCH   4   5
ENDBRANCH   3   4
ENDBRANCH   2   3
ENDBRANCH   1   2
BRANCH   1  19
ATOM     19  C   UNL     1      -3.250   3.348   4.092  1.00  0.00     0.261 C 
BRANCH  19  20
ATOM     20  O   UNL     1      -3.534   2.987   2.749  1.00  0.00    -0.460 OA
BRANCH  20  21
ATOM     21  C   UNL     1      -4.855   2.788   2.528  1.00  0.00     0.338 C 
ATOM     22  O   UNL     1      -5.778   3.362   3.075  1.00  0.00    -0.246 OA
BRANCH  21  23
ATOM     23  C   UNL     1      -5.010   1.579   1.714  1.00  0.00     0.060 A 
ATOM     24  C   UNL     1      -6.312   1.097   1.585  1.00  0.00     0.016 A 
ATOM     25  C   UNL     1      -3.892   0.813   1.344  1.00  0.00     0.016 A 
ATOM     26  C   UNL     1      -6.485  -0.224   1.244  1.00  0.00     0.010 A 
ATOM     27  C   UNL     1      -4.067  -0.513   1.013  1.00  0.00     0.010 A 
ATOM     28  C   UNL     1      -5.358  -1.030   1.026  1.00  0.00    -0.014 A 
BRANCH  28  29
ATOM     29  C   UNL     1      -5.601  -2.384   0.580  1.00  0.00     0.031 A 
ATOM     30  C   UNL     1      -6.151  -2.400  -0.793  1.00  0.00     0.074 A 
ATOM     31  C   UNL     1      -5.336  -3.491   1.294  1.00  0.00     0.049 A 
ATOM     32  N   UNL     1      -7.390  -2.553  -1.119  1.00  0.00    -0.248 NA
ATOM     33  C   UNL     1      -5.285  -1.948  -1.894  1.00  0.00     0.031 C 
ATOM     34  C   UNL     1      -4.577  -3.627   2.536  1.00  0.00     0.029 A 
ATOM     35  N   UNL     1      -5.649  -4.777   0.986  1.00  0.00    -0.354 N 
ATOM     36  C   UNL     1      -7.421  -2.454  -2.501  1.00  0.00     0.074 A 
ATOM     37  C   UNL     1      -6.165  -1.870  -2.894  1.00  0.00     0.031 C 
ATOM     38  C   UNL     1      -4.292  -4.938   2.739  1.00  0.00     0.029 A 
ATOM     39  C   UNL     1      -4.970  -5.734   1.727  1.00  0.00     0.049 A 
ATOM     40  H   UNL     1      -6.306  -5.011   0.290  1.00  0.00     0.167 HD
ATOM     41  C   UNL     1      -8.356  -3.127  -3.225  1.00  0.00     0.031 A 
ATOM     42  C   UNL     1      -4.937  -7.069   1.474  1.00  0.00     0.031 A 
ATOM     43  C   UNL     1      -9.432  -3.598  -2.391  1.00  0.00     0.049 A 
ATOM     44  C   UNL     1      -6.122  -7.381   0.634  1.00  0.00     0.074 A 
ATOM     45  C   UNL     1     -10.373  -2.995  -1.581  1.00  0.00     0.029 A 
ATOM     46  N   UNL     1      -9.370  -4.915  -1.997  1.00  0.00    -0.354 N 
ATOM     47  N   UNL     1      -7.348  -7.294   1.070  1.00  0.00    -0.248 NA
ATOM     48  C   UNL     1      -5.972  -7.327  -0.813  1.00  0.00     0.031 C 
ATOM     49  C   UNL     1     -10.500  -3.858  -0.455  1.00  0.00     0.029 A 
ATOM     50  C   UNL     1      -9.691  -4.978  -0.667  1.00  0.00     0.049 A 
ATOM     51  H   UNL     1      -9.135  -5.680  -2.571  1.00  0.00     0.167 HD
ATOM     52  C   UNL     1      -8.060  -6.734   0.019  1.00  0.00     0.074 A 
ATOM     53  C   UNL     1      -7.181  -6.861  -1.143  1.00  0.00     0.031 C 
ATOM     54  C   UNL     1      -9.171  -5.974   0.247  1.00  0.00     0.031 A 
BRANCH  41  55
ATOM     55  C   UNL     1      -8.055  -3.744  -4.566  1.00  0.00    -0.014 A 
ATOM     56  C   UNL     1      -9.091  -4.412  -5.245  1.00  0.00     0.010 A 
ATOM     57  C   UNL     1      -6.743  -3.938  -5.045  1.00  0.00     0.010 A 
ATOM     58  C   UNL     1      -8.816  -5.283  -6.306  1.00  0.00     0.020 A 
ATOM     59  C   UNL     1      -6.462  -4.769  -6.128  1.00  0.00     0.020 A 
ATOM     60  C   UNL     1      -7.500  -5.460  -6.733  1.00  0.00     0.054 A 
BRANCH  60  61
ATOM     61  S   UNL     1      -7.148  -6.642  -8.054  1.00  0.00     0.124 S 
ATOM     62  O   UNL     1      -7.510  -7.909  -7.428  1.00  0.00    -0.237 OA
ATOM     63  O   UNL     1      -8.034  -6.182  -9.119  1.00  0.00    -0.237 OA
ATOM     64  O   UNL     1      -5.722  -6.452  -8.311  1.00  0.00    -0.744 OA
ENDBRANCH  60  61
ENDBRANCH  41  55
BRANCH  42  65
ATOM     65  C   UNL     1      -3.791  -8.008   1.605  1.00  0.00    -0.014 A 
ATOM     66  C   UNL     1      -3.970  -9.398   1.450  1.00  0.00     0.010 A 
ATOM     67  C   UNL     1      -2.471  -7.516   1.579  1.00  0.00     0.010 A 
ATOM     68  C   UNL     1      -2.877 -10.250   1.203  1.00  0.00     0.020 A 
ATOM     69  C   UNL     1      -1.377  -8.359   1.340  1.00  0.00     0.020 A 
ATOM     70  C   UNL     1      -1.587  -9.719   1.125  1.00  0.00     0.054 A 
BRANCH  70  71
ATOM     71  S   UNL     1      -0.205 -10.784   0.612  1.00  0.00     0.124 S 
ATOM     72  O   UNL     1      -0.031 -11.651   1.774  1.00  0.00    -0.237 OA
ATOM     73  O   UNL     1      -0.729 -11.432  -0.587  1.00  0.00    -0.237 OA
ATOM     74  O   UNL     1       0.886  -9.840   0.375  1.00  0.00    -0.744 OA
ENDBRANCH  70  71
ENDBRANCH  42  65
BRANCH  54  75
ATOM     75  C   UNL     1      -9.807  -6.017   1.617  1.00  0.00    -0.014 A 
ATOM     76  C   UNL     1      -9.169  -5.615   2.807  1.00  0.00     0.010 A 
ATOM     77  C   UNL     1     -11.173  -6.347   1.667  1.00  0.00     0.010 A 
ATOM     78  C   UNL     1      -9.880  -5.572   4.018  1.00  0.00     0.020 A 
ATOM     79  C   UNL     1     -11.889  -6.287   2.862  1.00  0.00     0.020 A 
ATOM     80  C   UNL     1     -11.238  -5.909   4.036  1.00  0.00     0.054 A 
BRANCH  80  81
ATOM     81  S   UNL     1     -12.168  -5.819   5.592  1.00  0.00     0.124 S 
ATOM     82  O   UNL     1     -11.585  -6.906   6.374  1.00  0.00    -0.237 OA
ATOM     83  O   UNL     1     -11.873  -4.471   6.070  1.00  0.00    -0.237 OA
ATOM     84  O   UNL     1     -13.556  -6.031   5.181  1.00  0.00    -0.744 OA
ENDBRANCH  80  81
ENDBRANCH  54  75
ENDBRANCH  28  29
ENDBRANCH  21  23
ENDBRANCH  20  21
ENDBRANCH  19  20
ENDBRANCH   1  19
TORSDOF 19
