REMARK SMILES O=C(C[C@H]1C(=O)N[NH+]=C2c3ccc(F)cc3N=CN21)OCCOCCOC(=O)c1ccc(-c2c3nc(c(-c4ccc(S(=O)(=O)[O-])cc4)c4ccc([nH]4)c(-c4ccc(S(=O)(=O)[O-])cc4)c4nc(c(-c5ccc(S(=O)(=O)[O-])cc5)c5ccc2[nH]5)C=C4)C=C3)cc1
REMARK SMILES IDX 24 1 23 2 22 3 21 4 20 5 2 6 1 7 3 8 4 9 5 10 19 11 6 12
REMARK SMILES IDX 7 13 9 14 18 15 8 16 10 18 17 19 11 21 16 22 12 23 15 24
REMARK SMILES IDX 13 25 14 26 25 27 26 28 27 29 28 30 29 31 30 32 88 33 31 34
REMARK SMILES IDX 87 35 32 36 33 37 34 38 81 39 35 40 86 41 80 42 82 43 36 44
REMARK SMILES IDX 85 45 79 46 78 47 37 49 67 50 48 51 66 52 49 53 52 54 65 55
REMARK SMILES IDX 83 56 50 57 51 58 64 60 84 61 53 62 38 63 39 64 47 65 40 66
REMARK SMILES IDX 46 67 41 68 42 69 43 70 44 71 45 72 68 73 69 74 77 75 70 76
REMARK SMILES IDX 76 77 71 78 72 79 73 80 74 81 75 82 54 83 55 84 63 85 56 86
REMARK SMILES IDX 62 87 57 88 58 89 59 90 60 91 61 92
REMARK H PARENT 7 17 8 20 82 48 52 59
REMARK Flexibility Score: inf
ROOT
ATOM      1  C   UNL     1       2.538  -2.035  -0.039  1.00  0.00     0.202 C 
ENDROOT
BRANCH   1   2
ATOM      2  O   UNL     1       3.806  -1.376  -0.175  1.00  0.00    -0.374 OA
BRANCH   2   3
ATOM      3  C   UNL     1       4.327  -0.792   1.012  1.00  0.00     0.202 C 
BRANCH   3   4
ATOM      4  C   UNL     1       4.153   0.726   1.027  1.00  0.00     0.261 C 
BRANCH   4   5
ATOM      5  O   UNL     1       2.818   1.126   0.658  1.00  0.00    -0.463 OA
BRANCH   5   6
ATOM      6  C   UNL     1       2.190   1.133  -0.530  1.00  0.00     0.310 C 
ATOM      7  O   UNL     1       0.955   1.183  -0.511  1.00  0.00    -0.252 OA
BRANCH   6   8
ATOM      8  C   UNL     1       2.874   1.323  -1.874  1.00  0.00     0.183 C 
BRANCH   8   9
ATOM      9  C   UNL     1       4.221   0.691  -2.188  1.00  0.00     0.286 C 
ATOM     10  C   UNL     1       4.054  -0.753  -2.695  1.00  0.00     0.300 C 
ATOM     11  N   UNL     1       5.066   1.369  -3.199  1.00  0.00    -0.202 N 
ATOM     12  O   UNL     1       2.998  -1.319  -2.953  1.00  0.00    -0.267 OA
ATOM     13  N   UNL     1       5.286  -1.363  -2.843  1.00  0.00    -0.193 N 
ATOM     14  C   UNL     1       6.057   0.557  -3.762  1.00  0.00     0.309 C 
ATOM     15  C   UNL     1       5.025   2.715  -3.481  1.00  0.00     0.317 C 
ATOM     16  N   UNL     1       6.279  -0.701  -3.501  1.00  0.00    -0.169 N 
ATOM     17  H   UNL     1       5.444  -2.264  -2.478  1.00  0.00     0.216 HD
ATOM     18  C   UNL     1       6.823   1.160  -4.876  1.00  0.00     0.092 A 
ATOM     19  N   UNL     1       5.696   3.314  -4.415  1.00  0.00    -0.216 NA
ATOM     20  H   UNL     1       7.116  -1.147  -3.764  1.00  0.00     0.340 HD
ATOM     21  C   UNL     1       7.568   0.328  -5.721  1.00  0.00     0.022 A 
ATOM     22  C   UNL     1       6.508   2.485  -5.221  1.00  0.00     0.085 A 
ATOM     23  C   UNL     1       7.948   0.803  -6.968  1.00  0.00     0.040 A 
ATOM     24  C   UNL     1       6.936   2.957  -6.458  1.00  0.00     0.068 A 
ATOM     25  C   UNL     1       7.620   2.107  -7.327  1.00  0.00     0.125 A 
ATOM     26  F   UNL     1       7.928   2.536  -8.558  1.00  0.00    -0.207 F 
ENDBRANCH   8   9
ENDBRANCH   6   8
ENDBRANCH   5   6
ENDBRANCH   4   5
ENDBRANCH   3   4
ENDBRANCH   2   3
ENDBRANCH   1   2
BRANCH   1  27
ATOM     27  C   UNL     1       2.702  -3.555  -0.041  1.00  0.00     0.261 C 
BRANCH  27  28
ATOM     28  O   UNL     1       3.242  -3.960   1.221  1.00  0.00    -0.460 OA
BRANCH  28  29
ATOM     29  C   UNL     1       4.592  -4.003   1.306  1.00  0.00     0.338 C 
ATOM     30  O   UNL     1       5.393  -3.993   0.385  1.00  0.00    -0.246 OA
BRANCH  29  31
ATOM     31  C   UNL     1       4.944  -3.813   2.731  1.00  0.00     0.060 A 
ATOM     32  C   UNL     1       4.062  -4.198   3.747  1.00  0.00     0.016 A 
ATOM     33  C   UNL     1       6.138  -3.148   3.046  1.00  0.00     0.016 A 
ATOM     34  C   UNL     1       4.373  -3.917   5.072  1.00  0.00     0.010 A 
ATOM     35  C   UNL     1       6.459  -2.886   4.378  1.00  0.00     0.010 A 
ATOM     36  C   UNL     1       5.585  -3.285   5.397  1.00  0.00    -0.014 A 
BRANCH  36  37
ATOM     37  C   UNL     1       5.997  -3.229   6.816  1.00  0.00     0.031 A 
ATOM     38  C   UNL     1       5.954  -1.958   7.601  1.00  0.00     0.074 A 
ATOM     39  C   UNL     1       6.385  -4.386   7.385  1.00  0.00     0.049 A 
ATOM     40  N   UNL     1       6.176  -1.786   8.877  1.00  0.00    -0.248 NA
ATOM     41  C   UNL     1       5.625  -0.723   6.873  1.00  0.00     0.031 C 
ATOM     42  C   UNL     1       6.463  -5.671   6.684  1.00  0.00     0.029 A 
ATOM     43  N   UNL     1       6.751  -4.685   8.670  1.00  0.00    -0.354 N 
ATOM     44  C   UNL     1       5.998  -0.430   9.115  1.00  0.00     0.074 A 
ATOM     45  C   UNL     1       5.694   0.185   7.840  1.00  0.00     0.031 C 
ATOM     46  C   UNL     1       6.802  -6.627   7.558  1.00  0.00     0.029 A 
ATOM     47  C   UNL     1       7.015  -6.020   8.867  1.00  0.00     0.049 A 
ATOM     48  H   UNL     1       6.819  -4.010   9.384  1.00  0.00     0.167 HD
ATOM     49  C   UNL     1       6.070   0.225  10.298  1.00  0.00     0.031 A 
ATOM     50  C   UNL     1       7.382  -6.688   9.978  1.00  0.00     0.031 A 
ATOM     51  C   UNL     1       6.388  -0.418  11.550  1.00  0.00     0.049 A 
ATOM     52  C   UNL     1       7.493  -5.927  11.266  1.00  0.00     0.074 A 
ATOM     53  C   UNL     1       6.452   0.152  12.810  1.00  0.00     0.029 A 
ATOM     54  N   UNL     1       6.703  -1.761  11.704  1.00  0.00    -0.354 N 
ATOM     55  N   UNL     1       7.249  -4.657  11.490  1.00  0.00    -0.248 NA
ATOM     56  C   UNL     1       7.912  -6.681  12.454  1.00  0.00     0.031 C 
ATOM     57  C   UNL     1       6.889  -0.824  13.707  1.00  0.00     0.029 A 
ATOM     58  C   UNL     1       7.005  -2.028  13.030  1.00  0.00     0.049 A 
ATOM     59  H   UNL     1       6.711  -2.427  10.979  1.00  0.00     0.167 HD
ATOM     60  C   UNL     1       7.469  -4.462  12.847  1.00  0.00     0.074 A 
ATOM     61  C   UNL     1       7.841  -5.750  13.398  1.00  0.00     0.031 C 
ATOM     62  C   UNL     1       7.377  -3.317  13.567  1.00  0.00     0.031 A 
BRANCH  49  63
ATOM     63  C   UNL     1       5.793   1.708  10.324  1.00  0.00    -0.014 A 
ATOM     64  C   UNL     1       6.808   2.603  10.714  1.00  0.00     0.010 A 
ATOM     65  C   UNL     1       4.495   2.205  10.111  1.00  0.00     0.010 A 
ATOM     66  C   UNL     1       6.522   3.954  10.934  1.00  0.00     0.020 A 
ATOM     67  C   UNL     1       4.211   3.562  10.299  1.00  0.00     0.020 A 
ATOM     68  C   UNL     1       5.221   4.422  10.736  1.00  0.00     0.054 A 
BRANCH  68  69
ATOM     69  S   UNL     1       4.859   6.167  11.078  1.00  0.00     0.124 S 
ATOM     70  O   UNL     1       4.920   6.216  12.535  1.00  0.00    -0.237 OA
ATOM     71  O   UNL     1       5.938   6.857  10.375  1.00  0.00    -0.237 OA
ATOM     72  O   UNL     1       3.530   6.359  10.501  1.00  0.00    -0.744 OA
ENDBRANCH  68  69
ENDBRANCH  49  63
BRANCH  50  73
ATOM     73  C   UNL     1       7.616  -8.157   9.893  1.00  0.00    -0.014 A 
ATOM     74  C   UNL     1       8.659  -8.664   9.093  1.00  0.00     0.010 A 
ATOM     75  C   UNL     1       6.738  -9.059  10.517  1.00  0.00     0.010 A 
ATOM     76  C   UNL     1       8.777 -10.036   8.862  1.00  0.00     0.020 A 
ATOM     77  C   UNL     1       6.877 -10.438  10.320  1.00  0.00     0.020 A 
ATOM     78  C   UNL     1       7.875 -10.913   9.467  1.00  0.00     0.054 A 
BRANCH  78  79
ATOM     79  S   UNL     1       8.011 -12.684   9.098  1.00  0.00     0.124 S 
ATOM     80  O   UNL     1       7.513 -12.743   7.727  1.00  0.00    -0.237 OA
ATOM     81  O   UNL     1       9.441 -12.933   9.260  1.00  0.00    -0.237 OA
ATOM     82  O   UNL     1       7.154 -13.310  10.102  1.00  0.00    -0.744 OA
ENDBRANCH  78  79
ENDBRANCH  50  73
BRANCH  62  83
ATOM     83  C   UNL     1       7.689  -3.377  15.041  1.00  0.00    -0.014 A 
ATOM     84  C   UNL     1       6.681  -3.091  15.981  1.00  0.00     0.010 A 
ATOM     85  C   UNL     1       9.008  -3.567  15.490  1.00  0.00     0.010 A 
ATOM     86  C   UNL     1       6.994  -2.938  17.333  1.00  0.00     0.020 A 
ATOM     87  C   UNL     1       9.319  -3.452  16.847  1.00  0.00     0.020 A 
ATOM     88  C   UNL     1       8.315  -3.106  17.755  1.00  0.00     0.054 A 
BRANCH  88  89
ATOM     89  S   UNL     1       8.712  -2.839  19.505  1.00  0.00     0.124 S 
ATOM     90  O   UNL     1       8.615  -1.387  19.623  1.00  0.00    -0.237 OA
ATOM     91  O   UNL     1       7.668  -3.599  20.188  1.00  0.00    -0.237 OA
ATOM     92  O   UNL     1      10.060  -3.388  19.639  1.00  0.00    -0.744 OA
ENDBRANCH  88  89
ENDBRANCH  62  83
ENDBRANCH  36  37
ENDBRANCH  29  31
ENDBRANCH  28  29
ENDBRANCH  27  28
ENDBRANCH   1  27
TORSDOF 18
