REMARK SMILES C[C@@H](C(=O)OCCOCCOC(=O)c1ccc(-c2c3nc(c(-c4ccc(S(=O)(=O)[O-])cc4)c4ccc([nH]4)c(-c4ccc(S(=O)(=O)[O-])cc4)c4nc(c(-c5ccc(S(=O)(=O)[O-])cc5)c5ccc2[nH]5)C=C4)C=C3)cc1)c1ccc(C[C@H]2CCC[C@@H]2O)cc1
REMARK SMILES IDX 7 1 6 2 5 3 3 4 4 5 2 6 1 7 74 8 75 9 86 10 76 11 85 12
REMARK SMILES IDX 77 13 78 14 79 15 80 16 83 17 81 18 82 19 84 20 8 22 9 23
REMARK SMILES IDX 10 24 11 25 12 26 13 27 14 28 15 29 73 30 16 31 72 32 17 33
REMARK SMILES IDX 18 34 19 35 66 36 20 37 71 38 65 39 67 40 21 41 70 42 64 43
REMARK SMILES IDX 63 44 22 46 52 47 33 48 51 49 34 50 37 51 50 52 68 53 35 54
REMARK SMILES IDX 36 55 49 57 69 58 38 59 23 60 24 61 32 62 25 63 31 64 26 65
REMARK SMILES IDX 27 66 28 67 29 68 30 69 53 70 54 71 62 72 55 73 61 74 56 75
REMARK SMILES IDX 57 76 58 77 59 78 60 79 39 80 40 81 48 82 41 83 47 84 42 85
REMARK SMILES IDX 43 86 44 87 45 88 46 89
REMARK H PARENT 84 21 67 45 37 56
REMARK Flexibility Score: inf
ROOT
ATOM      1  C   UNL     1       2.149   4.550   0.697  1.00  0.00     0.202 C 
ENDROOT
BRANCH   1   2
ATOM      2  C   UNL     1       2.136   3.673   1.953  1.00  0.00     0.261 C 
BRANCH   2   3
ATOM      3  O   UNL     1       1.874   2.307   1.592  1.00  0.00    -0.463 OA
BRANCH   3   4
ATOM      4  C   UNL     1       1.029   1.627   2.411  1.00  0.00     0.313 C 
ATOM      5  O   UNL     1       0.673   2.021   3.517  1.00  0.00    -0.252 OA
BRANCH   4   6
ATOM      6  C   UNL     1       0.474   0.358   1.753  1.00  0.00     0.126 C 
ATOM      7  C   UNL     1       1.197  -0.087   0.478  1.00  0.00     0.025 C 
BRANCH   6   8
ATOM      8  C   UNL     1      -1.030   0.443   1.515  1.00  0.00    -0.034 A 
ATOM      9  C   UNL     1      -1.669   1.659   1.234  1.00  0.00     0.005 A 
ATOM     10  C   UNL     1      -1.817  -0.714   1.583  1.00  0.00     0.005 A 
ATOM     11  C   UNL     1      -3.051   1.730   1.081  1.00  0.00     0.004 A 
ATOM     12  C   UNL     1      -3.209  -0.634   1.482  1.00  0.00     0.004 A 
ATOM     13  C   UNL     1      -3.842   0.600   1.285  1.00  0.00    -0.048 A 
BRANCH  13  14
ATOM     14  C   UNL     1      -5.341   0.732   1.392  1.00  0.00     0.041 C 
BRANCH  14  15
ATOM     15  C   UNL     1      -5.851   1.328   2.722  1.00  0.00     0.022 C 
ATOM     16  C   UNL     1      -5.349   0.647   4.009  1.00  0.00     0.007 C 
ATOM     17  C   UNL     1      -5.559   2.818   2.946  1.00  0.00     0.117 C 
ATOM     18  C   UNL     1      -5.147   1.767   5.036  1.00  0.00     0.003 C 
ATOM     19  C   UNL     1      -5.809   2.997   4.436  1.00  0.00     0.032 C 
BRANCH  17  20
ATOM     20  O   UNL     1      -6.396   3.646   2.160  1.00  0.00    -0.393 OA
ATOM     21  H   UNL     1      -7.325   3.454   2.365  1.00  0.00     0.210 HD
ENDBRANCH  17  20
ENDBRANCH  14  15
ENDBRANCH  13  14
ENDBRANCH   6   8
ENDBRANCH   4   6
ENDBRANCH   3   4
ENDBRANCH   2   3
ENDBRANCH   1   2
BRANCH   1  22
ATOM     22  O   UNL     1       0.898   4.670   0.012  1.00  0.00    -0.374 OA
BRANCH  22  23
ATOM     23  C   UNL     1       0.491   3.564  -0.793  1.00  0.00     0.202 C 
BRANCH  23  24
ATOM     24  C   UNL     1       1.114   3.448  -2.185  1.00  0.00     0.261 C 
BRANCH  24  25
ATOM     25  O   UNL     1       2.522   3.178  -2.118  1.00  0.00    -0.460 OA
BRANCH  25  26
ATOM     26  C   UNL     1       3.308   4.218  -2.482  1.00  0.00     0.338 C 
ATOM     27  O   UNL     1       2.942   5.293  -2.940  1.00  0.00    -0.246 OA
BRANCH  26  28
ATOM     28  C   UNL     1       4.700   3.964  -2.074  1.00  0.00     0.060 A 
ATOM     29  C   UNL     1       5.357   4.987  -1.378  1.00  0.00     0.016 A 
ATOM     30  C   UNL     1       5.372   2.787  -2.410  1.00  0.00     0.016 A 
ATOM     31  C   UNL     1       6.708   4.865  -1.072  1.00  0.00     0.010 A 
ATOM     32  C   UNL     1       6.733   2.669  -2.109  1.00  0.00     0.010 A 
ATOM     33  C   UNL     1       7.413   3.725  -1.477  1.00  0.00    -0.014 A 
BRANCH  33  34
ATOM     34  C   UNL     1       8.892   3.722  -1.384  1.00  0.00     0.031 A 
ATOM     35  C   UNL     1       9.694   4.058  -2.613  1.00  0.00     0.074 A 
ATOM     36  C   UNL     1       9.508   3.474  -0.215  1.00  0.00     0.049 A 
ATOM     37  N   UNL     1      10.991   4.122  -2.762  1.00  0.00    -0.248 NA
ATOM     38  C   UNL     1       8.931   4.366  -3.835  1.00  0.00     0.031 C 
ATOM     39  C   UNL     1       8.835   3.186   1.051  1.00  0.00     0.029 A 
ATOM     40  N   UNL     1      10.843   3.430   0.095  1.00  0.00    -0.354 N 
ATOM     41  C   UNL     1      11.201   4.467  -4.093  1.00  0.00     0.074 A 
ATOM     42  C   UNL     1       9.899   4.575  -4.714  1.00  0.00     0.031 C 
ATOM     43  C   UNL     1       9.765   2.993   2.003  1.00  0.00     0.029 A 
ATOM     44  C   UNL     1      11.094   3.113   1.408  1.00  0.00     0.049 A 
ATOM     45  H   UNL     1      11.555   3.609  -0.562  1.00  0.00     0.167 HD
ATOM     46  C   UNL     1      12.372   4.680  -4.737  1.00  0.00     0.031 A 
ATOM     47  C   UNL     1      12.263   2.925   2.050  1.00  0.00     0.031 A 
ATOM     48  C   UNL     1      13.664   4.564  -4.116  1.00  0.00     0.049 A 
ATOM     49  C   UNL     1      13.554   3.099   1.294  1.00  0.00     0.074 A 
ATOM     50  C   UNL     1      14.911   4.775  -4.679  1.00  0.00     0.029 A 
ATOM     51  N   UNL     1      13.877   4.198  -2.796  1.00  0.00    -0.354 N 
ATOM     52  N   UNL     1      13.736   3.448   0.042  1.00  0.00    -0.248 NA
ATOM     53  C   UNL     1      14.798   2.859   2.039  1.00  0.00     0.031 C 
ATOM     54  C   UNL     1      15.880   4.484  -3.713  1.00  0.00     0.029 A 
ATOM     55  C   UNL     1      15.235   4.149  -2.532  1.00  0.00     0.049 A 
ATOM     56  H   UNL     1      13.167   4.002  -2.143  1.00  0.00     0.167 HD
ATOM     57  C   UNL     1      15.114   3.497  -0.142  1.00  0.00     0.074 A 
ATOM     58  C   UNL     1      15.718   3.153   1.129  1.00  0.00     0.031 C 
ATOM     59  C   UNL     1      15.817   3.803  -1.260  1.00  0.00     0.031 A 
BRANCH  46  60
ATOM     60  C   UNL     1      12.309   5.024  -6.201  1.00  0.00    -0.014 A 
ATOM     61  C   UNL     1      11.862   6.285  -6.637  1.00  0.00     0.010 A 
ATOM     62  C   UNL     1      12.738   4.082  -7.154  1.00  0.00     0.010 A 
ATOM     63  C   UNL     1      11.815   6.584  -8.002  1.00  0.00     0.020 A 
ATOM     64  C   UNL     1      12.716   4.387  -8.517  1.00  0.00     0.020 A 
ATOM     65  C   UNL     1      12.239   5.631  -8.933  1.00  0.00     0.054 A 
BRANCH  65  66
ATOM     66  S   UNL     1      12.190   6.054 -10.697  1.00  0.00     0.124 S 
ATOM     67  O   UNL     1      10.758   6.002 -10.979  1.00  0.00    -0.237 OA
ATOM     68  O   UNL     1      12.787   7.387 -10.724  1.00  0.00    -0.237 OA
ATOM     69  O   UNL     1      12.987   5.005 -11.328  1.00  0.00    -0.744 OA
ENDBRANCH  65  66
ENDBRANCH  46  60
BRANCH  47  70
ATOM     70  C   UNL     1      12.269   2.534   3.486  1.00  0.00    -0.014 A 
ATOM     71  C   UNL     1      12.716   3.428   4.474  1.00  0.00     0.010 A 
ATOM     72  C   UNL     1      11.826   1.255   3.872  1.00  0.00     0.010 A 
ATOM     73  C   UNL     1      12.737   3.045   5.819  1.00  0.00     0.020 A 
ATOM     74  C   UNL     1      11.821   0.877   5.217  1.00  0.00     0.020 A 
ATOM     75  C   UNL     1      12.288   1.772   6.181  1.00  0.00     0.054 A 
BRANCH  75  76
ATOM     76  S   UNL     1      12.278   1.312   7.937  1.00  0.00     0.124 S 
ATOM     77  O   UNL     1      13.696   1.083   8.198  1.00  0.00    -0.237 OA
ATOM     78  O   UNL     1      11.700   2.494   8.570  1.00  0.00    -0.237 OA
ATOM     79  O   UNL     1      11.434   0.119   7.972  1.00  0.00    -0.744 OA
ENDBRANCH  75  76
ENDBRANCH  47  70
BRANCH  59  80
ATOM     80  C   UNL     1      17.319   3.814  -1.155  1.00  0.00    -0.014 A 
ATOM     81  C   UNL     1      18.053   2.619  -1.059  1.00  0.00     0.010 A 
ATOM     82  C   UNL     1      18.008   5.040  -1.212  1.00  0.00     0.010 A 
ATOM     83  C   UNL     1      19.449   2.652  -0.991  1.00  0.00     0.020 A 
ATOM     84  C   UNL     1      19.404   5.075  -1.172  1.00  0.00     0.020 A 
ATOM     85  C   UNL     1      20.115   3.881  -1.047  1.00  0.00     0.054 A 
BRANCH  85  86
ATOM     86  S   UNL     1      21.928   3.894  -1.002  1.00  0.00     0.124 S 
ATOM     87  O   UNL     1      22.199   3.611   0.405  1.00  0.00    -0.237 OA
ATOM     88  O   UNL     1      22.282   2.829  -1.937  1.00  0.00    -0.237 OA
ATOM     89  O   UNL     1      22.276   5.243  -1.444  1.00  0.00    -0.744 OA
ENDBRANCH  85  86
ENDBRANCH  59  80
ENDBRANCH  33  34
ENDBRANCH  26  28
ENDBRANCH  25  26
ENDBRANCH  24  25
ENDBRANCH  23  24
ENDBRANCH  22  23
ENDBRANCH   1  22
TORSDOF 21
