REMARK SMILES O=C(OCCOCCOC(=O)c1ccc(-c2c3nc(c(-c4ccc(S(=O)(=O)[O-])cc4)c4ccc([nH]4)c(-c4ccc(S(=O)(=O)[O-])cc4)c4nc(c(-c5ccc(S(=O)(=O)[O-])cc5)c5ccc2[nH]5)C=C4)C=C3)cc1)c1ccc(NS(=O)(=O)Cc2c(Cl)cccc2Cl)cc1
REMARK SMILES IDX 5 1 4 2 3 3 2 4 1 5 72 6 73 7 90 8 74 9 89 10 75 11 76 12
REMARK SMILES IDX 77 14 78 15 79 16 80 17 81 18 82 19 87 20 83 21 84 22 86 23
REMARK SMILES IDX 88 24 85 25 6 26 7 27 8 28 9 29 10 30 11 31 12 32 13 33
REMARK SMILES IDX 71 34 14 35 70 36 15 37 16 38 17 39 64 40 18 41 69 42 63 43
REMARK SMILES IDX 65 44 19 45 68 46 62 47 61 48 20 50 50 51 31 52 49 53 32 54
REMARK SMILES IDX 35 55 48 56 66 57 33 58 34 59 47 61 67 62 36 63 21 64 22 65
REMARK SMILES IDX 30 66 23 67 29 68 24 69 25 70 26 71 27 72 28 73 51 74 52 75
REMARK SMILES IDX 60 76 53 77 59 78 54 79 55 80 56 81 57 82 58 83 37 84 38 85
REMARK SMILES IDX 46 86 39 87 45 88 40 89 41 90 42 91 43 92 44 93
REMARK H PARENT 76 13 65 49 35 60
REMARK Flexibility Score: inf
ROOT
ATOM      1  C   UNL     1       4.206  -0.722  -1.079  1.00  0.00     0.202 C 
ENDROOT
BRANCH   1   2
ATOM      2  C   UNL     1       3.885  -0.790   0.410  1.00  0.00     0.261 C 
BRANCH   2   3
ATOM      3  O   UNL     1       2.470  -0.586   0.622  1.00  0.00    -0.460 OA
BRANCH   3   4
ATOM      4  C   UNL     1       1.919   0.535   1.150  1.00  0.00     0.338 C 
ATOM      5  O   UNL     1       0.710   0.663   1.293  1.00  0.00    -0.246 OA
BRANCH   4   6
ATOM      6  C   UNL     1       2.817   1.599   1.634  1.00  0.00     0.060 A 
ATOM      7  C   UNL     1       3.445   2.482   0.752  1.00  0.00     0.018 A 
ATOM      8  C   UNL     1       3.003   1.734   3.008  1.00  0.00     0.018 A 
ATOM      9  C   UNL     1       4.360   3.420   1.227  1.00  0.00     0.027 A 
ATOM     10  C   UNL     1       3.915   2.677   3.480  1.00  0.00     0.027 A 
ATOM     11  C   UNL     1       4.649   3.469   2.586  1.00  0.00     0.049 A 
BRANCH  11  12
ATOM     12  N   UNL     1       5.661   4.282   3.148  1.00  0.00    -0.283 N 
ATOM     13  H   UNL     1       5.675   4.356   4.129  1.00  0.00     0.180 HD
BRANCH  12  14
ATOM     14  S   UNL     1       6.821   5.120   2.325  1.00  0.00     0.237 S 
ATOM     15  O   UNL     1       6.145   6.064   1.456  1.00  0.00    -0.206 OA
ATOM     16  O   UNL     1       7.705   5.627   3.358  1.00  0.00    -0.206 OA
BRANCH  14  17
ATOM     17  C   UNL     1       7.793   4.011   1.291  1.00  0.00     0.198 C 
BRANCH  17  18
ATOM     18  C   UNL     1       7.676   2.503   1.404  1.00  0.00     0.006 A 
ATOM     19  C   UNL     1       7.770   1.739   0.207  1.00  0.00     0.046 A 
ATOM     20  C   UNL     1       7.664   1.761   2.599  1.00  0.00     0.046 A 
ATOM     21  Cl  UNL     1       8.017   2.468  -1.349  1.00  0.00    -0.084 Cl
ATOM     22  C   UNL     1       7.750   0.337   0.206  1.00  0.00     0.021 A 
ATOM     23  C   UNL     1       7.590   0.355   2.589  1.00  0.00     0.021 A 
ATOM     24  Cl  UNL     1       7.868   2.468   4.162  1.00  0.00    -0.084 Cl
ATOM     25  C   UNL     1       7.630  -0.358   1.397  1.00  0.00     0.003 A 
ENDBRANCH  17  18
ENDBRANCH  14  17
ENDBRANCH  12  14
ENDBRANCH  11  12
ENDBRANCH   4   6
ENDBRANCH   3   4
ENDBRANCH   2   3
ENDBRANCH   1   2
BRANCH   1  26
ATOM     26  O   UNL     1       3.856   0.545  -1.632  1.00  0.00    -0.374 OA
BRANCH  26  27
ATOM     27  C   UNL     1       2.557   0.596  -2.239  1.00  0.00     0.202 C 
BRANCH  27  28
ATOM     28  C   UNL     1       2.681   1.223  -3.628  1.00  0.00     0.261 C 
BRANCH  28  29
ATOM     29  O   UNL     1       3.329   0.272  -4.485  1.00  0.00    -0.460 OA
BRANCH  29  30
ATOM     30  C   UNL     1       4.684   0.274  -4.427  1.00  0.00     0.338 C 
ATOM     31  O   UNL     1       5.407   1.192  -4.077  1.00  0.00    -0.246 OA
BRANCH  30  32
ATOM     32  C   UNL     1       5.146  -1.115  -4.648  1.00  0.00     0.060 A 
ATOM     33  C   UNL     1       6.320  -1.537  -4.007  1.00  0.00     0.016 A 
ATOM     34  C   UNL     1       4.401  -2.014  -5.418  1.00  0.00     0.016 A 
ATOM     35  C   UNL     1       6.755  -2.855  -4.145  1.00  0.00     0.010 A 
ATOM     36  C   UNL     1       4.833  -3.330  -5.552  1.00  0.00     0.010 A 
ATOM     37  C   UNL     1       6.021  -3.750  -4.934  1.00  0.00    -0.014 A 
BRANCH  37  38
ATOM     38  C   UNL     1       6.538  -5.099  -5.245  1.00  0.00     0.031 A 
ATOM     39  C   UNL     1       7.188  -5.318  -6.581  1.00  0.00     0.074 A 
ATOM     40  C   UNL     1       6.362  -6.116  -4.382  1.00  0.00     0.049 A 
ATOM     41  N   UNL     1       7.591  -6.432  -7.130  1.00  0.00    -0.248 NA
ATOM     42  C   UNL     1       7.396  -4.122  -7.417  1.00  0.00     0.031 C 
ATOM     43  C   UNL     1       5.750  -6.008  -3.057  1.00  0.00     0.029 A 
ATOM     44  N   UNL     1       6.656  -7.450  -4.509  1.00  0.00    -0.354 N 
ATOM     45  C   UNL     1       8.083  -6.076  -8.380  1.00  0.00     0.074 A 
ATOM     46  C   UNL     1       7.912  -4.648  -8.518  1.00  0.00     0.031 C 
ATOM     47  C   UNL     1       5.694  -7.232  -2.502  1.00  0.00     0.029 A 
ATOM     48  C   UNL     1       6.230  -8.210  -3.446  1.00  0.00     0.049 A 
ATOM     49  H   UNL     1       7.128  -7.826  -5.286  1.00  0.00     0.167 HD
ATOM     50  C   UNL     1       8.629  -6.874  -9.326  1.00  0.00     0.031 A 
ATOM     51  C   UNL     1       6.240  -9.547  -3.275  1.00  0.00     0.031 A 
ATOM     52  C   UNL     1       8.784  -8.295  -9.180  1.00  0.00     0.049 A 
ATOM     53  C   UNL     1       6.803 -10.418  -4.370  1.00  0.00     0.074 A 
ATOM     54  C   UNL     1       9.366  -9.190 -10.059  1.00  0.00     0.029 A 
ATOM     55  N   UNL     1       8.345  -9.029  -8.088  1.00  0.00    -0.354 N 
ATOM     56  N   UNL     1       7.324 -10.061  -5.521  1.00  0.00    -0.248 NA
ATOM     57  C   UNL     1       6.781 -11.869  -4.143  1.00  0.00     0.031 C 
ATOM     58  C   UNL     1       9.225 -10.475  -9.525  1.00  0.00     0.029 A 
ATOM     59  C   UNL     1       8.610 -10.371  -8.287  1.00  0.00     0.049 A 
ATOM     60  H   UNL     1       7.910  -8.650  -7.291  1.00  0.00     0.167 HD
ATOM     61  C   UNL     1       7.708 -11.243  -6.145  1.00  0.00     0.074 A 
ATOM     62  C   UNL     1       7.382 -12.322  -5.235  1.00  0.00     0.031 C 
ATOM     63  C   UNL     1       8.274 -11.425  -7.364  1.00  0.00     0.031 A 
BRANCH  50  64
ATOM     64  C   UNL     1       9.075  -6.236 -10.612  1.00  0.00    -0.014 A 
ATOM     65  C   UNL     1      10.230  -5.435 -10.663  1.00  0.00     0.010 A 
ATOM     66  C   UNL     1       8.368  -6.498 -11.800  1.00  0.00     0.010 A 
ATOM     67  C   UNL     1      10.662  -4.896 -11.878  1.00  0.00     0.020 A 
ATOM     68  C   UNL     1       8.811  -5.981 -13.020  1.00  0.00     0.020 A 
ATOM     69  C   UNL     1       9.952  -5.178 -13.050  1.00  0.00     0.054 A 
BRANCH  69  70
ATOM     70  S   UNL     1      10.575  -4.518 -14.621  1.00  0.00     0.124 S 
ATOM     71  O   UNL     1      10.276  -3.094 -14.490  1.00  0.00    -0.237 OA
ATOM     72  O   UNL     1      11.992  -4.869 -14.574  1.00  0.00    -0.237 OA
ATOM     73  O   UNL     1       9.793  -5.228 -15.630  1.00  0.00    -0.744 OA
ENDBRANCH  69  70
ENDBRANCH  50  64
BRANCH  51  74
ATOM     74  C   UNL     1       5.665 -10.156  -2.043  1.00  0.00    -0.014 A 
ATOM     75  C   UNL     1       6.491 -10.809  -1.112  1.00  0.00     0.010 A 
ATOM     76  C   UNL     1       4.278 -10.110  -1.809  1.00  0.00     0.010 A 
ATOM     77  C   UNL     1       5.940 -11.431   0.013  1.00  0.00     0.020 A 
ATOM     78  C   UNL     1       3.726 -10.705  -0.670  1.00  0.00     0.020 A 
ATOM     79  C   UNL     1       4.559 -11.376   0.225  1.00  0.00     0.054 A 
BRANCH  79  80
ATOM     80  S   UNL     1       3.868 -12.165   1.706  1.00  0.00     0.124 S 
ATOM     81  O   UNL     1       3.949 -13.581   1.361  1.00  0.00    -0.237 OA
ATOM     82  O   UNL     1       4.779 -11.716   2.756  1.00  0.00    -0.237 OA
ATOM     83  O   UNL     1       2.517 -11.614   1.786  1.00  0.00    -0.744 OA
ENDBRANCH  79  80
ENDBRANCH  51  74
BRANCH  63  84
ATOM     84  C   UNL     1       8.597 -12.836  -7.774  1.00  0.00    -0.014 A 
ATOM     85  C   UNL     1       7.580 -13.735  -8.140  1.00  0.00     0.010 A 
ATOM     86  C   UNL     1       9.941 -13.246  -7.857  1.00  0.00     0.010 A 
ATOM     87  C   UNL     1       7.901 -15.030  -8.554  1.00  0.00     0.020 A 
ATOM     88  C   UNL     1      10.266 -14.530  -8.299  1.00  0.00     0.020 A 
ATOM     89  C   UNL     1       9.242 -15.418  -8.632  1.00  0.00     0.054 A 
BRANCH  89  90
ATOM     90  S   UNL     1       9.633 -17.089  -9.220  1.00  0.00     0.124 S 
ATOM     91  O   UNL     1       9.252 -17.910  -8.074  1.00  0.00    -0.237 OA
ATOM     92  O   UNL     1       8.781 -17.221 -10.399  1.00  0.00    -0.237 OA
ATOM     93  O   UNL     1      11.066 -17.032  -9.497  1.00  0.00    -0.744 OA
ENDBRANCH  89  90
ENDBRANCH  63  84
ENDBRANCH  37  38
ENDBRANCH  30  32
ENDBRANCH  29  30
ENDBRANCH  28  29
ENDBRANCH  27  28
ENDBRANCH  26  27
ENDBRANCH   1  26
TORSDOF 21
