REMARK SMILES Cc1nsc(N(C)C(=O)[C@@H](C)CCC[C@H](C)[NH3+])c1C(=O)OCCOCCOC(=O)c1ccc(-c2c3nc(c(-c4ccc(S(=O)(=O)[O-])cc4)c4ccc([nH]4)c(-c4ccc(S(=O)(=O)[O-])cc4)c4nc(c(-c5ccc(S(=O)(=O)[O-])cc5)c5ccc2[nH]5)C=C4)C=C3)cc1
REMARK SMILES IDX 22 1 21 2 19 3 20 4 18 5 1 6 2 7 3 8 4 9 5 10 6 11 7 12 8 13
REMARK SMILES IDX 9 14 10 15 11 16 12 17 13 18 14 19 15 20 16 21 17 22 23 26
REMARK SMILES IDX 24 27 25 28 26 29 27 30 28 31 29 32 30 33 31 34 89 35 32 36
REMARK SMILES IDX 88 37 33 38 34 39 35 40 82 41 36 42 87 43 81 44 83 45 37 46
REMARK SMILES IDX 86 47 80 48 79 49 38 51 68 52 49 53 67 54 50 55 53 56 66 57
REMARK SMILES IDX 84 58 51 59 52 60 65 62 85 63 54 64 39 65 40 66 48 67 41 68
REMARK SMILES IDX 47 69 42 70 43 71 44 72 45 73 46 74 69 75 70 76 78 77 71 78
REMARK SMILES IDX 77 79 72 80 73 81 74 82 75 83 76 84 55 85 56 86 64 87 57 88
REMARK SMILES IDX 63 89 58 90 59 91 60 92 61 93 62 94
REMARK H PARENT 17 23 17 24 17 25 83 50 53 61
REMARK Flexibility Score: inf
ROOT
ATOM      1  C   UNL     1      -6.183   8.925  -0.794  1.00  0.00     0.261 C 
ENDROOT
BRANCH   1   2
ATOM      2  O   UNL     1      -6.616   9.351  -2.091  1.00  0.00    -0.460 OA
BRANCH   2   3
ATOM      3  C   UNL     1      -6.104  10.547  -2.495  1.00  0.00     0.343 C 
ATOM      4  O   UNL     1      -5.764  11.458  -1.742  1.00  0.00    -0.246 OA
BRANCH   3   5
ATOM      5  C   UNL     1      -6.100  10.657  -3.940  1.00  0.00     0.117 A 
ATOM      6  C   UNL     1      -8.704  10.916  -4.085  1.00  0.00     0.069 C 
ATOM      7  C   UNL     1      -7.330  10.883  -4.668  1.00  0.00     0.068 A 
ATOM      8  N   UNL     1      -7.212  11.050  -5.980  1.00  0.00    -0.195 NA
ATOM      9  S   UNL     1      -5.639  10.877  -6.399  1.00  0.00    -0.017 S 
ATOM     10  C   UNL     1      -5.018  10.520  -4.822  1.00  0.00     0.133 A 
BRANCH  10  11
ATOM     11  N   UNL     1      -3.639  10.123  -4.754  1.00  0.00    -0.305 N 
ATOM     12  C   UNL     1      -2.760  10.211  -5.920  1.00  0.00     0.154 C 
BRANCH  11  13
ATOM     13  C   UNL     1      -3.155   9.587  -3.563  1.00  0.00     0.230 C 
ATOM     14  O   UNL     1      -3.735   9.740  -2.486  1.00  0.00    -0.274 OA
BRANCH  13  15
ATOM     15  C   UNL     1      -1.841   8.772  -3.479  1.00  0.00     0.076 C 
ATOM     16  C   UNL     1      -1.521   7.778  -4.595  1.00  0.00     0.018 C 
BRANCH  15  17
ATOM     17  C   UNL     1      -0.642   9.657  -3.107  1.00  0.00     0.013 C 
BRANCH  17  18
ATOM     18  C   UNL     1      -0.876  10.563  -1.887  1.00  0.00     0.007 C 
BRANCH  18  19
ATOM     19  C   UNL     1      -1.216   9.825  -0.585  1.00  0.00     0.064 C 
BRANCH  19  20
ATOM     20  C   UNL     1      -0.025   9.040  -0.004  1.00  0.00     0.177 C 
ATOM     21  C   UNL     1      -0.357   7.560   0.186  1.00  0.00     0.075 C 
BRANCH  20  22
ATOM     22  N   UNL     1       0.367   9.618   1.286  1.00  0.00    -0.355 N 
ATOM     23  H   UNL     1      -0.410   9.543   1.943  1.00  0.00     0.344 HD
ATOM     24  H   UNL     1       0.610  10.600   1.159  1.00  0.00     0.344 HD
ATOM     25  H   UNL     1       1.173   9.113   1.655  1.00  0.00     0.344 HD
ENDBRANCH  20  22
ENDBRANCH  19  20
ENDBRANCH  18  19
ENDBRANCH  17  18
ENDBRANCH  15  17
ENDBRANCH  13  15
ENDBRANCH  11  13
ENDBRANCH  10  11
ENDBRANCH   3   5
ENDBRANCH   2   3
ENDBRANCH   1   2
BRANCH   1  26
ATOM     26  C   UNL     1      -5.965   7.410  -0.786  1.00  0.00     0.202 C 
BRANCH  26  27
ATOM     27  O   UNL     1      -4.938   6.861  -1.618  1.00  0.00    -0.374 OA
BRANCH  27  28
ATOM     28  C   UNL     1      -4.987   7.040  -3.030  1.00  0.00     0.202 C 
BRANCH  28  29
ATOM     29  C   UNL     1      -5.873   6.145  -3.872  1.00  0.00     0.261 C 
BRANCH  29  30
ATOM     30  O   UNL     1      -7.216   6.314  -3.478  1.00  0.00    -0.460 OA
BRANCH  30  31
ATOM     31  C   UNL     1      -7.606   5.462  -2.511  1.00  0.00     0.338 C 
ATOM     32  O   UNL     1      -6.921   4.619  -1.941  1.00  0.00    -0.246 OA
BRANCH  31  33
ATOM     33  C   UNL     1      -9.053   5.622  -2.332  1.00  0.00     0.060 A 
ATOM     34  C   UNL     1      -9.648   4.481  -1.800  1.00  0.00     0.016 A 
ATOM     35  C   UNL     1      -9.717   6.491  -3.213  1.00  0.00     0.016 A 
ATOM     36  C   UNL     1     -10.710   3.972  -2.493  1.00  0.00     0.010 A 
ATOM     37  C   UNL     1     -10.756   5.965  -3.929  1.00  0.00     0.010 A 
ATOM     38  C   UNL     1     -11.154   4.667  -3.622  1.00  0.00    -0.014 A 
BRANCH  38  39
ATOM     39  C   UNL     1     -12.118   4.005  -4.456  1.00  0.00     0.031 A 
ATOM     40  C   UNL     1     -13.477   4.087  -3.902  1.00  0.00     0.074 A 
ATOM     41  C   UNL     1     -11.797   3.447  -5.633  1.00  0.00     0.049 A 
ATOM     42  N   UNL     1     -14.167   3.130  -3.386  1.00  0.00    -0.248 NA
ATOM     43  C   UNL     1     -14.034   5.432  -3.698  1.00  0.00     0.031 C 
ATOM     44  C   UNL     1     -10.553   3.563  -6.395  1.00  0.00     0.029 A 
ATOM     45  N   UNL     1     -12.613   2.758  -6.466  1.00  0.00    -0.354 N 
ATOM     46  C   UNL     1     -15.337   3.726  -2.945  1.00  0.00     0.074 A 
ATOM     47  C   UNL     1     -15.107   5.148  -2.963  1.00  0.00     0.031 C 
ATOM     48  C   UNL     1     -10.797   3.193  -7.674  1.00  0.00     0.029 A 
ATOM     49  C   UNL     1     -12.172   2.722  -7.777  1.00  0.00     0.049 A 
ATOM     50  H   UNL     1     -13.443   2.321  -6.166  1.00  0.00     0.167 HD
ATOM     51  C   UNL     1     -16.496   3.029  -2.823  1.00  0.00     0.031 A 
ATOM     52  C   UNL     1     -12.948   2.461  -8.859  1.00  0.00     0.031 A 
ATOM     53  C   UNL     1     -16.279   1.609  -2.903  1.00  0.00     0.049 A 
ATOM     54  C   UNL     1     -14.172   1.764  -8.366  1.00  0.00     0.074 A 
ATOM     55  C   UNL     1     -15.578   0.701  -2.135  1.00  0.00     0.029 A 
ATOM     56  N   UNL     1     -16.481   1.009  -4.127  1.00  0.00    -0.354 N 
ATOM     57  N   UNL     1     -14.150   0.571  -7.835  1.00  0.00    -0.248 NA
ATOM     58  C   UNL     1     -15.341   2.563  -8.019  1.00  0.00     0.031 C 
ATOM     59  C   UNL     1     -15.007  -0.210  -3.068  1.00  0.00     0.029 A 
ATOM     60  C   UNL     1     -15.429   0.155  -4.350  1.00  0.00     0.049 A 
ATOM     61  H   UNL     1     -17.241   1.165  -4.732  1.00  0.00     0.167 HD
ATOM     62  C   UNL     1     -15.045   0.627  -6.772  1.00  0.00     0.074 A 
ATOM     63  C   UNL     1     -15.828   1.839  -7.004  1.00  0.00     0.031 C 
ATOM     64  C   UNL     1     -14.875  -0.145  -5.657  1.00  0.00     0.031 A 
BRANCH  51  65
ATOM     65  C   UNL     1     -17.845   3.659  -3.009  1.00  0.00    -0.014 A 
ATOM     66  C   UNL     1     -18.995   2.904  -2.723  1.00  0.00     0.010 A 
ATOM     67  C   UNL     1     -18.026   4.881  -3.691  1.00  0.00     0.010 A 
ATOM     68  C   UNL     1     -20.258   3.328  -3.154  1.00  0.00     0.020 A 
ATOM     69  C   UNL     1     -19.283   5.337  -4.079  1.00  0.00     0.020 A 
ATOM     70  C   UNL     1     -20.388   4.535  -3.842  1.00  0.00     0.054 A 
BRANCH  70  71
ATOM     71  S   UNL     1     -21.998   5.012  -4.510  1.00  0.00     0.124 S 
ATOM     72  O   UNL     1     -22.202   4.002  -5.543  1.00  0.00    -0.237 OA
ATOM     73  O   UNL     1     -22.862   4.908  -3.338  1.00  0.00    -0.237 OA
ATOM     74  O   UNL     1     -21.777   6.372  -4.997  1.00  0.00    -0.744 OA
ENDBRANCH  70  71
ENDBRANCH  51  65
BRANCH  52  75
ATOM     75  C   UNL     1     -12.849   3.117 -10.189  1.00  0.00    -0.014 A 
ATOM     76  C   UNL     1     -13.608   2.668 -11.284  1.00  0.00     0.010 A 
ATOM     77  C   UNL     1     -12.182   4.355 -10.327  1.00  0.00     0.010 A 
ATOM     78  C   UNL     1     -13.740   3.454 -12.445  1.00  0.00     0.020 A 
ATOM     79  C   UNL     1     -12.293   5.134 -11.482  1.00  0.00     0.020 A 
ATOM     80  C   UNL     1     -13.095   4.692 -12.527  1.00  0.00     0.054 A 
BRANCH  80  81
ATOM     81  S   UNL     1     -13.414   5.786 -13.942  1.00  0.00     0.124 S 
ATOM     82  O   UNL     1     -12.704   5.110 -15.024  1.00  0.00    -0.237 OA
ATOM     83  O   UNL     1     -14.871   5.770 -14.032  1.00  0.00    -0.237 OA
ATOM     84  O   UNL     1     -12.838   7.064 -13.525  1.00  0.00    -0.744 OA
ENDBRANCH  80  81
ENDBRANCH  52  75
BRANCH  64  85
ATOM     85  C   UNL     1     -13.825  -1.237  -5.697  1.00  0.00    -0.014 A 
ATOM     86  C   UNL     1     -12.456  -0.982  -5.912  1.00  0.00     0.010 A 
ATOM     87  C   UNL     1     -14.209  -2.539  -5.329  1.00  0.00     0.010 A 
ATOM     88  C   UNL     1     -11.503  -2.003  -5.792  1.00  0.00     0.020 A 
ATOM     89  C   UNL     1     -13.262  -3.558  -5.187  1.00  0.00     0.020 A 
ATOM     90  C   UNL     1     -11.914  -3.288  -5.429  1.00  0.00     0.054 A 
BRANCH  90  91
ATOM     91  S   UNL     1     -10.671  -4.593  -5.218  1.00  0.00     0.124 S 
ATOM     92  O   UNL     1     -10.249  -4.853  -6.591  1.00  0.00    -0.237 OA
ATOM     93  O   UNL     1      -9.671  -3.956  -4.363  1.00  0.00    -0.237 OA
ATOM     94  O   UNL     1     -11.413  -5.681  -4.582  1.00  0.00    -0.744 OA
ENDBRANCH  90  91
ENDBRANCH  64  85
ENDBRANCH  38  39
ENDBRANCH  31  33
ENDBRANCH  30  31
ENDBRANCH  29  30
ENDBRANCH  28  29
ENDBRANCH  27  28
ENDBRANCH  26  27
ENDBRANCH   1  26
TORSDOF 25
