REMARK SMILES N#Cc1cccc(C(=O)N2CCC(CC(=O)OCCOCCOC(=O)c3ccc(-c4c5nc(c(-c6ccc(S(=O)(=O)[O-])cc6)c6ccc([nH]6)c(-c6ccc(S(=O)(=O)[O-])cc6)c6nc(c(-c7ccc(S(=O)(=O)[O-])cc7)c7ccc4[nH]7)C=C6)C=C5)cc3)CC2)c1
REMARK SMILES IDX 20 1 19 2 18 3 17 4 15 5 16 6 14 7 13 8 8 9 9 10 10 11 11 12
REMARK SMILES IDX 87 13 12 14 86 15 7 16 3 17 4 18 88 19 5 20 6 21 2 22 1 23
REMARK SMILES IDX 21 24 22 25 23 26 24 27 25 28 26 29 27 30 85 31 28 32 84 33
REMARK SMILES IDX 29 34 30 35 31 36 78 37 32 38 83 39 77 40 79 41 33 42 82 43
REMARK SMILES IDX 76 44 75 45 34 47 64 48 45 49 63 50 46 51 49 52 62 53 80 54
REMARK SMILES IDX 47 55 48 56 61 58 81 59 50 60 35 61 36 62 44 63 37 64 43 65
REMARK SMILES IDX 38 66 39 67 40 68 41 69 42 70 65 71 66 72 74 73 67 74 73 75
REMARK SMILES IDX 68 76 69 77 70 78 71 79 72 80 51 81 52 82 60 83 53 84 59 85
REMARK SMILES IDX 54 86 55 87 56 88 57 89 58 90
REMARK H PARENT 79 46 49 57
REMARK Flexibility Score: inf
ROOT
ATOM      1  O   UNL     1       0.201 -10.043   3.104  1.00  0.00    -0.374 OA
ENDROOT
BRANCH   1   2
ATOM      2  C   UNL     1       1.442  -9.702   3.718  1.00  0.00     0.202 C 
BRANCH   2   3
ATOM      3  C   UNL     1       2.696  -9.694   2.840  1.00  0.00     0.261 C 
BRANCH   3   4
ATOM      4  O   UNL     1       2.625  -8.672   1.832  1.00  0.00    -0.463 OA
BRANCH   4   5
ATOM      5  C   UNL     1       2.418  -9.085   0.561  1.00  0.00     0.306 C 
ATOM      6  O   UNL     1       2.389 -10.256   0.201  1.00  0.00    -0.252 OA
BRANCH   5   7
ATOM      7  C   UNL     1       2.235  -7.936  -0.414  1.00  0.00     0.126 C 
BRANCH   7   8
ATOM      8  C   UNL     1       1.509  -6.647   0.037  1.00  0.00     0.003 C 
ATOM      9  C   UNL     1       2.192  -2.622   0.047  1.00  0.00     0.253 C 
ATOM     10  O   UNL     1       3.414  -2.659   0.148  1.00  0.00    -0.269 OA
ATOM     11  N   UNL     1       1.395  -3.740   0.232  1.00  0.00    -0.339 N 
ATOM     12  C   UNL     1       1.593  -4.532   1.428  1.00  0.00     0.120 C 
ATOM     13  C   UNL     1       0.695  -4.380  -0.870  1.00  0.00     0.120 C 
ATOM     14  C   UNL     1       2.261  -5.865   1.127  1.00  0.00     0.026 C 
ATOM     15  C   UNL     1       1.301  -5.745  -1.204  1.00  0.00     0.026 C 
BRANCH   9  16
ATOM     16  C   UNL     1       1.484  -1.310  -0.085  1.00  0.00     0.041 A 
ATOM     17  C   UNL     1      -0.536   0.042  -0.076  1.00  0.00     0.053 A 
ATOM     18  C   UNL     1       0.237   1.206  -0.073  1.00  0.00     0.019 A 
ATOM     19  C   UNL     1       0.086  -1.212  -0.074  1.00  0.00     0.033 A 
ATOM     20  C   UNL     1       1.629   1.117  -0.080  1.00  0.00     0.002 A 
ATOM     21  C   UNL     1       2.250  -0.135  -0.091  1.00  0.00     0.014 A 
BRANCH  17  22
ATOM     22  C   UNL     1      -1.969   0.122  -0.070  1.00  0.00     0.099 C 
ATOM     23  N   UNL     1      -3.126   0.165  -0.085  1.00  0.00    -0.192 NA
ENDBRANCH  17  22
ENDBRANCH   9  16
ENDBRANCH   7   8
ENDBRANCH   5   7
ENDBRANCH   4   5
ENDBRANCH   3   4
ENDBRANCH   2   3
ENDBRANCH   1   2
BRANCH   1  24
ATOM     24  C   UNL     1      -0.429  -9.070   2.276  1.00  0.00     0.202 C 
BRANCH  24  25
ATOM     25  C   UNL     1      -1.113  -7.870   2.949  1.00  0.00     0.261 C 
BRANCH  25  26
ATOM     26  O   UNL     1      -0.204  -7.037   3.688  1.00  0.00    -0.460 OA
BRANCH  26  27
ATOM     27  C   UNL     1      -0.286  -7.204   5.033  1.00  0.00     0.338 C 
ATOM     28  O   UNL     1      -1.065  -7.926   5.633  1.00  0.00    -0.246 OA
BRANCH  27  29
ATOM     29  C   UNL     1       0.841  -6.537   5.713  1.00  0.00     0.060 A 
ATOM     30  C   UNL     1       1.576  -7.305   6.625  1.00  0.00     0.016 A 
ATOM     31  C   UNL     1       1.101  -5.174   5.560  1.00  0.00     0.016 A 
ATOM     32  C   UNL     1       2.506  -6.696   7.459  1.00  0.00     0.010 A 
ATOM     33  C   UNL     1       2.043  -4.564   6.397  1.00  0.00     0.010 A 
ATOM     34  C   UNL     1       2.702  -5.311   7.393  1.00  0.00    -0.014 A 
BRANCH  34  35
ATOM     35  C   UNL     1       3.448  -4.638   8.488  1.00  0.00     0.031 A 
ATOM     36  C   UNL     1       2.680  -3.851   9.521  1.00  0.00     0.074 A 
ATOM     37  C   UNL     1       4.780  -4.785   8.608  1.00  0.00     0.049 A 
ATOM     38  N   UNL     1       3.122  -3.207  10.571  1.00  0.00    -0.248 NA
ATOM     39  C   UNL     1       1.219  -3.780   9.347  1.00  0.00     0.031 C 
ATOM     40  C   UNL     1       5.629  -5.561   7.705  1.00  0.00     0.029 A 
ATOM     41  N   UNL     1       5.649  -4.293   9.549  1.00  0.00    -0.354 N 
ATOM     42  C   UNL     1       2.000  -2.644  11.172  1.00  0.00     0.074 A 
ATOM     43  C   UNL     1       0.864  -2.986  10.346  1.00  0.00     0.031 C 
ATOM     44  C   UNL     1       6.899  -5.501   8.143  1.00  0.00     0.029 A 
ATOM     45  C   UNL     1       6.958  -4.651   9.330  1.00  0.00     0.049 A 
ATOM     46  H   UNL     1       5.363  -3.736  10.308  1.00  0.00     0.167 HD
ATOM     47  C   UNL     1       1.920  -1.918  12.313  1.00  0.00     0.031 A 
ATOM     48  C   UNL     1       8.079  -4.321  10.002  1.00  0.00     0.031 A 
ATOM     49  C   UNL     1       3.056  -1.571  13.127  1.00  0.00     0.049 A 
ATOM     50  C   UNL     1       7.974  -3.449  11.226  1.00  0.00     0.074 A 
ATOM     51  C   UNL     1       3.079  -0.851  14.309  1.00  0.00     0.029 A 
ATOM     52  N   UNL     1       4.370  -1.911  12.843  1.00  0.00    -0.354 N 
ATOM     53  N   UNL     1       6.904  -2.939  11.790  1.00  0.00    -0.248 NA
ATOM     54  C   UNL     1       9.230  -3.124  11.915  1.00  0.00     0.031 C 
ATOM     55  C   UNL     1       4.412  -0.691  14.698  1.00  0.00     0.029 A 
ATOM     56  C   UNL     1       5.214  -1.390  13.811  1.00  0.00     0.049 A 
ATOM     57  H   UNL     1       4.661  -2.444  12.068  1.00  0.00     0.167 HD
ATOM     58  C   UNL     1       7.356  -2.270  12.924  1.00  0.00     0.074 A 
ATOM     59  C   UNL     1       8.792  -2.454  12.971  1.00  0.00     0.031 C 
ATOM     60  C   UNL     1       6.645  -1.574  13.848  1.00  0.00     0.031 A 
BRANCH  47  61
ATOM     61  C   UNL     1       0.558  -1.415  12.729  1.00  0.00    -0.014 A 
ATOM     62  C   UNL     1      -0.457  -2.295  13.148  1.00  0.00     0.010 A 
ATOM     63  C   UNL     1       0.302  -0.031  12.733  1.00  0.00     0.010 A 
ATOM     64  C   UNL     1      -1.712  -1.805  13.520  1.00  0.00     0.020 A 
ATOM     65  C   UNL     1      -0.940   0.466  13.139  1.00  0.00     0.020 A 
ATOM     66  C   UNL     1      -1.945  -0.427  13.513  1.00  0.00     0.054 A 
BRANCH  66  67
ATOM     67  S   UNL     1      -3.577   0.181  14.021  1.00  0.00     0.124 S 
ATOM     68  O   UNL     1      -4.424  -0.272  12.920  1.00  0.00    -0.237 OA
ATOM     69  O   UNL     1      -3.787  -0.499  15.296  1.00  0.00    -0.237 OA
ATOM     70  O   UNL     1      -3.397   1.628  14.111  1.00  0.00    -0.744 OA
ENDBRANCH  66  67
ENDBRANCH  47  61
BRANCH  48  71
ATOM     71  C   UNL     1       9.403  -4.814   9.528  1.00  0.00    -0.014 A 
ATOM     72  C   UNL     1      10.153  -5.722  10.296  1.00  0.00     0.010 A 
ATOM     73  C   UNL     1       9.925  -4.367   8.300  1.00  0.00     0.010 A 
ATOM     74  C   UNL     1      11.407  -6.157   9.855  1.00  0.00     0.020 A 
ATOM     75  C   UNL     1      11.161  -4.827   7.838  1.00  0.00     0.020 A 
ATOM     76  C   UNL     1      11.900  -5.712   8.626  1.00  0.00     0.054 A 
BRANCH  76  77
ATOM     77  S   UNL     1      13.505  -6.332   8.052  1.00  0.00     0.124 S 
ATOM     78  O   UNL     1      14.429  -5.694   8.983  1.00  0.00    -0.237 OA
ATOM     79  O   UNL     1      13.351  -7.777   8.200  1.00  0.00    -0.237 OA
ATOM     80  O   UNL     1      13.581  -5.859   6.671  1.00  0.00    -0.744 OA
ENDBRANCH  76  77
ENDBRANCH  48  71
BRANCH  60  81
ATOM     81  C   UNL     1       7.400  -1.012  15.029  1.00  0.00    -0.014 A 
ATOM     82  C   UNL     1       8.344   0.021  14.886  1.00  0.00     0.010 A 
ATOM     83  C   UNL     1       7.137  -1.520  16.315  1.00  0.00     0.010 A 
ATOM     84  C   UNL     1       9.052   0.491  15.997  1.00  0.00     0.020 A 
ATOM     85  C   UNL     1       7.811  -1.024  17.433  1.00  0.00     0.020 A 
ATOM     86  C   UNL     1       8.783  -0.038  17.264  1.00  0.00     0.054 A 
BRANCH  86  87
ATOM     87  S   UNL     1       9.710   0.594  18.689  1.00  0.00     0.124 S 
ATOM     88  O   UNL     1      11.045   0.054  18.447  1.00  0.00    -0.237 OA
ATOM     89  O   UNL     1       9.579   2.041  18.538  1.00  0.00    -0.237 OA
ATOM     90  O   UNL     1       9.008   0.027  19.838  1.00  0.00    -0.744 OA
ENDBRANCH  86  87
ENDBRANCH  60  81
ENDBRANCH  34  35
ENDBRANCH  27  29
ENDBRANCH  26  27
ENDBRANCH  25  26
ENDBRANCH  24  25
ENDBRANCH   1  24
TORSDOF 20
