REMARK SMILES CC1(C)CCC[C@H]1NC(=O)N[C@@H]1COC[C@@]1(C)C(=O)OCCOCCOC(=O)c1ccc(-c2c3nc(c(-c4ccc(S(=O)(=O)[O-])cc4)c4ccc([nH]4)c(-c4ccc(S(=O)(=O)[O-])cc4)c4nc(c(-c5ccc(S(=O)(=O)[O-])cc5)c5ccc2[nH]5)C=C4)C=C3)cc1
REMARK SMILES IDX 24 1 23 2 22 3 21 4 20 5 18 6 19 7 16 8 12 9 13 10 14 11
REMARK SMILES IDX 15 12 17 13 11 14 8 15 9 16 10 18 7 20 1 21 2 22 3 23 4 24
REMARK SMILES IDX 5 25 6 26 25 27 26 28 27 29 28 30 29 31 30 32 88 33 31 34
REMARK SMILES IDX 87 35 32 36 33 37 34 38 81 39 35 40 86 41 80 42 82 43 36 44
REMARK SMILES IDX 85 45 79 46 78 47 37 49 67 50 48 51 66 52 49 53 52 54 65 55
REMARK SMILES IDX 83 56 50 57 51 58 64 60 84 61 53 62 38 63 39 64 47 65 40 66
REMARK SMILES IDX 46 67 41 68 42 69 43 70 44 71 45 72 68 73 69 74 77 75 70 76
REMARK SMILES IDX 76 77 71 78 72 79 73 80 74 81 75 82 54 83 55 84 63 85 56 86
REMARK SMILES IDX 62 87 57 88 58 89 59 90 60 91 61 92
REMARK H PARENT 8 17 11 19 82 48 52 59
REMARK Flexibility Score: inf
ROOT
ATOM      1  C   UNL     1       4.380   0.564  -1.950  1.00  0.00     0.202 C 
ENDROOT
BRANCH   1   2
ATOM      2  O   UNL     1       5.473   1.476  -1.856  1.00  0.00    -0.374 OA
BRANCH   2   3
ATOM      3  C   UNL     1       5.646   2.184  -0.623  1.00  0.00     0.202 C 
BRANCH   3   4
ATOM      4  C   UNL     1       5.237   3.668  -0.705  1.00  0.00     0.261 C 
BRANCH   4   5
ATOM      5  O   UNL     1       3.912   3.807  -0.154  1.00  0.00    -0.463 OA
BRANCH   5   6
ATOM      6  C   UNL     1       2.874   4.043  -0.999  1.00  0.00     0.316 C 
ATOM      7  O   UNL     1       2.944   4.756  -1.990  1.00  0.00    -0.251 OA
BRANCH   6   8
ATOM      8  C   UNL     1       1.654   3.193  -0.605  1.00  0.00     0.111 C 
ATOM      9  C   UNL     1       0.457   3.995  -0.088  1.00  0.00     0.129 C 
ATOM     10  C   UNL     1      -0.632   3.881  -1.145  1.00  0.00     0.186 C 
ATOM     11  O   UNL     1      -0.281   2.818  -2.028  1.00  0.00    -0.378 OA
ATOM     12  C   UNL     1       1.127   2.577  -1.912  1.00  0.00     0.181 C 
ATOM     13  C   UNL     1       2.118   2.161   0.423  1.00  0.00     0.028 C 
BRANCH   9  14
ATOM     14  N   UNL     1      -0.032   3.704   1.283  1.00  0.00    -0.332 N 
ATOM     15  N   UNL     1      -0.811   1.474   1.702  1.00  0.00    -0.335 N 
ATOM     16  C   UNL     1      -0.531   2.731   2.045  1.00  0.00     0.315 C 
ATOM     17  H   UNL     1      -1.002   0.924   2.497  1.00  0.00     0.165 HD
ATOM     18  O   UNL     1      -0.732   3.028   3.228  1.00  0.00    -0.249 OA
ATOM     19  H   UNL     1       0.037   4.524   1.823  1.00  0.00     0.165 HD
BRANCH  15  20
ATOM     20  C   UNL     1      -0.916   0.682   0.479  1.00  0.00     0.089 C 
ATOM     21  C   UNL     1       0.926  -0.920   1.566  1.00  0.00     0.013 C 
ATOM     22  C   UNL     1      -0.190  -0.718   0.524  1.00  0.00    -0.015 C 
ATOM     23  C   UNL     1       0.405  -1.038  -0.867  1.00  0.00     0.013 C 
ATOM     24  C   UNL     1      -1.333  -1.693   0.839  1.00  0.00     0.008 C 
ATOM     25  C   UNL     1      -2.514  -1.151   0.062  1.00  0.00     0.003 C 
ATOM     26  C   UNL     1      -2.400   0.363   0.198  1.00  0.00     0.025 C 
ENDBRANCH  15  20
ENDBRANCH   9  14
ENDBRANCH   6   8
ENDBRANCH   5   6
ENDBRANCH   4   5
ENDBRANCH   3   4
ENDBRANCH   2   3
ENDBRANCH   1   2
BRANCH   1  27
ATOM     27  C   UNL     1       4.506  -0.776  -1.203  1.00  0.00     0.261 C 
BRANCH  27  28
ATOM     28  O   UNL     1       4.687  -0.627   0.217  1.00  0.00    -0.460 OA
BRANCH  28  29
ATOM     29  C   UNL     1       5.957  -0.863   0.631  1.00  0.00     0.338 C 
ATOM     30  O   UNL     1       6.889  -1.230  -0.067  1.00  0.00    -0.246 OA
BRANCH  29  31
ATOM     31  C   UNL     1       6.154  -0.480   2.045  1.00  0.00     0.060 A 
ATOM     32  C   UNL     1       7.341   0.200   2.340  1.00  0.00     0.016 A 
ATOM     33  C   UNL     1       5.287  -0.860   3.075  1.00  0.00     0.016 A 
ATOM     34  C   UNL     1       7.707   0.429   3.663  1.00  0.00     0.010 A 
ATOM     35  C   UNL     1       5.655  -0.619   4.410  1.00  0.00     0.010 A 
ATOM     36  C   UNL     1       6.891  -0.018   4.711  1.00  0.00    -0.014 A 
BRANCH  36  37
ATOM     37  C   UNL     1       7.442   0.031   6.093  1.00  0.00     0.031 A 
ATOM     38  C   UNL     1       7.991  -1.226   6.718  1.00  0.00     0.074 A 
ATOM     39  C   UNL     1       7.574   1.208   6.734  1.00  0.00     0.049 A 
ATOM     40  N   UNL     1       8.658  -1.371   7.836  1.00  0.00    -0.248 NA
ATOM     41  C   UNL     1       7.768  -2.483   5.986  1.00  0.00     0.031 C 
ATOM     42  C   UNL     1       7.115   2.501   6.227  1.00  0.00     0.029 A 
ATOM     43  N   UNL     1       8.160   1.508   7.939  1.00  0.00    -0.354 N 
ATOM     44  C   UNL     1       8.940  -2.729   7.938  1.00  0.00     0.074 A 
ATOM     45  C   UNL     1       8.334  -3.372   6.791  1.00  0.00     0.031 C 
ATOM     46  C   UNL     1       7.460   3.460   7.104  1.00  0.00     0.029 A 
ATOM     47  C   UNL     1       8.145   2.849   8.241  1.00  0.00     0.049 A 
ATOM     48  H   UNL     1       8.554   0.827   8.531  1.00  0.00     0.167 HD
ATOM     49  C   UNL     1       9.651  -3.385   8.888  1.00  0.00     0.031 A 
ATOM     50  C   UNL     1       8.632   3.514   9.308  1.00  0.00     0.031 A 
ATOM     51  C   UNL     1      10.245  -2.753  10.037  1.00  0.00     0.049 A 
ATOM     52  C   UNL     1       9.373   2.756  10.379  1.00  0.00     0.074 A 
ATOM     53  C   UNL     1      10.993  -3.333  11.047  1.00  0.00     0.029 A 
ATOM     54  N   UNL     1      10.155  -1.402  10.334  1.00  0.00    -0.354 N 
ATOM     55  N   UNL     1       9.661   1.478  10.437  1.00  0.00    -0.248 NA
ATOM     56  C   UNL     1       9.873   3.538  11.519  1.00  0.00     0.031 C 
ATOM     57  C   UNL     1      11.308  -2.342  11.983  1.00  0.00     0.029 A 
ATOM     58  C   UNL     1      10.812  -1.133  11.523  1.00  0.00     0.049 A 
ATOM     59  H   UNL     1       9.692  -0.732   9.780  1.00  0.00     0.167 HD
ATOM     60  C   UNL     1      10.400   1.308  11.605  1.00  0.00     0.074 A 
ATOM     61  C   UNL     1      10.528   2.617  12.211  1.00  0.00     0.031 C 
ATOM     62  C   UNL     1      10.929   0.172  12.124  1.00  0.00     0.031 A 
BRANCH  49  63
ATOM     63  C   UNL     1       9.801  -4.877   8.736  1.00  0.00    -0.014 A 
ATOM     64  C   UNL     1      10.619  -5.429   7.734  1.00  0.00     0.010 A 
ATOM     65  C   UNL     1       9.139  -5.738   9.630  1.00  0.00     0.010 A 
ATOM     66  C   UNL     1      10.739  -6.816   7.602  1.00  0.00     0.020 A 
ATOM     67  C   UNL     1       9.278  -7.125   9.518  1.00  0.00     0.020 A 
ATOM     68  C   UNL     1      10.063  -7.655   8.493  1.00  0.00     0.054 A 
BRANCH  68  69
ATOM     69  S   UNL     1      10.244  -9.450   8.306  1.00  0.00     0.124 S 
ATOM     70  O   UNL     1       9.449  -9.710   7.109  1.00  0.00    -0.237 OA
ATOM     71  O   UNL     1      11.687  -9.613   8.149  1.00  0.00    -0.237 OA
ATOM     72  O   UNL     1       9.691  -9.986   9.548  1.00  0.00    -0.744 OA
ENDBRANCH  68  69
ENDBRANCH  49  63
BRANCH  50  73
ATOM     73  C   UNL     1       8.439   4.987   9.417  1.00  0.00    -0.014 A 
ATOM     74  C   UNL     1       9.528   5.870   9.305  1.00  0.00     0.010 A 
ATOM     75  C   UNL     1       7.153   5.513   9.638  1.00  0.00     0.010 A 
ATOM     76  C   UNL     1       9.337   7.249   9.430  1.00  0.00     0.020 A 
ATOM     77  C   UNL     1       6.954   6.893   9.735  1.00  0.00     0.020 A 
ATOM     78  C   UNL     1       8.050   7.752   9.642  1.00  0.00     0.054 A 
BRANCH  78  79
ATOM     79  S   UNL     1       7.816   9.548   9.749  1.00  0.00     0.124 S 
ATOM     80  O   UNL     1       8.363   9.848  11.069  1.00  0.00    -0.237 OA
ATOM     81  O   UNL     1       8.595  10.036   8.614  1.00  0.00    -0.237 OA
ATOM     82  O   UNL     1       6.370   9.713   9.618  1.00  0.00    -0.744 OA
ENDBRANCH  78  79
ENDBRANCH  50  73
BRANCH  62  83
ATOM     83  C   UNL     1      11.728   0.296  13.396  1.00  0.00    -0.014 A 
ATOM     84  C   UNL     1      11.111   0.583  14.626  1.00  0.00     0.010 A 
ATOM     85  C   UNL     1      13.120   0.090  13.362  1.00  0.00     0.010 A 
ATOM     86  C   UNL     1      11.876   0.709  15.790  1.00  0.00     0.020 A 
ATOM     87  C   UNL     1      13.885   0.185  14.528  1.00  0.00     0.020 A 
ATOM     88  C   UNL     1      13.259   0.514  15.732  1.00  0.00     0.054 A 
BRANCH  88  89
ATOM     89  S   UNL     1      14.229   0.666  17.258  1.00  0.00     0.124 S 
ATOM     90  O   UNL     1      14.258   2.113  17.456  1.00  0.00    -0.237 OA
ATOM     91  O   UNL     1      13.431  -0.085  18.223  1.00  0.00    -0.237 OA
ATOM     92  O   UNL     1      15.513   0.059  16.914  1.00  0.00    -0.744 OA
ENDBRANCH  88  89
ENDBRANCH  62  83
ENDBRANCH  36  37
ENDBRANCH  29  31
ENDBRANCH  28  29
ENDBRANCH  27  28
ENDBRANCH   1  27
TORSDOF 19
