REMARK SMILES COCc1cccc(O[C@@H](C)c2ccc(C(=O)OCCOCCOC(=O)c3ccc(-c4c5nc(c(-c6ccc(S(=O)(=O)[O-])cc6)c6ccc([nH]6)c(-c6ccc(S(=O)(=O)[O-])cc6)c6nc(c(-c7ccc(S(=O)(=O)[O-])cc7)c7ccc4[nH]7)C=C6)C=C5)cc3)o2)c1
REMARK SMILES IDX 20 1 19 2 18 3 16 4 17 5 15 6 12 7 13 8 87 9 14 10 10 11
REMARK SMILES IDX 11 12 9 13 8 14 4 15 5 16 88 17 6 18 7 19 3 20 2 21 1 22
REMARK SMILES IDX 21 23 22 24 23 25 24 26 25 27 26 28 27 29 28 30 86 31 29 32
REMARK SMILES IDX 85 33 30 34 31 35 32 36 79 37 33 38 84 39 78 40 80 41 34 42
REMARK SMILES IDX 83 43 77 44 76 45 35 47 65 48 46 49 64 50 47 51 50 52 63 53
REMARK SMILES IDX 81 54 48 55 49 56 62 58 82 59 51 60 36 61 37 62 45 63 38 64
REMARK SMILES IDX 44 65 39 66 40 67 41 68 42 69 43 70 66 71 67 72 75 73 68 74
REMARK SMILES IDX 74 75 69 76 70 77 71 78 72 79 73 80 52 81 53 82 61 83 54 84
REMARK SMILES IDX 60 85 55 86 56 87 57 88 58 89 59 90
REMARK H PARENT 80 46 50 57
REMARK Flexibility Score: inf
ROOT
ATOM      1  C   UNL     1       3.970  -4.352   2.745  1.00  0.00     0.202 C 
ENDROOT
BRANCH   1   2
ATOM      2  C   UNL     1       3.870  -3.521   1.463  1.00  0.00     0.261 C 
BRANCH   2   3
ATOM      3  O   UNL     1       3.622  -2.134   1.732  1.00  0.00    -0.457 OA
BRANCH   3   4
ATOM      4  C   UNL     1       2.325  -1.754   1.562  1.00  0.00     0.374 C 
ATOM      5  O   UNL     1       1.437  -2.484   1.127  1.00  0.00    -0.242 OA
BRANCH   4   6
ATOM      6  C   UNL     1       2.123  -0.412   2.051  1.00  0.00     0.211 A 
ATOM      7  C   UNL     1       0.839   1.289   2.635  1.00  0.00     0.145 A 
ATOM      8  C   UNL     1       2.144   1.708   2.798  1.00  0.00     0.050 A 
ATOM      9  O   UNL     1       0.828  -0.000   2.201  1.00  0.00    -0.450 OA
ATOM     10  C   UNL     1       2.970   0.613   2.429  1.00  0.00     0.058 A 
BRANCH   7  11
ATOM     11  C   UNL     1      -0.494   1.952   2.808  1.00  0.00     0.236 C 
ATOM     12  C   UNL     1      -1.715   1.092   2.489  1.00  0.00     0.062 C 
BRANCH  11  13
ATOM     13  O   UNL     1      -0.552   3.235   2.152  1.00  0.00    -0.483 OA
BRANCH  13  14
ATOM     14  C   UNL     1      -0.134   3.413   0.864  1.00  0.00     0.120 A 
ATOM     15  C   UNL     1       0.582   2.708  -1.361  1.00  0.00    -0.019 A 
ATOM     16  C   UNL     1       0.901   4.038  -1.663  1.00  0.00     0.006 A 
ATOM     17  C   UNL     1       0.039   2.418  -0.097  1.00  0.00     0.052 A 
ATOM     18  C   UNL     1       0.676   5.049  -0.729  1.00  0.00     0.004 A 
ATOM     19  C   UNL     1       0.163   4.734   0.528  1.00  0.00     0.046 A 
BRANCH  15  20
ATOM     20  C   UNL     1       0.897   1.629  -2.378  1.00  0.00     0.195 C 
BRANCH  20  21
ATOM     21  O   UNL     1       0.268   0.382  -2.089  1.00  0.00    -0.380 OA
ATOM     22  C   UNL     1       1.119  -0.494  -1.362  1.00  0.00     0.195 C 
ENDBRANCH  20  21
ENDBRANCH  15  20
ENDBRANCH  13  14
ENDBRANCH  11  13
ENDBRANCH   7  11
ENDBRANCH   4   6
ENDBRANCH   3   4
ENDBRANCH   2   3
ENDBRANCH   1   2
BRANCH   1  23
ATOM     23  O   UNL     1       2.827  -4.431   3.593  1.00  0.00    -0.374 OA
BRANCH  23  24
ATOM     24  C   UNL     1       2.487  -3.312   4.407  1.00  0.00     0.202 C 
BRANCH  24  25
ATOM     25  C   UNL     1       3.379  -2.957   5.603  1.00  0.00     0.261 C 
BRANCH  25  26
ATOM     26  O   UNL     1       4.745  -2.698   5.248  1.00  0.00    -0.460 OA
BRANCH  26  27
ATOM     27  C   UNL     1       5.601  -3.695   5.588  1.00  0.00     0.338 C 
ATOM     28  O   UNL     1       5.329  -4.732   6.168  1.00  0.00    -0.246 OA
BRANCH  27  29
ATOM     29  C   UNL     1       6.923  -3.449   4.986  1.00  0.00     0.060 A 
ATOM     30  C   UNL     1       7.472  -4.463   4.190  1.00  0.00     0.016 A 
ATOM     31  C   UNL     1       7.646  -2.287   5.260  1.00  0.00     0.016 A 
ATOM     32  C   UNL     1       8.772  -4.343   3.707  1.00  0.00     0.010 A 
ATOM     33  C   UNL     1       8.954  -2.171   4.779  1.00  0.00     0.010 A 
ATOM     34  C   UNL     1       9.534  -3.214   4.034  1.00  0.00    -0.014 A 
BRANCH  34  35
ATOM     35  C   UNL     1      10.982  -3.192   3.716  1.00  0.00     0.031 A 
ATOM     36  C   UNL     1      11.975  -3.466   4.813  1.00  0.00     0.074 A 
ATOM     37  C   UNL     1      11.405  -2.952   2.463  1.00  0.00     0.049 A 
ATOM     38  N   UNL     1      13.282  -3.469   4.765  1.00  0.00    -0.248 NA
ATOM     39  C   UNL     1      11.419  -3.775   6.141  1.00  0.00     0.031 C 
ATOM     40  C   UNL     1      10.539  -2.720   1.308  1.00  0.00     0.029 A 
ATOM     41  N   UNL     1      12.677  -2.863   1.955  1.00  0.00    -0.354 N 
ATOM     42  C   UNL     1      13.706  -3.765   6.055  1.00  0.00     0.074 A 
ATOM     43  C   UNL     1      12.518  -3.903   6.869  1.00  0.00     0.031 C 
ATOM     44  C   UNL     1      11.306  -2.514   0.224  1.00  0.00     0.029 A 
ATOM     45  C   UNL     1      12.713  -2.561   0.616  1.00  0.00     0.049 A 
ATOM     46  H   UNL     1      13.485  -3.003   2.499  1.00  0.00     0.167 HD
ATOM     47  C   UNL     1      14.971  -3.913   6.520  1.00  0.00     0.031 A 
ATOM     48  C   UNL     1      13.762  -2.328  -0.198  1.00  0.00     0.031 A 
ATOM     49  C   UNL     1      16.149  -3.756   5.707  1.00  0.00     0.049 A 
ATOM     50  C   UNL     1      15.159  -2.419   0.356  1.00  0.00     0.074 A 
ATOM     51  C   UNL     1      17.474  -3.903   6.076  1.00  0.00     0.029 A 
ATOM     52  N   UNL     1      16.145  -3.404   4.365  1.00  0.00    -0.354 N 
ATOM     53  N   UNL     1      15.546  -2.724   1.572  1.00  0.00    -0.248 NA
ATOM     54  C   UNL     1      16.261  -2.142  -0.576  1.00  0.00     0.031 C 
ATOM     55  C   UNL     1      18.273  -3.575   4.976  1.00  0.00     0.029 A 
ATOM     56  C   UNL     1      17.445  -3.295   3.900  1.00  0.00     0.049 A 
ATOM     57  H   UNL     1      15.337  -3.255   3.823  1.00  0.00     0.167 HD
ATOM     58  C   UNL     1      16.937  -2.705   1.544  1.00  0.00     0.074 A 
ATOM     59  C   UNL     1      17.321  -2.369   0.188  1.00  0.00     0.031 C 
ATOM     60  C   UNL     1      17.815  -2.950   2.549  1.00  0.00     0.031 A 
BRANCH  47  61
ATOM     61  C   UNL     1      15.139  -4.212   7.988  1.00  0.00    -0.014 A 
ATOM     62  C   UNL     1      14.747  -5.446   8.537  1.00  0.00     0.010 A 
ATOM     63  C   UNL     1      15.711  -3.242   8.831  1.00  0.00     0.010 A 
ATOM     64  C   UNL     1      14.872  -5.683   9.909  1.00  0.00     0.020 A 
ATOM     65  C   UNL     1      15.869  -3.487  10.198  1.00  0.00     0.020 A 
ATOM     66  C   UNL     1      15.427  -4.698  10.732  1.00  0.00     0.054 A 
BRANCH  66  67
ATOM     67  S   UNL     1      15.572  -5.029  12.509  1.00  0.00     0.124 S 
ATOM     68  O   UNL     1      14.178  -4.957  12.943  1.00  0.00    -0.237 OA
ATOM     69  O   UNL     1      16.170  -6.361  12.539  1.00  0.00    -0.237 OA
ATOM     70  O   UNL     1      16.431  -3.951  12.995  1.00  0.00    -0.744 OA
ENDBRANCH  66  67
ENDBRANCH  47  61
BRANCH  48  71
ATOM     71  C   UNL     1      13.523  -1.982  -1.626  1.00  0.00    -0.014 A 
ATOM     72  C   UNL     1      13.852  -2.890  -2.647  1.00  0.00     0.010 A 
ATOM     73  C   UNL     1      12.935  -0.750  -1.969  1.00  0.00     0.010 A 
ATOM     74  C   UNL     1      13.599  -2.572  -3.985  1.00  0.00     0.020 A 
ATOM     75  C   UNL     1      12.655  -0.441  -3.302  1.00  0.00     0.020 A 
ATOM     76  C   UNL     1      12.994  -1.352  -4.303  1.00  0.00     0.054 A 
BRANCH  76  77
ATOM     77  S   UNL     1      12.604  -0.997  -6.039  1.00  0.00     0.124 S 
ATOM     78  O   UNL     1      13.928  -0.768  -6.608  1.00  0.00    -0.237 OA
ATOM     79  O   UNL     1      11.933  -2.223  -6.465  1.00  0.00    -0.237 OA
ATOM     80  O   UNL     1      11.742   0.180  -5.962  1.00  0.00    -0.744 OA
ENDBRANCH  76  77
ENDBRANCH  48  71
BRANCH  60  81
ATOM     81  C   UNL     1      19.285  -2.899   2.217  1.00  0.00    -0.014 A 
ATOM     82  C   UNL     1      19.934  -1.682   1.944  1.00  0.00     0.010 A 
ATOM     83  C   UNL     1      20.040  -4.087   2.234  1.00  0.00     0.010 A 
ATOM     84  C   UNL     1      21.303  -1.658   1.664  1.00  0.00     0.020 A 
ATOM     85  C   UNL     1      21.414  -4.064   1.985  1.00  0.00     0.020 A 
ATOM     86  C   UNL     1      22.035  -2.850   1.687  1.00  0.00     0.054 A 
BRANCH  86  87
ATOM     87  S   UNL     1      23.819  -2.786   1.363  1.00  0.00     0.124 S 
ATOM     88  O   UNL     1      23.857  -2.517  -0.072  1.00  0.00    -0.237 OA
ATOM     89  O   UNL     1      24.260  -1.689   2.220  1.00  0.00    -0.237 OA
ATOM     90  O   UNL     1      24.292  -4.110   1.761  1.00  0.00    -0.744 OA
ENDBRANCH  86  87
ENDBRANCH  60  81
ENDBRANCH  34  35
ENDBRANCH  27  29
ENDBRANCH  26  27
ENDBRANCH  25  26
ENDBRANCH  24  25
ENDBRANCH  23  24
ENDBRANCH   1  23
TORSDOF 22
