REMARK SMILES N#C/C(=C\c1ccc(-c2cc(C(F)(F)F)ccc2Cl)o1)C(=O)OCCOCCOC(=O)c1ccc(-c2c3nc(c(-c4ccc(S(=O)(=O)[O-])cc4)c4ccc([nH]4)c(-c4ccc(S(=O)(=O)[O-])cc4)c4nc(c(-c5ccc(S(=O)(=O)[O-])cc5)c5ccc2[nH]5)C=C4)C=C3)cc1
REMARK SMILES IDX 26 1 25 2 24 3 23 4 21 5 22 6 3 7 4 8 2 9 1 10 5 11 6 12
REMARK SMILES IDX 20 13 7 14 8 15 9 16 10 17 18 18 11 19 17 20 19 21 16 22
REMARK SMILES IDX 12 23 13 24 14 25 15 26 27 27 28 28 29 29 30 30 31 31 32 32
REMARK SMILES IDX 33 33 91 34 34 35 90 36 35 37 36 38 37 39 84 40 38 41 89 42
REMARK SMILES IDX 83 43 85 44 39 45 88 46 82 47 81 48 40 50 70 51 51 52 69 53
REMARK SMILES IDX 52 54 55 55 68 56 86 57 53 58 54 59 67 61 87 62 56 63 41 64
REMARK SMILES IDX 42 65 50 66 43 67 49 68 44 69 45 70 46 71 47 72 48 73 71 74
REMARK SMILES IDX 72 75 80 76 73 77 79 78 74 79 75 80 76 81 77 82 78 83 57 84
REMARK SMILES IDX 58 85 66 86 59 87 65 88 60 89 61 90 62 91 63 92 64 93
REMARK H PARENT 85 49 55 60
REMARK Flexibility Score: inf
ROOT
ATOM      1  O   UNL     1       4.860  -4.308  -0.222  1.00  0.00    -0.374 OA
ENDROOT
BRANCH   1   2
ATOM      2  C   UNL     1       6.072  -3.768  -0.745  1.00  0.00     0.202 C 
BRANCH   2   3
ATOM      3  C   UNL     1       5.998  -2.462  -1.538  1.00  0.00     0.261 C 
BRANCH   3   4
ATOM      4  O   UNL     1       5.519  -1.380  -0.722  1.00  0.00    -0.459 OA
BRANCH   4   5
ATOM      5  C   UNL     1       4.325  -0.881  -1.117  1.00  0.00     0.349 C 
ATOM      6  O   UNL     1       3.727  -1.168  -2.144  1.00  0.00    -0.245 OA
BRANCH   5   7
ATOM      7  C   UNL     1       3.722  -0.028  -0.076  1.00  0.00     0.141 C 
ATOM      8  C   UNL     1       4.397   1.041   0.402  1.00  0.00     0.074 C 
BRANCH   7   9
ATOM      9  C   UNL     1       2.202  -0.028  -0.076  1.00  0.00     0.107 C 
ATOM     10  N   UNL     1       0.941  -0.028  -0.076  1.00  0.00    -0.192 NA
ENDBRANCH   7   9
BRANCH   8  11
ATOM     11  C   UNL     1       3.719   2.140   1.028  1.00  0.00     0.129 A 
ATOM     12  C   UNL     1       2.737   2.139   2.015  1.00  0.00     0.051 A 
ATOM     13  O   UNL     1       3.923   3.463   0.661  1.00  0.00    -0.457 OA
ATOM     14  C   UNL     1       2.298   3.466   2.204  1.00  0.00     0.051 A 
ATOM     15  C   UNL     1       3.065   4.252   1.376  1.00  0.00     0.136 A 
BRANCH  15  16
ATOM     16  C   UNL     1       3.112   5.697   1.149  1.00  0.00     0.036 A 
ATOM     17  C   UNL     1       2.946   6.212  -0.151  1.00  0.00     0.026 A 
ATOM     18  C   UNL     1       3.227   6.610   2.215  1.00  0.00     0.052 A 
ATOM     19  C   UNL     1       2.868   7.602  -0.388  1.00  0.00     0.056 A 
ATOM     20  C   UNL     1       3.165   7.990   1.986  1.00  0.00     0.022 A 
ATOM     21  Cl  UNL     1       3.456   6.109   3.857  1.00  0.00    -0.084 Cl
ATOM     22  C   UNL     1       2.981   8.483   0.696  1.00  0.00     0.014 A 
BRANCH  19  23
ATOM     23  C   UNL     1       2.640   8.137  -1.785  1.00  0.00     0.416 C 
ATOM     24  F   UNL     1       3.629   7.791  -2.651  1.00  0.00    -0.166 F 
ATOM     25  F   UNL     1       1.479   7.680  -2.331  1.00  0.00    -0.166 F 
ATOM     26  F   UNL     1       2.557   9.497  -1.835  1.00  0.00    -0.166 F 
ENDBRANCH  19  23
ENDBRANCH  15  16
ENDBRANCH   8  11
ENDBRANCH   5   7
ENDBRANCH   4   5
ENDBRANCH   3   4
ENDBRANCH   2   3
ENDBRANCH   1   2
BRANCH   1  27
ATOM     27  C   UNL     1       4.164  -3.607   0.802  1.00  0.00     0.202 C 
BRANCH  27  28
ATOM     28  C   UNL     1       4.798  -3.474   2.195  1.00  0.00     0.261 C 
BRANCH  28  29
ATOM     29  O   UNL     1       6.128  -2.933   2.190  1.00  0.00    -0.460 OA
BRANCH  29  30
ATOM     30  C   UNL     1       7.092  -3.846   2.471  1.00  0.00     0.338 C 
ATOM     31  O   UNL     1       6.929  -5.029   2.740  1.00  0.00    -0.246 OA
BRANCH  30  32
ATOM     32  C   UNL     1       8.428  -3.275   2.238  1.00  0.00     0.060 A 
ATOM     33  C   UNL     1       9.267  -3.941   1.335  1.00  0.00     0.016 A 
ATOM     34  C   UNL     1       8.890  -2.172   2.959  1.00  0.00     0.016 A 
ATOM     35  C   UNL     1      10.589  -3.533   1.180  1.00  0.00     0.010 A 
ATOM     36  C   UNL     1      10.223  -1.774   2.813  1.00  0.00     0.010 A 
ATOM     37  C   UNL     1      11.085  -2.474   1.950  1.00  0.00    -0.014 A 
BRANCH  37  38
ATOM     38  C   UNL     1      12.543  -2.205   1.956  1.00  0.00     0.031 A 
ATOM     39  C   UNL     1      13.385  -2.777   3.064  1.00  0.00     0.074 A 
ATOM     40  C   UNL     1      13.113  -1.493   0.968  1.00  0.00     0.049 A 
ATOM     41  N   UNL     1      14.674  -2.673   3.259  1.00  0.00    -0.248 NA
ATOM     42  C   UNL     1      12.681  -3.572   4.083  1.00  0.00     0.031 C 
ATOM     43  C   UNL     1      12.408  -0.930  -0.183  1.00  0.00     0.029 A 
ATOM     44  N   UNL     1      14.420  -1.127   0.777  1.00  0.00    -0.354 N 
ATOM     45  C   UNL     1      14.936  -3.379   4.428  1.00  0.00     0.074 A 
ATOM     46  C   UNL     1      13.669  -3.887   4.909  1.00  0.00     0.031 C 
ATOM     47  C   UNL     1      13.295  -0.289  -0.964  1.00  0.00     0.029 A 
ATOM     48  C   UNL     1      14.620  -0.370  -0.352  1.00  0.00     0.049 A 
ATOM     49  H   UNL     1      15.147  -1.382   1.390  1.00  0.00     0.167 HD
ATOM     50  C   UNL     1      16.123  -3.586   5.045  1.00  0.00     0.031 A 
ATOM     51  C   UNL     1      15.743   0.202  -0.831  1.00  0.00     0.031 A 
ATOM     52  C   UNL     1      17.380  -3.070   4.571  1.00  0.00     0.049 A 
ATOM     53  C   UNL     1      17.039   0.018  -0.088  1.00  0.00     0.074 A 
ATOM     54  C   UNL     1      18.642  -3.248   5.111  1.00  0.00     0.029 A 
ATOM     55  N   UNL     1      17.532  -2.265   3.453  1.00  0.00    -0.354 N 
ATOM     56  N   UNL     1      17.275  -0.677   0.999  1.00  0.00    -0.248 NA
ATOM     57  C   UNL     1      18.221   0.694  -0.641  1.00  0.00     0.031 C 
ATOM     58  C   UNL     1      19.550  -2.504   4.350  1.00  0.00     0.029 A 
ATOM     59  C   UNL     1      18.862  -1.910   3.304  1.00  0.00     0.049 A 
ATOM     60  H   UNL     1      16.803  -1.988   2.853  1.00  0.00     0.167 HD
ATOM     61  C   UNL     1      18.638  -0.545   1.245  1.00  0.00     0.074 A 
ATOM     62  C   UNL     1      19.174   0.290   0.189  1.00  0.00     0.031 C 
ATOM     63  C   UNL     1      19.379  -1.073   2.251  1.00  0.00     0.031 A 
BRANCH  50  64
ATOM     64  C   UNL     1      16.108  -4.370   6.330  1.00  0.00    -0.014 A 
ATOM     65  C   UNL     1      15.881  -5.758   6.338  1.00  0.00     0.010 A 
ATOM     66  C   UNL     1      16.343  -3.708   7.548  1.00  0.00     0.010 A 
ATOM     67  C   UNL     1      15.846  -6.461   7.545  1.00  0.00     0.020 A 
ATOM     68  C   UNL     1      16.333  -4.411   8.755  1.00  0.00     0.020 A 
ATOM     69  C   UNL     1      16.065  -5.781   8.747  1.00  0.00     0.054 A 
BRANCH  69  70
ATOM     70  S   UNL     1      16.017  -6.716  10.301  1.00  0.00     0.124 S 
ATOM     71  O   UNL     1      14.584  -6.940  10.473  1.00  0.00    -0.237 OA
ATOM     72  O   UNL     1      16.805  -7.904   9.986  1.00  0.00    -0.237 OA
ATOM     73  O   UNL     1      16.626  -5.808  11.271  1.00  0.00    -0.744 OA
ENDBRANCH  69  70
ENDBRANCH  50  64
BRANCH  51  74
ATOM     74  C   UNL     1      15.687   1.009  -2.079  1.00  0.00    -0.014 A 
ATOM     75  C   UNL     1      16.265   0.529  -3.266  1.00  0.00     0.010 A 
ATOM     76  C   UNL     1      15.042   2.260  -2.086  1.00  0.00     0.010 A 
ATOM     77  C   UNL     1      16.206   1.289  -4.439  1.00  0.00     0.020 A 
ATOM     78  C   UNL     1      14.960   3.011  -3.262  1.00  0.00     0.020 A 
ATOM     79  C   UNL     1      15.550   2.523  -4.429  1.00  0.00     0.054 A 
BRANCH  79  80
ATOM     80  S   UNL     1      15.428   3.462  -5.978  1.00  0.00     0.124 S 
ATOM     81  O   UNL     1      16.782   3.985  -6.123  1.00  0.00    -0.237 OA
ATOM     82  O   UNL     1      15.039   2.434  -6.940  1.00  0.00    -0.237 OA
ATOM     83  O   UNL     1      14.397   4.457  -5.691  1.00  0.00    -0.744 OA
ENDBRANCH  79  80
ENDBRANCH  51  74
BRANCH  63  84
ATOM     84  C   UNL     1      20.858  -0.790   2.244  1.00  0.00    -0.014 A 
ATOM     85  C   UNL     1      21.360   0.476   2.594  1.00  0.00     0.010 A 
ATOM     86  C   UNL     1      21.761  -1.825   1.938  1.00  0.00     0.010 A 
ATOM     87  C   UNL     1      22.738   0.709   2.609  1.00  0.00     0.020 A 
ATOM     88  C   UNL     1      23.139  -1.603   1.978  1.00  0.00     0.020 A 
ATOM     89  C   UNL     1      23.619  -0.332   2.300  1.00  0.00     0.054 A 
BRANCH  89  90
ATOM     90  S   UNL     1      25.404  -0.018   2.370  1.00  0.00     0.124 S 
ATOM     91  O   UNL     1      25.626   0.747   1.147  1.00  0.00    -0.237 OA
ATOM     92  O   UNL     1      25.551   0.731   3.616  1.00  0.00    -0.237 OA
ATOM     93  O   UNL     1      25.990  -1.357   2.384  1.00  0.00    -0.744 OA
ENDBRANCH  89  90
ENDBRANCH  63  84
ENDBRANCH  37  38
ENDBRANCH  30  32
ENDBRANCH  29  30
ENDBRANCH  28  29
ENDBRANCH  27  28
ENDBRANCH   1  27
TORSDOF 21
