REMARK SMILES C[C@@H]1CCC[C@](CCSc2ccccc2)(C(=O)OCCOCCOC(=O)c2ccc(-c3c4nc(c(-c5ccc(S(=O)(=O)[O-])cc5)c5ccc([nH]5)c(-c5ccc(S(=O)(=O)[O-])cc5)c5nc(c(-c6ccc(S(=O)(=O)[O-])cc6)c6ccc3[nH]6)C=C5)C=C4)cc2)C1
REMARK SMILES IDX 20 1 19 2 18 3 16 4 17 5 6 6 1 7 2 8 3 9 87 10 4 11 5 12
REMARK SMILES IDX 7 13 8 14 9 15 10 16 11 17 15 18 12 19 14 20 13 21 21 22
REMARK SMILES IDX 22 23 23 24 24 25 25 26 26 27 27 28 28 29 86 30 29 31 85 32
REMARK SMILES IDX 30 33 31 34 32 35 79 36 33 37 84 38 78 39 80 40 34 41 83 42
REMARK SMILES IDX 77 43 76 44 35 46 65 47 46 48 64 49 47 50 50 51 63 52 81 53
REMARK SMILES IDX 48 54 49 55 62 57 82 58 51 59 36 60 37 61 45 62 38 63 44 64
REMARK SMILES IDX 39 65 40 66 41 67 42 68 43 69 66 70 67 71 75 72 68 73 74 74
REMARK SMILES IDX 69 75 70 76 71 77 72 78 73 79 52 80 53 81 61 82 54 83 60 84
REMARK SMILES IDX 55 85 56 86 57 87 58 88 59 89
REMARK H PARENT 80 45 50 56
REMARK Flexibility Score: inf
ROOT
ATOM      1  C   UNL     1      -2.669  -0.512   4.518  1.00  0.00     0.202 C 
ENDROOT
BRANCH   1   2
ATOM      2  C   UNL     1      -1.407   0.051   3.812  1.00  0.00     0.261 C 
BRANCH   2   3
ATOM      3  O   UNL     1      -1.371   0.112   2.384  1.00  0.00    -0.463 OA
BRANCH   3   4
ATOM      4  C   UNL     1      -1.224  -1.113   1.836  1.00  0.00     0.312 C 
ATOM      5  O   UNL     1      -1.379  -2.118   2.510  1.00  0.00    -0.252 OA
BRANCH   4   6
ATOM      6  C   UNL     1      -0.996  -1.157   0.327  1.00  0.00     0.069 C 
ATOM      7  C   UNL     1       1.484   0.749   1.423  1.00  0.00     0.007 C 
ATOM      8  C   UNL     1       1.115   0.360  -0.011  1.00  0.00    -0.013 C 
ATOM      9  C   UNL     1       0.257   1.417  -0.708  1.00  0.00     0.003 C 
ATOM     10  C   UNL     1       0.473  -1.031  -0.112  1.00  0.00     0.022 C 
ATOM     11  C   UNL     1      -1.210   1.370  -0.297  1.00  0.00     0.001 C 
ATOM     12  C   UNL     1      -1.815  -0.040  -0.388  1.00  0.00     0.019 C 
BRANCH   6  13
ATOM     13  C   UNL     1      -1.562  -2.572  -0.108  1.00  0.00     0.030 C 
BRANCH  13  14
ATOM     14  C   UNL     1      -0.732  -3.877   0.123  1.00  0.00     0.076 C 
BRANCH  14  15
ATOM     15  S   UNL     1      -0.548  -4.752   1.754  1.00  0.00    -0.126 SA
BRANCH  15  16
ATOM     16  C   UNL     1       0.787  -3.867   2.572  1.00  0.00     0.007 A 
ATOM     17  C   UNL     1       0.620  -3.406   3.889  1.00  0.00     0.015 A 
ATOM     18  C   UNL     1       1.974  -3.566   1.908  1.00  0.00     0.015 A 
ATOM     19  C   UNL     1       1.558  -2.546   4.472  1.00  0.00     0.001 A 
ATOM     20  C   UNL     1       2.913  -2.706   2.487  1.00  0.00     0.001 A 
ATOM     21  C   UNL     1       2.694  -2.176   3.757  1.00  0.00     0.000 A 
ENDBRANCH  15  16
ENDBRANCH  14  15
ENDBRANCH  13  14
ENDBRANCH   6  13
ENDBRANCH   4   6
ENDBRANCH   3   4
ENDBRANCH   2   3
ENDBRANCH   1   2
BRANCH   1  22
ATOM     22  O   UNL     1      -3.639  -1.329   3.881  1.00  0.00    -0.374 OA
BRANCH  22  23
ATOM     23  C   UNL     1      -4.260  -0.941   2.668  1.00  0.00     0.202 C 
BRANCH  23  24
ATOM     24  C   UNL     1      -4.945   0.419   2.562  1.00  0.00     0.261 C 
BRANCH  24  25
ATOM     25  O   UNL     1      -4.071   1.518   2.852  1.00  0.00    -0.460 OA
BRANCH  25  26
ATOM     26  C   UNL     1      -4.370   2.176   3.996  1.00  0.00     0.338 C 
ATOM     27  O   UNL     1      -5.295   1.946   4.762  1.00  0.00    -0.246 OA
BRANCH  26  28
ATOM     28  C   UNL     1      -3.297   3.125   4.326  1.00  0.00     0.060 A 
ATOM     29  C   UNL     1      -2.688   3.011   5.584  1.00  0.00     0.016 A 
ATOM     30  C   UNL     1      -2.966   4.168   3.461  1.00  0.00     0.016 A 
ATOM     31  C   UNL     1      -1.777   3.971   6.005  1.00  0.00     0.010 A 
ATOM     32  C   UNL     1      -2.076   5.150   3.899  1.00  0.00     0.010 A 
ATOM     33  C   UNL     1      -1.517   5.076   5.188  1.00  0.00    -0.014 A 
BRANCH  33  34
ATOM     34  C   UNL     1      -0.850   6.258   5.777  1.00  0.00     0.031 A 
ATOM     35  C   UNL     1      -1.717   7.374   6.295  1.00  0.00     0.074 A 
ATOM     36  C   UNL     1       0.487   6.317   5.887  1.00  0.00     0.049 A 
ATOM     37  N   UNL     1      -1.367   8.528   6.798  1.00  0.00    -0.248 NA
ATOM     38  C   UNL     1      -3.175   7.158   6.240  1.00  0.00     0.031 C 
ATOM     39  C   UNL     1       1.419   5.265   5.483  1.00  0.00     0.029 A 
ATOM     40  N   UNL     1       1.293   7.316   6.370  1.00  0.00    -0.354 N 
ATOM     41  C   UNL     1      -2.556   9.177   7.112  1.00  0.00     0.074 A 
ATOM     42  C   UNL     1      -3.638   8.303   6.718  1.00  0.00     0.031 C 
ATOM     43  C   UNL     1       2.675   5.683   5.721  1.00  0.00     0.029 A 
ATOM     44  C   UNL     1       2.635   7.042   6.256  1.00  0.00     0.049 A 
ATOM     45  H   UNL     1       0.944   8.149   6.762  1.00  0.00     0.167 HD
ATOM     46  C   UNL     1      -2.729  10.392   7.681  1.00  0.00     0.031 A 
ATOM     47  C   UNL     1       3.704   7.817   6.526  1.00  0.00     0.031 A 
ATOM     48  C   UNL     1      -1.647  11.260   8.057  1.00  0.00     0.049 A 
ATOM     49  C   UNL     1       3.482   9.206   7.071  1.00  0.00     0.074 A 
ATOM     50  C   UNL     1      -1.712  12.515   8.636  1.00  0.00     0.029 A 
ATOM     51  N   UNL     1      -0.302  10.965   7.889  1.00  0.00    -0.354 N 
ATOM     52  N   UNL     1       2.353   9.807   7.367  1.00  0.00    -0.248 NA
ATOM     53  C   UNL     1       4.679  10.020   7.324  1.00  0.00     0.031 C 
ATOM     54  C   UNL     1      -0.409  13.003   8.765  1.00  0.00     0.029 A 
ATOM     55  C   UNL     1       0.471  12.024   8.331  1.00  0.00     0.049 A 
ATOM     56  H   UNL     1       0.050  10.127   7.511  1.00  0.00     0.167 HD
ATOM     57  C   UNL     1       2.708  11.053   7.876  1.00  0.00     0.074 A 
ATOM     58  C   UNL     1       4.155  11.113   7.859  1.00  0.00     0.031 C 
ATOM     59  C   UNL     1       1.912  12.058   8.318  1.00  0.00     0.031 A 
BRANCH  46  60
ATOM     60  C   UNL     1      -4.139  10.868   7.907  1.00  0.00    -0.014 A 
ATOM     61  C   UNL     1      -4.950  10.297   8.904  1.00  0.00     0.010 A 
ATOM     62  C   UNL     1      -4.638  11.946   7.153  1.00  0.00     0.010 A 
ATOM     63  C   UNL     1      -6.241  10.784   9.130  1.00  0.00     0.020 A 
ATOM     64  C   UNL     1      -5.917  12.454   7.395  1.00  0.00     0.020 A 
ATOM     65  C   UNL     1      -6.714  11.863   8.377  1.00  0.00     0.054 A 
BRANCH  65  66
ATOM     66  S   UNL     1      -8.371  12.509   8.732  1.00  0.00     0.124 S 
ATOM     67  O   UNL     1      -9.227  11.435   8.235  1.00  0.00    -0.237 OA
ATOM     68  O   UNL     1      -8.345  12.671  10.184  1.00  0.00    -0.237 OA
ATOM     69  O   UNL     1      -8.430  13.754   7.970  1.00  0.00    -0.744 OA
ENDBRANCH  65  66
ENDBRANCH  46  60
BRANCH  47  70
ATOM     70  C   UNL     1       5.082   7.322   6.250  1.00  0.00    -0.014 A 
ATOM     71  C   UNL     1       5.994   7.105   7.298  1.00  0.00     0.010 A 
ATOM     72  C   UNL     1       5.501   7.102   4.925  1.00  0.00     0.010 A 
ATOM     73  C   UNL     1       7.309   6.715   7.023  1.00  0.00     0.020 A 
ATOM     74  C   UNL     1       6.804   6.680   4.648  1.00  0.00     0.020 A 
ATOM     75  C   UNL     1       7.705   6.508   5.699  1.00  0.00     0.054 A 
BRANCH  75  76
ATOM     76  S   UNL     1       9.411   5.988   5.366  1.00  0.00     0.124 S 
ATOM     77  O   UNL     1      10.159   7.211   5.636  1.00  0.00    -0.237 OA
ATOM     78  O   UNL     1       9.602   4.903   6.325  1.00  0.00    -0.237 OA
ATOM     79  O   UNL     1       9.374   5.572   3.966  1.00  0.00    -0.744 OA
ENDBRANCH  75  76
ENDBRANCH  47  70
BRANCH  59  80
ATOM     80  C   UNL     1       2.583  13.288   8.871  1.00  0.00    -0.014 A 
ATOM     81  C   UNL     1       3.258  14.195   8.035  1.00  0.00     0.010 A 
ATOM     82  C   UNL     1       2.482  13.569  10.246  1.00  0.00     0.010 A 
ATOM     83  C   UNL     1       3.850  15.342   8.571  1.00  0.00     0.020 A 
ATOM     84  C   UNL     1       3.043  14.731  10.780  1.00  0.00     0.020 A 
ATOM     85  C   UNL     1       3.737  15.603   9.940  1.00  0.00     0.054 A 
BRANCH  85  86
ATOM     86  S   UNL     1       4.476  17.121  10.602  1.00  0.00     0.124 S 
ATOM     87  O   UNL     1       5.903  16.817  10.541  1.00  0.00    -0.237 OA
ATOM     88  O   UNL     1       4.010  18.139   9.664  1.00  0.00    -0.237 OA
ATOM     89  O   UNL     1       3.918  17.221  11.949  1.00  0.00    -0.744 OA
ENDBRANCH  85  86
ENDBRANCH  59  80
ENDBRANCH  33  34
ENDBRANCH  26  28
ENDBRANCH  25  26
ENDBRANCH  24  25
ENDBRANCH  23  24
ENDBRANCH  22  23
ENDBRANCH   1  22
TORSDOF 21
