REMARK SMILES C[C@@H]1[C@H](C(=O)OCCOCCOC(=O)c2ccc(-c3c4nc(c(-c5ccc(S(=O)(=O)[O-])cc5)c5ccc([nH]5)c(-c5ccc(S(=O)(=O)[O-])cc5)c5nc(c(-c6ccc(S(=O)(=O)[O-])cc6)c6ccc3[nH]6)C=C5)C=C4)cc2)CCN1C(=O)c1ccc([N+](=O)[O-])c(F)c1
REMARK SMILES IDX 9 1 8 2 7 3 6 4 4 5 5 6 3 7 1 8 2 9 77 10 75 11 76 12 78 13
REMARK SMILES IDX 79 14 80 15 81 16 89 17 82 18 87 19 83 20 88 21 84 22 85 23
REMARK SMILES IDX 86 24 10 25 11 26 12 27 13 28 14 29 15 30 16 31 74 32 17 33
REMARK SMILES IDX 73 34 18 35 19 36 20 37 67 38 21 39 72 40 66 41 68 42 22 43
REMARK SMILES IDX 71 44 65 45 64 46 23 48 53 49 34 50 52 51 35 52 38 53 51 54
REMARK SMILES IDX 69 55 36 56 37 57 50 59 70 60 39 61 24 62 25 63 33 64 26 65
REMARK SMILES IDX 32 66 27 67 28 68 29 69 30 70 31 71 54 72 55 73 63 74 56 75
REMARK SMILES IDX 62 76 57 77 58 78 59 79 60 80 61 81 40 82 41 83 49 84 42 85
REMARK SMILES IDX 48 86 43 87 44 88 45 89 46 90 47 91
REMARK H PARENT 68 47 38 58
REMARK Flexibility Score: inf
ROOT
ATOM      1  O   UNL     1       2.588   4.192  -1.067  1.00  0.00    -0.374 OA
ENDROOT
BRANCH   1   2
ATOM      2  C   UNL     1       2.528   4.298   0.357  1.00  0.00     0.202 C 
BRANCH   2   3
ATOM      3  C   UNL     1       1.132   4.170   0.975  1.00  0.00     0.261 C 
BRANCH   3   4
ATOM      4  O   UNL     1       0.677   2.806   0.893  1.00  0.00    -0.463 OA
BRANCH   4   5
ATOM      5  C   UNL     1      -0.263   2.533  -0.035  1.00  0.00     0.311 C 
ATOM      6  O   UNL     1      -0.883   3.379  -0.670  1.00  0.00    -0.252 OA
BRANCH   5   7
ATOM      7  C   UNL     1      -0.498   1.053  -0.239  1.00  0.00     0.123 C 
ATOM      8  C   UNL     1       1.539   0.157   1.106  1.00  0.00     0.032 C 
ATOM      9  C   UNL     1       0.619  -0.011  -0.105  1.00  0.00     0.096 C 
ATOM     10  N   UNL     1      -0.177  -1.259   0.002  1.00  0.00    -0.335 N 
ATOM     11  C   UNL     1      -1.586   0.528   0.687  1.00  0.00     0.039 C 
ATOM     12  C   UNL     1      -1.551  -0.961   0.397  1.00  0.00     0.121 C 
BRANCH  10  13
ATOM     13  C   UNL     1       0.096  -2.551  -0.425  1.00  0.00     0.254 C 
ATOM     14  O   UNL     1      -0.763  -3.433  -0.447  1.00  0.00    -0.269 OA
BRANCH  13  15
ATOM     15  C   UNL     1       1.425  -2.932  -0.943  1.00  0.00     0.043 A 
ATOM     16  C   UNL     1       1.500  -3.491  -2.228  1.00  0.00     0.021 A 
ATOM     17  C   UNL     1       2.550  -2.947  -0.119  1.00  0.00     0.060 A 
ATOM     18  C   UNL     1       2.712  -4.000  -2.709  1.00  0.00     0.090 A 
ATOM     19  C   UNL     1       3.767  -3.428  -0.606  1.00  0.00     0.201 A 
ATOM     20  C   UNL     1       3.853  -3.948  -1.895  1.00  0.00     0.304 A 
ATOM     21  F   UNL     1       4.818  -3.410   0.225  1.00  0.00    -0.199 F 
BRANCH  20  22
ATOM     22  N   UNL     1       5.118  -4.475  -2.397  1.00  0.00     0.065 N 
ATOM     23  O   UNL     1       5.062  -5.252  -3.363  1.00  0.00    -0.258 OA
ATOM     24  O   UNL     1       6.167  -4.096  -1.865  1.00  0.00    -0.258 OA
ENDBRANCH  20  22
ENDBRANCH  13  15
ENDBRANCH  10  13
ENDBRANCH   5   7
ENDBRANCH   4   5
ENDBRANCH   3   4
ENDBRANCH   2   3
ENDBRANCH   1   2
BRANCH   1  25
ATOM     25  C   UNL     1       2.629   2.881  -1.625  1.00  0.00     0.202 C 
BRANCH  25  26
ATOM     26  C   UNL     1       3.990   2.173  -1.631  1.00  0.00     0.261 C 
BRANCH  26  27
ATOM     27  O   UNL     1       4.442   1.857  -0.303  1.00  0.00    -0.460 OA
BRANCH  27  28
ATOM     28  C   UNL     1       5.419   2.674   0.164  1.00  0.00     0.338 C 
ATOM     29  O   UNL     1       5.981   3.566  -0.456  1.00  0.00    -0.246 OA
BRANCH  28  30
ATOM     30  C   UNL     1       5.593   2.488   1.618  1.00  0.00     0.060 A 
ATOM     31  C   UNL     1       5.637   3.644   2.408  1.00  0.00     0.016 A 
ATOM     32  C   UNL     1       5.769   1.230   2.199  1.00  0.00     0.016 A 
ATOM     33  C   UNL     1       5.921   3.554   3.768  1.00  0.00     0.010 A 
ATOM     34  C   UNL     1       6.056   1.141   3.567  1.00  0.00     0.010 A 
ATOM     35  C   UNL     1       6.176   2.305   4.350  1.00  0.00    -0.014 A 
BRANCH  35  36
ATOM     36  C   UNL     1       6.714   2.242   5.733  1.00  0.00     0.031 A 
ATOM     37  C   UNL     1       8.184   1.982   5.936  1.00  0.00     0.074 A 
ATOM     38  C   UNL     1       5.919   2.465   6.796  1.00  0.00     0.049 A 
ATOM     39  N   UNL     1       8.862   1.886   7.050  1.00  0.00    -0.248 NA
ATOM     40  C   UNL     1       8.997   1.807   4.721  1.00  0.00     0.031 C 
ATOM     41  C   UNL     1       4.491   2.778   6.736  1.00  0.00     0.029 A 
ATOM     42  N   UNL     1       6.205   2.465   8.139  1.00  0.00    -0.354 N 
ATOM     43  C   UNL     1      10.176   1.630   6.673  1.00  0.00     0.074 A 
ATOM     44  C   UNL     1      10.194   1.553   5.229  1.00  0.00     0.031 C 
ATOM     45  C   UNL     1       4.027   2.939   7.987  1.00  0.00     0.029 A 
ATOM     46  C   UNL     1       5.112   2.705   8.938  1.00  0.00     0.049 A 
ATOM     47  H   UNL     1       7.109   2.308   8.497  1.00  0.00     0.167 HD
ATOM     48  C   UNL     1      11.272   1.480   7.456  1.00  0.00     0.031 A 
ATOM     49  C   UNL     1       4.994   2.717  10.281  1.00  0.00     0.031 A 
ATOM     50  C   UNL     1      11.252   1.548   8.894  1.00  0.00     0.049 A 
ATOM     51  C   UNL     1       6.212   2.469  11.133  1.00  0.00     0.074 A 
ATOM     52  C   UNL     1      12.314   1.425   9.774  1.00  0.00     0.029 A 
ATOM     53  N   UNL     1      10.117   1.746   9.664  1.00  0.00    -0.354 N 
ATOM     54  N   UNL     1       7.451   2.254  10.760  1.00  0.00    -0.248 NA
ATOM     55  C   UNL     1       6.016   2.475  12.590  1.00  0.00     0.031 C 
ATOM     56  C   UNL     1      11.811   1.483  11.077  1.00  0.00     0.029 A 
ATOM     57  C   UNL     1      10.447   1.717  11.009  1.00  0.00     0.049 A 
ATOM     58  H   UNL     1       9.210   1.887   9.308  1.00  0.00     0.167 HD
ATOM     59  C   UNL     1       8.186   2.131  11.936  1.00  0.00     0.074 A 
ATOM     60  C   UNL     1       7.255   2.310  13.031  1.00  0.00     0.031 C 
ATOM     61  C   UNL     1       9.513   1.895  12.093  1.00  0.00     0.031 A 
BRANCH  48  62
ATOM     62  C   UNL     1      12.584   1.192   6.774  1.00  0.00    -0.014 A 
ATOM     63  C   UNL     1      13.244   2.172   6.010  1.00  0.00     0.010 A 
ATOM     64  C   UNL     1      13.190  -0.068   6.938  1.00  0.00     0.010 A 
ATOM     65  C   UNL     1      14.466   1.885   5.394  1.00  0.00     0.020 A 
ATOM     66  C   UNL     1      14.425  -0.349   6.349  1.00  0.00     0.020 A 
ATOM     67  C   UNL     1      15.048   0.626   5.567  1.00  0.00     0.054 A 
BRANCH  67  68
ATOM     68  S   UNL     1      16.647   0.291   4.778  1.00  0.00     0.124 S 
ATOM     69  O   UNL     1      16.277   0.219   3.366  1.00  0.00    -0.237 OA
ATOM     70  O   UNL     1      17.441   1.456   5.160  1.00  0.00    -0.237 OA
ATOM     71  O   UNL     1      17.072  -0.972   5.375  1.00  0.00    -0.744 OA
ENDBRANCH  67  68
ENDBRANCH  48  62
BRANCH  49  72
ATOM     72  C   UNL     1       3.664   2.954  10.908  1.00  0.00    -0.014 A 
ATOM     73  C   UNL     1       3.411   4.124  11.645  1.00  0.00     0.010 A 
ATOM     74  C   UNL     1       2.640   1.996  10.775  1.00  0.00     0.010 A 
ATOM     75  C   UNL     1       2.166   4.325  12.250  1.00  0.00     0.020 A 
ATOM     76  C   UNL     1       1.385   2.208  11.352  1.00  0.00     0.020 A 
ATOM     77  C   UNL     1       1.159   3.368  12.095  1.00  0.00     0.054 A 
BRANCH  77  78
ATOM     78  S   UNL     1      -0.464   3.675  12.844  1.00  0.00     0.124 S 
ATOM     79  O   UNL     1      -0.183   3.497  14.265  1.00  0.00    -0.237 OA
ATOM     80  O   UNL     1      -0.750   5.044  12.421  1.00  0.00    -0.237 OA
ATOM     81  O   UNL     1      -1.318   2.654  12.241  1.00  0.00    -0.744 OA
ENDBRANCH  77  78
ENDBRANCH  49  72
BRANCH  61  82
ATOM     82  C   UNL     1      10.055   1.856  13.500  1.00  0.00    -0.014 A 
ATOM     83  C   UNL     1       9.757   0.796  14.374  1.00  0.00     0.010 A 
ATOM     84  C   UNL     1      10.925   2.874  13.935  1.00  0.00     0.010 A 
ATOM     85  C   UNL     1      10.290   0.772  15.666  1.00  0.00     0.020 A 
ATOM     86  C   UNL     1      11.485   2.838  15.214  1.00  0.00     0.020 A 
ATOM     87  C   UNL     1      11.152   1.794  16.078  1.00  0.00     0.054 A 
BRANCH  87  88
ATOM     88  S   UNL     1      11.862   1.718  17.745  1.00  0.00     0.124 S 
ATOM     89  O   UNL     1      10.707   2.030  18.582  1.00  0.00    -0.237 OA
ATOM     90  O   UNL     1      12.344   0.341  17.826  1.00  0.00    -0.237 OA
ATOM     91  O   UNL     1      12.909   2.738  17.724  1.00  0.00    -0.744 OA
ENDBRANCH  87  88
ENDBRANCH  61  82
ENDBRANCH  35  36
ENDBRANCH  28  30
ENDBRANCH  27  28
ENDBRANCH  26  27
ENDBRANCH  25  26
ENDBRANCH   1  25
TORSDOF 20
