REMARK SMILES CS(=O)(=O)c1ccc(C2=NN(c3ccc(C(=O)OCCOCCOC(=O)c4ccc(-c5c6nc(c(-c7ccc(S(=O)(=O)[O-])cc7)c7ccc([nH]7)c(-c7ccc(S(=O)(=O)[O-])cc7)c7nc(c(-c8ccc(S(=O)(=O)[O-])cc8)c8ccc5[nH]8)C=C7)C=C6)cc4)cc3)[C@H](c3cccs3)C2)cc1
REMARK SMILES IDX 21 1 20 2 19 3 18 4 16 5 17 6 15 7 12 8 13 9 88 10 14 11
REMARK SMILES IDX 87 12 11 13 9 14 10 15 95 16 89 17 8 18 5 19 6 20 97 21 7 22
REMARK SMILES IDX 96 23 2 24 1 25 3 26 4 27 90 28 91 29 94 30 92 31 93 32
REMARK SMILES IDX 22 33 23 34 24 35 25 36 26 37 27 38 28 39 86 40 29 41 85 42
REMARK SMILES IDX 30 43 31 44 32 45 79 46 33 47 84 48 78 49 80 50 34 51 83 52
REMARK SMILES IDX 77 53 76 54 35 56 65 57 46 58 64 59 47 60 50 61 63 62 81 63
REMARK SMILES IDX 48 64 49 65 62 67 82 68 51 69 36 70 37 71 45 72 38 73 44 74
REMARK SMILES IDX 39 75 40 76 41 77 42 78 43 79 66 80 67 81 75 82 68 83 74 84
REMARK SMILES IDX 69 85 70 86 71 87 72 88 73 89 52 90 53 91 61 92 54 93 60 94
REMARK SMILES IDX 55 95 56 96 57 97 58 98 59 99
REMARK H PARENT 80 55 50 66
REMARK Flexibility Score: inf
ROOT
ATOM      1  O   UNL     1       6.003  10.819 -10.676  1.00  0.00    -0.374 OA
ENDROOT
BRANCH   1   2
ATOM      2  C   UNL     1       6.851  11.792 -10.064  1.00  0.00     0.202 C 
BRANCH   2   3
ATOM      3  C   UNL     1       6.221  12.600  -8.925  1.00  0.00     0.261 C 
BRANCH   3   4
ATOM      4  O   UNL     1       5.909  11.749  -7.811  1.00  0.00    -0.460 OA
BRANCH   4   5
ATOM      5  C   UNL     1       4.591  11.538  -7.589  1.00  0.00     0.338 C 
ATOM      6  O   UNL     1       3.656  12.108  -8.133  1.00  0.00    -0.246 OA
BRANCH   5   7
ATOM      7  C   UNL     1       4.402  10.411  -6.642  1.00  0.00     0.060 A 
ATOM      8  C   UNL     1       3.858   8.393  -4.765  1.00  0.00     0.060 A 
ATOM      9  C   UNL     1       2.890   8.760  -5.704  1.00  0.00     0.029 A 
ATOM     10  C   UNL     1       5.133   8.971  -4.849  1.00  0.00     0.029 A 
ATOM     11  C   UNL     1       3.155   9.771  -6.630  1.00  0.00     0.018 A 
ATOM     12  C   UNL     1       5.410   9.977  -5.777  1.00  0.00     0.018 A 
BRANCH   8  13
ATOM     13  N   UNL     1       3.534   7.601  -3.662  1.00  0.00    -0.257 N 
ATOM     14  C   UNL     1       2.355   6.091  -2.744  1.00  0.00     0.071 C 
ATOM     15  N   UNL     1       3.045   6.345  -3.813  1.00  0.00    -0.176 NA
ATOM     16  C   UNL     1       2.143   7.247  -1.805  1.00  0.00     0.091 C 
ATOM     17  C   UNL     1       3.065   8.287  -2.448  1.00  0.00     0.154 C 
BRANCH  14  18
ATOM     18  C   UNL     1       1.815   4.754  -2.444  1.00  0.00    -0.002 A 
ATOM     19  C   UNL     1       0.892   2.189  -1.889  1.00  0.00     0.067 A 
ATOM     20  C   UNL     1       2.173   2.358  -2.420  1.00  0.00     0.021 A 
ATOM     21  C   UNL     1       0.064   3.291  -1.647  1.00  0.00     0.021 A 
ATOM     22  C   UNL     1       2.632   3.645  -2.701  1.00  0.00     0.011 A 
ATOM     23  C   UNL     1       0.533   4.582  -1.913  1.00  0.00     0.011 A 
BRANCH  19  24
ATOM     24  S   UNL     1       0.289   0.543  -1.587  1.00  0.00     0.175 S 
ATOM     25  C   UNL     1       0.961   0.140   0.004  1.00  0.00     0.163 C 
ATOM     26  O   UNL     1       0.903  -0.332  -2.570  1.00  0.00    -0.224 OA
ATOM     27  O   UNL     1      -1.151   0.618  -1.457  1.00  0.00    -0.224 OA
ENDBRANCH  19  24
ENDBRANCH  14  18
BRANCH  17  28
ATOM     28  C   UNL     1       4.182   8.836  -1.584  1.00  0.00     0.030 A 
ATOM     29  C   UNL     1       4.767  10.088  -1.710  1.00  0.00     0.017 A 
ATOM     30  S   UNL     1       4.984   7.907  -0.388  1.00  0.00    -0.147 S 
ATOM     31  C   UNL     1       5.888  10.263  -0.854  1.00  0.00     0.012 A 
ATOM     32  C   UNL     1       6.100   9.159  -0.060  1.00  0.00     0.065 A 
ENDBRANCH  17  28
ENDBRANCH   8  13
ENDBRANCH   5   7
ENDBRANCH   4   5
ENDBRANCH   3   4
ENDBRANCH   2   3
ENDBRANCH   1   2
BRANCH   1  33
ATOM     33  C   UNL     1       5.883   9.558 -10.014  1.00  0.00     0.202 C 
BRANCH  33  34
ATOM     34  C   UNL     1       7.021   8.558 -10.247  1.00  0.00     0.261 C 
BRANCH  34  35
ATOM     35  O   UNL     1       8.255   8.996  -9.651  1.00  0.00    -0.460 OA
BRANCH  35  36
ATOM     36  C   UNL     1       9.195   9.411 -10.533  1.00  0.00     0.338 C 
ATOM     37  O   UNL     1       9.124   9.381 -11.753  1.00  0.00    -0.246 OA
BRANCH  36  38
ATOM     38  C   UNL     1      10.293  10.092  -9.820  1.00  0.00     0.060 A 
ATOM     39  C   UNL     1      10.692  11.346 -10.299  1.00  0.00     0.016 A 
ATOM     40  C   UNL     1      10.968   9.494  -8.753  1.00  0.00     0.016 A 
ATOM     41  C   UNL     1      11.802  11.984  -9.749  1.00  0.00     0.010 A 
ATOM     42  C   UNL     1      12.087  10.133  -8.207  1.00  0.00     0.010 A 
ATOM     43  C   UNL     1      12.531  11.363  -8.726  1.00  0.00    -0.014 A 
BRANCH  43  44
ATOM     44  C   UNL     1      13.837  11.930  -8.310  1.00  0.00     0.031 A 
ATOM     45  C   UNL     1      15.101  11.330  -8.869  1.00  0.00     0.074 A 
ATOM     46  C   UNL     1      13.899  12.992  -7.486  1.00  0.00     0.049 A 
ATOM     47  N   UNL     1      16.346  11.647  -8.623  1.00  0.00    -0.248 NA
ATOM     48  C   UNL     1      14.940  10.231  -9.836  1.00  0.00     0.031 C 
ATOM     49  C   UNL     1      12.748  13.698  -6.925  1.00  0.00     0.029 A 
ATOM     50  N   UNL     1      14.984  13.664  -6.980  1.00  0.00    -0.354 N 
ATOM     51  C   UNL     1      17.115  10.794  -9.407  1.00  0.00     0.074 A 
ATOM     52  C   UNL     1      16.199   9.921 -10.108  1.00  0.00     0.031 C 
ATOM     53  C   UNL     1      13.189  14.704  -6.148  1.00  0.00     0.029 A 
ATOM     54  C   UNL     1      14.650  14.692  -6.131  1.00  0.00     0.049 A 
ATOM     55  H   UNL     1      15.914  13.432  -7.205  1.00  0.00     0.167 HD
ATOM     56  C   UNL     1      18.462  10.749  -9.542  1.00  0.00     0.031 A 
ATOM     57  C   UNL     1      15.434  15.516  -5.408  1.00  0.00     0.031 A 
ATOM     58  C   UNL     1      19.375  11.605  -8.833  1.00  0.00     0.049 A 
ATOM     59  C   UNL     1      16.933  15.377  -5.500  1.00  0.00     0.074 A 
ATOM     60  C   UNL     1      20.758  11.619  -8.884  1.00  0.00     0.029 A 
ATOM     61  N   UNL     1      18.998  12.601  -7.946  1.00  0.00    -0.354 N 
ATOM     62  N   UNL     1      17.643  14.561  -6.242  1.00  0.00    -0.248 NA
ATOM     63  C   UNL     1      17.736  16.278  -4.660  1.00  0.00     0.031 C 
ATOM     64  C   UNL     1      21.219  12.596  -7.996  1.00  0.00     0.029 A 
ATOM     65  C   UNL     1      20.121  13.227  -7.434  1.00  0.00     0.049 A 
ATOM     66  H   UNL     1      18.068  12.829  -7.715  1.00  0.00     0.167 HD
ATOM     67  C   UNL     1      18.974  14.877  -5.984  1.00  0.00     0.074 A 
ATOM     68  C   UNL     1      18.970  15.963  -5.028  1.00  0.00     0.031 C 
ATOM     69  C   UNL     1      20.100  14.318  -6.494  1.00  0.00     0.031 A 
BRANCH  56  70
ATOM     70  C   UNL     1      19.034   9.729 -10.489  1.00  0.00    -0.014 A 
ATOM     71  C   UNL     1      18.928   9.899 -11.881  1.00  0.00     0.010 A 
ATOM     72  C   UNL     1      19.736   8.619  -9.985  1.00  0.00     0.010 A 
ATOM     73  C   UNL     1      19.494   8.965 -12.753  1.00  0.00     0.020 A 
ATOM     74  C   UNL     1      20.325   7.696 -10.854  1.00  0.00     0.020 A 
ATOM     75  C   UNL     1      20.190   7.870 -12.233  1.00  0.00     0.054 A 
BRANCH  75  76
ATOM     76  S   UNL     1      20.953   6.697 -13.389  1.00  0.00     0.124 S 
ATOM     77  O   UNL     1      19.787   5.997 -13.922  1.00  0.00    -0.237 OA
ATOM     78  O   UNL     1      21.641   7.577 -14.330  1.00  0.00    -0.237 OA
ATOM     79  O   UNL     1      21.828   5.892 -12.540  1.00  0.00    -0.744 OA
ENDBRANCH  75  76
ENDBRANCH  56  70
BRANCH  57  80
ATOM     80  C   UNL     1      14.831  16.534  -4.504  1.00  0.00    -0.014 A 
ATOM     81  C   UNL     1      14.978  17.908  -4.766  1.00  0.00     0.010 A 
ATOM     82  C   UNL     1      14.147  16.131  -3.342  1.00  0.00     0.010 A 
ATOM     83  C   UNL     1      14.489  18.858  -3.865  1.00  0.00     0.020 A 
ATOM     84  C   UNL     1      13.631  17.077  -2.453  1.00  0.00     0.020 A 
ATOM     85  C   UNL     1      13.824  18.436  -2.710  1.00  0.00     0.054 A 
BRANCH  85  86
ATOM     86  S   UNL     1      13.192  19.682  -1.553  1.00  0.00     0.124 S 
ATOM     87  O   UNL     1      14.412  20.115  -0.879  1.00  0.00    -0.237 OA
ATOM     88  O   UNL     1      12.578  20.662  -2.445  1.00  0.00    -0.237 OA
ATOM     89  O   UNL     1      12.251  18.930  -0.725  1.00  0.00    -0.744 OA
ENDBRANCH  85  86
ENDBRANCH  57  80
BRANCH  69  90
ATOM     90  C   UNL     1      21.421  14.906  -6.074  1.00  0.00    -0.014 A 
ATOM     91  C   UNL     1      21.938  14.695  -4.784  1.00  0.00     0.010 A 
ATOM     92  C   UNL     1      22.180  15.637  -7.006  1.00  0.00     0.010 A 
ATOM     93  C   UNL     1      23.177  15.234  -4.424  1.00  0.00     0.020 A 
ATOM     94  C   UNL     1      23.430  16.154  -6.659  1.00  0.00     0.020 A 
ATOM     95  C   UNL     1      23.914  15.961  -5.364  1.00  0.00     0.054 A 
BRANCH  95  96
ATOM     96  S   UNL     1      25.538  16.615  -4.885  1.00  0.00     0.124 S 
ATOM     97  O   UNL     1      25.172  17.744  -4.034  1.00  0.00    -0.237 OA
ATOM     98  O   UNL     1      26.150  15.481  -4.197  1.00  0.00    -0.237 OA
ATOM     99  O   UNL     1      26.157  16.970  -6.160  1.00  0.00    -0.744 OA
ENDBRANCH  95  96
ENDBRANCH  69  90
ENDBRANCH  43  44
ENDBRANCH  36  38
ENDBRANCH  35  36
ENDBRANCH  34  35
ENDBRANCH  33  34
ENDBRANCH   1  33
TORSDOF 21
