REMARK SMILES O=C(CCN/C(=[NH+]\S(=O)(=O)c1ccccc1)c1ccccc1)OCCOCCOC(=O)c1ccc(-c2c3nc(c(-c4ccc(S(=O)(=O)[O-])cc4)c4ccc([nH]4)c(-c4ccc(S(=O)(=O)[O-])cc4)c4nc(c(-c5ccc(S(=O)(=O)[O-])cc5)c5ccc2[nH]5)C=C4)C=C3)cc1
REMARK SMILES IDX 25 1 24 2 23 3 2 4 1 5 3 6 4 7 5 8 6 9 7 11 17 13 18 14
REMARK SMILES IDX 22 15 19 16 21 17 20 18 8 19 9 20 10 21 11 22 12 23 16 24
REMARK SMILES IDX 13 25 15 26 14 27 26 28 27 29 28 30 29 31 30 32 31 33 32 34
REMARK SMILES IDX 33 35 91 36 34 37 90 38 35 39 36 40 37 41 84 42 38 43 89 44
REMARK SMILES IDX 83 45 85 46 39 47 88 48 82 49 81 50 40 52 70 53 51 54 69 55
REMARK SMILES IDX 52 56 55 57 68 58 86 59 53 60 54 61 67 63 87 64 56 65 41 66
REMARK SMILES IDX 42 67 50 68 43 69 49 70 44 71 45 72 46 73 47 74 48 75 71 76
REMARK SMILES IDX 72 77 80 78 73 79 79 80 74 81 75 82 76 83 77 84 78 85 57 86
REMARK SMILES IDX 58 87 66 88 59 89 65 90 60 91 61 92 62 93 63 94 64 95
REMARK H PARENT 5 10 7 12 85 51 55 62
REMARK Flexibility Score: inf
ROOT
ATOM      1  C   UNL     1       4.210  -0.147   1.055  1.00  0.00     0.202 C 
ENDROOT
BRANCH   1   2
ATOM      2  C   UNL     1       3.268   0.893   0.441  1.00  0.00     0.261 C 
BRANCH   2   3
ATOM      3  O   UNL     1       2.067   0.377  -0.161  1.00  0.00    -0.463 OA
BRANCH   3   4
ATOM      4  C   UNL     1       2.038  -0.160  -1.394  1.00  0.00     0.309 C 
ATOM      5  O   UNL     1       1.064   0.011  -2.124  1.00  0.00    -0.252 OA
BRANCH   4   6
ATOM      6  C   UNL     1       3.149  -1.081  -1.805  1.00  0.00     0.168 C 
BRANCH   6   7
ATOM      7  C   UNL     1       3.972  -0.509  -2.941  1.00  0.00     0.245 C 
BRANCH   7   8
ATOM      8  N   UNL     1       5.054   0.362  -2.505  1.00  0.00    -0.273 N 
ATOM      9  C   UNL     1       6.346   0.086  -2.079  1.00  0.00     0.290 C 
ATOM     10  H   UNL     1       4.828   1.321  -2.515  1.00  0.00     0.305 HD
ATOM     11  N   UNL     1       7.141   0.943  -1.501  1.00  0.00    -0.162 N 
ATOM     12  H   UNL     1       8.074   0.685  -1.318  1.00  0.00     0.327 HD
BRANCH   9  13
ATOM     13  C   UNL     1       6.940  -1.287  -2.256  1.00  0.00     0.064 A 
ATOM     14  C   UNL     1       7.695  -1.839  -1.212  1.00  0.00     0.016 A 
ATOM     15  C   UNL     1       6.793  -2.005  -3.446  1.00  0.00     0.016 A 
ATOM     16  C   UNL     1       8.251  -3.114  -1.342  1.00  0.00     0.001 A 
ATOM     17  C   UNL     1       7.322  -3.293  -3.563  1.00  0.00     0.001 A 
ATOM     18  C   UNL     1       8.049  -3.848  -2.510  1.00  0.00     0.000 A 
ENDBRANCH   9  13
BRANCH  11  19
ATOM     19  S   UNL     1       6.630   2.421  -1.077  1.00  0.00     0.328 S 
ATOM     20  O   UNL     1       5.951   3.019  -2.214  1.00  0.00    -0.179 OA
ATOM     21  O   UNL     1       5.941   2.304   0.194  1.00  0.00    -0.179 OA
BRANCH  19  22
ATOM     22  C   UNL     1       8.050   3.420  -0.713  1.00  0.00     0.109 A 
ATOM     23  C   UNL     1       9.222   2.839  -0.225  1.00  0.00     0.024 A 
ATOM     24  C   UNL     1       7.912   4.812  -0.784  1.00  0.00     0.024 A 
ATOM     25  C   UNL     1      10.252   3.667   0.226  1.00  0.00     0.001 A 
ATOM     26  C   UNL     1       8.945   5.629  -0.329  1.00  0.00     0.001 A 
ATOM     27  C   UNL     1      10.109   5.057   0.184  1.00  0.00     0.000 A 
ENDBRANCH  19  22
ENDBRANCH  11  19
ENDBRANCH   7   8
ENDBRANCH   6   7
ENDBRANCH   4   6
ENDBRANCH   3   4
ENDBRANCH   2   3
ENDBRANCH   1   2
BRANCH   1  28
ATOM     28  O   UNL     1       3.623  -1.369   1.502  1.00  0.00    -0.374 OA
BRANCH  28  29
ATOM     29  C   UNL     1       2.457  -1.295   2.318  1.00  0.00     0.202 C 
BRANCH  29  30
ATOM     30  C   UNL     1       2.692  -0.922   3.779  1.00  0.00     0.261 C 
BRANCH  30  31
ATOM     31  O   UNL     1       3.135   0.436   3.905  1.00  0.00    -0.460 OA
BRANCH  31  32
ATOM     32  C   UNL     1       4.440   0.578   4.244  1.00  0.00     0.338 C 
ATOM     33  O   UNL     1       5.240  -0.309   4.468  1.00  0.00    -0.246 OA
BRANCH  32  34
ATOM     34  C   UNL     1       4.816   2.006   4.175  1.00  0.00     0.060 A 
ATOM     35  C   UNL     1       6.092   2.320   3.692  1.00  0.00     0.016 A 
ATOM     36  C   UNL     1       3.966   3.009   4.650  1.00  0.00     0.016 A 
ATOM     37  C   UNL     1       6.559   3.629   3.762  1.00  0.00     0.010 A 
ATOM     38  C   UNL     1       4.435   4.320   4.724  1.00  0.00     0.010 A 
ATOM     39  C   UNL     1       5.752   4.619   4.335  1.00  0.00    -0.014 A 
BRANCH  39  40
ATOM     40  C   UNL     1       6.360   5.904   4.742  1.00  0.00     0.031 A 
ATOM     41  C   UNL     1       6.830   6.047   6.164  1.00  0.00     0.074 A 
ATOM     42  C   UNL     1       6.502   6.912   3.866  1.00  0.00     0.049 A 
ATOM     43  N   UNL     1       7.391   7.069   6.755  1.00  0.00    -0.248 NA
ATOM     44  C   UNL     1       6.638   4.877   7.039  1.00  0.00     0.031 C 
ATOM     45  C   UNL     1       6.117   6.871   2.457  1.00  0.00     0.029 A 
ATOM     46  N   UNL     1       7.011   8.172   4.044  1.00  0.00    -0.354 N 
ATOM     47  C   UNL     1       7.611   6.669   8.068  1.00  0.00     0.074 A 
ATOM     48  C   UNL     1       7.096   5.325   8.197  1.00  0.00     0.031 C 
ATOM     49  C   UNL     1       6.399   8.060   1.896  1.00  0.00     0.029 A 
ATOM     50  C   UNL     1       6.964   8.947   2.913  1.00  0.00     0.049 A 
ATOM     51  H   UNL     1       7.375   8.491   4.902  1.00  0.00     0.167 HD
ATOM     52  C   UNL     1       8.195   7.358   9.077  1.00  0.00     0.031 A 
ATOM     53  C   UNL     1       7.331  10.229   2.726  1.00  0.00     0.031 A 
ATOM     54  C   UNL     1       8.681   8.704   8.949  1.00  0.00     0.049 A 
ATOM     55  C   UNL     1       7.922  11.000   3.878  1.00  0.00     0.074 A 
ATOM     56  C   UNL     1       9.300   9.493   9.902  1.00  0.00     0.029 A 
ATOM     57  N   UNL     1       8.591   9.466   7.793  1.00  0.00    -0.354 N 
ATOM     58  N   UNL     1       8.158  10.599   5.105  1.00  0.00    -0.248 NA
ATOM     59  C   UNL     1       8.312  12.391   3.612  1.00  0.00     0.031 C 
ATOM     60  C   UNL     1       9.539  10.751   9.336  1.00  0.00     0.029 A 
ATOM     61  C   UNL     1       9.122  10.725   8.014  1.00  0.00     0.049 A 
ATOM     62  H   UNL     1       8.205   9.157   6.942  1.00  0.00     0.167 HD
ATOM     63  C   UNL     1       8.759  11.677   5.748  1.00  0.00     0.074 A 
ATOM     64  C   UNL     1       8.850  12.745   4.772  1.00  0.00     0.031 C 
ATOM     65  C   UNL     1       9.205  11.772   7.026  1.00  0.00     0.031 A 
BRANCH  52  66
ATOM     66  C   UNL     1       8.289   6.669  10.412  1.00  0.00    -0.014 A 
ATOM     67  C   UNL     1       9.162   5.583  10.615  1.00  0.00     0.010 A 
ATOM     68  C   UNL     1       7.477   7.101  11.476  1.00  0.00     0.010 A 
ATOM     69  C   UNL     1       9.178   4.907  11.838  1.00  0.00     0.020 A 
ATOM     70  C   UNL     1       7.510   6.444  12.709  1.00  0.00     0.020 A 
ATOM     71  C   UNL     1       8.343   5.336  12.874  1.00  0.00     0.054 A 
BRANCH  71  72
ATOM     72  S   UNL     1       8.367   4.432  14.447  1.00  0.00     0.124 S 
ATOM     73  O   UNL     1       7.621   3.222  14.109  1.00  0.00    -0.237 OA
ATOM     74  O   UNL     1       9.795   4.241  14.687  1.00  0.00    -0.237 OA
ATOM     75  O   UNL     1       7.698   5.337  15.377  1.00  0.00    -0.744 OA
ENDBRANCH  71  72
ENDBRANCH  52  66
BRANCH  53  76
ATOM     76  C   UNL     1       7.171  10.854   1.387  1.00  0.00    -0.014 A 
ATOM     77  C   UNL     1       8.296  11.121   0.589  1.00  0.00     0.010 A 
ATOM     78  C   UNL     1       5.891  11.162   0.892  1.00  0.00     0.010 A 
ATOM     79  C   UNL     1       8.146  11.691  -0.678  1.00  0.00     0.020 A 
ATOM     80  C   UNL     1       5.734  11.711  -0.384  1.00  0.00     0.020 A 
ATOM     81  C   UNL     1       6.865  11.978  -1.159  1.00  0.00     0.054 A 
BRANCH  81  82
ATOM     82  S   UNL     1       6.692  12.654  -2.834  1.00  0.00     0.124 S 
ATOM     83  O   UNL     1       7.156  14.026  -2.657  1.00  0.00    -0.237 OA
ATOM     84  O   UNL     1       7.569  11.784  -3.614  1.00  0.00    -0.237 OA
ATOM     85  O   UNL     1       5.266  12.505  -3.117  1.00  0.00    -0.744 OA
ENDBRANCH  81  82
ENDBRANCH  53  76
BRANCH  65  86
ATOM     86  C   UNL     1       9.880  13.056   7.430  1.00  0.00    -0.014 A 
ATOM     87  C   UNL     1       9.148  14.239   7.633  1.00  0.00     0.010 A 
ATOM     88  C   UNL     1      11.268  13.060   7.659  1.00  0.00     0.010 A 
ATOM     89  C   UNL     1       9.800  15.413   8.022  1.00  0.00     0.020 A 
ATOM     90  C   UNL     1      11.919  14.223   8.074  1.00  0.00     0.020 A 
ATOM     91  C   UNL     1      11.182  15.398   8.237  1.00  0.00     0.054 A 
BRANCH  91  92
ATOM     92  S   UNL     1      12.002  16.924   8.774  1.00  0.00     0.124 S 
ATOM     93  O   UNL     1      12.050  17.695   7.535  1.00  0.00    -0.237 OA
ATOM     94  O   UNL     1      11.094  17.435   9.799  1.00  0.00    -0.237 OA
ATOM     95  O   UNL     1      13.296  16.463   9.273  1.00  0.00    -0.744 OA
ENDBRANCH  91  92
ENDBRANCH  65  86
ENDBRANCH  39  40
ENDBRANCH  32  34
ENDBRANCH  31  32
ENDBRANCH  30  31
ENDBRANCH  29  30
ENDBRANCH  28  29
ENDBRANCH   1  28
TORSDOF 22
