REMARK SMILES Cc1ccc(S(=O)(=O)n2cc(C(=O)C(=O)N[C@@H](Cc3cnc[nH]3)C(=O)OCCOCCOC(=O)c3ccc(-c4c5nc(c(-c6ccc(S(=O)(=O)[O-])cc6)c6ccc([nH]6)c(-c6ccc(S(=O)(=O)[O-])cc6)c6nc(c(-c7ccc(S(=O)(=O)[O-])cc7)c7ccc4[nH]7)C=C6)C=C5)cc3)c3ccccc32)cc1
REMARK SMILES IDX 28 1 27 2 26 3 24 4 25 5 17 6 16 7 14 8 15 9 12 11 13 12
REMARK SMILES IDX 11 13 9 14 10 15 100 16 95 17 99 18 96 19 98 20 97 21 6 22
REMARK SMILES IDX 7 23 8 24 5 25 1 26 2 27 3 28 102 29 4 30 101 31 18 32 19 33
REMARK SMILES IDX 20 34 23 35 21 36 22 37 29 39 30 40 31 41 32 42 33 43 34 44
REMARK SMILES IDX 35 45 36 46 94 47 37 48 93 49 38 50 39 51 40 52 87 53 41 54
REMARK SMILES IDX 92 55 86 56 88 57 42 58 91 59 85 60 84 61 43 63 73 64 54 65
REMARK SMILES IDX 72 66 55 67 58 68 71 69 89 70 56 71 57 72 70 74 90 75 59 76
REMARK SMILES IDX 44 77 45 78 53 79 46 80 52 81 47 82 48 83 49 84 50 85 51 86
REMARK SMILES IDX 74 87 75 88 83 89 76 90 82 91 77 92 78 93 79 94 80 95 81 96
REMARK SMILES IDX 60 97 61 98 69 99 62 100 68 101 63 102 64 103 65 104 66 105
REMARK SMILES IDX 67 106
REMARK H PARENT 16 10 23 38 88 62 58 73
REMARK Flexibility Score: inf
ROOT
ATOM      1  C   UNL     1      -5.128   7.773   4.352  1.00  0.00     0.202 C 
ENDROOT
BRANCH   1   2
ATOM      2  C   UNL     1      -6.433   8.370   3.895  1.00  0.00     0.261 C 
BRANCH   2   3
ATOM      3  O   UNL     1      -7.371   7.334   3.651  1.00  0.00    -0.462 OA
BRANCH   3   4
ATOM      4  C   UNL     1      -7.931   7.404   2.429  1.00  0.00     0.329 C 
ATOM      5  O   UNL     1      -8.179   8.450   1.845  1.00  0.00    -0.250 OA
BRANCH   4   6
ATOM      6  C   UNL     1      -8.332   6.020   1.927  1.00  0.00     0.198 C 
BRANCH   6   7
ATOM      7  N   UNL     1      -7.797   4.850   2.635  1.00  0.00    -0.335 N 
ATOM      8  C   UNL     1      -6.845   3.956   2.254  1.00  0.00     0.293 C 
ATOM      9  O   UNL     1      -6.728   2.895   2.856  1.00  0.00    -0.265 OA
ATOM     10  H   UNL     1      -8.189   4.686   3.523  1.00  0.00     0.164 HD
BRANCH   8  11
ATOM     11  C   UNL     1      -5.906   4.356   1.125  1.00  0.00     0.252 C 
ATOM     12  O   UNL     1      -5.836   5.548   0.836  1.00  0.00    -0.283 OA
BRANCH  11  13
ATOM     13  C   UNL     1      -5.149   3.365   0.389  1.00  0.00     0.054 A 
ATOM     14  N   UNL     1      -4.127   1.511  -0.262  1.00  0.00    -0.240 N 
ATOM     15  C   UNL     1      -4.910   2.048   0.723  1.00  0.00     0.117 A 
ATOM     16  C   UNL     1      -3.852   2.438  -1.248  1.00  0.00     0.065 A 
ATOM     17  C   UNL     1      -4.474   3.621  -0.840  1.00  0.00     0.012 A 
ATOM     18  C   UNL     1      -3.093   2.393  -2.429  1.00  0.00     0.028 A 
ATOM     19  C   UNL     1      -4.345   4.783  -1.627  1.00  0.00     0.011 A 
ATOM     20  C   UNL     1      -2.962   3.571  -3.177  1.00  0.00     0.002 A 
ATOM     21  C   UNL     1      -3.580   4.752  -2.785  1.00  0.00     0.001 A 
BRANCH  14  22
ATOM     22  S   UNL     1      -3.528  -0.075  -0.202  1.00  0.00     0.268 S 
ATOM     23  O   UNL     1      -3.811  -0.636  -1.510  1.00  0.00    -0.201 OA
ATOM     24  O   UNL     1      -4.056  -0.669   1.012  1.00  0.00    -0.201 OA
BRANCH  22  25
ATOM     25  C   UNL     1      -1.770   0.012  -0.022  1.00  0.00     0.088 A 
ATOM     26  C   UNL     1       2.522  -0.031   0.005  1.00  0.00     0.044 C 
ATOM     27  C   UNL     1       1.023  -0.012   0.025  1.00  0.00    -0.051 A 
ATOM     28  C   UNL     1       0.310  -1.216  -0.017  1.00  0.00     0.005 A 
ATOM     29  C   UNL     1       0.324   1.199   0.088  1.00  0.00     0.005 A 
ATOM     30  C   UNL     1      -1.083  -1.206  -0.046  1.00  0.00     0.022 A 
ATOM     31  C   UNL     1      -1.072   1.215   0.085  1.00  0.00     0.022 A 
ENDBRANCH  22  25
ENDBRANCH  14  22
ENDBRANCH  11  13
ENDBRANCH   8  11
ENDBRANCH   6   7
BRANCH   6  32
ATOM     32  C   UNL     1      -9.854   5.905   1.902  1.00  0.00     0.092 C 
BRANCH  32  33
ATOM     33  C   UNL     1     -10.410   5.059   3.006  1.00  0.00     0.037 A 
ATOM     34  C   UNL     1     -10.713   3.716   3.104  1.00  0.00     0.134 A 
ATOM     35  N   UNL     1     -10.511   5.476   4.300  1.00  0.00    -0.348 N 
ATOM     36  N   UNL     1     -11.292   3.430   4.314  1.00  0.00    -0.245 NA
ATOM     37  C   UNL     1     -11.247   4.557   4.980  1.00  0.00     0.196 A 
ATOM     38  H   UNL     1     -10.120   6.297   4.676  1.00  0.00     0.167 HD
ENDBRANCH  32  33
ENDBRANCH   6  32
ENDBRANCH   4   6
ENDBRANCH   3   4
ENDBRANCH   2   3
ENDBRANCH   1   2
BRANCH   1  39
ATOM     39  O   UNL     1      -4.931   6.402   3.980  1.00  0.00    -0.374 OA
BRANCH  39  40
ATOM     40  C   UNL     1      -5.489   5.227   4.692  1.00  0.00     0.202 C 
BRANCH  40  41
ATOM     41  C   UNL     1      -5.426   4.375   6.331  1.00  0.00     0.261 C 
BRANCH  41  42
ATOM     42  O   UNL     1      -5.831   5.056   8.034  1.00  0.00    -0.460 OA
BRANCH  42  43
ATOM     43  C   UNL     1      -5.848   6.448   9.036  1.00  0.00     0.338 C 
ATOM     44  O   UNL     1      -6.260   6.133  10.170  1.00  0.00    -0.246 OA
BRANCH  43  45
ATOM     45  C   UNL     1      -5.713   8.320   8.820  1.00  0.00     0.060 A 
ATOM     46  C   UNL     1      -6.658   9.180   9.405  1.00  0.00     0.016 A 
ATOM     47  C   UNL     1      -5.160   9.205   7.785  1.00  0.00     0.016 A 
ATOM     48  C   UNL     1      -7.366  10.271   8.604  1.00  0.00     0.010 A 
ATOM     49  C   UNL     1      -5.839  10.208   6.989  1.00  0.00     0.010 A 
ATOM     50  C   UNL     1      -7.164  10.468   7.210  1.00  0.00    -0.014 A 
BRANCH  50  51
ATOM     51  C   UNL     1      -8.177  10.608   5.908  1.00  0.00     0.031 A 
ATOM     52  C   UNL     1      -7.821  11.831   5.133  1.00  0.00     0.074 A 
ATOM     53  C   UNL     1      -9.063   9.702   5.268  1.00  0.00     0.049 A 
ATOM     54  N   UNL     1      -8.387  12.990   5.223  1.00  0.00    -0.248 NA
ATOM     55  C   UNL     1      -6.564  11.895   4.346  1.00  0.00     0.031 C 
ATOM     56  C   UNL     1     -10.215   9.730   4.295  1.00  0.00     0.029 A 
ATOM     57  N   UNL     1      -9.249   8.351   5.529  1.00  0.00    -0.354 N 
ATOM     58  C   UNL     1      -7.842  13.725   4.174  1.00  0.00     0.074 A 
ATOM     59  C   UNL     1      -6.524  13.183   3.990  1.00  0.00     0.031 C 
ATOM     60  C   UNL     1     -11.190   8.842   4.680  1.00  0.00     0.029 A 
ATOM     61  C   UNL     1     -10.603   8.067   5.747  1.00  0.00     0.049 A 
ATOM     62  H   UNL     1      -8.526   7.683   5.557  1.00  0.00     0.167 HD
ATOM     63  C   UNL     1      -8.630  14.137   3.129  1.00  0.00     0.031 A 
ATOM     64  C   UNL     1     -10.970   7.819   7.038  1.00  0.00     0.031 A 
ATOM     65  C   UNL     1      -9.937  13.473   3.193  1.00  0.00     0.049 A 
ATOM     66  C   UNL     1     -11.634   9.266   7.337  1.00  0.00     0.074 A 
ATOM     67  C   UNL     1     -10.603  12.574   2.382  1.00  0.00     0.029 A 
ATOM     68  N   UNL     1     -10.610  13.454   4.406  1.00  0.00    -0.354 N 
ATOM     69  N   UNL     1     -11.199  10.423   6.845  1.00  0.00    -0.248 NA
ATOM     70  C   UNL     1     -13.040   9.381   7.755  1.00  0.00     0.031 C 
ATOM     71  C   UNL     1     -11.703  12.047   3.145  1.00  0.00     0.029 A 
ATOM     72  C   UNL     1     -11.583  12.478   4.469  1.00  0.00     0.049 A 
ATOM     73  H   UNL     1     -10.413  14.073   5.146  1.00  0.00     0.167 HD
ATOM     74  C   UNL     1     -12.276  11.272   6.584  1.00  0.00     0.074 A 
ATOM     75  C   UNL     1     -13.388  10.571   7.229  1.00  0.00     0.031 C 
ATOM     76  C   UNL     1     -12.377  12.348   5.704  1.00  0.00     0.031 A 
BRANCH  63  77
ATOM     77  C   UNL     1      -8.160  14.950   1.922  1.00  0.00    -0.014 A 
ATOM     78  C   UNL     1      -9.103  15.272   0.923  1.00  0.00     0.010 A 
ATOM     79  C   UNL     1      -6.882  15.538   1.765  1.00  0.00     0.010 A 
ATOM     80  C   UNL     1      -8.810  16.128  -0.152  1.00  0.00     0.020 A 
ATOM     81  C   UNL     1      -6.568  16.390   0.679  1.00  0.00     0.020 A 
ATOM     82  C   UNL     1      -7.545  16.693  -0.266  1.00  0.00     0.054 A 
BRANCH  82  83
ATOM     83  S   UNL     1      -7.239  17.863  -1.623  1.00  0.00     0.124 S 
ATOM     84  O   UNL     1      -7.492  17.045  -2.807  1.00  0.00    -0.237 OA
ATOM     85  O   UNL     1      -8.223  18.911  -1.363  1.00  0.00    -0.237 OA
ATOM     86  O   UNL     1      -5.846  18.263  -1.435  1.00  0.00    -0.744 OA
ENDBRANCH  82  83
ENDBRANCH  63  77
BRANCH  64  87
ATOM     87  C   UNL     1      -9.690   7.009   7.651  1.00  0.00    -0.014 A 
ATOM     88  C   UNL     1      -9.169   5.782   7.203  1.00  0.00     0.010 A 
ATOM     89  C   UNL     1      -8.599   7.794   7.817  1.00  0.00     0.010 A 
ATOM     90  C   UNL     1      -7.682   5.538   6.774  1.00  0.00     0.020 A 
ATOM     91  C   UNL     1      -7.241   7.571   7.086  1.00  0.00     0.020 A 
ATOM     92  C   UNL     1      -6.511   6.506   6.659  1.00  0.00     0.054 A 
BRANCH  92  93
ATOM     93  S   UNL     1      -4.160   6.361   6.995  1.00  0.00     0.124 S 
ATOM     94  O   UNL     1      -3.753   5.208   7.817  1.00  0.00    -0.237 OA
ATOM     95  O   UNL     1      -3.500   6.241   5.697  1.00  0.00    -0.237 OA
ATOM     96  O   UNL     1      -3.632   7.484   7.712  1.00  0.00    -0.744 OA
ENDBRANCH  92  93
ENDBRANCH  64  87
BRANCH  76  97
ATOM     97  C   UNL     1     -13.264  13.562   6.018  1.00  0.00    -0.014 A 
ATOM     98  C   UNL     1     -14.201  13.583   7.050  1.00  0.00     0.010 A 
ATOM     99  C   UNL     1     -13.060  14.807   5.347  1.00  0.00     0.010 A 
ATOM    100  C   UNL     1     -14.901  14.738   7.387  1.00  0.00     0.020 A 
ATOM    101  C   UNL     1     -13.698  15.992   5.724  1.00  0.00     0.020 A 
ATOM    102  C   UNL     1     -14.633  15.938   6.741  1.00  0.00     0.054 A 
BRANCH 102 103
ATOM    103  S   UNL     1     -15.533  17.392   7.294  1.00  0.00     0.124 S 
ATOM    104  O   UNL     1     -16.910  17.025   6.973  1.00  0.00    -0.237 OA
ATOM    105  O   UNL     1     -15.210  17.426   8.719  1.00  0.00    -0.237 OA
ATOM    106  O   UNL     1     -14.971  18.480   6.500  1.00  0.00    -0.744 OA
ENDBRANCH 102 103
ENDBRANCH  76  97
ENDBRANCH  50  51
ENDBRANCH  43  45
ENDBRANCH  42  43
ENDBRANCH  41  42
ENDBRANCH  40  41
ENDBRANCH  39  40
ENDBRANCH   1  39
TORSDOF 24
