REMARK SMILES Cc1ccc(C(=O)OCCOCCOC(=O)c2ccc(-c3c4nc(c(-c5ccc(S(=O)(=O)[O-])cc5)c5ccc([nH]5)c(-c5ccc(S(=O)(=O)[O-])cc5)c5nc(c(-c6ccc(S(=O)(=O)[O-])cc6)c6ccc3[nH]6)C=C5)C=C4)cc2)cc1NC(=O)c1nn(C)c(=O)c2ccccc12
REMARK SMILES IDX 12 1 11 2 10 3 9 4 8 5 6 6 7 7 5 8 1 9 2 10 3 11 78 12 4 13
REMARK SMILES IDX 77 14 79 15 80 16 81 18 82 19 83 20 93 21 84 22 88 23 92 24
REMARK SMILES IDX 85 25 86 26 89 27 91 28 87 29 90 30 13 31 14 32 15 33 16 34
REMARK SMILES IDX 17 35 18 36 76 37 19 38 75 39 20 40 21 41 22 42 69 43 23 44
REMARK SMILES IDX 74 45 68 46 70 47 24 48 73 49 67 50 66 51 25 53 55 54 36 55
REMARK SMILES IDX 54 56 37 57 40 58 53 59 71 60 38 61 39 62 52 64 72 65 41 66
REMARK SMILES IDX 26 67 27 68 35 69 28 70 34 71 29 72 30 73 31 74 32 75 33 76
REMARK SMILES IDX 56 77 57 78 65 79 58 80 64 81 59 82 60 83 61 84 62 85 63 86
REMARK SMILES IDX 42 87 43 88 51 89 44 90 50 91 45 92 46 93 47 94 48 95 49 96
REMARK H PARENT 79 17 70 52 40 63
REMARK Flexibility Score: inf
ROOT
ATOM      1  C   UNL     1      -3.583  -1.232  -3.680  1.00  0.00     0.202 C 
ENDROOT
BRANCH   1   2
ATOM      2  O   UNL     1      -3.793  -0.568  -2.455  1.00  0.00    -0.374 OA
BRANCH   2   3
ATOM      3  C   UNL     1      -3.909   0.842  -2.547  1.00  0.00     0.202 C 
BRANCH   3   4
ATOM      4  C   UNL     1      -4.133   1.318  -1.153  1.00  0.00     0.261 C 
BRANCH   4   5
ATOM      5  O   UNL     1      -2.960   1.177  -0.342  1.00  0.00    -0.460 OA
BRANCH   5   6
ATOM      6  C   UNL     1      -2.626   0.008   0.297  1.00  0.00     0.338 C 
ATOM      7  O   UNL     1      -3.162  -1.050   0.312  1.00  0.00    -0.246 OA
BRANCH   6   8
ATOM      8  C   UNL     1      -1.290   0.340   0.859  1.00  0.00     0.062 A 
ATOM      9  C   UNL     1       2.569   1.891   0.068  1.00  0.00     0.046 C 
ATOM     10  C   UNL     1       1.199   1.431   0.474  1.00  0.00    -0.027 A 
ATOM     11  C   UNL     1       0.999   0.026   0.375  1.00  0.00     0.006 A 
ATOM     12  C   UNL     1       0.149   2.277   0.915  1.00  0.00     0.045 A 
ATOM     13  C   UNL     1      -0.262  -0.524   0.528  1.00  0.00     0.016 A 
ATOM     14  C   UNL     1      -1.056   1.672   1.242  1.00  0.00     0.042 A 
BRANCH  12  15
ATOM     15  N   UNL     1       0.145   3.702   0.739  1.00  0.00    -0.320 N 
ATOM     16  C   UNL     1      -0.894   4.570   1.156  1.00  0.00     0.276 C 
ATOM     17  H   UNL     1       0.924   4.107   0.293  1.00  0.00     0.170 HD
ATOM     18  O   UNL     1      -1.424   4.573   2.256  1.00  0.00    -0.267 OA
BRANCH  16  19
ATOM     19  C   UNL     1      -1.478   5.432   0.002  1.00  0.00     0.157 A 
ATOM     20  N   UNL     1      -1.016   5.043  -1.153  1.00  0.00    -0.164 NA
ATOM     21  C   UNL     1      -2.637   6.395   0.113  1.00  0.00     0.020 A 
ATOM     22  N   UNL     1      -1.713   5.387  -2.276  1.00  0.00    -0.232 N 
ATOM     23  C   UNL     1      -3.139   6.897  -1.100  1.00  0.00     0.051 A 
ATOM     24  C   UNL     1      -3.362   6.691   1.276  1.00  0.00     0.011 A 
ATOM     25  C   UNL     1      -2.281   4.231  -2.949  1.00  0.00     0.178 C 
ATOM     26  C   UNL     1      -2.476   6.541  -2.361  1.00  0.00     0.274 A 
ATOM     27  C   UNL     1      -4.384   7.546  -1.189  1.00  0.00     0.014 A 
ATOM     28  C   UNL     1      -4.616   7.344   1.189  1.00  0.00     0.001 A 
ATOM     29  O   UNL     1      -2.720   7.136  -3.404  1.00  0.00    -0.267 OA
ATOM     30  C   UNL     1      -5.141   7.737  -0.043  1.00  0.00     0.001 A 
ENDBRANCH  16  19
ENDBRANCH  12  15
ENDBRANCH   6   8
ENDBRANCH   5   6
ENDBRANCH   4   5
ENDBRANCH   3   4
ENDBRANCH   2   3
ENDBRANCH   1   2
BRANCH   1  31
ATOM     31  C   UNL     1      -4.686  -0.967  -4.710  1.00  0.00     0.261 C 
BRANCH  31  32
ATOM     32  O   UNL     1      -5.923  -1.553  -4.255  1.00  0.00    -0.460 OA
BRANCH  32  33
ATOM     33  C   UNL     1      -6.887  -0.669  -3.861  1.00  0.00     0.338 C 
ATOM     34  O   UNL     1      -7.484   0.064  -4.627  1.00  0.00    -0.246 OA
BRANCH  33  35
ATOM     35  C   UNL     1      -7.061  -0.732  -2.377  1.00  0.00     0.060 A 
ATOM     36  C   UNL     1      -7.699   0.303  -1.671  1.00  0.00     0.016 A 
ATOM     37  C   UNL     1      -6.414  -1.745  -1.669  1.00  0.00     0.016 A 
ATOM     38  C   UNL     1      -7.579   0.386  -0.271  1.00  0.00     0.010 A 
ATOM     39  C   UNL     1      -6.240  -1.623  -0.304  1.00  0.00     0.010 A 
ATOM     40  C   UNL     1      -6.792  -0.545   0.406  1.00  0.00    -0.014 A 
BRANCH  40  41
ATOM     41  C   UNL     1      -6.361  -0.472   1.807  1.00  0.00     0.031 A 
ATOM     42  C   UNL     1      -6.782  -1.514   2.753  1.00  0.00     0.074 A 
ATOM     43  C   UNL     1      -5.333   0.328   2.167  1.00  0.00     0.049 A 
ATOM     44  N   UNL     1      -6.568  -1.466   4.024  1.00  0.00    -0.248 NA
ATOM     45  C   UNL     1      -7.530  -2.701   2.346  1.00  0.00     0.031 C 
ATOM     46  C   UNL     1      -4.384   0.207   3.275  1.00  0.00     0.029 A 
ATOM     47  N   UNL     1      -5.016   1.563   1.634  1.00  0.00    -0.354 N 
ATOM     48  C   UNL     1      -6.687  -2.758   4.468  1.00  0.00     0.074 A 
ATOM     49  C   UNL     1      -7.502  -3.413   3.476  1.00  0.00     0.031 C 
ATOM     50  C   UNL     1      -3.849   1.414   3.534  1.00  0.00     0.029 A 
ATOM     51  C   UNL     1      -4.551   2.354   2.680  1.00  0.00     0.049 A 
ATOM     52  H   UNL     1      -5.102   1.833   0.691  1.00  0.00     0.167 HD
ATOM     53  C   UNL     1      -5.874  -3.176   5.478  1.00  0.00     0.031 A 
ATOM     54  C   UNL     1      -5.225   3.484   3.013  1.00  0.00     0.031 A 
ATOM     55  C   UNL     1      -5.151  -2.058   6.103  1.00  0.00     0.049 A 
ATOM     56  C   UNL     1      -5.517   3.411   4.465  1.00  0.00     0.074 A 
ATOM     57  C   UNL     1      -3.812  -1.718   6.207  1.00  0.00     0.029 A 
ATOM     58  N   UNL     1      -5.868  -0.940   6.526  1.00  0.00    -0.354 N 
ATOM     59  N   UNL     1      -5.848   2.286   5.039  1.00  0.00    -0.248 NA
ATOM     60  C   UNL     1      -5.218   4.488   5.404  1.00  0.00     0.031 C 
ATOM     61  C   UNL     1      -3.738  -0.355   6.619  1.00  0.00     0.029 A 
ATOM     62  C   UNL     1      -5.030   0.122   6.784  1.00  0.00     0.049 A 
ATOM     63  H   UNL     1      -6.847  -0.913   6.628  1.00  0.00     0.167 HD
ATOM     64  C   UNL     1      -5.632   2.428   6.374  1.00  0.00     0.074 A 
ATOM     65  C   UNL     1      -5.325   3.836   6.575  1.00  0.00     0.031 C 
ATOM     66  C   UNL     1      -5.574   1.387   7.245  1.00  0.00     0.031 A 
BRANCH  53  67
ATOM     67  C   UNL     1      -5.535  -4.631   5.741  1.00  0.00    -0.014 A 
ATOM     68  C   UNL     1      -4.587  -4.953   6.734  1.00  0.00     0.010 A 
ATOM     69  C   UNL     1      -6.047  -5.722   5.010  1.00  0.00     0.010 A 
ATOM     70  C   UNL     1      -4.181  -6.274   6.979  1.00  0.00     0.020 A 
ATOM     71  C   UNL     1      -5.675  -7.049   5.260  1.00  0.00     0.020 A 
ATOM     72  C   UNL     1      -4.739  -7.318   6.246  1.00  0.00     0.054 A 
BRANCH  72  73
ATOM     73  S   UNL     1      -4.248  -9.021   6.603  1.00  0.00     0.124 S 
ATOM     74  O   UNL     1      -2.827  -9.015   6.264  1.00  0.00    -0.237 OA
ATOM     75  O   UNL     1      -4.559  -9.146   8.024  1.00  0.00    -0.237 OA
ATOM     76  O   UNL     1      -5.091  -9.820   5.715  1.00  0.00    -0.744 OA
ENDBRANCH  72  73
ENDBRANCH  53  67
BRANCH  54  77
ATOM     77  C   UNL     1      -6.014   4.022   1.865  1.00  0.00    -0.014 A 
ATOM     78  C   UNL     1      -5.238   4.304   0.719  1.00  0.00     0.010 A 
ATOM     79  C   UNL     1      -7.399   3.913   1.681  1.00  0.00     0.010 A 
ATOM     80  C   UNL     1      -5.780   4.459  -0.548  1.00  0.00     0.020 A 
ATOM     81  C   UNL     1      -7.962   4.040   0.383  1.00  0.00     0.020 A 
ATOM     82  C   UNL     1      -7.140   4.298  -0.721  1.00  0.00     0.054 A 
BRANCH  82  83
ATOM     83  S   UNL     1      -7.707   4.226  -2.441  1.00  0.00     0.124 S 
ATOM     84  O   UNL     1      -7.696   5.636  -2.817  1.00  0.00    -0.237 OA
ATOM     85  O   UNL     1      -6.665   3.405  -3.066  1.00  0.00    -0.237 OA
ATOM     86  O   UNL     1      -9.019   3.599  -2.341  1.00  0.00    -0.744 OA
ENDBRANCH  82  83
ENDBRANCH  54  77
BRANCH  66  87
ATOM     87  C   UNL     1      -6.125   1.518   8.629  1.00  0.00    -0.014 A 
ATOM     88  C   UNL     1      -6.928   2.607   9.012  1.00  0.00     0.010 A 
ATOM     89  C   UNL     1      -6.038   0.421   9.511  1.00  0.00     0.010 A 
ATOM     90  C   UNL     1      -7.569   2.630  10.246  1.00  0.00     0.020 A 
ATOM     91  C   UNL     1      -6.717   0.414  10.728  1.00  0.00     0.020 A 
ATOM     92  C   UNL     1      -7.456   1.534  11.098  1.00  0.00     0.054 A 
BRANCH  92  93
ATOM     93  S   UNL     1      -8.318   1.587  12.681  1.00  0.00     0.124 S 
ATOM     94  O   UNL     1      -7.446   2.464  13.459  1.00  0.00    -0.237 OA
ATOM     95  O   UNL     1      -9.616   2.154  12.322  1.00  0.00    -0.237 OA
ATOM     96  O   UNL     1      -8.347   0.192  13.107  1.00  0.00    -0.744 OA
ENDBRANCH  92  93
ENDBRANCH  66  87
ENDBRANCH  40  41
ENDBRANCH  33  35
ENDBRANCH  32  33
ENDBRANCH  31  32
ENDBRANCH   1  31
TORSDOF 19
