REMARK SMILES O=C(OCCOCCOC(=O)[C@@H]1CC[C@@H](CS(=O)(=O)c2cccc(F)c2)O1)c1ccc(-c2c3nc(c(-c4ccc(S(=O)(=O)[O-])cc4)c4ccc([nH]4)c(-c4ccc(S(=O)(=O)[O-])cc4)c4nc(c(-c5ccc(S(=O)(=O)[O-])cc5)c5ccc2[nH]5)C=C4)C=C3)cc1
REMARK SMILES IDX 6 1 5 2 4 3 3 4 2 5 1 6 28 7 29 8 87 9 30 10 86 11 31 12
REMARK SMILES IDX 32 13 33 14 80 15 34 16 85 17 79 18 81 19 35 20 84 21 78 22
REMARK SMILES IDX 77 23 36 25 66 26 47 27 65 28 48 29 51 30 64 31 82 32 49 33
REMARK SMILES IDX 50 34 63 36 83 37 52 38 37 39 38 40 46 41 39 42 45 43 40 44
REMARK SMILES IDX 41 45 42 46 43 47 44 48 67 49 68 50 76 51 69 52 75 53 70 54
REMARK SMILES IDX 71 55 72 56 73 57 74 58 53 59 54 60 62 61 55 62 61 63 56 64
REMARK SMILES IDX 57 65 58 66 59 67 60 68 7 69 8 70 9 71 10 72 11 73 12 74
REMARK SMILES IDX 13 75 27 76 14 77 15 78 16 79 17 80 18 81 19 82 20 83 21 84
REMARK SMILES IDX 26 85 22 86 24 87 23 88 25 89
REMARK H PARENT 81 24 51 35
REMARK Flexibility Score: inf
ROOT
ATOM      1  O   UNL     1       3.977  -1.181  -1.240  1.00  0.00    -0.374 OA
ENDROOT
BRANCH   1   2
ATOM      2  C   UNL     1       4.320  -1.633   0.071  1.00  0.00     0.202 C 
BRANCH   2   3
ATOM      3  C   UNL     1       4.119  -0.629   1.208  1.00  0.00     0.261 C 
BRANCH   3   4
ATOM      4  O   UNL     1       2.735  -0.282   1.323  1.00  0.00    -0.460 OA
BRANCH   4   5
ATOM      5  C   UNL     1       2.102   0.777   0.770  1.00  0.00     0.338 C 
ATOM      6  O   UNL     1       0.880   0.850   0.880  1.00  0.00    -0.246 OA
BRANCH   5   7
ATOM      7  C   UNL     1       2.812   1.879   0.053  1.00  0.00     0.060 A 
ATOM      8  C   UNL     1       3.994   1.737  -0.681  1.00  0.00     0.016 A 
ATOM      9  C   UNL     1       2.184   3.135   0.053  1.00  0.00     0.016 A 
ATOM     10  C   UNL     1       4.573   2.800  -1.348  1.00  0.00     0.010 A 
ATOM     11  C   UNL     1       2.746   4.211  -0.635  1.00  0.00     0.010 A 
ATOM     12  C   UNL     1       3.954   4.040  -1.318  1.00  0.00    -0.014 A 
BRANCH  12  13
ATOM     13  C   UNL     1       4.693   5.174  -1.881  1.00  0.00     0.031 A 
ATOM     14  C   UNL     1       5.409   6.071  -0.925  1.00  0.00     0.074 A 
ATOM     15  C   UNL     1       4.809   5.294  -3.213  1.00  0.00     0.049 A 
ATOM     16  N   UNL     1       6.056   7.177  -1.159  1.00  0.00    -0.248 NA
ATOM     17  C   UNL     1       5.405   5.656   0.490  1.00  0.00     0.031 C 
ATOM     18  C   UNL     1       4.268   4.352  -4.197  1.00  0.00     0.029 A 
ATOM     19  N   UNL     1       5.436   6.244  -3.968  1.00  0.00    -0.354 N 
ATOM     20  C   UNL     1       6.496   7.615   0.083  1.00  0.00     0.074 A 
ATOM     21  C   UNL     1       6.051   6.657   1.067  1.00  0.00     0.031 C 
ATOM     22  C   UNL     1       4.587   4.777  -5.430  1.00  0.00     0.029 A 
ATOM     23  C   UNL     1       5.285   6.052  -5.320  1.00  0.00     0.049 A 
ATOM     24  H   UNL     1       5.946   6.993  -3.582  1.00  0.00     0.167 HD
ATOM     25  C   UNL     1       7.193   8.739   0.363  1.00  0.00     0.031 A 
ATOM     26  C   UNL     1       5.631   6.855  -6.343  1.00  0.00     0.031 A 
ATOM     27  C   UNL     1       7.585   9.675  -0.653  1.00  0.00     0.049 A 
ATOM     28  C   UNL     1       6.307   8.155  -6.002  1.00  0.00     0.074 A 
ATOM     29  C   UNL     1       8.229  10.887  -0.514  1.00  0.00     0.029 A 
ATOM     30  N   UNL     1       7.355   9.490  -2.013  1.00  0.00    -0.354 N 
ATOM     31  N   UNL     1       6.651   8.616  -4.819  1.00  0.00    -0.248 NA
ATOM     32  C   UNL     1       6.634   9.047  -7.118  1.00  0.00     0.031 C 
ATOM     33  C   UNL     1       8.337  11.462  -1.786  1.00  0.00     0.029 A 
ATOM     34  C   UNL     1       7.828  10.574  -2.725  1.00  0.00     0.049 A 
ATOM     35  H   UNL     1       6.919   8.701  -2.409  1.00  0.00     0.167 HD
ATOM     36  C   UNL     1       7.260   9.841  -5.050  1.00  0.00     0.074 A 
ATOM     37  C   UNL     1       7.242  10.044  -6.487  1.00  0.00     0.031 C 
ATOM     38  C   UNL     1       7.790  10.720  -4.162  1.00  0.00     0.031 A 
BRANCH  25  39
ATOM     39  C   UNL     1       7.452   9.038   1.815  1.00  0.00    -0.014 A 
ATOM     40  C   UNL     1       8.331   8.258   2.589  1.00  0.00     0.010 A 
ATOM     41  C   UNL     1       6.745  10.085   2.433  1.00  0.00     0.010 A 
ATOM     42  C   UNL     1       8.450   8.481   3.965  1.00  0.00     0.020 A 
ATOM     43  C   UNL     1       6.885  10.332   3.802  1.00  0.00     0.020 A 
ATOM     44  C   UNL     1       7.717   9.511   4.564  1.00  0.00     0.054 A 
BRANCH  44  45
ATOM     45  S   UNL     1       7.867   9.761   6.354  1.00  0.00     0.124 S 
ATOM     46  O   UNL     1       7.136   8.611   6.880  1.00  0.00    -0.237 OA
ATOM     47  O   UNL     1       9.312   9.734   6.561  1.00  0.00    -0.237 OA
ATOM     48  O   UNL     1       7.231  11.057   6.578  1.00  0.00    -0.744 OA
ENDBRANCH  44  45
ENDBRANCH  25  39
BRANCH  26  49
ATOM     49  C   UNL     1       5.287   6.473  -7.739  1.00  0.00    -0.014 A 
ATOM     50  C   UNL     1       6.287   6.154  -8.673  1.00  0.00     0.010 A 
ATOM     51  C   UNL     1       3.937   6.378  -8.132  1.00  0.00     0.010 A 
ATOM     52  C   UNL     1       5.944   5.753  -9.970  1.00  0.00     0.020 A 
ATOM     53  C   UNL     1       3.589   5.950  -9.416  1.00  0.00     0.020 A 
ATOM     54  C   UNL     1       4.597   5.647 -10.332  1.00  0.00     0.054 A 
BRANCH  54  55
ATOM     55  S   UNL     1       4.178   5.064 -11.999  1.00  0.00     0.124 S 
ATOM     56  O   UNL     1       4.580   6.197 -12.827  1.00  0.00    -0.237 OA
ATOM     57  O   UNL     1       5.000   3.863 -12.127  1.00  0.00    -0.237 OA
ATOM     58  O   UNL     1       2.739   4.822 -11.926  1.00  0.00    -0.744 OA
ENDBRANCH  54  55
ENDBRANCH  26  49
BRANCH  38  59
ATOM     59  C   UNL     1       8.444  11.949  -4.726  1.00  0.00    -0.014 A 
ATOM     60  C   UNL     1       7.683  13.010  -5.243  1.00  0.00     0.010 A 
ATOM     61  C   UNL     1       9.842  12.073  -4.641  1.00  0.00     0.010 A 
ATOM     62  C   UNL     1       8.316  14.174  -5.681  1.00  0.00     0.020 A 
ATOM     63  C   UNL     1      10.474  13.246  -5.048  1.00  0.00     0.020 A 
ATOM     64  C   UNL     1       9.707  14.287  -5.574  1.00  0.00     0.054 A 
BRANCH  64  65
ATOM     65  S   UNL     1      10.496  15.839  -6.075  1.00  0.00     0.124 S 
ATOM     66  O   UNL     1      10.397  15.773  -7.531  1.00  0.00    -0.237 OA
ATOM     67  O   UNL     1       9.655  16.846  -5.432  1.00  0.00    -0.237 OA
ATOM     68  O   UNL     1      11.850  15.730  -5.537  1.00  0.00    -0.744 OA
ENDBRANCH  64  65
ENDBRANCH  38  59
ENDBRANCH  12  13
ENDBRANCH   5   7
ENDBRANCH   4   5
ENDBRANCH   3   4
ENDBRANCH   2   3
ENDBRANCH   1   2
BRANCH   1  69
ATOM     69  C   UNL     1       2.599  -1.318  -1.624  1.00  0.00     0.202 C 
BRANCH  69  70
ATOM     70  C   UNL     1       2.504  -2.079  -2.948  1.00  0.00     0.261 C 
BRANCH  70  71
ATOM     71  O   UNL     1       3.113  -3.362  -2.758  1.00  0.00    -0.461 OA
BRANCH  71  72
ATOM     72  C   UNL     1       4.460  -3.386  -2.984  1.00  0.00     0.335 C 
ATOM     73  O   UNL     1       5.060  -2.697  -3.798  1.00  0.00    -0.249 OA
BRANCH  72  74
ATOM     74  C   UNL     1       5.137  -4.277  -1.942  1.00  0.00     0.228 C 
ATOM     75  C   UNL     1       6.410  -4.949  -2.416  1.00  0.00     0.047 C 
ATOM     76  O   UNL     1       4.278  -5.298  -1.429  1.00  0.00    -0.362 OA
ATOM     77  C   UNL     1       6.301  -6.338  -1.827  1.00  0.00     0.036 C 
ATOM     78  C   UNL     1       4.798  -6.569  -1.803  1.00  0.00     0.135 C 
BRANCH  78  79
ATOM     79  C   UNL     1       4.366  -7.596  -0.782  1.00  0.00     0.174 C 
BRANCH  79  80
ATOM     80  S   UNL     1       2.604  -7.789  -0.673  1.00  0.00     0.181 S 
ATOM     81  O   UNL     1       2.097  -7.941  -2.027  1.00  0.00    -0.224 OA
ATOM     82  O   UNL     1       2.355  -8.826   0.312  1.00  0.00    -0.224 OA
BRANCH  80  83
ATOM     83  C   UNL     1       1.884  -6.309   0.011  1.00  0.00     0.070 A 
ATOM     84  C   UNL     1       2.554  -5.552   0.980  1.00  0.00     0.020 A 
ATOM     85  C   UNL     1       0.613  -5.925  -0.427  1.00  0.00     0.059 A 
ATOM     86  C   UNL     1       1.958  -4.395   1.493  1.00  0.00     0.004 A 
ATOM     87  C   UNL     1       0.031  -4.780   0.104  1.00  0.00     0.124 A 
ATOM     88  C   UNL     1       0.694  -4.006   1.051  1.00  0.00     0.039 A 
ATOM     89  F   UNL     1      -1.195  -4.417  -0.297  1.00  0.00    -0.207 F 
ENDBRANCH  80  83
ENDBRANCH  79  80
ENDBRANCH  78  79
ENDBRANCH  72  74
ENDBRANCH  71  72
ENDBRANCH  70  71
ENDBRANCH  69  70
ENDBRANCH   1  69
TORSDOF 20
