REMARK SMILES O=C(OCCOCCOC(=O)c1ccccc1Nc1cccc(S(F)(F)(F)(F)F)c1)c1ccc(-c2c3nc(c(-c4ccc(S(=O)(=O)[O-])cc4)c4ccc([nH]4)c(-c4ccc(S(=O)(=O)[O-])cc4)c4nc(c(-c5ccc(S(=O)(=O)[O-])cc5)c5ccc2[nH]5)C=C4)C=C3)cc1
REMARK SMILES IDX 6 1 5 2 4 3 3 4 2 5 1 6 31 7 32 8 90 9 33 10 89 11 34 12
REMARK SMILES IDX 35 13 36 14 83 15 37 16 88 17 82 18 84 19 38 20 87 21 81 22
REMARK SMILES IDX 80 23 39 25 69 26 50 27 68 28 51 29 54 30 67 31 85 32 52 33
REMARK SMILES IDX 53 34 66 36 86 37 55 38 40 39 41 40 49 41 42 42 48 43 43 44
REMARK SMILES IDX 44 45 45 46 46 47 47 48 70 49 71 50 79 51 72 52 78 53 73 54
REMARK SMILES IDX 74 55 75 56 76 57 77 58 56 59 57 60 65 61 58 62 64 63 59 64
REMARK SMILES IDX 60 65 61 66 62 67 63 68 7 69 8 70 9 71 10 72 11 73 12 74
REMARK SMILES IDX 13 75 17 76 14 77 16 78 15 79 18 80 19 82 20 83 30 84 21 85
REMARK SMILES IDX 23 86 22 87 24 88 25 89 26 90 27 91 28 92 29 93
REMARK H PARENT 84 24 54 35 18 81
REMARK Flexibility Score: inf
ROOT
ATOM      1  O   UNL     1       4.512  -0.946  -1.232  1.00  0.00    -0.374 OA
ENDROOT
BRANCH   1   2
ATOM      2  C   UNL     1       4.986  -1.378   0.035  1.00  0.00     0.202 C 
BRANCH   2   3
ATOM      3  C   UNL     1       4.479  -0.434   1.114  1.00  0.00     0.261 C 
BRANCH   3   4
ATOM      4  O   UNL     1       3.059  -0.434   1.114  1.00  0.00    -0.460 OA
BRANCH   4   5
ATOM      5  C   UNL     1       2.349  -0.037  -0.050  1.00  0.00     0.338 C 
ATOM      6  O   UNL     1       1.078  -0.037  -0.050  1.00  0.00    -0.246 OA
BRANCH   5   7
ATOM      7  C   UNL     1       3.109   0.387  -1.296  1.00  0.00     0.060 A 
ATOM      8  C   UNL     1       4.150  -0.389  -1.777  1.00  0.00     0.016 A 
ATOM      9  C   UNL     1       2.710   1.479  -1.938  1.00  0.00     0.016 A 
ATOM     10  C   UNL     1       4.903   0.233  -2.801  1.00  0.00     0.010 A 
ATOM     11  C   UNL     1       3.417   1.955  -3.015  1.00  0.00     0.010 A 
ATOM     12  C   UNL     1       4.493   1.269  -3.509  1.00  0.00    -0.014 A 
BRANCH  12  13
ATOM     13  C   UNL     1       5.179   1.678  -4.802  1.00  0.00     0.031 A 
ATOM     14  C   UNL     1       5.728   2.961  -4.851  1.00  0.00     0.074 A 
ATOM     15  C   UNL     1       5.168   0.799  -5.871  1.00  0.00     0.049 A 
ATOM     16  N   UNL     1       6.347   3.542  -5.881  1.00  0.00    -0.248 NA
ATOM     17  C   UNL     1       5.711   3.909  -3.728  1.00  0.00     0.031 C 
ATOM     18  C   UNL     1       4.624  -0.499  -5.826  1.00  0.00     0.029 A 
ATOM     19  N   UNL     1       5.662   1.005  -7.140  1.00  0.00    -0.354 N 
ATOM     20  C   UNL     1       6.752   4.768  -5.543  1.00  0.00     0.074 A 
ATOM     21  C   UNL     1       6.343   5.024  -4.155  1.00  0.00     0.031 C 
ATOM     22  C   UNL     1       4.777  -1.063  -7.053  1.00  0.00     0.029 A 
ATOM     23  C   UNL     1       5.421  -0.128  -7.885  1.00  0.00     0.049 A 
ATOM     24  H   UNL     1       6.111   1.821  -7.459  1.00  0.00     0.167 HD
ATOM     25  C   UNL     1       7.448   5.680  -6.336  1.00  0.00     0.031 A 
ATOM     26  C   UNL     1       5.735  -0.351  -9.216  1.00  0.00     0.031 A 
ATOM     27  C   UNL     1       7.801   5.440  -7.655  1.00  0.00     0.049 A 
ATOM     28  C   UNL     1       6.380   0.585 -10.028  1.00  0.00     0.074 A 
ATOM     29  C   UNL     1       8.509   6.347  -8.467  1.00  0.00     0.029 A 
ATOM     30  N   UNL     1       7.537   4.317  -8.407  1.00  0.00    -0.354 N 
ATOM     31  N   UNL     1       6.820   1.795  -9.678  1.00  0.00    -0.248 NA
ATOM     32  C   UNL     1       6.688   0.372 -11.448  1.00  0.00     0.031 C 
ATOM     33  C   UNL     1       8.663   5.782  -9.694  1.00  0.00     0.029 A 
ATOM     34  C   UNL     1       8.052   4.514  -9.669  1.00  0.00     0.049 A 
ATOM     35  H   UNL     1       7.063   3.512  -8.096  1.00  0.00     0.167 HD
ATOM     36  C   UNL     1       7.402   2.391 -10.720  1.00  0.00     0.074 A 
ATOM     37  C   UNL     1       7.319   1.488 -11.876  1.00  0.00     0.031 C 
ATOM     38  C   UNL     1       8.002   3.651 -10.753  1.00  0.00     0.031 A 
BRANCH  25  39
ATOM     39  C   UNL     1       7.843   7.013  -5.720  1.00  0.00    -0.014 A 
ATOM     40  C   UNL     1       8.558   7.054  -4.535  1.00  0.00     0.010 A 
ATOM     41  C   UNL     1       7.375   8.122  -6.281  1.00  0.00     0.010 A 
ATOM     42  C   UNL     1       8.480   8.296  -3.861  1.00  0.00     0.020 A 
ATOM     43  C   UNL     1       7.454   9.325  -5.623  1.00  0.00     0.020 A 
ATOM     44  C   UNL     1       8.095   9.428  -4.420  1.00  0.00     0.054 A 
BRANCH  44  45
ATOM     45  S   UNL     1       8.399  11.031  -3.635  1.00  0.00     0.124 S 
ATOM     46  O   UNL     1       7.711  11.069  -2.269  1.00  0.00    -0.237 OA
ATOM     47  O   UNL     1       9.906  11.231  -3.453  1.00  0.00    -0.237 OA
ATOM     48  O   UNL     1       7.774  12.277  -4.625  1.00  0.00    -0.744 OA
ENDBRANCH  44  45
ENDBRANCH  25  39
BRANCH  26  49
ATOM     49  C   UNL     1       5.355  -1.690  -9.828  1.00  0.00    -0.014 A 
ATOM     50  C   UNL     1       6.280  -2.609 -10.295  1.00  0.00     0.010 A 
ATOM     51  C   UNL     1       4.057  -1.967  -9.810  1.00  0.00     0.010 A 
ATOM     52  C   UNL     1       5.705  -3.693 -10.999  1.00  0.00     0.020 A 
ATOM     53  C   UNL     1       3.579  -3.113 -10.399  1.00  0.00     0.020 A 
ATOM     54  C   UNL     1       4.432  -4.038 -10.934  1.00  0.00     0.054 A 
BRANCH  54  55
ATOM     55  S   UNL     1       3.849  -5.647 -11.521  1.00  0.00     0.124 S 
ATOM     56  O   UNL     1       4.169  -5.794 -13.011  1.00  0.00    -0.237 OA
ATOM     57  O   UNL     1       4.547  -6.761 -10.737  1.00  0.00    -0.237 OA
ATOM     58  O   UNL     1       2.158  -5.760 -11.289  1.00  0.00    -0.744 OA
ENDBRANCH  54  55
ENDBRANCH  26  49
BRANCH  38  59
ATOM     59  C   UNL     1       8.640   4.104 -12.056  1.00  0.00    -0.014 A 
ATOM     60  C   UNL     1       7.866   4.298 -13.188  1.00  0.00     0.010 A 
ATOM     61  C   UNL     1       9.938   4.384 -12.054  1.00  0.00     0.010 A 
ATOM     62  C   UNL     1       8.618   4.521 -14.366  1.00  0.00     0.020 A 
ATOM     63  C   UNL     1      10.582   4.728 -13.218  1.00  0.00     0.020 A 
ATOM     64  C   UNL     1       9.889   4.880 -14.386  1.00  0.00     0.054 A 
BRANCH  64  65
ATOM     65  S   UNL     1      10.670   5.536 -15.881  1.00  0.00     0.124 S 
ATOM     66  O   UNL     1      10.588   4.494 -16.999  1.00  0.00    -0.237 OA
ATOM     67  O   UNL     1       9.946   6.811 -16.318  1.00  0.00    -0.237 OA
ATOM     68  O   UNL     1      12.310   5.895 -15.556  1.00  0.00    -0.744 OA
ENDBRANCH  64  65
ENDBRANCH  38  59
ENDBRANCH  12  13
ENDBRANCH   5   7
ENDBRANCH   4   5
ENDBRANCH   3   4
ENDBRANCH   2   3
ENDBRANCH   1   2
BRANCH   1  69
ATOM     69  C   UNL     1       3.092  -0.946  -1.232  1.00  0.00     0.202 C 
BRANCH  69  70
ATOM     70  C   UNL     1       2.586  -2.352  -0.954  1.00  0.00     0.261 C 
BRANCH  70  71
ATOM     71  O   UNL     1       3.059  -2.784   0.313  1.00  0.00    -0.460 OA
BRANCH  71  72
ATOM     72  C   UNL     1       4.455  -2.868   0.558  1.00  0.00     0.340 C 
ATOM     73  O   UNL     1       5.281  -2.556  -0.356  1.00  0.00    -0.246 OA
BRANCH  72  74
ATOM     74  C   UNL     1       4.962  -3.330   1.915  1.00  0.00     0.083 A 
ATOM     75  C   UNL     1       6.060  -2.693   2.468  1.00  0.00     0.018 A 
ATOM     76  C   UNL     1       4.414  -4.390   2.498  1.00  0.00     0.053 A 
ATOM     77  C   UNL     1       6.691  -3.430   3.498  1.00  0.00     0.001 A 
ATOM     78  C   UNL     1       5.013  -4.978   3.585  1.00  0.00     0.027 A 
ATOM     79  C   UNL     1       6.135  -4.436   4.148  1.00  0.00     0.002 A 
BRANCH  76  80
ATOM     80  N   UNL     1       3.154  -4.938   1.975  1.00  0.00    -0.355 N 
ATOM     81  H   UNL     1       2.720  -4.520   1.196  1.00  0.00     0.167 HD
BRANCH  80  82
ATOM     82  C   UNL     1       2.541  -6.111   2.616  1.00  0.00     0.040 A 
ATOM     83  C   UNL     1       2.218  -7.253   1.901  1.00  0.00     0.026 A 
ATOM     84  C   UNL     1       2.209  -5.982   3.895  1.00  0.00     0.050 A 
ATOM     85  C   UNL     1       1.283  -8.091   2.552  1.00  0.00     0.004 A 
ATOM     86  C   UNL     1       1.402  -6.911   4.505  1.00  0.00     0.109 A 
ATOM     87  C   UNL     1       0.996  -8.035   3.840  1.00  0.00     0.024 A 
BRANCH  86  88
ATOM     88  S   UNL     1       0.867  -6.644   6.214  1.00  0.00     0.310 S 
ATOM     89  F   UNL     1       2.360  -6.810   6.723  1.00  0.00    -0.094 F 
ATOM     90  F   UNL     1       0.709  -8.202   6.383  1.00  0.00    -0.094 F 
ATOM     91  F   UNL     1       0.452  -6.412   7.694  1.00  0.00    -0.094 F 
ATOM     92  F   UNL     1       1.167  -5.100   6.064  1.00  0.00    -0.094 F 
ATOM     93  F   UNL     1       1.399  -6.874   4.743  1.00  0.00    -0.094 F 
ENDBRANCH  86  88
ENDBRANCH  80  82
ENDBRANCH  76  80
ENDBRANCH  72  74
ENDBRANCH  71  72
ENDBRANCH  70  71
ENDBRANCH  69  70
ENDBRANCH   1  69
TORSDOF 20
