REMARK SMILES C[C@]([NH3+])(Cc1ccccc1Br)C(=O)OCCOCCOC(=O)c1ccc(-c2c3nc(c(-c4ccc(S(=O)(=O)[O-])cc4)c4ccc([nH]4)c(-c4ccc(S(=O)(=O)[O-])cc4)c4nc(c(-c5ccc(S(=O)(=O)[O-])cc5)c5ccc2[nH]5)C=C4)C=C3)cc1
REMARK SMILES IDX 18 1 17 2 16 3 15 4 14 5 12 6 13 7 2 8 1 9 4 10 5 11 6 12
REMARK SMILES IDX 10 13 7 14 9 15 11 16 8 17 3 18 19 22 20 23 21 24 22 25
REMARK SMILES IDX 23 26 24 27 82 28 25 29 81 30 26 31 27 32 28 33 75 34 29 35
REMARK SMILES IDX 80 36 74 37 76 38 30 39 79 40 73 41 72 42 31 44 61 45 42 46
REMARK SMILES IDX 60 47 43 48 46 49 59 50 77 51 44 52 45 53 58 55 78 56 47 57
REMARK SMILES IDX 32 58 33 59 41 60 34 61 40 62 35 63 36 64 37 65 38 66 39 67
REMARK SMILES IDX 62 68 63 69 71 70 64 71 70 72 65 73 66 74 67 75 68 76 69 77
REMARK SMILES IDX 48 78 49 79 57 80 50 81 56 82 51 83 52 84 53 85 54 86 55 87
REMARK H PARENT 3 19 3 20 3 21 76 43 46 54
REMARK Flexibility Score: inf
ROOT
ATOM      1  C   UNL     1       0.454  -3.510   2.526  1.00  0.00     0.202 C 
ENDROOT
BRANCH   1   2
ATOM      2  O   UNL     1       1.314  -3.642   3.650  1.00  0.00    -0.374 OA
BRANCH   2   3
ATOM      3  C   UNL     1       1.298  -2.602   4.626  1.00  0.00     0.202 C 
BRANCH   3   4
ATOM      4  C   UNL     1       1.718  -1.187   4.209  1.00  0.00     0.261 C 
BRANCH   4   5
ATOM      5  O   UNL     1       0.884  -0.578   3.199  1.00  0.00    -0.459 OA
BRANCH   5   6
ATOM      6  C   UNL     1       1.516  -0.283   2.026  1.00  0.00     0.368 C 
ATOM      7  O   UNL     1       2.675  -0.601   1.766  1.00  0.00    -0.245 OA
BRANCH   6   8
ATOM      8  C   UNL     1       0.685   0.631   1.084  1.00  0.00     0.194 C 
ATOM      9  C   UNL     1       0.863   2.056   1.649  1.00  0.00     0.092 C 
BRANCH   8  10
ATOM     10  C   UNL     1      -0.835   0.324   0.992  1.00  0.00     0.117 C 
BRANCH  10  11
ATOM     11  C   UNL     1      -1.406  -0.865   0.227  1.00  0.00    -0.027 A 
ATOM     12  C   UNL     1      -0.600  -1.889  -0.295  1.00  0.00     0.005 A 
ATOM     13  C   UNL     1      -2.805  -1.004   0.073  1.00  0.00     0.021 A 
ATOM     14  C   UNL     1      -1.161  -3.039  -0.869  1.00  0.00     0.000 A 
ATOM     15  C   UNL     1      -3.364  -2.148  -0.512  1.00  0.00     0.016 A 
ATOM     16  Br  UNL     1      -4.034   0.331   0.652  1.00  0.00    -0.051 Br
ATOM     17  C   UNL     1      -2.542  -3.176  -0.963  1.00  0.00     0.001 A 
ENDBRANCH  10  11
ENDBRANCH   8  10
BRANCH   8  18
ATOM     18  N   UNL     1       1.308   0.613  -0.271  1.00  0.00    -0.343 N 
ATOM     19  H   UNL     1       1.210  -0.317  -0.678  1.00  0.00     0.345 HD
ATOM     20  H   UNL     1       2.298   0.847  -0.192  1.00  0.00     0.345 HD
ATOM     21  H   UNL     1       0.844   1.297  -0.868  1.00  0.00     0.345 HD
ENDBRANCH   8  18
ENDBRANCH   6   8
ENDBRANCH   5   6
ENDBRANCH   4   5
ENDBRANCH   3   4
ENDBRANCH   2   3
ENDBRANCH   1   2
BRANCH   1  22
ATOM     22  C   UNL     1      -1.058  -3.672   2.729  1.00  0.00     0.261 C 
BRANCH  22  23
ATOM     23  O   UNL     1      -1.562  -3.089   3.927  1.00  0.00    -0.460 OA
BRANCH  23  24
ATOM     24  C   UNL     1      -1.847  -3.995   4.884  1.00  0.00     0.338 C 
ATOM     25  O   UNL     1      -1.772  -5.218   4.809  1.00  0.00    -0.246 OA
BRANCH  24  26
ATOM     26  C   UNL     1      -2.132  -3.293   6.135  1.00  0.00     0.060 A 
ATOM     27  C   UNL     1      -1.376  -3.654   7.254  1.00  0.00     0.016 A 
ATOM     28  C   UNL     1      -3.156  -2.345   6.221  1.00  0.00     0.016 A 
ATOM     29  C   UNL     1      -1.690  -3.114   8.491  1.00  0.00     0.010 A 
ATOM     30  C   UNL     1      -3.471  -1.804   7.466  1.00  0.00     0.010 A 
ATOM     31  C   UNL     1      -2.768  -2.225   8.606  1.00  0.00    -0.014 A 
BRANCH  31  32
ATOM     32  C   UNL     1      -3.246  -1.881   9.959  1.00  0.00     0.031 A 
ATOM     33  C   UNL     1      -4.409  -2.647  10.524  1.00  0.00     0.074 A 
ATOM     34  C   UNL     1      -2.589  -0.962  10.685  1.00  0.00     0.049 A 
ATOM     35  N   UNL     1      -4.939  -2.581  11.716  1.00  0.00    -0.248 NA
ATOM     36  C   UNL     1      -5.058  -3.621   9.628  1.00  0.00     0.031 C 
ATOM     37  C   UNL     1      -1.429  -0.197  10.223  1.00  0.00     0.029 A 
ATOM     38  N   UNL     1      -2.790  -0.530  11.968  1.00  0.00    -0.354 N 
ATOM     39  C   UNL     1      -5.981  -3.503  11.714  1.00  0.00     0.074 A 
ATOM     40  C   UNL     1      -6.032  -4.089  10.395  1.00  0.00     0.031 C 
ATOM     41  C   UNL     1      -1.012   0.604  11.219  1.00  0.00     0.029 A 
ATOM     42  C   UNL     1      -1.888   0.423  12.373  1.00  0.00     0.049 A 
ATOM     43  H   UNL     1      -3.512  -0.871  12.545  1.00  0.00     0.167 HD
ATOM     44  C   UNL     1      -6.811  -3.834  12.730  1.00  0.00     0.031 A 
ATOM     45  C   UNL     1      -1.788   1.075  13.547  1.00  0.00     0.031 A 
ATOM     46  C   UNL     1      -6.752  -3.223  14.031  1.00  0.00     0.049 A 
ATOM     47  C   UNL     1      -2.754   0.723  14.646  1.00  0.00     0.074 A 
ATOM     48  C   UNL     1      -7.537  -3.476  15.141  1.00  0.00     0.029 A 
ATOM     49  N   UNL     1      -5.852  -2.229  14.392  1.00  0.00    -0.354 N 
ATOM     50  N   UNL     1      -3.718  -0.169  14.639  1.00  0.00    -0.248 NA
ATOM     51  C   UNL     1      -2.611   1.451  15.912  1.00  0.00     0.031 C 
ATOM     52  C   UNL     1      -7.147  -2.596  16.156  1.00  0.00     0.029 A 
ATOM     53  C   UNL     1      -6.078  -1.838  15.700  1.00  0.00     0.049 A 
ATOM     54  H   UNL     1      -5.156  -1.857  13.804  1.00  0.00     0.167 HD
ATOM     55  C   UNL     1      -4.285  -0.124  15.908  1.00  0.00     0.074 A 
ATOM     56  C   UNL     1      -3.540   0.870  16.658  1.00  0.00     0.031 C 
ATOM     57  C   UNL     1      -5.324  -0.837  16.411  1.00  0.00     0.031 A 
BRANCH  44  58
ATOM     58  C   UNL     1      -7.869  -4.870  12.456  1.00  0.00    -0.014 A 
ATOM     59  C   UNL     1      -7.536  -6.225  12.271  1.00  0.00     0.010 A 
ATOM     60  C   UNL     1      -9.221  -4.487  12.398  1.00  0.00     0.010 A 
ATOM     61  C   UNL     1      -8.531  -7.169  11.996  1.00  0.00     0.020 A 
ATOM     62  C   UNL     1     -10.222  -5.431  12.149  1.00  0.00     0.020 A 
ATOM     63  C   UNL     1      -9.868  -6.764  11.933  1.00  0.00     0.054 A 
BRANCH  63  64
ATOM     64  S   UNL     1     -11.142  -8.011  11.592  1.00  0.00     0.124 S 
ATOM     65  O   UNL     1     -10.922  -8.287  10.174  1.00  0.00    -0.237 OA
ATOM     66  O   UNL     1     -10.782  -9.094  12.505  1.00  0.00    -0.237 OA
ATOM     67  O   UNL     1     -12.392  -7.325  11.907  1.00  0.00    -0.744 OA
ENDBRANCH  63  64
ENDBRANCH  44  58
BRANCH  45  68
ATOM     68  C   UNL     1      -0.742   2.116  13.729  1.00  0.00    -0.014 A 
ATOM     69  C   UNL     1       0.347   1.906  14.593  1.00  0.00     0.010 A 
ATOM     70  C   UNL     1      -0.818   3.324  13.010  1.00  0.00     0.010 A 
ATOM     71  C   UNL     1       1.333   2.888  14.742  1.00  0.00     0.020 A 
ATOM     72  C   UNL     1       0.178   4.295  13.135  1.00  0.00     0.020 A 
ATOM     73  C   UNL     1       1.244   4.075  14.009  1.00  0.00     0.054 A 
BRANCH  73  74
ATOM     74  S   UNL     1       2.564   5.309  14.171  1.00  0.00     0.124 S 
ATOM     75  O   UNL     1       2.292   5.874  15.489  1.00  0.00    -0.237 OA
ATOM     76  O   UNL     1       3.772   4.495  14.067  1.00  0.00    -0.237 OA
ATOM     77  O   UNL     1       2.331   6.209  13.043  1.00  0.00    -0.744 OA
ENDBRANCH  73  74
ENDBRANCH  45  68
BRANCH  57  78
ATOM     78  C   UNL     1      -5.697  -0.578  17.845  1.00  0.00    -0.014 A 
ATOM     79  C   UNL     1      -6.342   0.612  18.224  1.00  0.00     0.010 A 
ATOM     80  C   UNL     1      -5.437  -1.562  18.816  1.00  0.00     0.010 A 
ATOM     81  C   UNL     1      -6.686   0.830  19.560  1.00  0.00     0.020 A 
ATOM     82  C   UNL     1      -5.806  -1.359  20.147  1.00  0.00     0.020 A 
ATOM     83  C   UNL     1      -6.412  -0.156  20.513  1.00  0.00     0.054 A 
BRANCH  83  84
ATOM     84  S   UNL     1      -6.895   0.138  22.236  1.00  0.00     0.124 S 
ATOM     85  O   UNL     1      -5.885   1.097  22.674  1.00  0.00    -0.237 OA
ATOM     86  O   UNL     1      -8.250   0.668  22.104  1.00  0.00    -0.237 OA
ATOM     87  O   UNL     1      -6.808  -1.185  22.850  1.00  0.00    -0.744 OA
ENDBRANCH  83  84
ENDBRANCH  57  78
ENDBRANCH  31  32
ENDBRANCH  24  26
ENDBRANCH  23  24
ENDBRANCH  22  23
ENDBRANCH   1  22
TORSDOF 20
