REMARK SMILES CCc1ccc2[nH]c(C(=O)c3cc(C)ccn3)c(CC(=O)OCCOCCOC(=O)c3ccc(-c4c5nc(c(-c6ccc(S(=O)(=O)[O-])cc6)c6ccc([nH]6)c(-c6ccc(S(=O)(=O)[O-])cc6)c6nc(c(-c7ccc(S(=O)(=O)[O-])cc7)c7ccc4[nH]7)C=C6)C=C5)cc3)c2c1
REMARK SMILES IDX 25 1 24 2 23 3 22 4 20 5 21 6 19 7 18 8 3 9 4 10 92 11 5 12
REMARK SMILES IDX 91 13 6 14 7 15 8 16 2 18 1 19 9 20 10 21 11 22 12 23 17 24
REMARK SMILES IDX 13 25 16 26 14 27 15 28 26 29 27 30 28 31 29 32 30 33 31 34
REMARK SMILES IDX 32 35 90 36 33 37 89 38 34 39 35 40 36 41 83 42 37 43 88 44
REMARK SMILES IDX 82 45 84 46 38 47 87 48 81 49 80 50 39 52 69 53 50 54 68 55
REMARK SMILES IDX 51 56 54 57 67 58 85 59 52 60 53 61 66 63 86 64 55 65 40 66
REMARK SMILES IDX 41 67 49 68 42 69 48 70 43 71 44 72 45 73 46 74 47 75 70 76
REMARK SMILES IDX 71 77 79 78 72 79 78 80 73 81 74 82 75 83 76 84 77 85 56 86
REMARK SMILES IDX 57 87 65 88 58 89 64 90 59 91 60 92 61 93 62 94 63 95
REMARK H PARENT 7 17 84 51 54 62
REMARK Flexibility Score: inf
ROOT
ATOM      1  O   UNL     1       3.660  -4.175   7.708  1.00  0.00    -0.374 OA
ENDROOT
BRANCH   1   2
ATOM      2  C   UNL     1       2.559  -3.280   7.556  1.00  0.00     0.202 C 
BRANCH   2   3
ATOM      3  C   UNL     1       2.614  -2.268   6.400  1.00  0.00     0.261 C 
BRANCH   3   4
ATOM      4  O   UNL     1       2.881  -2.856   5.109  1.00  0.00    -0.463 OA
BRANCH   4   5
ATOM      5  C   UNL     1       3.867  -2.253   4.389  1.00  0.00     0.310 C 
ATOM      6  O   UNL     1       4.435  -1.218   4.736  1.00  0.00    -0.252 OA
BRANCH   5   7
ATOM      7  C   UNL     1       4.325  -2.998   3.151  1.00  0.00     0.161 C 
BRANCH   7   8
ATOM      8  C   UNL     1       3.396  -4.002   2.524  1.00  0.00     0.000 A 
ATOM      9  C   UNL     1       0.827  -2.437   0.125  1.00  0.00    -0.048 A 
ATOM     10  C   UNL     1       0.287  -3.663  -0.288  1.00  0.00     0.006 A 
ATOM     11  C   UNL     1       1.833  -2.438   1.108  1.00  0.00     0.014 A 
ATOM     12  C   UNL     1       0.720  -4.883   0.247  1.00  0.00     0.027 A 
ATOM     13  C   UNL     1       2.323  -3.658   1.631  1.00  0.00     0.004 A 
ATOM     14  C   UNL     1       1.750  -4.844   1.190  1.00  0.00     0.046 A 
ATOM     15  N   UNL     1       2.395  -5.867   1.842  1.00  0.00    -0.352 N 
ATOM     16  C   UNL     1       3.506  -5.401   2.517  1.00  0.00     0.093 A 
ATOM     17  H   UNL     1       2.104  -6.807   1.829  1.00  0.00     0.167 HD
BRANCH   9  18
ATOM     18  C   UNL     1       0.336  -1.179  -0.560  1.00  0.00     0.032 C 
ATOM     19  C   UNL     1       0.799   0.152   0.019  1.00  0.00     0.009 C 
ENDBRANCH   9  18
BRANCH  16  20
ATOM     20  C   UNL     1       4.558  -6.251   3.081  1.00  0.00     0.227 C 
ATOM     21  O   UNL     1       5.618  -5.811   3.522  1.00  0.00    -0.285 OA
BRANCH  20  22
ATOM     22  C   UNL     1       4.348  -7.729   3.163  1.00  0.00     0.113 A 
ATOM     23  C   UNL     1       4.376  -8.534   2.033  1.00  0.00     0.036 A 
ATOM     24  N   UNL     1       4.118  -8.207   4.412  1.00  0.00    -0.253 NA
ATOM     25  C   UNL     1       4.120  -9.902   2.196  1.00  0.00    -0.047 A 
ATOM     26  C   UNL     1       3.850  -9.518   4.543  1.00  0.00     0.112 A 
ATOM     27  C   UNL     1       4.155 -10.854   1.039  1.00  0.00     0.044 C 
ATOM     28  C   UNL     1       3.837 -10.394   3.475  1.00  0.00     0.023 A 
ENDBRANCH  20  22
ENDBRANCH  16  20
ENDBRANCH   7   8
ENDBRANCH   5   7
ENDBRANCH   4   5
ENDBRANCH   3   4
ENDBRANCH   2   3
ENDBRANCH   1   2
BRANCH   1  29
ATOM     29  C   UNL     1       3.922  -5.072   6.633  1.00  0.00     0.202 C 
BRANCH  29  30
ATOM     30  C   UNL     1       2.845  -6.108   6.301  1.00  0.00     0.261 C 
BRANCH  30  31
ATOM     31  O   UNL     1       1.510  -5.610   6.259  1.00  0.00    -0.460 OA
BRANCH  31  32
ATOM     32  C   UNL     1       0.611  -6.376   6.910  1.00  0.00     0.338 C 
ATOM     33  O   UNL     1       0.787  -7.446   7.473  1.00  0.00    -0.246 OA
BRANCH  32  34
ATOM     34  C   UNL     1      -0.671  -5.672   6.911  1.00  0.00     0.060 A 
ATOM     35  C   UNL     1      -1.093  -5.069   8.097  1.00  0.00     0.016 A 
ATOM     36  C   UNL     1      -1.481  -5.696   5.773  1.00  0.00     0.016 A 
ATOM     37  C   UNL     1      -2.370  -4.526   8.166  1.00  0.00     0.010 A 
ATOM     38  C   UNL     1      -2.760  -5.148   5.844  1.00  0.00     0.010 A 
ATOM     39  C   UNL     1      -3.221  -4.599   7.052  1.00  0.00    -0.014 A 
BRANCH  39  40
ATOM     40  C   UNL     1      -4.641  -4.219   7.205  1.00  0.00     0.031 A 
ATOM     41  C   UNL     1      -5.663  -5.299   7.422  1.00  0.00     0.074 A 
ATOM     42  C   UNL     1      -4.993  -2.922   7.194  1.00  0.00     0.049 A 
ATOM     43  N   UNL     1      -6.950  -5.189   7.623  1.00  0.00    -0.248 NA
ATOM     44  C   UNL     1      -5.171  -6.688   7.412  1.00  0.00     0.031 C 
ATOM     45  C   UNL     1      -4.071  -1.800   7.015  1.00  0.00     0.029 A 
ATOM     46  N   UNL     1      -6.219  -2.331   7.346  1.00  0.00    -0.354 N 
ATOM     47  C   UNL     1      -7.421  -6.490   7.764  1.00  0.00     0.074 A 
ATOM     48  C   UNL     1      -6.290  -7.374   7.591  1.00  0.00     0.031 C 
ATOM     49  C   UNL     1      -4.766  -0.652   7.077  1.00  0.00     0.029 A 
ATOM     50  C   UNL     1      -6.180  -0.960   7.273  1.00  0.00     0.049 A 
ATOM     51  H   UNL     1      -7.049  -2.840   7.493  1.00  0.00     0.167 HD
ATOM     52  C   UNL     1      -8.683  -6.906   8.024  1.00  0.00     0.031 A 
ATOM     53  C   UNL     1      -7.178  -0.059   7.350  1.00  0.00     0.031 A 
ATOM     54  C   UNL     1      -9.802  -6.014   8.176  1.00  0.00     0.049 A 
ATOM     55  C   UNL     1      -8.581  -0.549   7.588  1.00  0.00     0.074 A 
ATOM     56  C   UNL     1     -11.121  -6.324   8.450  1.00  0.00     0.029 A 
ATOM     57  N   UNL     1      -9.729  -4.633   8.060  1.00  0.00    -0.354 N 
ATOM     58  N   UNL     1      -9.006  -1.780   7.751  1.00  0.00    -0.248 NA
ATOM     59  C   UNL     1      -9.635   0.470   7.663  1.00  0.00     0.031 C 
ATOM     60  C   UNL     1     -11.856  -5.134   8.450  1.00  0.00     0.029 A 
ATOM     61  C   UNL     1     -10.985  -4.077   8.233  1.00  0.00     0.049 A 
ATOM     62  H   UNL     1      -8.906  -4.124   7.882  1.00  0.00     0.167 HD
ATOM     63  C   UNL     1     -10.375  -1.682   7.970  1.00  0.00     0.074 A 
ATOM     64  C   UNL     1     -10.702  -0.270   7.933  1.00  0.00     0.031 C 
ATOM     65  C   UNL     1     -11.282  -2.668   8.185  1.00  0.00     0.031 A 
BRANCH  52  66
ATOM     66  C   UNL     1      -8.919  -8.389   8.126  1.00  0.00    -0.014 A 
ATOM     67  C   UNL     1      -8.452  -9.127   9.229  1.00  0.00     0.010 A 
ATOM     68  C   UNL     1      -9.638  -9.053   7.115  1.00  0.00     0.010 A 
ATOM     69  C   UNL     1      -8.665 -10.507   9.300  1.00  0.00     0.020 A 
ATOM     70  C   UNL     1      -9.875 -10.428   7.194  1.00  0.00     0.020 A 
ATOM     71  C   UNL     1      -9.371 -11.150   8.278  1.00  0.00     0.054 A 
BRANCH  71  72
ATOM     72  S   UNL     1      -9.645 -12.940   8.399  1.00  0.00     0.124 S 
ATOM     73  O   UNL     1      -8.318 -13.469   8.095  1.00  0.00    -0.237 OA
ATOM     74  O   UNL     1     -10.085 -13.105   9.782  1.00  0.00    -0.237 OA
ATOM     75  O   UNL     1     -10.666 -13.204   7.389  1.00  0.00    -0.744 OA
ENDBRANCH  71  72
ENDBRANCH  52  66
BRANCH  53  76
ATOM     76  C   UNL     1      -6.880   1.391   7.199  1.00  0.00    -0.014 A 
ATOM     77  C   UNL     1      -6.968   2.263   8.298  1.00  0.00     0.010 A 
ATOM     78  C   UNL     1      -6.482   1.903   5.950  1.00  0.00     0.010 A 
ATOM     79  C   UNL     1      -6.676   3.622   8.148  1.00  0.00     0.020 A 
ATOM     80  C   UNL     1      -6.165   3.256   5.802  1.00  0.00     0.020 A 
ATOM     81  C   UNL     1      -6.275   4.110   6.900  1.00  0.00     0.054 A 
BRANCH  81  82
ATOM     82  S   UNL     1      -5.848   5.866   6.740  1.00  0.00     0.124 S 
ATOM     83  O   UNL     1      -7.162   6.501   6.761  1.00  0.00    -0.237 OA
ATOM     84  O   UNL     1      -5.014   6.098   7.917  1.00  0.00    -0.237 OA
ATOM     85  O   UNL     1      -5.141   5.930   5.463  1.00  0.00    -0.744 OA
ENDBRANCH  81  82
ENDBRANCH  53  76
BRANCH  65  86
ATOM     86  C   UNL     1     -12.708  -2.251   8.420  1.00  0.00    -0.014 A 
ATOM     87  C   UNL     1     -13.513  -1.789   7.364  1.00  0.00     0.010 A 
ATOM     88  C   UNL     1     -13.264  -2.377   9.706  1.00  0.00     0.010 A 
ATOM     89  C   UNL     1     -14.842  -1.431   7.598  1.00  0.00     0.020 A 
ATOM     90  C   UNL     1     -14.600  -2.045   9.937  1.00  0.00     0.020 A 
ATOM     91  C   UNL     1     -15.377  -1.560   8.883  1.00  0.00     0.054 A 
BRANCH  91  92
ATOM     92  S   UNL     1     -17.119  -1.131   9.153  1.00  0.00     0.124 S 
ATOM     93  O   UNL     1     -17.076   0.329   9.139  1.00  0.00    -0.237 OA
ATOM     94  O   UNL     1     -17.784  -1.751   8.009  1.00  0.00    -0.237 OA
ATOM     95  O   UNL     1     -17.427  -1.734  10.447  1.00  0.00    -0.744 OA
ENDBRANCH  91  92
ENDBRANCH  65  86
ENDBRANCH  39  40
ENDBRANCH  32  34
ENDBRANCH  31  32
ENDBRANCH  30  31
ENDBRANCH  29  30
ENDBRANCH   1  29
TORSDOF 21
