REMARK SMILES C[C@H]1c2ccc(O)cc2OC(=O)[C@@H]1CC(=O)N[C@@H](CC1=c2ccccc2=NC1)C(=O)OCCOCCOC(=O)c1ccc(-c2c3nc(c(-c4ccc(S(=O)(=O)[O-])cc4)c4ccc([nH]4)c(-c4ccc(S(=O)(=O)[O-])cc4)c4nc(c(-c5ccc(S(=O)(=O)[O-])cc5)c5ccc2[nH]5)C=C4)C=C3)cc1
REMARK SMILES IDX 33 1 32 2 31 3 29 4 30 5 18 6 17 7 15 8 16 9 14 11 13 12
REMARK SMILES IDX 1 13 2 14 3 15 4 16 9 17 11 18 5 19 8 20 10 21 12 22 6 23
REMARK SMILES IDX 7 24 19 26 20 27 21 28 28 29 22 30 26 31 27 32 23 33 25 34
REMARK SMILES IDX 24 35 34 36 35 37 36 38 37 39 38 40 39 41 40 42 41 43 99 44
REMARK SMILES IDX 42 45 98 46 43 47 44 48 45 49 92 50 46 51 97 52 91 53 93 54
REMARK SMILES IDX 47 55 96 56 90 57 89 58 48 60 78 61 59 62 77 63 60 64 63 65
REMARK SMILES IDX 76 66 94 67 61 68 62 69 75 71 95 72 64 73 49 74 50 75 58 76
REMARK SMILES IDX 51 77 57 78 52 79 53 80 54 81 55 82 56 83 79 84 80 85 88 86
REMARK SMILES IDX 81 87 87 88 82 89 83 90 84 91 85 92 86 93 65 94 66 95 74 96
REMARK SMILES IDX 67 97 73 98 68 99 69 100 70 101 71 102 72 103
REMARK H PARENT 17 10 7 25 93 59 63 70
REMARK Flexibility Score: inf
ROOT
ATOM      1  C   UNL     1       4.209   4.004  -7.237  1.00  0.00     0.202 C 
ENDROOT
BRANCH   1   2
ATOM      2  C   UNL     1       5.100   3.239  -6.260  1.00  0.00     0.261 C 
BRANCH   2   3
ATOM      3  O   UNL     1       4.459   2.040  -5.809  1.00  0.00    -0.462 OA
BRANCH   3   4
ATOM      4  C   UNL     1       4.763   1.659  -4.545  1.00  0.00     0.329 C 
ATOM      5  O   UNL     1       5.566   2.233  -3.817  1.00  0.00    -0.250 OA
BRANCH   4   6
ATOM      6  C   UNL     1       4.057   0.365  -4.131  1.00  0.00     0.196 C 
BRANCH   6   7
ATOM      7  N   UNL     1       2.893  -0.109  -4.894  1.00  0.00    -0.342 N 
ATOM      8  C   UNL     1       1.613  -0.360  -4.491  1.00  0.00     0.221 C 
ATOM      9  O   UNL     1       0.914  -1.108  -5.179  1.00  0.00    -0.275 OA
ATOM     10  H   UNL     1       3.064  -0.271  -5.849  1.00  0.00     0.164 HD
BRANCH   8  11
ATOM     11  C   UNL     1       0.986   0.403  -3.327  1.00  0.00     0.116 C 
BRANCH  11  12
ATOM     12  C   UNL     1       1.150  -0.123  -1.882  1.00  0.00     0.116 C 
ATOM     13  C   UNL     1       0.262  -0.069   0.528  1.00  0.00     0.014 C 
ATOM     14  C   UNL     1       0.157   0.530  -0.881  1.00  0.00     0.034 C 
ATOM     15  C   UNL     1       0.435   2.014  -0.831  1.00  0.00    -0.001 A 
ATOM     16  C   UNL     1      -0.567   2.962  -0.608  1.00  0.00     0.011 A 
ATOM     17  C   UNL     1       1.737   2.460  -1.076  1.00  0.00     0.138 A 
ATOM     18  C   UNL     1       2.516   0.182  -1.326  1.00  0.00     0.315 C 
ATOM     19  C   UNL     1      -0.272   4.326  -0.711  1.00  0.00     0.047 A 
ATOM     20  C   UNL     1       2.037   3.808  -1.228  1.00  0.00     0.093 A 
ATOM     21  O   UNL     1       2.795   1.537  -1.161  1.00  0.00    -0.426 OA
ATOM     22  O   UNL     1       3.356  -0.685  -1.112  1.00  0.00    -0.251 OA
ATOM     23  C   UNL     1       1.018   4.734  -1.052  1.00  0.00     0.119 A 
BRANCH  23  24
ATOM     24  O   UNL     1       1.325   6.053  -1.213  1.00  0.00    -0.508 OA
ATOM     25  H   UNL     1       0.661   6.705  -1.102  1.00  0.00     0.293 HD
ENDBRANCH  23  24
ENDBRANCH  11  12
ENDBRANCH   8  11
ENDBRANCH   6   7
BRANCH   6  26
ATOM     26  C   UNL     1       5.080  -0.786  -3.859  1.00  0.00     0.070 C 
BRANCH  26  27
ATOM     27  C   UNL     1       5.858  -1.395  -5.037  1.00  0.00    -0.037 C 
ATOM     28  C   UNL     1       5.364  -2.467  -5.685  1.00  0.00     0.001 A 
ATOM     29  C   UNL     1       6.347  -0.436  -6.082  1.00  0.00     0.174 C 
ATOM     30  C   UNL     1       6.101  -3.626  -6.177  1.00  0.00     0.010 A 
ATOM     31  C   UNL     1       4.846  -1.725  -6.883  1.00  0.00     0.065 A 
ATOM     32  N   UNL     1       5.289  -0.525  -7.112  1.00  0.00    -0.280 NA
ATOM     33  C   UNL     1       5.629  -4.250  -7.276  1.00  0.00     0.001 A 
ATOM     34  C   UNL     1       3.950  -2.535  -7.723  1.00  0.00     0.028 A 
ATOM     35  C   UNL     1       4.390  -3.793  -7.904  1.00  0.00     0.002 A 
ENDBRANCH  26  27
ENDBRANCH   6  26
ENDBRANCH   4   6
ENDBRANCH   3   4
ENDBRANCH   2   3
ENDBRANCH   1   2
BRANCH   1  36
ATOM     36  O   UNL     1       2.899   4.327  -6.774  1.00  0.00    -0.374 OA
BRANCH  36  37
ATOM     37  C   UNL     1       2.004   3.247  -6.503  1.00  0.00     0.202 C 
BRANCH  37  38
ATOM     38  C   UNL     1       1.581   2.350  -7.679  1.00  0.00     0.261 C 
BRANCH  38  39
ATOM     39  O   UNL     1       2.653   1.596  -8.277  1.00  0.00    -0.460 OA
BRANCH  39  40
ATOM     40  C   UNL     1       2.918   1.902  -9.575  1.00  0.00     0.338 C 
ATOM     41  O   UNL     1       2.364   2.747 -10.257  1.00  0.00    -0.246 OA
BRANCH  40  42
ATOM     42  C   UNL     1       4.094   1.155 -10.060  1.00  0.00     0.060 A 
ATOM     43  C   UNL     1       4.009  -0.213 -10.314  1.00  0.00     0.016 A 
ATOM     44  C   UNL     1       5.251   1.866 -10.398  1.00  0.00     0.016 A 
ATOM     45  C   UNL     1       5.096  -0.877 -10.894  1.00  0.00     0.010 A 
ATOM     46  C   UNL     1       6.328   1.205 -10.994  1.00  0.00     0.010 A 
ATOM     47  C   UNL     1       6.256  -0.171 -11.257  1.00  0.00    -0.014 A 
BRANCH  47  48
ATOM     48  C   UNL     1       7.338  -0.839 -12.026  1.00  0.00     0.031 A 
ATOM     49  C   UNL     1       8.654  -1.177 -11.389  1.00  0.00     0.074 A 
ATOM     50  C   UNL     1       7.131  -1.115 -13.329  1.00  0.00     0.049 A 
ATOM     51  N   UNL     1       9.678  -1.800 -11.914  1.00  0.00    -0.248 NA
ATOM     52  C   UNL     1       8.852  -0.760  -9.993  1.00  0.00     0.031 C 
ATOM     53  C   UNL     1       5.902  -0.807 -14.062  1.00  0.00     0.029 A 
ATOM     54  N   UNL     1       7.935  -1.717 -14.266  1.00  0.00    -0.354 N 
ATOM     55  C   UNL     1      10.637  -1.867 -10.912  1.00  0.00     0.074 A 
ATOM     56  C   UNL     1      10.092  -1.175  -9.762  1.00  0.00     0.031 C 
ATOM     57  C   UNL     1       6.020  -1.252 -15.322  1.00  0.00     0.029 A 
ATOM     58  C   UNL     1       7.344  -1.843 -15.502  1.00  0.00     0.049 A 
ATOM     59  H   UNL     1       8.849  -2.029 -14.072  1.00  0.00     0.167 HD
ATOM     60  C   UNL     1      11.849  -2.472 -10.945  1.00  0.00     0.031 A 
ATOM     61  C   UNL     1       7.804  -2.377 -16.652  1.00  0.00     0.031 A 
ATOM     62  C   UNL     1      12.385  -3.148 -12.102  1.00  0.00     0.049 A 
ATOM     63  C   UNL     1       9.174  -2.998 -16.678  1.00  0.00     0.074 A 
ATOM     64  C   UNL     1      13.582  -3.835 -12.209  1.00  0.00     0.029 A 
ATOM     65  N   UNL     1      11.775  -3.217 -13.346  1.00  0.00    -0.354 N 
ATOM     66  N   UNL     1      10.031  -3.132 -15.695  1.00  0.00    -0.248 NA
ATOM     67  C   UNL     1       9.637  -3.550 -17.960  1.00  0.00     0.031 C 
ATOM     68  C   UNL     1      13.733  -4.248 -13.534  1.00  0.00     0.029 A 
ATOM     69  C   UNL     1      12.592  -3.896 -14.236  1.00  0.00     0.049 A 
ATOM     70  H   UNL     1      10.892  -2.840 -13.564  1.00  0.00     0.167 HD
ATOM     71  C   UNL     1      11.128  -3.796 -16.234  1.00  0.00     0.074 A 
ATOM     72  C   UNL     1      10.818  -4.056 -17.624  1.00  0.00     0.031 C 
ATOM     73  C   UNL     1      12.286  -4.150 -15.625  1.00  0.00     0.031 A 
BRANCH  60  74
ATOM     74  C   UNL     1      12.691  -2.470  -9.693  1.00  0.00    -0.014 A 
ATOM     75  C   UNL     1      13.937  -1.815  -9.682  1.00  0.00     0.010 A 
ATOM     76  C   UNL     1      12.319  -3.247  -8.581  1.00  0.00     0.010 A 
ATOM     77  C   UNL     1      14.810  -1.966  -8.601  1.00  0.00     0.020 A 
ATOM     78  C   UNL     1      13.177  -3.377  -7.485  1.00  0.00     0.020 A 
ATOM     79  C   UNL     1      14.429  -2.757  -7.514  1.00  0.00     0.054 A 
BRANCH  79  80
ATOM     80  S   UNL     1      15.593  -2.981  -6.141  1.00  0.00     0.124 S 
ATOM     81  O   UNL     1      16.589  -3.875  -6.722  1.00  0.00    -0.237 OA
ATOM     82  O   UNL     1      16.043  -1.616  -5.880  1.00  0.00    -0.237 OA
ATOM     83  O   UNL     1      14.768  -3.567  -5.085  1.00  0.00    -0.744 OA
ENDBRANCH  79  80
ENDBRANCH  60  74
BRANCH  61  84
ATOM     84  C   UNL     1       6.919  -2.385 -17.852  1.00  0.00    -0.014 A 
ATOM     85  C   UNL     1       6.547  -1.177 -18.473  1.00  0.00     0.010 A 
ATOM     86  C   UNL     1       6.364  -3.589 -18.316  1.00  0.00     0.010 A 
ATOM     87  C   UNL     1       5.586  -1.167 -19.488  1.00  0.00     0.020 A 
ATOM     88  C   UNL     1       5.426  -3.587 -19.354  1.00  0.00     0.020 A 
ATOM     89  C   UNL     1       5.019  -2.372 -19.910  1.00  0.00     0.054 A 
BRANCH  89  90
ATOM     90  S   UNL     1       3.718  -2.326 -21.174  1.00  0.00     0.124 S 
ATOM     91  O   UNL     1       2.584  -1.804 -20.417  1.00  0.00    -0.237 OA
ATOM     92  O   UNL     1       4.278  -1.421 -22.174  1.00  0.00    -0.237 OA
ATOM     93  O   UNL     1       3.600  -3.719 -21.595  1.00  0.00    -0.744 OA
ENDBRANCH  89  90
ENDBRANCH  61  84
BRANCH  73  94
ATOM     94  C   UNL     1      13.344  -4.851 -16.442  1.00  0.00    -0.014 A 
ATOM     95  C   UNL     1      13.707  -6.176 -16.132  1.00  0.00     0.010 A 
ATOM     96  C   UNL     1      14.088  -4.148 -17.407  1.00  0.00     0.010 A 
ATOM     97  C   UNL     1      14.825  -6.764 -16.727  1.00  0.00     0.020 A 
ATOM     98  C   UNL     1      15.188  -4.746 -18.029  1.00  0.00     0.020 A 
ATOM     99  C   UNL     1      15.569  -6.038 -17.660  1.00  0.00     0.054 A 
BRANCH  99 100
ATOM    100  S   UNL     1      17.060  -6.794 -18.367  1.00  0.00     0.124 S 
ATOM    101  O   UNL     1      17.993  -6.741 -17.246  1.00  0.00    -0.237 OA
ATOM    102  O   UNL     1      16.597  -8.129 -18.739  1.00  0.00    -0.237 OA
ATOM    103  O   UNL     1      17.387  -5.921 -19.493  1.00  0.00    -0.744 OA
ENDBRANCH  99 100
ENDBRANCH  73  94
ENDBRANCH  47  48
ENDBRANCH  40  42
ENDBRANCH  39  40
ENDBRANCH  38  39
ENDBRANCH  37  38
ENDBRANCH  36  37
ENDBRANCH   1  36
TORSDOF 23
