REMARK SMILES O=C(Cn1cc(-c2ccccc2CO)cn1)OCCOCCOC(=O)c1ccc(-c2c3nc(c(-c4ccc(S(=O)(=O)[O-])cc4)c4ccc([nH]4)c(-c4ccc(S(=O)(=O)[O-])cc4)c4nc(c(-c5ccc(S(=O)(=O)[O-])cc5)c5ccc2[nH]5)C=C4)C=C3)cc1
REMARK SMILES IDX 19 1 18 2 17 3 2 4 1 5 3 6 4 7 5 8 16 9 6 10 15 11 7 12 8 13
REMARK SMILES IDX 12 14 9 15 11 16 10 17 13 18 14 19 20 21 21 22 22 23 23 24
REMARK SMILES IDX 24 25 25 26 26 27 27 28 85 29 28 30 84 31 29 32 30 33 31 34
REMARK SMILES IDX 78 35 32 36 83 37 77 38 79 39 33 40 82 41 76 42 75 43 34 45
REMARK SMILES IDX 64 46 45 47 63 48 46 49 49 50 62 51 80 52 47 53 48 54 61 56
REMARK SMILES IDX 81 57 50 58 35 59 36 60 44 61 37 62 43 63 38 64 39 65 40 66
REMARK SMILES IDX 41 67 42 68 65 69 66 70 74 71 67 72 73 73 68 74 69 75 70 76
REMARK SMILES IDX 71 77 72 78 51 79 52 80 60 81 53 82 59 83 54 84 55 85 56 86
REMARK SMILES IDX 57 87 58 88
REMARK H PARENT 14 20 79 44 49 55
REMARK Flexibility Score: inf
ROOT
ATOM      1  C   UNL     1       4.837  -0.375   0.751  1.00  0.00     0.202 C 
ENDROOT
BRANCH   1   2
ATOM      2  C   UNL     1       4.173   0.692  -0.101  1.00  0.00     0.261 C 
BRANCH   2   3
ATOM      3  O   UNL     1       2.739   0.700  -0.070  1.00  0.00    -0.462 OA
BRANCH   3   4
ATOM      4  C   UNL     1       1.953   0.167  -1.038  1.00  0.00     0.327 C 
ATOM      5  O   UNL     1       0.786   0.545  -1.141  1.00  0.00    -0.250 OA
BRANCH   4   6
ATOM      6  C   UNL     1       2.471  -0.948  -1.905  1.00  0.00     0.266 C 
BRANCH   6   7
ATOM      7  N   UNL     1       3.474  -0.558  -2.872  1.00  0.00    -0.261 N 
ATOM      8  C   UNL     1       3.668   0.677  -3.422  1.00  0.00     0.118 A 
ATOM      9  N   UNL     1       4.443  -1.440  -3.198  1.00  0.00    -0.180 NA
ATOM     10  C   UNL     1       4.925   0.636  -3.985  1.00  0.00     0.020 A 
ATOM     11  C   UNL     1       5.337  -0.703  -3.862  1.00  0.00     0.143 A 
BRANCH  10  12
ATOM     12  C   UNL     1       5.575   1.792  -4.546  1.00  0.00    -0.010 A 
ATOM     13  C   UNL     1       5.329   2.076  -5.896  1.00  0.00     0.009 A 
ATOM     14  C   UNL     1       6.384   2.651  -3.772  1.00  0.00    -0.015 A 
ATOM     15  C   UNL     1       5.852   3.224  -6.482  1.00  0.00     0.001 A 
ATOM     16  C   UNL     1       6.885   3.815  -4.380  1.00  0.00     0.007 A 
ATOM     17  C   UNL     1       6.622   4.099  -5.722  1.00  0.00     0.000 A 
BRANCH  14  18
ATOM     18  C   UNL     1       6.662   2.423  -2.306  1.00  0.00     0.192 C 
BRANCH  18  19
ATOM     19  O   UNL     1       8.019   2.722  -1.992  1.00  0.00    -0.392 OA
ATOM     20  H   UNL     1       8.605   2.142  -2.504  1.00  0.00     0.211 HD
ENDBRANCH  18  19
ENDBRANCH  14  18
ENDBRANCH  10  12
ENDBRANCH   6   7
ENDBRANCH   4   6
ENDBRANCH   3   4
ENDBRANCH   2   3
ENDBRANCH   1   2
BRANCH   1  21
ATOM     21  O   UNL     1       4.351  -1.704   0.621  1.00  0.00    -0.374 OA
BRANCH  21  22
ATOM     22  C   UNL     1       3.147  -2.066   1.301  1.00  0.00     0.202 C 
BRANCH  22  23
ATOM     23  C   UNL     1       3.230  -2.233   2.807  1.00  0.00     0.261 C 
BRANCH  23  24
ATOM     24  O   UNL     1       3.340  -0.958   3.416  1.00  0.00    -0.460 OA
BRANCH  24  25
ATOM     25  C   UNL     1       4.563  -0.611   3.859  1.00  0.00     0.338 C 
ATOM     26  O   UNL     1       5.619  -1.213   3.689  1.00  0.00    -0.246 OA
BRANCH  25  27
ATOM     27  C   UNL     1       4.388   0.568   4.705  1.00  0.00     0.060 A 
ATOM     28  C   UNL     1       5.345   0.693   5.706  1.00  0.00     0.016 A 
ATOM     29  C   UNL     1       3.117   1.166   4.783  1.00  0.00     0.016 A 
ATOM     30  C   UNL     1       4.907   1.115   6.932  1.00  0.00     0.010 A 
ATOM     31  C   UNL     1       2.673   1.558   6.019  1.00  0.00     0.010 A 
ATOM     32  C   UNL     1       3.550   1.426   7.090  1.00  0.00    -0.014 A 
BRANCH  32  33
ATOM     33  C   UNL     1       3.107   1.706   8.429  1.00  0.00     0.031 A 
ATOM     34  C   UNL     1       3.482   3.057   8.863  1.00  0.00     0.074 A 
ATOM     35  C   UNL     1       2.391   0.853   9.175  1.00  0.00     0.049 A 
ATOM     36  N   UNL     1       4.448   3.386   9.651  1.00  0.00    -0.248 NA
ATOM     37  C   UNL     1       2.847   4.178   8.155  1.00  0.00     0.031 C 
ATOM     38  C   UNL     1       1.702  -0.365   8.747  1.00  0.00     0.029 A 
ATOM     39  N   UNL     1       2.035   0.982  10.479  1.00  0.00    -0.354 N 
ATOM     40  C   UNL     1       4.375   4.767   9.731  1.00  0.00     0.074 A 
ATOM     41  C   UNL     1       3.566   5.197   8.618  1.00  0.00     0.031 C 
ATOM     42  C   UNL     1       0.828  -0.729   9.714  1.00  0.00     0.029 A 
ATOM     43  C   UNL     1       0.989   0.159  10.858  1.00  0.00     0.049 A 
ATOM     44  H   UNL     1       2.480   1.605  11.099  1.00  0.00     0.167 HD
ATOM     45  C   UNL     1       4.684   5.419  10.883  1.00  0.00     0.031 A 
ATOM     46  C   UNL     1       0.250   0.287  11.986  1.00  0.00     0.031 A 
ATOM     47  C   UNL     1       5.442   4.590  11.789  1.00  0.00     0.049 A 
ATOM     48  C   UNL     1       1.030   1.109  12.949  1.00  0.00     0.074 A 
ATOM     49  C   UNL     1       6.628   3.888  11.709  1.00  0.00     0.029 A 
ATOM     50  N   UNL     1       4.775   4.092  12.885  1.00  0.00    -0.354 N 
ATOM     51  N   UNL     1       2.130   0.706  13.521  1.00  0.00    -0.248 NA
ATOM     52  C   UNL     1       0.808   2.548  12.989  1.00  0.00     0.031 C 
ATOM     53  C   UNL     1       6.438   2.726  12.512  1.00  0.00     0.029 A 
ATOM     54  C   UNL     1       5.159   2.789  13.068  1.00  0.00     0.049 A 
ATOM     55  H   UNL     1       4.132   4.588  13.443  1.00  0.00     0.167 HD
ATOM     56  C   UNL     1       2.925   1.840  13.618  1.00  0.00     0.074 A 
ATOM     57  C   UNL     1       2.014   2.957  13.396  1.00  0.00     0.031 C 
ATOM     58  C   UNL     1       4.289   1.751  13.588  1.00  0.00     0.031 A 
BRANCH  45  59
ATOM     59  C   UNL     1       3.883   6.609  11.355  1.00  0.00    -0.014 A 
ATOM     60  C   UNL     1       4.283   7.263  12.534  1.00  0.00     0.010 A 
ATOM     61  C   UNL     1       2.594   6.910  10.860  1.00  0.00     0.010 A 
ATOM     62  C   UNL     1       3.396   8.091  13.233  1.00  0.00     0.020 A 
ATOM     63  C   UNL     1       1.724   7.774  11.517  1.00  0.00     0.020 A 
ATOM     64  C   UNL     1       2.114   8.319  12.728  1.00  0.00     0.054 A 
BRANCH  64  65
ATOM     65  S   UNL     1       0.918   9.247  13.712  1.00  0.00     0.124 S 
ATOM     66  O   UNL     1       0.652   8.315  14.803  1.00  0.00    -0.237 OA
ATOM     67  O   UNL     1       1.672  10.446  14.065  1.00  0.00    -0.237 OA
ATOM     68  O   UNL     1      -0.190   9.463  12.783  1.00  0.00    -0.744 OA
ENDBRANCH  64  65
ENDBRANCH  45  59
BRANCH  46  69
ATOM     69  C   UNL     1      -1.197   0.006  12.149  1.00  0.00    -0.014 A 
ATOM     70  C   UNL     1      -1.793   0.018  13.423  1.00  0.00     0.010 A 
ATOM     71  C   UNL     1      -2.051  -0.020  11.027  1.00  0.00     0.010 A 
ATOM     72  C   UNL     1      -3.189   0.064  13.565  1.00  0.00     0.020 A 
ATOM     73  C   UNL     1      -3.442   0.007  11.160  1.00  0.00     0.020 A 
ATOM     74  C   UNL     1      -4.005   0.075  12.431  1.00  0.00     0.054 A 
BRANCH  74  75
ATOM     75  S   UNL     1      -5.796   0.309  12.615  1.00  0.00     0.124 S 
ATOM     76  O   UNL     1      -6.219  -0.968  13.181  1.00  0.00    -0.237 OA
ATOM     77  O   UNL     1      -5.876   1.458  13.513  1.00  0.00    -0.237 OA
ATOM     78  O   UNL     1      -6.252   0.563  11.249  1.00  0.00    -0.744 OA
ENDBRANCH  74  75
ENDBRANCH  46  69
BRANCH  58  79
ATOM     79  C   UNL     1       4.925   0.408  13.862  1.00  0.00    -0.014 A 
ATOM     80  C   UNL     1       4.671  -0.748  13.099  1.00  0.00     0.010 A 
ATOM     81  C   UNL     1       5.908   0.344  14.867  1.00  0.00     0.010 A 
ATOM     82  C   UNL     1       5.351  -1.946  13.364  1.00  0.00     0.020 A 
ATOM     83  C   UNL     1       6.604  -0.841  15.122  1.00  0.00     0.020 A 
ATOM     84  C   UNL     1       6.312  -1.984  14.378  1.00  0.00     0.054 A 
BRANCH  84  85
ATOM     85  S   UNL     1       7.212  -3.529  14.691  1.00  0.00     0.124 S 
ATOM     86  O   UNL     1       6.182  -4.383  15.275  1.00  0.00    -0.237 OA
ATOM     87  O   UNL     1       7.668  -3.915  13.357  1.00  0.00    -0.237 OA
ATOM     88  O   UNL     1       8.279  -3.131  15.609  1.00  0.00    -0.744 OA
ENDBRANCH  84  85
ENDBRANCH  58  79
ENDBRANCH  32  33
ENDBRANCH  25  27
ENDBRANCH  24  25
ENDBRANCH  23  24
ENDBRANCH  22  23
ENDBRANCH  21  22
ENDBRANCH   1  21
TORSDOF 21
