REMARK SMILES C[C@H]1[C@H](C)CC[C@@]2(C(=O)OCCOCCOC(=O)c3ccc(-c4c5nc(c(-c6ccc(S(=O)(=O)[O-])cc6)c6ccc([nH]6)c(-c6ccc(S(=O)(=O)[O-])cc6)c6nc(c(-c7ccc(S(=O)(=O)[O-])cc7)c7ccc4[nH]7)C=C6)C=C5)cc3)CC[C@@]3(C)C(=CC[C@@H]4[C@@]5(C)CC[C@H](O)C(C)(C)[C@@H]5CC[C@]43C)[C@H]12
REMARK SMILES IDX 14 1 13 2 12 3 11 4 10 5 8 6 9 7 7 8 1 9 2 10 3 11 101 12
REMARK SMILES IDX 4 13 5 14 83 15 6 16 79 17 81 18 84 19 80 20 82 21 99 22
REMARK SMILES IDX 85 23 86 24 98 25 100 26 87 27 97 28 88 29 89 30 96 31 90 32
REMARK SMILES IDX 93 33 91 34 94 35 95 36 92 37 15 39 16 40 17 41 18 42 19 43
REMARK SMILES IDX 20 44 78 45 21 46 77 47 22 48 23 49 24 50 71 51 25 52 76 53
REMARK SMILES IDX 70 54 72 55 26 56 75 57 69 58 68 59 27 61 57 62 38 63 56 64
REMARK SMILES IDX 39 65 42 66 55 67 73 68 40 69 41 70 54 72 74 73 43 74 28 75
REMARK SMILES IDX 29 76 37 77 30 78 36 79 31 80 32 81 33 82 34 83 35 84 58 85
REMARK SMILES IDX 59 86 67 87 60 88 66 89 61 90 62 91 63 92 64 93 65 94 44 95
REMARK SMILES IDX 45 96 53 97 46 98 52 99 47 100 48 101 49 102 50 103 51 104
REMARK H PARENT 92 38 72 60 42 71
REMARK Flexibility Score: inf
ROOT
ATOM      1  C   UNL     1       4.110   1.940  -4.641  1.00  0.00     0.202 C 
ENDROOT
BRANCH   1   2
ATOM      2  O   UNL     1       4.865   0.936  -3.992  1.00  0.00    -0.374 OA
BRANCH   2   3
ATOM      3  C   UNL     1       4.419   0.534  -2.705  1.00  0.00     0.202 C 
BRANCH   3   4
ATOM      4  C   UNL     1       2.941   0.672  -2.295  1.00  0.00     0.261 C 
BRANCH   4   5
ATOM      5  O   UNL     1       2.540   2.026  -1.958  1.00  0.00    -0.463 OA
BRANCH   5   6
ATOM      6  C   UNL     1       1.461   2.649  -2.501  1.00  0.00     0.312 C 
ATOM      7  O   UNL     1       1.330   2.811  -3.708  1.00  0.00    -0.252 OA
BRANCH   6   8
ATOM      8  C   UNL     1       0.434   3.207  -1.462  1.00  0.00     0.075 C 
ATOM      9  C   UNL     1       0.173   0.277   1.174  1.00  0.00     0.008 C 
ATOM     10  C   UNL     1       0.178   1.005  -0.174  1.00  0.00    -0.003 C 
ATOM     11  C   UNL     1      -1.207   0.776  -0.892  1.00  0.00    -0.011 C 
ATOM     12  C   UNL     1       0.594   2.549  -0.050  1.00  0.00     0.036 C 
ATOM     13  C   UNL     1      -1.514  -0.696  -1.224  1.00  0.00     0.008 C 
ATOM     14  C   UNL     1      -1.328   1.524  -2.217  1.00  0.00     0.005 C 
ATOM     15  C   UNL     1       2.019   3.025   0.480  1.00  0.00    -0.063 C 
ATOM     16  C   UNL     1      -0.973   2.978  -2.064  1.00  0.00     0.020 C 
ATOM     17  C   UNL     1       0.502   4.740  -1.319  1.00  0.00     0.020 C 
ATOM     18  C   UNL     1       2.321   4.577   0.525  1.00  0.00    -0.006 C 
ATOM     19  C   UNL     1       3.046   2.159   0.629  1.00  0.00    -0.027 C 
ATOM     20  C   UNL     1       1.806   5.264  -0.770  1.00  0.00     0.013 C 
ATOM     21  C   UNL     1       1.536   5.150   1.730  1.00  0.00     0.017 C 
ATOM     22  C   UNL     1       3.927   4.920   0.675  1.00  0.00    -0.020 C 
ATOM     23  C   UNL     1       4.493   2.536   0.360  1.00  0.00     0.032 C 
ATOM     24  C   UNL     1       4.649   3.936  -0.315  1.00  0.00     0.006 C 
ATOM     25  C   UNL     1       4.293   6.391   0.354  1.00  0.00     0.008 C 
ATOM     26  C   UNL     1       4.403   4.703   2.148  1.00  0.00     0.012 C 
ATOM     27  C   UNL     1       6.091   4.321  -0.921  1.00  0.00    -0.025 C 
ATOM     28  C   UNL     1       5.807   6.618   0.216  1.00  0.00     0.005 C 
ATOM     29  C   UNL     1       7.167   3.546  -0.141  1.00  0.00     0.012 C 
ATOM     30  C   UNL     1       6.184   3.865  -2.421  1.00  0.00     0.010 C 
ATOM     31  C   UNL     1       6.312   5.880  -1.025  1.00  0.00     0.003 C 
ATOM     32  C   UNL     1       7.488   4.247  -3.138  1.00  0.00     0.033 C 
ATOM     33  C   UNL     1       7.721   6.337  -1.587  1.00  0.00    -0.006 C 
ATOM     34  C   UNL     1       7.874   5.725  -3.015  1.00  0.00     0.120 C 
ATOM     35  C   UNL     1       8.922   6.003  -0.676  1.00  0.00     0.014 C 
ATOM     36  C   UNL     1       7.774   7.883  -1.756  1.00  0.00     0.014 C 
BRANCH  34  37
ATOM     37  O   UNL     1       9.197   5.915  -3.522  1.00  0.00    -0.393 OA
ATOM     38  H   UNL     1       9.827   5.419  -2.976  1.00  0.00     0.210 HD
ENDBRANCH  34  37
ENDBRANCH   6   8
ENDBRANCH   5   6
ENDBRANCH   4   5
ENDBRANCH   3   4
ENDBRANCH   2   3
ENDBRANCH   1   2
BRANCH   1  39
ATOM     39  C   UNL     1       3.085   1.346  -5.619  1.00  0.00     0.261 C 
BRANCH  39  40
ATOM     40  O   UNL     1       2.426   0.156  -5.144  1.00  0.00    -0.460 OA
BRANCH  40  41
ATOM     41  C   UNL     1       3.135  -0.990  -5.262  1.00  0.00     0.338 C 
ATOM     42  O   UNL     1       4.219  -1.141  -5.819  1.00  0.00    -0.246 OA
BRANCH  41  43
ATOM     43  C   UNL     1       2.475  -2.076  -4.517  1.00  0.00     0.060 A 
ATOM     44  C   UNL     1       3.196  -2.766  -3.530  1.00  0.00     0.016 A 
ATOM     45  C   UNL     1       1.201  -2.503  -4.892  1.00  0.00     0.016 A 
ATOM     46  C   UNL     1       2.678  -3.927  -2.966  1.00  0.00     0.010 A 
ATOM     47  C   UNL     1       0.699  -3.692  -4.360  1.00  0.00     0.010 A 
ATOM     48  C   UNL     1       1.466  -4.433  -3.444  1.00  0.00    -0.014 A 
BRANCH  48  49
ATOM     49  C   UNL     1       1.150  -5.858  -3.210  1.00  0.00     0.031 A 
ATOM     50  C   UNL     1       1.549  -6.846  -4.275  1.00  0.00     0.074 A 
ATOM     51  C   UNL     1       0.565  -6.259  -2.070  1.00  0.00     0.049 A 
ATOM     52  N   UNL     1       1.311  -8.127  -4.350  1.00  0.00    -0.248 NA
ATOM     53  C   UNL     1       2.324  -6.312  -5.411  1.00  0.00     0.031 C 
ATOM     54  C   UNL     1       0.220  -5.388  -0.947  1.00  0.00     0.029 A 
ATOM     55  N   UNL     1       0.152  -7.503  -1.675  1.00  0.00    -0.354 N 
ATOM     56  C   UNL     1       1.886  -8.547  -5.545  1.00  0.00     0.074 A 
ATOM     57  C   UNL     1       2.470  -7.385  -6.173  1.00  0.00     0.031 C 
ATOM     58  C   UNL     1      -0.372  -6.127   0.008  1.00  0.00     0.029 A 
ATOM     59  C   UNL     1      -0.486  -7.507  -0.459  1.00  0.00     0.049 A 
ATOM     60  H   UNL     1       0.299  -8.316  -2.210  1.00  0.00     0.167 HD
ATOM     61  C   UNL     1       1.920  -9.794  -6.070  1.00  0.00     0.031 A 
ATOM     62  C   UNL     1      -1.122  -8.508   0.179  1.00  0.00     0.031 A 
ATOM     63  C   UNL     1       1.319 -10.933  -5.432  1.00  0.00     0.049 A 
ATOM     64  C   UNL     1      -1.153  -9.868  -0.468  1.00  0.00     0.074 A 
ATOM     65  C   UNL     1       1.281 -12.245  -5.866  1.00  0.00     0.029 A 
ATOM     66  N   UNL     1       0.643 -10.890  -4.221  1.00  0.00    -0.354 N 
ATOM     67  N   UNL     1      -0.612 -10.255  -1.601  1.00  0.00    -0.248 NA
ATOM     68  C   UNL     1      -1.875 -10.928   0.247  1.00  0.00     0.031 C 
ATOM     69  C   UNL     1       0.528 -12.983  -4.947  1.00  0.00     0.029 A 
ATOM     70  C   UNL     1       0.159 -12.146  -3.904  1.00  0.00     0.049 A 
ATOM     71  H   UNL     1       0.525 -10.084  -3.668  1.00  0.00     0.167 HD
ATOM     72  C   UNL     1      -0.904 -11.609  -1.719  1.00  0.00     0.074 A 
ATOM     73  C   UNL     1      -1.654 -11.976  -0.534  1.00  0.00     0.031 C 
ATOM     74  C   UNL     1      -0.583 -12.476  -2.713  1.00  0.00     0.031 A 
BRANCH  61  75
ATOM     75  C   UNL     1       2.582  -9.977  -7.412  1.00  0.00    -0.014 A 
ATOM     76  C   UNL     1       3.976  -9.865  -7.566  1.00  0.00     0.010 A 
ATOM     77  C   UNL     1       1.796 -10.303  -8.533  1.00  0.00     0.010 A 
ATOM     78  C   UNL     1       4.567 -10.051  -8.820  1.00  0.00     0.020 A 
ATOM     79  C   UNL     1       2.386 -10.518  -9.782  1.00  0.00     0.020 A 
ATOM     80  C   UNL     1       3.768 -10.379  -9.920  1.00  0.00     0.054 A 
BRANCH  80  81
ATOM     81  S   UNL     1       4.568 -10.659 -11.524  1.00  0.00     0.124 S 
ATOM     82  O   UNL     1       4.993  -9.310 -11.891  1.00  0.00    -0.237 OA
ATOM     83  O   UNL     1       5.645 -11.586 -11.186  1.00  0.00    -0.237 OA
ATOM     84  O   UNL     1       3.503 -11.221 -12.351  1.00  0.00    -0.744 OA
ENDBRANCH  80  81
ENDBRANCH  61  75
BRANCH  62  85
ATOM     85  C   UNL     1      -1.810  -8.252   1.475  1.00  0.00    -0.014 A 
ATOM     86  C   UNL     1      -1.351  -8.843   2.665  1.00  0.00     0.010 A 
ATOM     87  C   UNL     1      -2.935  -7.407   1.524  1.00  0.00     0.010 A 
ATOM     88  C   UNL     1      -2.017  -8.611   3.873  1.00  0.00     0.020 A 
ATOM     89  C   UNL     1      -3.583  -7.147   2.734  1.00  0.00     0.020 A 
ATOM     90  C   UNL     1      -3.127  -7.763   3.900  1.00  0.00     0.054 A 
BRANCH  90  91
ATOM     91  S   UNL     1      -3.949  -7.447   5.487  1.00  0.00     0.124 S 
ATOM     92  O   UNL     1      -4.607  -8.723   5.747  1.00  0.00    -0.237 OA
ATOM     93  O   UNL     1      -2.826  -7.121   6.362  1.00  0.00    -0.237 OA
ATOM     94  O   UNL     1      -4.844  -6.330   5.192  1.00  0.00    -0.744 OA
ENDBRANCH  90  91
ENDBRANCH  62  85
BRANCH  74  95
ATOM     95  C   UNL     1      -1.007 -13.909  -2.540  1.00  0.00    -0.014 A 
ATOM     96  C   UNL     1      -2.356 -14.290  -2.642  1.00  0.00     0.010 A 
ATOM     97  C   UNL     1      -0.026 -14.897  -2.332  1.00  0.00     0.010 A 
ATOM     98  C   UNL     1      -2.720 -15.631  -2.503  1.00  0.00     0.020 A 
ATOM     99  C   UNL     1      -0.383 -16.242  -2.227  1.00  0.00     0.020 A 
ATOM    100  C   UNL     1      -1.731 -16.599  -2.299  1.00  0.00     0.054 A 
BRANCH 100 101
ATOM    101  S   UNL     1      -2.228 -18.337  -2.166  1.00  0.00     0.124 S 
ATOM    102  O   UNL     1      -2.869 -18.370  -0.855  1.00  0.00    -0.237 OA
ATOM    103  O   UNL     1      -3.123 -18.501  -3.309  1.00  0.00    -0.237 OA
ATOM    104  O   UNL     1      -0.966 -19.067  -2.261  1.00  0.00    -0.744 OA
ENDBRANCH 100 101
ENDBRANCH  74  95
ENDBRANCH  48  49
ENDBRANCH  41  43
ENDBRANCH  40  41
ENDBRANCH  39  40
ENDBRANCH   1  39
TORSDOF 18
