REMARK SMILES O=C(OCCOCCOC(=O)c1cc(N2C(=O)[C@H]3[C@@H]4C=C[C@@H]([C@@H]5C[C@H]45)[C@@H]3C2=O)ccc1Cl)c1ccc(-c2c3nc(c(-c4ccc(S(=O)(=O)[O-])cc4)c4ccc([nH]4)c(-c4ccc(S(=O)(=O)[O-])cc4)c4nc(c(-c5ccc(S(=O)(=O)[O-])cc5)c5ccc2[nH]5)C=C4)C=C3)cc1
REMARK SMILES IDX 5 1 4 2 3 3 2 4 1 5 33 6 34 7 92 8 35 9 91 10 36 11 37 12
REMARK SMILES IDX 38 13 85 14 39 15 90 16 84 17 86 18 40 19 89 20 83 21 82 22
REMARK SMILES IDX 41 24 71 25 52 26 70 27 53 28 56 29 69 30 87 31 54 32 55 33
REMARK SMILES IDX 68 35 88 36 57 37 42 38 43 39 51 40 44 41 50 42 45 43 46 44
REMARK SMILES IDX 47 45 48 46 49 47 72 48 73 49 81 50 74 51 80 52 75 53 76 54
REMARK SMILES IDX 77 55 78 56 79 57 58 58 59 59 67 60 60 61 66 62 61 63 62 64
REMARK SMILES IDX 63 65 64 66 65 67 6 68 7 69 8 70 9 71 10 72 11 73 12 74
REMARK SMILES IDX 13 75 31 76 14 77 30 78 32 79 29 80 15 81 16 82 27 83 17 84
REMARK SMILES IDX 18 85 26 86 28 87 19 88 22 89 20 90 25 91 21 92 23 93 24 94
REMARK H PARENT 86 23 56 34
REMARK Flexibility Score: inf
ROOT
ATOM      1  C   UNL     1       4.486  -1.513   0.378  1.00  0.00     0.202 C 
ENDROOT
BRANCH   1   2
ATOM      2  C   UNL     1       4.189  -0.279   1.235  1.00  0.00     0.261 C 
BRANCH   2   3
ATOM      3  O   UNL     1       2.787   0.034   1.190  1.00  0.00    -0.460 OA
BRANCH   3   4
ATOM      4  C   UNL     1       2.161   0.993   0.470  1.00  0.00     0.338 C 
ATOM      5  O   UNL     1       0.940   1.095   0.571  1.00  0.00    -0.246 OA
BRANCH   4   6
ATOM      6  C   UNL     1       2.868   1.944  -0.440  1.00  0.00     0.060 A 
ATOM      7  C   UNL     1       4.047   1.666  -1.139  1.00  0.00     0.016 A 
ATOM      8  C   UNL     1       2.233   3.173  -0.681  1.00  0.00     0.016 A 
ATOM      9  C   UNL     1       4.610   2.582  -2.014  1.00  0.00     0.010 A 
ATOM     10  C   UNL     1       2.779   4.094  -1.575  1.00  0.00     0.010 A 
ATOM     11  C   UNL     1       3.980   3.799  -2.230  1.00  0.00    -0.014 A 
BRANCH  11  12
ATOM     12  C   UNL     1       4.670   4.808  -3.043  1.00  0.00     0.031 A 
ATOM     13  C   UNL     1       5.387   5.904  -2.325  1.00  0.00     0.074 A 
ATOM     14  C   UNL     1       4.704   4.681  -4.379  1.00  0.00     0.049 A 
ATOM     15  N   UNL     1       5.955   6.972  -2.806  1.00  0.00    -0.248 NA
ATOM     16  C   UNL     1       5.478   5.772  -0.859  1.00  0.00     0.031 C 
ATOM     17  C   UNL     1       4.145   3.557  -5.135  1.00  0.00     0.029 A 
ATOM     18  N   UNL     1       5.234   5.499  -5.337  1.00  0.00    -0.354 N 
ATOM     19  C   UNL     1       6.431   7.666  -1.701  1.00  0.00     0.074 A 
ATOM     20  C   UNL     1       6.094   6.895  -0.526  1.00  0.00     0.031 C 
ATOM     21  C   UNL     1       4.353   3.765  -6.445  1.00  0.00     0.029 A 
ATOM     22  C   UNL     1       4.992   5.065  -6.618  1.00  0.00     0.049 A 
ATOM     23  H   UNL     1       5.740   6.318  -5.130  1.00  0.00     0.167 HD
ATOM     24  C   UNL     1       7.069   8.858  -1.682  1.00  0.00     0.031 A 
ATOM     25  C   UNL     1       5.215   5.685  -7.792  1.00  0.00     0.031 A 
ATOM     26  C   UNL     1       7.348   9.603  -2.878  1.00  0.00     0.049 A 
ATOM     27  C   UNL     1       5.842   7.052  -7.750  1.00  0.00     0.074 A 
ATOM     28  C   UNL     1       7.926  10.850  -3.009  1.00  0.00     0.029 A 
ATOM     29  N   UNL     1       7.053   9.155  -4.162  1.00  0.00    -0.354 N 
ATOM     30  N   UNL     1       6.229   7.744  -6.701  1.00  0.00    -0.248 NA
ATOM     31  C   UNL     1       6.056   7.729  -9.033  1.00  0.00     0.031 C 
ATOM     32  C   UNL     1       7.932  11.177  -4.370  1.00  0.00     0.029 A 
ATOM     33  C   UNL     1       7.421  10.105  -5.092  1.00  0.00     0.049 A 
ATOM     34  H   UNL     1       6.641   8.286  -4.375  1.00  0.00     0.167 HD
ATOM     35  C   UNL     1       6.757   8.928  -7.197  1.00  0.00     0.074 A 
ATOM     36  C   UNL     1       6.640   8.856  -8.643  1.00  0.00     0.031 C 
ATOM     37  C   UNL     1       7.294   9.977  -6.526  1.00  0.00     0.031 A 
BRANCH  24  38
ATOM     38  C   UNL     1       7.382   9.441  -0.330  1.00  0.00    -0.014 A 
ATOM     39  C   UNL     1       8.345   8.867   0.520  1.00  0.00     0.010 A 
ATOM     40  C   UNL     1       6.636  10.541   0.130  1.00  0.00     0.010 A 
ATOM     41  C   UNL     1       8.503   9.336   1.829  1.00  0.00     0.020 A 
ATOM     42  C   UNL     1       6.812  11.032   1.426  1.00  0.00     0.020 A 
ATOM     43  C   UNL     1       7.724  10.406   2.277  1.00  0.00     0.054 A 
BRANCH  43  44
ATOM     44  S   UNL     1       7.908  10.962   3.994  1.00  0.00     0.124 S 
ATOM     45  O   UNL     1       7.239   9.891   4.730  1.00  0.00    -0.237 OA
ATOM     46  O   UNL     1       9.358  11.024   4.159  1.00  0.00    -0.237 OA
ATOM     47  O   UNL     1       7.225  12.253   4.016  1.00  0.00    -0.744 OA
ENDBRANCH  43  44
ENDBRANCH  24  38
BRANCH  25  48
ATOM     48  C   UNL     1       4.788   5.036  -9.062  1.00  0.00    -0.014 A 
ATOM     49  C   UNL     1       5.732   4.546  -9.980  1.00  0.00     0.010 A 
ATOM     50  C   UNL     1       3.418   4.839  -9.326  1.00  0.00     0.010 A 
ATOM     51  C   UNL     1       5.315   3.866 -11.132  1.00  0.00     0.020 A 
ATOM     52  C   UNL     1       2.998   4.137 -10.461  1.00  0.00     0.020 A 
ATOM     53  C   UNL     1       3.951   3.658 -11.360  1.00  0.00     0.054 A 
BRANCH  53  54
ATOM     54  S   UNL     1       3.439   2.700 -12.815  1.00  0.00     0.124 S 
ATOM     55  O   UNL     1       3.720   3.629 -13.905  1.00  0.00    -0.237 OA
ATOM     56  O   UNL     1       4.308   1.528 -12.742  1.00  0.00    -0.237 OA
ATOM     57  O   UNL     1       2.024   2.433 -12.569  1.00  0.00    -0.744 OA
ENDBRANCH  53  54
ENDBRANCH  25  48
BRANCH  37  58
ATOM     58  C   UNL     1       7.850  11.107  -7.345  1.00  0.00    -0.014 A 
ATOM     59  C   UNL     1       7.007  12.053  -7.949  1.00  0.00     0.010 A 
ATOM     60  C   UNL     1       9.245  11.285  -7.395  1.00  0.00     0.010 A 
ATOM     61  C   UNL     1       7.553  13.165  -8.593  1.00  0.00     0.020 A 
ATOM     62  C   UNL     1       9.792  12.407  -8.015  1.00  0.00     0.020 A 
ATOM     63  C   UNL     1       8.942  13.339  -8.613  1.00  0.00     0.054 A 
BRANCH  63  64
ATOM     64  S   UNL     1       9.621  14.843  -9.363  1.00  0.00     0.124 S 
ATOM     65  O   UNL     1       9.438  14.581 -10.787  1.00  0.00    -0.237 OA
ATOM     66  O   UNL     1       8.772  15.892  -8.801  1.00  0.00    -0.237 OA
ATOM     67  O   UNL     1      11.009  14.863  -8.905  1.00  0.00    -0.744 OA
ENDBRANCH  63  64
ENDBRANCH  37  58
ENDBRANCH  11  12
ENDBRANCH   4   6
ENDBRANCH   3   4
ENDBRANCH   2   3
ENDBRANCH   1   2
BRANCH   1  68
ATOM     68  O   UNL     1       4.190  -1.362  -1.013  1.00  0.00    -0.374 OA
BRANCH  68  69
ATOM     69  C   UNL     1       2.829  -1.617  -1.391  1.00  0.00     0.202 C 
BRANCH  69  70
ATOM     70  C   UNL     1       2.793  -2.715  -2.452  1.00  0.00     0.261 C 
BRANCH  70  71
ATOM     71  O   UNL     1       3.373  -3.891  -1.871  1.00  0.00    -0.460 OA
BRANCH  71  72
ATOM     72  C   UNL     1       4.690  -4.075  -2.125  1.00  0.00     0.339 C 
ATOM     73  O   UNL     1       5.367  -3.547  -2.991  1.00  0.00    -0.246 OA
BRANCH  72  74
ATOM     74  C   UNL     1       5.270  -4.828  -0.999  1.00  0.00     0.080 A 
ATOM     75  C   UNL     1       6.413  -4.265  -0.396  1.00  0.00     0.044 A 
ATOM     76  C   UNL     1       4.696  -5.995  -0.482  1.00  0.00     0.055 A 
ATOM     77  C   UNL     1       6.951  -4.855   0.742  1.00  0.00     0.053 A 
ATOM     78  C   UNL     1       5.250  -6.584   0.655  1.00  0.00     0.023 A 
ATOM     79  Cl  UNL     1       3.337  -6.788  -1.195  1.00  0.00    -0.083 Cl
ATOM     80  C   UNL     1       6.368  -6.017   1.266  1.00  0.00     0.028 A 
BRANCH  77  81
ATOM     81  N   UNL     1       8.030  -4.267   1.429  1.00  0.00    -0.250 N 
ATOM     82  C   UNL     1       7.800  -3.472   2.572  1.00  0.00     0.238 C 
ATOM     83  C   UNL     1       9.272  -4.933   1.504  1.00  0.00     0.238 C 
ATOM     84  O   UNL     1       6.758  -2.994   2.985  1.00  0.00    -0.274 OA
ATOM     85  C   UNL     1       9.151  -3.363   3.206  1.00  0.00     0.100 C 
ATOM     86  C   UNL     1       9.614  -4.799   2.948  1.00  0.00     0.100 C 
ATOM     87  O   UNL     1       9.810  -5.665   0.695  1.00  0.00    -0.274 OA
ATOM     88  C   UNL     1       9.567  -2.946   4.627  1.00  0.00     0.028 C 
ATOM     89  C   UNL     1      10.815  -5.115   3.827  1.00  0.00     0.028 C 
ATOM     90  C   UNL     1      11.093  -2.771   4.416  1.00  0.00    -0.026 C 
ATOM     91  C   UNL     1       9.463  -4.041   5.705  1.00  0.00     0.001 C 
ATOM     92  C   UNL     1      11.716  -3.878   3.948  1.00  0.00    -0.026 C 
ATOM     93  C   UNL     1      10.194  -5.317   5.260  1.00  0.00     0.001 C 
ATOM     94  C   UNL     1       8.710  -5.336   5.636  1.00  0.00     0.009 C 
ENDBRANCH  77  81
ENDBRANCH  72  74
ENDBRANCH  71  72
ENDBRANCH  70  71
ENDBRANCH  69  70
ENDBRANCH  68  69
ENDBRANCH   1  68
TORSDOF 18
