REMARK SMILES COc1cc(Cl)ccc1-c1ccc(CC(=O)OCCOCCOC(=O)c2ccc(-c3c4nc(c(-c5ccc(S(=O)(=O)[O-])cc5)c5ccc([nH]5)c(-c5ccc(S(=O)(=O)[O-])cc5)c5nc(c(-c6ccc(S(=O)(=O)[O-])cc6)c6ccc3[nH]6)C=C5)C=C4)cc2)cc1
REMARK SMILES IDX 20 1 19 2 18 3 17 4 15 5 16 6 14 7 13 8 10 9 11 10 87 11
REMARK SMILES IDX 12 12 86 13 9 14 3 15 4 16 5 17 8 18 6 19 7 20 2 21 1 22
REMARK SMILES IDX 21 23 22 24 23 25 24 26 25 27 26 28 27 29 85 30 28 31 84 32
REMARK SMILES IDX 29 33 30 34 31 35 78 36 32 37 83 38 77 39 79 40 33 41 82 42
REMARK SMILES IDX 76 43 75 44 34 46 64 47 45 48 63 49 46 50 49 51 62 52 80 53
REMARK SMILES IDX 47 54 48 55 61 57 81 58 50 59 35 60 36 61 44 62 37 63 43 64
REMARK SMILES IDX 38 65 39 66 40 67 41 68 42 69 65 70 66 71 74 72 67 73 73 74
REMARK SMILES IDX 68 75 69 76 70 77 71 78 72 79 51 80 52 81 60 82 53 83 59 84
REMARK SMILES IDX 54 85 55 86 56 87 57 88 58 89
REMARK H PARENT 79 45 49 56
REMARK Flexibility Score: inf
ROOT
ATOM      1  O   UNL     1      -7.163   3.728   5.210  1.00  0.00    -0.374 OA
ENDROOT
BRANCH   1   2
ATOM      2  C   UNL     1      -7.493   2.351   5.401  1.00  0.00     0.202 C 
BRANCH   2   3
ATOM      3  C   UNL     1      -7.817   1.547   4.139  1.00  0.00     0.261 C 
BRANCH   3   4
ATOM      4  O   UNL     1      -6.682   1.422   3.259  1.00  0.00    -0.463 OA
BRANCH   4   5
ATOM      5  C   UNL     1      -6.814   2.003   2.038  1.00  0.00     0.310 C 
ATOM      6  O   UNL     1      -7.830   2.565   1.639  1.00  0.00    -0.252 OA
BRANCH   5   7
ATOM      7  C   UNL     1      -5.604   1.854   1.148  1.00  0.00     0.158 C 
BRANCH   7   8
ATOM      8  C   UNL     1      -4.240   1.691   1.782  1.00  0.00    -0.037 A 
ATOM      9  C   UNL     1      -1.582   1.385   2.719  1.00  0.00    -0.015 A 
ATOM     10  C   UNL     1      -2.177   2.651   2.655  1.00  0.00     0.009 A 
ATOM     11  C   UNL     1      -2.349   0.272   2.344  1.00  0.00     0.009 A 
ATOM     12  C   UNL     1      -3.488   2.804   2.183  1.00  0.00     0.005 A 
ATOM     13  C   UNL     1      -3.663   0.420   1.889  1.00  0.00     0.005 A 
BRANCH   9  14
ATOM     14  C   UNL     1      -0.185   1.216   3.144  1.00  0.00     0.024 A 
ATOM     15  C   UNL     1       0.862   1.041   2.214  1.00  0.00     0.128 A 
ATOM     16  C   UNL     1       2.181   0.859   2.647  1.00  0.00     0.067 A 
ATOM     17  C   UNL     1       2.460   0.820   4.010  1.00  0.00     0.044 A 
ATOM     18  C   UNL     1       0.129   1.185   4.514  1.00  0.00     0.014 A 
ATOM     19  Cl  UNL     1       4.081   0.579   4.539  1.00  0.00    -0.084 Cl
ATOM     20  C   UNL     1       1.443   0.982   4.946  1.00  0.00     0.021 A 
BRANCH  15  21
ATOM     21  O   UNL     1       0.564   1.141   0.876  1.00  0.00    -0.496 OA
ATOM     22  C   UNL     1       1.048   0.042   0.108  1.00  0.00     0.278 C 
ENDBRANCH  15  21
ENDBRANCH   9  14
ENDBRANCH   7   8
ENDBRANCH   5   7
ENDBRANCH   4   5
ENDBRANCH   3   4
ENDBRANCH   2   3
ENDBRANCH   1   2
BRANCH   1  23
ATOM     23  C   UNL     1      -5.856   4.014   4.715  1.00  0.00     0.202 C 
BRANCH  23  24
ATOM     24  C   UNL     1      -4.706   3.935   5.726  1.00  0.00     0.261 C 
BRANCH  24  25
ATOM     25  O   UNL     1      -4.517   2.606   6.240  1.00  0.00    -0.460 OA
BRANCH  25  26
ATOM     26  C   UNL     1      -4.830   2.462   7.551  1.00  0.00     0.338 C 
ATOM     27  O   UNL     1      -5.148   3.345   8.330  1.00  0.00    -0.246 OA
BRANCH  26  28
ATOM     28  C   UNL     1      -4.905   1.031   7.912  1.00  0.00     0.060 A 
ATOM     29  C   UNL     1      -6.017   0.623   8.660  1.00  0.00     0.016 A 
ATOM     30  C   UNL     1      -3.890   0.123   7.601  1.00  0.00     0.016 A 
ATOM     31  C   UNL     1      -6.085  -0.674   9.159  1.00  0.00     0.010 A 
ATOM     32  C   UNL     1      -3.958  -1.181   8.108  1.00  0.00     0.010 A 
ATOM     33  C   UNL     1      -5.034  -1.571   8.926  1.00  0.00    -0.014 A 
BRANCH  33  34
ATOM     34  C   UNL     1      -5.012  -2.856   9.668  1.00  0.00     0.031 A 
ATOM     35  C   UNL     1      -4.168  -2.970  10.909  1.00  0.00     0.074 A 
ATOM     36  C   UNL     1      -5.782  -3.887   9.278  1.00  0.00     0.049 A 
ATOM     37  N   UNL     1      -4.058  -3.969  11.746  1.00  0.00    -0.248 NA
ATOM     38  C   UNL     1      -3.338  -1.803  11.252  1.00  0.00     0.031 C 
ATOM     39  C   UNL     1      -6.660  -3.890   8.109  1.00  0.00     0.029 A 
ATOM     40  N   UNL     1      -5.953  -5.131   9.833  1.00  0.00    -0.354 N 
ATOM     41  C   UNL     1      -3.147  -3.555  12.711  1.00  0.00     0.074 A 
ATOM     42  C   UNL     1      -2.709  -2.227  12.337  1.00  0.00     0.031 C 
ATOM     43  C   UNL     1      -7.279  -5.081   8.034  1.00  0.00     0.029 A 
ATOM     44  C   UNL     1      -6.828  -5.928   9.137  1.00  0.00     0.049 A 
ATOM     45  H   UNL     1      -5.492  -5.423  10.652  1.00  0.00     0.167 HD
ATOM     46  C   UNL     1      -2.718  -4.215  13.814  1.00  0.00     0.031 A 
ATOM     47  C   UNL     1      -7.218  -7.199   9.358  1.00  0.00     0.031 A 
ATOM     48  C   UNL     1      -3.145  -5.540  14.177  1.00  0.00     0.049 A 
ATOM     49  C   UNL     1      -6.700  -7.931  10.567  1.00  0.00     0.074 A 
ATOM     50  C   UNL     1      -2.792  -6.284  15.290  1.00  0.00     0.029 A 
ATOM     51  N   UNL     1      -4.010  -6.325  13.430  1.00  0.00    -0.354 N 
ATOM     52  N   UNL     1      -5.877  -7.506  11.497  1.00  0.00    -0.248 NA
ATOM     53  C   UNL     1      -7.173  -9.309  10.764  1.00  0.00     0.031 C 
ATOM     54  C   UNL     1      -3.401  -7.540  15.186  1.00  0.00     0.029 A 
ATOM     55  C   UNL     1      -4.179  -7.557  14.039  1.00  0.00     0.049 A 
ATOM     56  H   UNL     1      -4.440  -6.047  12.589  1.00  0.00     0.167 HD
ATOM     57  C   UNL     1      -5.752  -8.556  12.402  1.00  0.00     0.074 A 
ATOM     58  C   UNL     1      -6.593  -9.630  11.913  1.00  0.00     0.031 C 
ATOM     59  C   UNL     1      -5.012  -8.621  13.536  1.00  0.00     0.031 A 
BRANCH  46  60
ATOM     60  C   UNL     1      -1.702  -3.522  14.683  1.00  0.00    -0.014 A 
ATOM     61  C   UNL     1      -2.053  -2.414  15.477  1.00  0.00     0.010 A 
ATOM     62  C   UNL     1      -0.378  -3.994  14.715  1.00  0.00     0.010 A 
ATOM     63  C   UNL     1      -1.086  -1.761  16.247  1.00  0.00     0.020 A 
ATOM     64  C   UNL     1       0.586  -3.360  15.504  1.00  0.00     0.020 A 
ATOM     65  C   UNL     1       0.230  -2.233  16.248  1.00  0.00     0.054 A 
BRANCH  65  66
ATOM     66  S   UNL     1       1.468  -1.366  17.251  1.00  0.00     0.124 S 
ATOM     67  O   UNL     1       1.700  -0.158  16.462  1.00  0.00    -0.237 OA
ATOM     68  O   UNL     1       0.771  -1.163  18.518  1.00  0.00    -0.237 OA
ATOM     69  O   UNL     1       2.589  -2.300  17.303  1.00  0.00    -0.744 OA
ENDBRANCH  65  66
ENDBRANCH  46  60
BRANCH  47  70
ATOM     70  C   UNL     1      -8.153  -7.855   8.405  1.00  0.00    -0.014 A 
ATOM     71  C   UNL     1      -9.490  -8.103   8.760  1.00  0.00     0.010 A 
ATOM     72  C   UNL     1      -7.712  -8.201   7.114  1.00  0.00     0.010 A 
ATOM     73  C   UNL     1     -10.370  -8.685   7.841  1.00  0.00     0.020 A 
ATOM     74  C   UNL     1      -8.594  -8.761   6.186  1.00  0.00     0.020 A 
ATOM     75  C   UNL     1      -9.917  -9.004   6.557  1.00  0.00     0.054 A 
BRANCH  75  76
ATOM     76  S   UNL     1     -11.095  -9.679   5.353  1.00  0.00     0.124 S 
ATOM     77  O   UNL     1     -11.258 -11.051   5.823  1.00  0.00    -0.237 OA
ATOM     78  O   UNL     1     -12.256  -8.809   5.525  1.00  0.00    -0.237 OA
ATOM     79  O   UNL     1     -10.400  -9.531   4.076  1.00  0.00    -0.744 OA
ENDBRANCH  75  76
ENDBRANCH  47  70
BRANCH  59  80
ATOM     80  C   UNL     1      -5.090  -9.888  14.345  1.00  0.00    -0.014 A 
ATOM     81  C   UNL     1      -4.464 -11.070  13.911  1.00  0.00     0.010 A 
ATOM     82  C   UNL     1      -5.747  -9.878  15.590  1.00  0.00     0.010 A 
ATOM     83  C   UNL     1      -4.520 -12.227  14.693  1.00  0.00     0.020 A 
ATOM     84  C   UNL     1      -5.783 -11.026  16.386  1.00  0.00     0.020 A 
ATOM     85  C   UNL     1      -5.180 -12.198  15.925  1.00  0.00     0.054 A 
BRANCH  85  86
ATOM     86  S   UNL     1      -5.200 -13.700  16.943  1.00  0.00     0.124 S 
ATOM     87  O   UNL     1      -6.181 -14.526  16.245  1.00  0.00    -0.237 OA
ATOM     88  O   UNL     1      -3.817 -14.163  16.861  1.00  0.00    -0.237 OA
ATOM     89  O   UNL     1      -5.613 -13.220  18.260  1.00  0.00    -0.744 OA
ENDBRANCH  85  86
ENDBRANCH  59  80
ENDBRANCH  33  34
ENDBRANCH  26  28
ENDBRANCH  25  26
ENDBRANCH  24  25
ENDBRANCH  23  24
ENDBRANCH   1  23
TORSDOF 20
