REMARK SMILES CC(C)N(CC(=O)OCCOCCOC(=O)c1ccc(-c2c3nc(c(-c4ccc(S(=O)(=O)[O-])cc4)c4ccc([nH]4)c(-c4ccc(S(=O)(=O)[O-])cc4)c4nc(c(-c5ccc(S(=O)(=O)[O-])cc5)c5ccc2[nH]5)C=C4)C=C3)cc1)C(=O)NC1C(C)(C)C1(C)C
REMARK SMILES IDX 11 1 10 2 9 3 8 4 6 5 7 6 5 7 4 8 2 9 1 10 3 11 77 12 78 13
REMARK SMILES IDX 79 14 80 16 81 17 84 18 82 19 83 20 85 21 86 22 12 23 13 24
REMARK SMILES IDX 14 25 15 26 16 27 17 28 18 29 76 30 19 31 75 32 20 33 21 34
REMARK SMILES IDX 22 35 69 36 23 37 74 38 68 39 70 40 24 41 73 42 67 43 66 44
REMARK SMILES IDX 25 46 55 47 36 48 54 49 37 50 40 51 53 52 71 53 38 54 39 55
REMARK SMILES IDX 52 57 72 58 41 59 26 60 27 61 35 62 28 63 34 64 29 65 30 66
REMARK SMILES IDX 31 67 32 68 33 69 56 70 57 71 65 72 58 73 64 74 59 75 60 76
REMARK SMILES IDX 61 77 62 78 63 79 42 80 43 81 51 82 44 83 50 84 45 85 46 86
REMARK SMILES IDX 47 87 48 88 49 89
REMARK H PARENT 79 15 70 45 40 56
REMARK Flexibility Score: inf
ROOT
ATOM      1  O   UNL     1      -4.127  -2.464   3.562  1.00  0.00    -0.374 OA
ENDROOT
BRANCH   1   2
ATOM      2  C   UNL     1      -3.308  -3.010   4.587  1.00  0.00     0.202 C 
BRANCH   2   3
ATOM      3  C   UNL     1      -2.256  -3.923   3.960  1.00  0.00     0.261 C 
BRANCH   3   4
ATOM      4  O   UNL     1      -1.464  -3.107   3.062  1.00  0.00    -0.462 OA
BRANCH   4   5
ATOM      5  C   UNL     1      -0.945  -3.791   2.011  1.00  0.00     0.325 C 
ATOM      6  O   UNL     1      -0.780  -5.007   2.002  1.00  0.00    -0.250 OA
BRANCH   5   7
ATOM      7  C   UNL     1      -0.872  -2.953   0.730  1.00  0.00     0.244 C 
BRANCH   7   8
ATOM      8  N   UNL     1      -0.737  -1.503   0.768  1.00  0.00    -0.311 N 
BRANCH   8   9
ATOM      9  C   UNL     1       0.662  -1.057   1.011  1.00  0.00     0.081 C 
ATOM     10  C   UNL     1       1.148   0.002   0.011  1.00  0.00     0.031 C 
ATOM     11  C   UNL     1       0.934  -0.630   2.454  1.00  0.00     0.031 C 
ENDBRANCH   8   9
BRANCH   8  12
ATOM     12  C   UNL     1      -1.722  -0.573   0.688  1.00  0.00     0.318 C 
ATOM     13  O   UNL     1      -1.470   0.613   0.967  1.00  0.00    -0.249 OA
ATOM     14  N   UNL     1      -3.008  -0.707   0.319  1.00  0.00    -0.334 N 
ATOM     15  H   UNL     1      -3.424   0.143   0.592  1.00  0.00     0.165 HD
BRANCH  14  16
ATOM     16  C   UNL     1      -4.090  -1.451  -0.268  1.00  0.00     0.096 C 
ATOM     17  C   UNL     1      -4.142  -2.516  -1.335  1.00  0.00    -0.007 C 
ATOM     18  C   UNL     1      -4.669  -2.796   0.111  1.00  0.00    -0.007 C 
ATOM     19  C   UNL     1      -5.221  -2.542  -2.398  1.00  0.00     0.014 C 
ATOM     20  C   UNL     1      -2.816  -2.946  -1.914  1.00  0.00     0.014 C 
ATOM     21  C   UNL     1      -3.978  -3.808   0.954  1.00  0.00     0.014 C 
ATOM     22  C   UNL     1      -6.158  -2.776   0.447  1.00  0.00     0.014 C 
ENDBRANCH  14  16
ENDBRANCH   8  12
ENDBRANCH   7   8
ENDBRANCH   5   7
ENDBRANCH   4   5
ENDBRANCH   3   4
ENDBRANCH   2   3
ENDBRANCH   1   2
BRANCH   1  23
ATOM     23  C   UNL     1      -4.569  -1.112   3.630  1.00  0.00     0.202 C 
BRANCH  23  24
ATOM     24  C   UNL     1      -3.540   0.025   3.775  1.00  0.00     0.261 C 
BRANCH  24  25
ATOM     25  O   UNL     1      -2.680  -0.025   4.910  1.00  0.00    -0.460 OA
BRANCH  25  26
ATOM     26  C   UNL     1      -3.265  -0.090   6.121  1.00  0.00     0.338 C 
ATOM     27  O   UNL     1      -4.446   0.084   6.385  1.00  0.00    -0.246 OA
BRANCH  26  28
ATOM     28  C   UNL     1      -2.272  -0.738   6.998  1.00  0.00     0.060 A 
ATOM     29  C   UNL     1      -2.706  -1.815   7.781  1.00  0.00     0.016 A 
ATOM     30  C   UNL     1      -0.913  -0.403   6.920  1.00  0.00     0.016 A 
ATOM     31  C   UNL     1      -1.787  -2.519   8.545  1.00  0.00     0.010 A 
ATOM     32  C   UNL     1       0.007  -1.104   7.690  1.00  0.00     0.010 A 
ATOM     33  C   UNL     1      -0.445  -2.119   8.546  1.00  0.00    -0.014 A 
BRANCH  33  34
ATOM     34  C   UNL     1       0.409  -2.555   9.664  1.00  0.00     0.031 A 
ATOM     35  C   UNL     1       0.501  -1.630  10.845  1.00  0.00     0.074 A 
ATOM     36  C   UNL     1       1.011  -3.753   9.647  1.00  0.00     0.049 A 
ATOM     37  N   UNL     1       1.127  -1.789  11.978  1.00  0.00    -0.248 NA
ATOM     38  C   UNL     1      -0.215  -0.345  10.728  1.00  0.00     0.031 C 
ATOM     39  C   UNL     1       0.923  -4.731   8.563  1.00  0.00     0.029 A 
ATOM     40  N   UNL     1       1.800  -4.357  10.587  1.00  0.00    -0.354 N 
ATOM     41  C   UNL     1       0.884  -0.627  12.702  1.00  0.00     0.074 A 
ATOM     42  C   UNL     1       0.096   0.247  11.868  1.00  0.00     0.031 C 
ATOM     43  C   UNL     1       1.616  -5.829   8.912  1.00  0.00     0.029 A 
ATOM     44  C   UNL     1       2.220  -5.613  10.225  1.00  0.00     0.049 A 
ATOM     45  H   UNL     1       2.043  -3.932  11.441  1.00  0.00     0.167 HD
ATOM     46  C   UNL     1       1.277  -0.323  13.960  1.00  0.00     0.031 A 
ATOM     47  C   UNL     1       3.005  -6.480  10.892  1.00  0.00     0.031 A 
ATOM     48  C   UNL     1       2.089  -1.201  14.756  1.00  0.00     0.049 A 
ATOM     49  C   UNL     1       3.508  -6.083  12.255  1.00  0.00     0.074 A 
ATOM     50  C   UNL     1       2.561  -1.014  16.040  1.00  0.00     0.029 A 
ATOM     51  N   UNL     1       2.561  -2.435  14.326  1.00  0.00    -0.354 N 
ATOM     52  N   UNL     1       3.257  -4.992  12.943  1.00  0.00    -0.248 NA
ATOM     53  C   UNL     1       4.390  -7.037  12.935  1.00  0.00     0.031 C 
ATOM     54  C   UNL     1       3.377  -2.104  16.360  1.00  0.00     0.029 A 
ATOM     55  C   UNL     1       3.350  -3.007  15.306  1.00  0.00     0.049 A 
ATOM     56  H   UNL     1       2.362  -2.842  13.452  1.00  0.00     0.167 HD
ATOM     57  C   UNL     1       3.927  -5.141  14.152  1.00  0.00     0.074 A 
ATOM     58  C   UNL     1       4.579  -6.437  14.102  1.00  0.00     0.031 C 
ATOM     59  C   UNL     1       3.996  -4.294  15.211  1.00  0.00     0.031 A 
BRANCH  46  60
ATOM     60  C   UNL     1       0.885   1.030  14.495  1.00  0.00    -0.014 A 
ATOM     61  C   UNL     1      -0.460   1.365  14.747  1.00  0.00     0.010 A 
ATOM     62  C   UNL     1       1.879   2.001  14.716  1.00  0.00     0.010 A 
ATOM     63  C   UNL     1      -0.807   2.659  15.148  1.00  0.00     0.020 A 
ATOM     64  C   UNL     1       1.539   3.285  15.151  1.00  0.00     0.020 A 
ATOM     65  C   UNL     1       0.196   3.613  15.341  1.00  0.00     0.054 A 
BRANCH  65  66
ATOM     66  S   UNL     1      -0.281   5.287  15.849  1.00  0.00     0.124 S 
ATOM     67  O   UNL     1      -0.899   5.808  14.632  1.00  0.00    -0.237 OA
ATOM     68  O   UNL     1      -1.197   5.036  16.959  1.00  0.00    -0.237 OA
ATOM     69  O   UNL     1       0.986   5.912  16.220  1.00  0.00    -0.744 OA
ENDBRANCH  65  66
ENDBRANCH  46  60
BRANCH  47  70
ATOM     70  C   UNL     1       3.335  -7.800  10.289  1.00  0.00    -0.014 A 
ATOM     71  C   UNL     1       2.821  -8.986  10.842  1.00  0.00     0.010 A 
ATOM     72  C   UNL     1       4.138  -7.878   9.136  1.00  0.00     0.010 A 
ATOM     73  C   UNL     1       3.107 -10.223  10.258  1.00  0.00     0.020 A 
ATOM     74  C   UNL     1       4.403  -9.110   8.532  1.00  0.00     0.020 A 
ATOM     75  C   UNL     1       3.891 -10.277   9.101  1.00  0.00     0.054 A 
BRANCH  75  76
ATOM     76  S   UNL     1       4.192 -11.889   8.325  1.00  0.00     0.124 S 
ATOM     77  O   UNL     1       5.075 -12.533   9.293  1.00  0.00    -0.237 OA
ATOM     78  O   UNL     1       2.845 -12.446   8.229  1.00  0.00    -0.237 OA
ATOM     79  O   UNL     1       4.809 -11.545   7.046  1.00  0.00    -0.744 OA
ENDBRANCH  75  76
ENDBRANCH  47  70
BRANCH  59  80
ATOM     80  C   UNL     1       4.780  -4.762  16.408  1.00  0.00    -0.014 A 
ATOM     81  C   UNL     1       6.181  -4.872  16.368  1.00  0.00     0.010 A 
ATOM     82  C   UNL     1       4.100  -5.054  17.605  1.00  0.00     0.010 A 
ATOM     83  C   UNL     1       6.884  -5.312  17.491  1.00  0.00     0.020 A 
ATOM     84  C   UNL     1       4.803  -5.457  18.741  1.00  0.00     0.020 A 
ATOM     85  C   UNL     1       6.189  -5.602  18.671  1.00  0.00     0.054 A 
BRANCH  85  86
ATOM     86  S   UNL     1       7.129  -6.144  20.122  1.00  0.00     0.124 S 
ATOM     87  O   UNL     1       7.524  -7.497  19.739  1.00  0.00    -0.237 OA
ATOM     88  O   UNL     1       8.211  -5.166  20.185  1.00  0.00    -0.237 OA
ATOM     89  O   UNL     1       6.159  -6.064  21.213  1.00  0.00    -0.744 OA
ENDBRANCH  85  86
ENDBRANCH  59  80
ENDBRANCH  33  34
ENDBRANCH  26  28
ENDBRANCH  25  26
ENDBRANCH  24  25
ENDBRANCH  23  24
ENDBRANCH   1  23
TORSDOF 21
