REMARK SMILES Cn1cc(S(=O)(=O)NC[C@H]2CC[C@@H](C(=O)OCCOCCOC(=O)c3ccc(-c4c5nc(c(-c6ccc(S(=O)(=O)[O-])cc6)c6ccc([nH]6)c(-c6ccc(S(=O)(=O)[O-])cc6)c6nc(c(-c7ccc(S(=O)(=O)[O-])cc7)c7ccc4[nH]7)C=C6)C=C5)cc3)CC2)cn1
REMARK SMILES IDX 18 1 17 2 16 3 14 4 15 5 13 6 10 7 11 8 86 9 12 10 85 11
REMARK SMILES IDX 9 12 8 13 5 15 6 16 7 17 4 18 1 19 2 20 3 21 88 22 87 23
REMARK SMILES IDX 19 24 20 25 21 26 22 27 23 28 24 29 25 30 26 31 84 32 27 33
REMARK SMILES IDX 83 34 28 35 29 36 30 37 77 38 31 39 82 40 76 41 78 42 32 43
REMARK SMILES IDX 81 44 75 45 74 46 33 48 63 49 44 50 62 51 45 52 48 53 61 54
REMARK SMILES IDX 79 55 46 56 47 57 60 59 80 60 49 61 34 62 35 63 43 64 36 65
REMARK SMILES IDX 42 66 37 67 38 68 39 69 40 70 41 71 64 72 65 73 73 74 66 75
REMARK SMILES IDX 72 76 67 77 68 78 69 79 70 80 71 81 50 82 51 83 59 84 52 85
REMARK SMILES IDX 58 86 53 87 54 88 55 89 56 90 57 91
REMARK H PARENT 8 14 78 47 48 58
REMARK Flexibility Score: inf
ROOT
ATOM      1  C   UNL     1       7.781  -2.355  -0.703  1.00  0.00     0.202 C 
ENDROOT
BRANCH   1   2
ATOM      2  C   UNL     1       6.733  -1.350  -1.189  1.00  0.00     0.261 C 
BRANCH   2   3
ATOM      3  O   UNL     1       5.793  -1.983  -2.077  1.00  0.00    -0.463 OA
BRANCH   3   4
ATOM      4  C   UNL     1       5.498  -1.327  -3.226  1.00  0.00     0.309 C 
ATOM      5  O   UNL     1       5.922  -0.218  -3.531  1.00  0.00    -0.252 OA
BRANCH   4   6
ATOM      6  C   UNL     1       4.567  -2.120  -4.144  1.00  0.00     0.099 C 
ATOM      7  C   UNL     1       2.295  -3.187  -2.535  1.00  0.00     0.004 C 
ATOM      8  C   UNL     1       2.400  -1.703  -2.915  1.00  0.00     0.006 C 
ATOM      9  C   UNL     1       3.621  -3.951  -2.614  1.00  0.00     0.006 C 
ATOM     10  C   UNL     1       3.189  -1.462  -4.196  1.00  0.00     0.015 C 
ATOM     11  C   UNL     1       4.421  -3.622  -3.872  1.00  0.00     0.015 C 
BRANCH   7  12
ATOM     12  C   UNL     1       1.568  -3.410  -1.201  1.00  0.00     0.102 C 
BRANCH  12  13
ATOM     13  N   UNL     1       2.338  -3.149   0.022  1.00  0.00    -0.211 NA
ATOM     14  H   UNL     1       1.922  -3.739   0.742  1.00  0.00     0.141 HD
BRANCH  13  15
ATOM     15  S   UNL     1       2.504  -1.629   0.716  1.00  0.00     0.243 S 
ATOM     16  O   UNL     1       3.573  -0.944   0.027  1.00  0.00    -0.207 OA
ATOM     17  O   UNL     1       2.557  -1.822   2.145  1.00  0.00    -0.207 OA
BRANCH  15  18
ATOM     18  C   UNL     1       1.110  -0.688   0.445  1.00  0.00     0.120 A 
ATOM     19  C   UNL     1      -2.374   0.130   0.164  1.00  0.00     0.173 C 
ATOM     20  N   UNL     1      -0.935   0.028   0.212  1.00  0.00    -0.274 N 
ATOM     21  C   UNL     1      -0.207  -1.049   0.624  1.00  0.00     0.130 A 
ATOM     22  N   UNL     1      -0.178   1.049  -0.241  1.00  0.00    -0.180 NA
ATOM     23  C   UNL     1       1.075   0.624  -0.043  1.00  0.00     0.156 A 
ENDBRANCH  15  18
ENDBRANCH  13  15
ENDBRANCH  12  13
ENDBRANCH   7  12
ENDBRANCH   4   6
ENDBRANCH   3   4
ENDBRANCH   2   3
ENDBRANCH   1   2
BRANCH   1  24
ATOM     24  O   UNL     1       8.686  -2.840  -1.699  1.00  0.00    -0.374 OA
BRANCH  24  25
ATOM     25  C   UNL     1       8.162  -3.737  -2.675  1.00  0.00     0.202 C 
BRANCH  25  26
ATOM     26  C   UNL     1       7.928  -5.183  -2.218  1.00  0.00     0.261 C 
BRANCH  26  27
ATOM     27  O   UNL     1       6.947  -5.306  -1.170  1.00  0.00    -0.460 OA
BRANCH  27  28
ATOM     28  C   UNL     1       7.452  -5.745   0.011  1.00  0.00     0.338 C 
ATOM     29  O   UNL     1       8.608  -6.065   0.240  1.00  0.00    -0.246 OA
BRANCH  28  30
ATOM     30  C   UNL     1       6.441  -5.689   1.085  1.00  0.00     0.060 A 
ATOM     31  C   UNL     1       6.792  -5.009   2.258  1.00  0.00     0.016 A 
ATOM     32  C   UNL     1       5.249  -6.415   1.019  1.00  0.00     0.016 A 
ATOM     33  C   UNL     1       5.988  -5.111   3.392  1.00  0.00     0.010 A 
ATOM     34  C   UNL     1       4.444  -6.518   2.163  1.00  0.00     0.010 A 
ATOM     35  C   UNL     1       4.834  -5.906   3.369  1.00  0.00    -0.014 A 
BRANCH  35  36
ATOM     36  C   UNL     1       4.136  -6.204   4.648  1.00  0.00     0.031 A 
ATOM     37  C   UNL     1       4.403  -7.509   5.351  1.00  0.00     0.074 A 
ATOM     38  C   UNL     1       3.320  -5.298   5.217  1.00  0.00     0.049 A 
ATOM     39  N   UNL     1       3.932  -7.946   6.491  1.00  0.00    -0.248 NA
ATOM     40  C   UNL     1       5.325  -8.443   4.684  1.00  0.00     0.031 C 
ATOM     41  C   UNL     1       3.010  -3.984   4.663  1.00  0.00     0.029 A 
ATOM     42  N   UNL     1       2.608  -5.346   6.390  1.00  0.00    -0.354 N 
ATOM     43  C   UNL     1       4.497  -9.201   6.680  1.00  0.00     0.074 A 
ATOM     44  C   UNL     1       5.322  -9.470   5.521  1.00  0.00     0.031 C 
ATOM     45  C   UNL     1       2.163  -3.348   5.490  1.00  0.00     0.029 A 
ATOM     46  C   UNL     1       1.861  -4.215   6.626  1.00  0.00     0.049 A 
ATOM     47  H   UNL     1       2.630  -6.115   7.003  1.00  0.00     0.167 HD
ATOM     48  C   UNL     1       4.352 -10.051   7.725  1.00  0.00     0.031 A 
ATOM     49  C   UNL     1       1.025  -3.913   7.638  1.00  0.00     0.031 A 
ATOM     50  C   UNL     1       3.529  -9.791   8.877  1.00  0.00     0.049 A 
ATOM     51  C   UNL     1       0.840  -4.894   8.764  1.00  0.00     0.074 A 
ATOM     52  C   UNL     1       3.332 -10.589   9.991  1.00  0.00     0.029 A 
ATOM     53  N   UNL     1       2.765  -8.650   9.063  1.00  0.00    -0.354 N 
ATOM     54  N   UNL     1       1.399  -6.069   8.935  1.00  0.00    -0.248 NA
ATOM     55  C   UNL     1      -0.080  -4.503   9.842  1.00  0.00     0.031 C 
ATOM     56  C   UNL     1       2.413  -9.949  10.831  1.00  0.00     0.029 A 
ATOM     57  C   UNL     1       2.077  -8.731  10.263  1.00  0.00     0.049 A 
ATOM     58  H   UNL     1       2.719  -7.893   8.436  1.00  0.00     0.167 HD
ATOM     59  C   UNL     1       0.919  -6.544  10.150  1.00  0.00     0.074 A 
ATOM     60  C   UNL     1       0.032  -5.528  10.677  1.00  0.00     0.031 C 
ATOM     61  C   UNL     1       1.192  -7.716  10.775  1.00  0.00     0.031 A 
BRANCH  48  62
ATOM     62  C   UNL     1       5.084 -11.364   7.653  1.00  0.00    -0.014 A 
ATOM     63  C   UNL     1       6.476 -11.431   7.842  1.00  0.00     0.010 A 
ATOM     64  C   UNL     1       4.364 -12.550   7.422  1.00  0.00     0.010 A 
ATOM     65  C   UNL     1       7.141 -12.658   7.761  1.00  0.00     0.020 A 
ATOM     66  C   UNL     1       5.023 -13.781   7.362  1.00  0.00     0.020 A 
ATOM     67  C   UNL     1       6.410 -13.824   7.514  1.00  0.00     0.054 A 
BRANCH  67  68
ATOM     68  S   UNL     1       7.293 -15.407   7.423  1.00  0.00     0.124 S 
ATOM     69  O   UNL     1       7.915 -15.327   6.104  1.00  0.00    -0.237 OA
ATOM     70  O   UNL     1       8.212 -15.330   8.556  1.00  0.00    -0.237 OA
ATOM     71  O   UNL     1       6.232 -16.403   7.552  1.00  0.00    -0.744 OA
ENDBRANCH  67  68
ENDBRANCH  48  62
BRANCH  49  72
ATOM     72  C   UNL     1       0.283  -2.624   7.625  1.00  0.00    -0.014 A 
ATOM     73  C   UNL     1       0.614  -1.590   8.517  1.00  0.00     0.010 A 
ATOM     74  C   UNL     1      -0.766  -2.428   6.708  1.00  0.00     0.010 A 
ATOM     75  C   UNL     1      -0.101  -0.388   8.503  1.00  0.00     0.020 A 
ATOM     76  C   UNL     1      -1.468  -1.221   6.676  1.00  0.00     0.020 A 
ATOM     77  C   UNL     1      -1.139  -0.212   7.583  1.00  0.00     0.054 A 
BRANCH  77  78
ATOM     78  S   UNL     1      -2.029   1.369   7.546  1.00  0.00     0.124 S 
ATOM     79  O   UNL     1      -2.910   1.248   8.703  1.00  0.00    -0.237 OA
ATOM     80  O   UNL     1      -0.951   2.347   7.670  1.00  0.00    -0.237 OA
ATOM     81  O   UNL     1      -2.698   1.352   6.245  1.00  0.00    -0.744 OA
ENDBRANCH  77  78
ENDBRANCH  49  72
BRANCH  61  82
ATOM     82  C   UNL     1       0.547  -7.954  12.114  1.00  0.00    -0.014 A 
ATOM     83  C   UNL     1      -0.819  -8.270  12.217  1.00  0.00     0.010 A 
ATOM     84  C   UNL     1       1.330  -7.902  13.282  1.00  0.00     0.010 A 
ATOM     85  C   UNL     1      -1.399  -8.496  13.469  1.00  0.00     0.020 A 
ATOM     86  C   UNL     1       0.759  -8.150  14.533  1.00  0.00     0.020 A 
ATOM     87  C   UNL     1      -0.607  -8.430  14.620  1.00  0.00     0.054 A 
BRANCH  87  88
ATOM     88  S   UNL     1      -1.371  -8.758  16.232  1.00  0.00     0.124 S 
ATOM     89  O   UNL     1      -2.070  -7.504  16.498  1.00  0.00    -0.237 OA
ATOM     90  O   UNL     1      -2.229  -9.909  15.955  1.00  0.00    -0.237 OA
ATOM     91  O   UNL     1      -0.233  -9.035  17.104  1.00  0.00    -0.744 OA
ENDBRANCH  87  88
ENDBRANCH  61  82
ENDBRANCH  35  36
ENDBRANCH  28  30
ENDBRANCH  27  28
ENDBRANCH  26  27
ENDBRANCH  25  26
ENDBRANCH  24  25
ENDBRANCH   1  24
TORSDOF 21
