REMARK SMILES O=C(CC[NH+]1CCN(C(=O)c2n[nH]c3ccccc23)CC1)OCCOCCOC(=O)c1ccc(-c2c3nc(c(-c4ccc(S(=O)(=O)[O-])cc4)c4ccc([nH]4)c(-c4ccc(S(=O)(=O)[O-])cc4)c4nc(c(-c5ccc(S(=O)(=O)[O-])cc5)c5ccc2[nH]5)C=C4)C=C3)cc1
REMARK SMILES IDX 25 1 24 2 23 3 22 4 2 5 1 6 3 7 4 8 5 9 6 10 21 11 7 13
REMARK SMILES IDX 20 14 8 15 9 16 10 17 11 18 12 19 19 20 13 21 14 22 18 23
REMARK SMILES IDX 15 25 17 26 16 27 26 28 27 29 28 30 29 31 30 32 31 33 32 34
REMARK SMILES IDX 90 35 33 36 89 37 34 38 35 39 36 40 83 41 37 42 88 43 82 44
REMARK SMILES IDX 84 45 38 46 87 47 81 48 80 49 39 51 69 52 50 53 68 54 51 55
REMARK SMILES IDX 54 56 67 57 85 58 52 59 53 60 66 62 86 63 55 64 40 65 41 66
REMARK SMILES IDX 49 67 42 68 48 69 43 70 44 71 45 72 46 73 47 74 70 75 71 76
REMARK SMILES IDX 79 77 72 78 78 79 73 80 74 81 75 82 76 83 77 84 56 85 57 86
REMARK SMILES IDX 65 87 58 88 64 89 59 90 60 91 61 92 62 93 63 94
REMARK H PARENT 5 12 13 24 84 50 54 61
REMARK Flexibility Score: inf
ROOT
ATOM      1  O   UNL     1       3.942   1.672  -0.749  1.00  0.00    -0.374 OA
ENDROOT
BRANCH   1   2
ATOM      2  C   UNL     1       4.325   0.410  -1.283  1.00  0.00     0.202 C 
BRANCH   2   3
ATOM      3  C   UNL     1       3.511  -0.824  -0.887  1.00  0.00     0.261 C 
BRANCH   3   4
ATOM      4  O   UNL     1       2.182  -0.581  -0.414  1.00  0.00    -0.463 OA
BRANCH   4   5
ATOM      5  C   UNL     1       1.872  -0.440   0.892  1.00  0.00     0.311 C 
ATOM      6  O   UNL     1       0.775  -0.819   1.303  1.00  0.00    -0.252 OA
BRANCH   5   7
ATOM      7  C   UNL     1       2.804   0.314   1.810  1.00  0.00     0.184 C 
BRANCH   7   8
ATOM      8  C   UNL     1       3.735  -0.572   2.619  1.00  0.00     0.274 C 
BRANCH   8   9
ATOM      9  N   UNL     1       4.900  -0.994   1.836  1.00  0.00    -0.332 N 
ATOM     10  C   UNL     1       6.048  -0.055   1.890  1.00  0.00     0.284 C 
ATOM     11  C   UNL     1       5.329  -2.359   2.193  1.00  0.00     0.284 C 
ATOM     12  H   UNL     1       4.580  -0.987   0.868  1.00  0.00     0.348 HD
ATOM     13  C   UNL     1       6.934  -0.153   3.155  1.00  0.00     0.181 C 
ATOM     14  C   UNL     1       6.038  -2.406   3.550  1.00  0.00     0.181 C 
ATOM     15  N   UNL     1       7.222  -1.545   3.497  1.00  0.00    -0.326 N 
ATOM     16  C   UNL     1       8.538  -1.981   3.668  1.00  0.00     0.275 C 
ATOM     17  O   UNL     1       9.499  -1.216   3.602  1.00  0.00    -0.267 OA
BRANCH  16  18
ATOM     18  C   UNL     1       8.712  -3.416   3.934  1.00  0.00     0.157 A 
ATOM     19  N   UNL     1       8.921  -3.878   5.183  1.00  0.00    -0.169 NA
ATOM     20  C   UNL     1       8.530  -4.488   3.005  1.00  0.00     0.033 A 
ATOM     21  N   UNL     1       8.864  -5.212   5.045  1.00  0.00    -0.277 N 
ATOM     22  C   UNL     1       8.573  -5.640   3.780  1.00  0.00     0.066 A 
ATOM     23  C   UNL     1       8.258  -4.604   1.627  1.00  0.00     0.013 A 
ATOM     24  H   UNL     1       9.020  -5.831   5.795  1.00  0.00     0.190 HD
ATOM     25  C   UNL     1       8.332  -6.917   3.265  1.00  0.00     0.028 A 
ATOM     26  C   UNL     1       8.003  -5.872   1.092  1.00  0.00     0.001 A 
ATOM     27  C   UNL     1       8.032  -7.007   1.902  1.00  0.00     0.002 A 
ENDBRANCH  16  18
ENDBRANCH   8   9
ENDBRANCH   7   8
ENDBRANCH   5   7
ENDBRANCH   4   5
ENDBRANCH   3   4
ENDBRANCH   2   3
ENDBRANCH   1   2
BRANCH   1  28
ATOM     28  C   UNL     1       2.751   2.240  -1.299  1.00  0.00     0.202 C 
BRANCH  28  29
ATOM     29  C   UNL     1       2.994   3.127  -2.523  1.00  0.00     0.261 C 
BRANCH  29  30
ATOM     30  O   UNL     1       3.427   2.337  -3.643  1.00  0.00    -0.460 OA
BRANCH  30  31
ATOM     31  C   UNL     1       4.757   2.374  -3.909  1.00  0.00     0.338 C 
ATOM     32  O   UNL     1       5.588   3.117  -3.412  1.00  0.00    -0.246 OA
BRANCH  31  33
ATOM     33  C   UNL     1       5.099   1.192  -4.733  1.00  0.00     0.060 A 
ATOM     34  C   UNL     1       6.245   0.459  -4.388  1.00  0.00     0.016 A 
ATOM     35  C   UNL     1       4.274   0.766  -5.776  1.00  0.00     0.016 A 
ATOM     36  C   UNL     1       6.579  -0.694  -5.099  1.00  0.00     0.010 A 
ATOM     37  C   UNL     1       4.619  -0.378  -6.497  1.00  0.00     0.010 A 
ATOM     38  C   UNL     1       5.782  -1.101  -6.175  1.00  0.00    -0.014 A 
BRANCH  38  39
ATOM     39  C   UNL     1       6.221  -2.187  -7.080  1.00  0.00     0.031 A 
ATOM     40  C   UNL     1       6.888  -1.804  -8.370  1.00  0.00     0.074 A 
ATOM     41  C   UNL     1       5.968  -3.477  -6.792  1.00  0.00     0.049 A 
ATOM     42  N   UNL     1       7.204  -2.554  -9.392  1.00  0.00    -0.248 NA
ATOM     43  C   UNL     1       7.233  -0.381  -8.536  1.00  0.00     0.031 C 
ATOM     44  C   UNL     1       5.355  -3.967  -5.558  1.00  0.00     0.029 A 
ATOM     45  N   UNL     1       6.165  -4.610  -7.542  1.00  0.00    -0.354 N 
ATOM     46  C   UNL     1       7.753  -1.692 -10.333  1.00  0.00     0.074 A 
ATOM     47  C   UNL     1       7.729  -0.363  -9.764  1.00  0.00     0.031 C 
ATOM     48  C   UNL     1       5.192  -5.299  -5.651  1.00  0.00     0.029 A 
ATOM     49  C   UNL     1       5.648  -5.747  -6.966  1.00  0.00     0.049 A 
ATOM     50  H   UNL     1       6.632  -4.609  -8.409  1.00  0.00     0.167 HD
ATOM     51  C   UNL     1       8.226  -1.986 -11.565  1.00  0.00     0.031 A 
ATOM     52  C   UNL     1       5.514  -6.993  -7.465  1.00  0.00     0.031 A 
ATOM     53  C   UNL     1       8.246  -3.311 -12.121  1.00  0.00     0.049 A 
ATOM     54  C   UNL     1       5.992  -7.279  -8.867  1.00  0.00     0.074 A 
ATOM     55  C   UNL     1       8.758  -3.720 -13.339  1.00  0.00     0.029 A 
ATOM     56  N   UNL     1       7.718  -4.434 -11.506  1.00  0.00    -0.354 N 
ATOM     57  N   UNL     1       6.570  -6.468  -9.722  1.00  0.00    -0.248 NA
ATOM     58  C   UNL     1       5.794  -8.645  -9.375  1.00  0.00     0.031 C 
ATOM     59  C   UNL     1       8.478  -5.081 -13.490  1.00  0.00     0.029 A 
ATOM     60  C   UNL     1       7.850  -5.530 -12.339  1.00  0.00     0.049 A 
ATOM     61  H   UNL     1       7.311  -4.450 -10.610  1.00  0.00     0.167 HD
ATOM     62  C   UNL     1       6.821  -7.232 -10.859  1.00  0.00     0.074 A 
ATOM     63  C   UNL     1       6.353  -8.572 -10.575  1.00  0.00     0.031 C 
ATOM     64  C   UNL     1       7.383  -6.858 -12.035  1.00  0.00     0.031 A 
BRANCH  51  65
ATOM     65  C   UNL     1       8.724  -0.854 -12.420  1.00  0.00    -0.014 A 
ATOM     66  C   UNL     1       9.957  -0.230 -12.163  1.00  0.00     0.010 A 
ATOM     67  C   UNL     1       7.982  -0.470 -13.552  1.00  0.00     0.010 A 
ATOM     68  C   UNL     1      10.435   0.765 -13.020  1.00  0.00     0.020 A 
ATOM     69  C   UNL     1       8.467   0.508 -14.423  1.00  0.00     0.020 A 
ATOM     70  C   UNL     1       9.689   1.123 -14.148  1.00  0.00     0.054 A 
BRANCH  70  71
ATOM     71  S   UNL     1      10.370   2.365 -15.282  1.00  0.00     0.124 S 
ATOM     72  O   UNL     1      10.236   3.592 -14.501  1.00  0.00    -0.237 OA
ATOM     73  O   UNL     1      11.739   1.895 -15.483  1.00  0.00    -0.237 OA
ATOM     74  O   UNL     1       9.505   2.276 -16.455  1.00  0.00    -0.744 OA
ENDBRANCH  70  71
ENDBRANCH  51  65
BRANCH  52  75
ATOM     75  C   UNL     1       4.839  -8.057  -6.668  1.00  0.00    -0.014 A 
ATOM     76  C   UNL     1       5.552  -9.179  -6.212  1.00  0.00     0.010 A 
ATOM     77  C   UNL     1       3.460  -7.971  -6.398  1.00  0.00     0.010 A 
ATOM     78  C   UNL     1       4.895 -10.208  -5.530  1.00  0.00     0.020 A 
ATOM     79  C   UNL     1       2.805  -8.982  -5.690  1.00  0.00     0.020 A 
ATOM     80  C   UNL     1       3.524 -10.104  -5.275  1.00  0.00     0.054 A 
BRANCH  80  81
ATOM     81  S   UNL     1       2.697 -11.440  -4.368  1.00  0.00     0.124 S 
ATOM     82  O   UNL     1       2.625 -12.492  -5.377  1.00  0.00    -0.237 OA
ATOM     83  O   UNL     1       3.617 -11.686  -3.260  1.00  0.00    -0.237 OA
ATOM     84  O   UNL     1       1.416 -10.850  -3.985  1.00  0.00    -0.744 OA
ENDBRANCH  80  81
ENDBRANCH  52  75
BRANCH  64  85
ATOM     85  C   UNL     1       7.548  -7.910 -13.098  1.00  0.00    -0.014 A 
ATOM     86  C   UNL     1       6.443  -8.385 -13.825  1.00  0.00     0.010 A 
ATOM     87  C   UNL     1       8.838  -8.364 -13.433  1.00  0.00     0.010 A 
ATOM     88  C   UNL     1       6.623  -9.309 -14.858  1.00  0.00     0.020 A 
ATOM     89  C   UNL     1       9.024  -9.265 -14.483  1.00  0.00     0.020 A 
ATOM     90  C   UNL     1       7.913  -9.740 -15.183  1.00  0.00     0.054 A 
BRANCH  90  91
ATOM     91  S   UNL     1       8.125 -10.887 -16.572  1.00  0.00     0.124 S 
ATOM     92  O   UNL     1       7.616 -12.137 -16.013  1.00  0.00    -0.237 OA
ATOM     93  O   UNL     1       7.301 -10.283 -17.616  1.00  0.00    -0.237 OA
ATOM     94  O   UNL     1       9.563 -10.860 -16.828  1.00  0.00    -0.744 OA
ENDBRANCH  90  91
ENDBRANCH  64  85
ENDBRANCH  38  39
ENDBRANCH  31  33
ENDBRANCH  30  31
ENDBRANCH  29  30
ENDBRANCH  28  29
ENDBRANCH   1  28
TORSDOF 20
