REMARK SMILES O=C(Cc1ccccc1Nc1c(Cl)cccc1Cl)OCCOCCOC(=O)c1ccc(-c2c3nc(c(-c4ccc(S(=O)(=O)[O-])cc4)c4ccc([nH]4)c(-c4ccc(S(=O)(=O)[O-])cc4)c4nc(c(-c5ccc(S(=O)(=O)[O-])cc5)c5ccc2[nH]5)C=C4)C=C3)cc1
REMARK SMILES IDX 22 1 21 2 20 3 19 4 2 5 1 6 3 7 4 8 5 9 9 10 6 11 8 12 7 13
REMARK SMILES IDX 10 14 11 16 12 17 17 18 13 19 14 20 16 21 18 22 15 23 23 24
REMARK SMILES IDX 24 25 25 26 26 27 27 28 28 29 29 30 87 31 30 32 86 33 31 34
REMARK SMILES IDX 32 35 33 36 80 37 34 38 85 39 79 40 81 41 35 42 84 43 78 44
REMARK SMILES IDX 77 45 36 47 66 48 47 49 65 50 48 51 51 52 64 53 82 54 49 55
REMARK SMILES IDX 50 56 63 58 83 59 52 60 37 61 38 62 46 63 39 64 45 65 40 66
REMARK SMILES IDX 41 67 42 68 43 69 44 70 67 71 68 72 76 73 69 74 75 75 70 76
REMARK SMILES IDX 71 77 72 78 73 79 74 80 53 81 54 82 62 83 55 84 61 85 56 86
REMARK SMILES IDX 57 87 58 88 59 89 60 90
REMARK H PARENT 10 15 81 46 51 57
REMARK Flexibility Score: inf
ROOT
ATOM      1  O   UNL     1       4.276  -1.694  -0.448  1.00  0.00    -0.374 OA
ENDROOT
BRANCH   1   2
ATOM      2  C   UNL     1       4.662  -0.992   0.733  1.00  0.00     0.202 C 
BRANCH   2   3
ATOM      3  C   UNL     1       4.096   0.410   0.925  1.00  0.00     0.261 C 
BRANCH   3   4
ATOM      4  O   UNL     1       2.696   0.512   0.632  1.00  0.00    -0.463 OA
BRANCH   4   5
ATOM      5  C   UNL     1       2.163   0.610  -0.606  1.00  0.00     0.310 C 
ATOM      6  O   UNL     1       0.937   0.606  -0.727  1.00  0.00    -0.252 OA
BRANCH   5   7
ATOM      7  C   UNL     1       3.038   0.762  -1.833  1.00  0.00     0.160 C 
BRANCH   7   8
ATOM      8  C   UNL     1       3.954   1.956  -1.792  1.00  0.00    -0.013 A 
ATOM      9  C   UNL     1       5.344   1.747  -1.892  1.00  0.00     0.006 A 
ATOM     10  C   UNL     1       3.439   3.249  -1.578  1.00  0.00     0.042 A 
ATOM     11  C   UNL     1       6.227   2.799  -1.680  1.00  0.00     0.000 A 
ATOM     12  C   UNL     1       4.348   4.298  -1.399  1.00  0.00     0.026 A 
ATOM     13  C   UNL     1       5.728   4.072  -1.422  1.00  0.00     0.002 A 
BRANCH  10  14
ATOM     14  N   UNL     1       2.049   3.457  -1.559  1.00  0.00    -0.353 N 
ATOM     15  H   UNL     1       1.531   2.666  -1.284  1.00  0.00     0.167 HD
BRANCH  14  16
ATOM     16  C   UNL     1       1.256   4.584  -1.861  1.00  0.00     0.076 A 
ATOM     17  C   UNL     1       0.184   4.902  -0.995  1.00  0.00     0.066 A 
ATOM     18  C   UNL     1       1.477   5.433  -2.959  1.00  0.00     0.066 A 
ATOM     19  Cl  UNL     1      -0.187   3.891   0.364  1.00  0.00    -0.082 Cl
ATOM     20  C   UNL     1      -0.615   6.027  -1.200  1.00  0.00     0.023 A 
ATOM     21  C   UNL     1       0.674   6.563  -3.162  1.00  0.00     0.023 A 
ATOM     22  Cl  UNL     1       2.637   5.080  -4.198  1.00  0.00    -0.082 Cl
ATOM     23  C   UNL     1      -0.362   6.864  -2.280  1.00  0.00     0.003 A 
ENDBRANCH  14  16
ENDBRANCH  10  14
ENDBRANCH   7   8
ENDBRANCH   5   7
ENDBRANCH   4   5
ENDBRANCH   3   4
ENDBRANCH   2   3
ENDBRANCH   1   2
BRANCH   1  24
ATOM     24  C   UNL     1       3.021  -2.387  -0.376  1.00  0.00     0.202 C 
BRANCH  24  25
ATOM     25  C   UNL     1       3.069  -3.807   0.192  1.00  0.00     0.261 C 
BRANCH  25  26
ATOM     26  O   UNL     1       3.447  -3.797   1.574  1.00  0.00    -0.460 OA
BRANCH  26  27
ATOM     27  C   UNL     1       4.768  -3.993   1.799  1.00  0.00     0.338 C 
ATOM     28  O   UNL     1       5.615  -4.311   0.979  1.00  0.00    -0.246 OA
BRANCH  27  29
ATOM     29  C   UNL     1       5.089  -3.529   3.163  1.00  0.00     0.060 A 
ATOM     30  C   UNL     1       6.268  -2.789   3.336  1.00  0.00     0.016 A 
ATOM     31  C   UNL     1       4.245  -3.791   4.245  1.00  0.00     0.016 A 
ATOM     32  C   UNL     1       6.648  -2.375   4.607  1.00  0.00     0.010 A 
ATOM     33  C   UNL     1       4.630  -3.382   5.520  1.00  0.00     0.010 A 
ATOM     34  C   UNL     1       5.857  -2.722   5.708  1.00  0.00    -0.014 A 
BRANCH  34  35
ATOM     35  C   UNL     1       6.413  -2.599   7.071  1.00  0.00     0.031 A 
ATOM     36  C   UNL     1       6.968  -3.838   7.716  1.00  0.00     0.074 A 
ATOM     37  C   UNL     1       6.428  -1.417   7.707  1.00  0.00     0.049 A 
ATOM     38  N   UNL     1       7.444  -4.002   8.921  1.00  0.00    -0.248 NA
ATOM     39  C   UNL     1       6.978  -5.061   6.893  1.00  0.00     0.031 C 
ATOM     40  C   UNL     1       5.955  -0.149   7.152  1.00  0.00     0.029 A 
ATOM     41  N   UNL     1       6.853  -1.097   8.970  1.00  0.00    -0.354 N 
ATOM     42  C   UNL     1       7.790  -5.346   9.007  1.00  0.00     0.074 A 
ATOM     43  C   UNL     1       7.443  -5.960   7.746  1.00  0.00     0.031 C 
ATOM     44  C   UNL     1       6.104   0.813   8.079  1.00  0.00     0.029 A 
ATOM     45  C   UNL     1       6.645   0.220   9.300  1.00  0.00     0.049 A 
ATOM     46  H   UNL     1       7.266  -1.748   9.582  1.00  0.00     0.167 HD
ATOM     47  C   UNL     1       8.348  -6.007  10.047  1.00  0.00     0.031 A 
ATOM     48  C   UNL     1       6.846   0.863  10.467  1.00  0.00     0.031 A 
ATOM     49  C   UNL     1       8.678  -5.381  11.299  1.00  0.00     0.049 A 
ATOM     50  C   UNL     1       7.411   0.093  11.633  1.00  0.00     0.074 A 
ATOM     51  C   UNL     1       9.269  -5.947  12.414  1.00  0.00     0.029 A 
ATOM     52  N   UNL     1       8.434  -4.049  11.604  1.00  0.00    -0.354 N 
ATOM     53  N   UNL     1       7.760  -1.171  11.695  1.00  0.00    -0.248 NA
ATOM     54  C   UNL     1       7.619   0.838  12.881  1.00  0.00     0.031 C 
ATOM     55  C   UNL     1       9.321  -4.973  13.416  1.00  0.00     0.029 A 
ATOM     56  C   UNL     1       8.834  -3.782  12.901  1.00  0.00     0.049 A 
ATOM     57  H   UNL     1       8.036  -3.392  10.988  1.00  0.00     0.167 HD
ATOM     58  C   UNL     1       8.257  -1.365  12.979  1.00  0.00     0.074 A 
ATOM     59  C   UNL     1       8.176  -0.085  13.654  1.00  0.00     0.031 C 
ATOM     60  C   UNL     1       8.740  -2.498  13.550  1.00  0.00     0.031 A 
BRANCH  47  61
ATOM     61  C   UNL     1       8.597  -7.484   9.887  1.00  0.00    -0.014 A 
ATOM     62  C   UNL     1       9.581  -7.973   9.009  1.00  0.00     0.010 A 
ATOM     63  C   UNL     1       7.852  -8.397  10.656  1.00  0.00     0.010 A 
ATOM     64  C   UNL     1       9.792  -9.349   8.879  1.00  0.00     0.020 A 
ATOM     65  C   UNL     1       8.082  -9.772  10.552  1.00  0.00     0.020 A 
ATOM     66  C   UNL     1       9.041 -10.240   9.653  1.00  0.00     0.054 A 
BRANCH  66  67
ATOM     67  S   UNL     1       9.362 -12.017   9.489  1.00  0.00     0.124 S 
ATOM     68  O   UNL     1       8.826 -12.299   8.160  1.00  0.00    -0.237 OA
ATOM     69  O   UNL     1      10.816 -12.091   9.609  1.00  0.00    -0.237 OA
ATOM     70  O   UNL     1       8.617 -12.609  10.598  1.00  0.00    -0.744 OA
ENDBRANCH  66  67
ENDBRANCH  47  61
BRANCH  48  71
ATOM     71  C   UNL     1       6.493   2.304  10.591  1.00  0.00    -0.014 A 
ATOM     72  C   UNL     1       7.494   3.278  10.744  1.00  0.00     0.010 A 
ATOM     73  C   UNL     1       5.147   2.711  10.537  1.00  0.00     0.010 A 
ATOM     74  C   UNL     1       7.155   4.630  10.854  1.00  0.00     0.020 A 
ATOM     75  C   UNL     1       4.806   4.064  10.616  1.00  0.00     0.020 A 
ATOM     76  C   UNL     1       5.813   5.015  10.783  1.00  0.00     0.054 A 
BRANCH  76  77
ATOM     77  S   UNL     1       5.405   6.781  10.869  1.00  0.00     0.124 S 
ATOM     78  O   UNL     1       5.688   7.091  12.267  1.00  0.00    -0.237 OA
ATOM     79  O   UNL     1       6.323   7.362   9.893  1.00  0.00    -0.237 OA
ATOM     80  O   UNL     1       3.995   6.825  10.490  1.00  0.00    -0.744 OA
ENDBRANCH  76  77
ENDBRANCH  48  71
BRANCH  60  81
ATOM     81  C   UNL     1       9.258  -2.397  14.961  1.00  0.00    -0.014 A 
ATOM     82  C   UNL     1       8.389  -2.214  16.051  1.00  0.00     0.010 A 
ATOM     83  C   UNL     1      10.637  -2.551  15.202  1.00  0.00     0.010 A 
ATOM     84  C   UNL     1       8.893  -2.153  17.352  1.00  0.00     0.020 A 
ATOM     85  C   UNL     1      11.140  -2.526  16.504  1.00  0.00     0.020 A 
ATOM     86  C   UNL     1      10.266  -2.311  17.570  1.00  0.00     0.054 A 
BRANCH  86  87
ATOM     87  S   UNL     1      10.889  -2.271  19.273  1.00  0.00     0.124 S 
ATOM     88  O   UNL     1      10.749  -0.858  19.614  1.00  0.00    -0.237 OA
ATOM     89  O   UNL     1       9.978  -3.179  19.967  1.00  0.00    -0.237 OA
ATOM     90  O   UNL     1      12.264  -2.749  19.151  1.00  0.00    -0.744 OA
ENDBRANCH  86  87
ENDBRANCH  60  81
ENDBRANCH  34  35
ENDBRANCH  27  29
ENDBRANCH  26  27
ENDBRANCH  25  26
ENDBRANCH  24  25
ENDBRANCH   1  24
TORSDOF 20
