REMARK SMILES Cc1cc(=O)oc2cc(O[C@@H](C)C(=O)N[C@H](CC(C)C)C(=O)OCCOCCOC(=O)c3ccc(-c4c5nc(c(-c6ccc(S(=O)(=O)[O-])cc6)c6ccc([nH]6)c(-c6ccc(S(=O)(=O)[O-])cc6)c6nc(c(-c7ccc(S(=O)(=O)[O-])cc7)c7ccc4[nH]7)C=C6)C=C5)cc3)ccc12
REMARK SMILES IDX 25 1 24 2 23 3 21 4 22 5 16 6 15 7 13 8 14 9 11 11 12 12
REMARK SMILES IDX 10 13 9 14 1 15 2 16 3 17 94 18 4 19 7 20 93 21 5 22 6 23
REMARK SMILES IDX 8 24 92 25 17 26 18 27 19 28 20 29 26 30 27 31 28 32 29 33
REMARK SMILES IDX 30 34 31 35 32 36 33 37 91 38 34 39 90 40 35 41 36 42 37 43
REMARK SMILES IDX 84 44 38 45 89 46 83 47 85 48 39 49 88 50 82 51 81 52 40 54
REMARK SMILES IDX 70 55 51 56 69 57 52 58 55 59 68 60 86 61 53 62 54 63 67 65
REMARK SMILES IDX 87 66 56 67 41 68 42 69 50 70 43 71 49 72 44 73 45 74 46 75
REMARK SMILES IDX 47 76 48 77 71 78 72 79 80 80 73 81 79 82 74 83 75 84 76 85
REMARK SMILES IDX 77 86 78 87 57 88 58 89 66 90 59 91 65 92 60 93 61 94 62 95
REMARK SMILES IDX 63 96 64 97
REMARK H PARENT 15 10 85 53 55 64
REMARK Flexibility Score: inf
ROOT
ATOM      1  C   UNL     1      -3.252   4.063  -0.377  1.00  0.00     0.202 C 
ENDROOT
BRANCH   1   2
ATOM      2  C   UNL     1      -2.811   2.689   0.349  1.00  0.00     0.261 C 
BRANCH   2   3
ATOM      3  O   UNL     1      -1.744   2.687   1.452  1.00  0.00    -0.462 OA
BRANCH   3   4
ATOM      4  C   UNL     1      -0.381   2.524   1.494  1.00  0.00     0.328 C 
ATOM      5  O   UNL     1       0.414   3.462   1.609  1.00  0.00    -0.250 OA
BRANCH   4   6
ATOM      6  C   UNL     1       0.253   1.263   1.993  1.00  0.00     0.192 C 
BRANCH   6   7
ATOM      7  N   UNL     1      -0.550   0.163   1.566  1.00  0.00    -0.339 N 
ATOM      8  C   UNL     1      -0.562  -0.189   0.225  1.00  0.00     0.261 C 
ATOM      9  O   UNL     1      -0.793  -1.386  -0.002  1.00  0.00    -0.271 OA
ATOM     10  H   UNL     1      -1.090  -0.340   2.217  1.00  0.00     0.164 HD
BRANCH   8  11
ATOM     11  C   UNL     1      -0.382   0.884  -1.078  1.00  0.00     0.258 C 
ATOM     12  C   UNL     1       0.369   0.171  -2.207  1.00  0.00     0.064 C 
BRANCH  11  13
ATOM     13  O   UNL     1      -0.429   2.282  -1.414  1.00  0.00    -0.481 OA
BRANCH  13  14
ATOM     14  C   UNL     1       0.410   3.323  -1.168  1.00  0.00     0.124 A 
ATOM     15  C   UNL     1       1.753   7.743   1.369  1.00  0.00     0.045 C 
ATOM     16  C   UNL     1       2.506   6.633   0.671  1.00  0.00    -0.033 A 
ATOM     17  C   UNL     1       3.829   6.469   0.717  1.00  0.00     0.098 A 
ATOM     18  C   UNL     1       1.786   5.607  -0.069  1.00  0.00     0.021 A 
ATOM     19  C   UNL     1       4.516   5.358   0.026  1.00  0.00     0.336 A 
ATOM     20  C   UNL     1       2.409   4.623  -0.854  1.00  0.00     0.142 A 
ATOM     21  C   UNL     1       0.452   5.486   0.095  1.00  0.00     0.016 A 
ATOM     22  O   UNL     1       5.696   5.125   0.262  1.00  0.00    -0.246 OA
ATOM     23  O   UNL     1       3.812   4.640  -0.935  1.00  0.00    -0.423 OA
ATOM     24  C   UNL     1       1.737   3.505  -1.449  1.00  0.00     0.094 A 
ATOM     25  C   UNL     1      -0.176   4.402  -0.503  1.00  0.00     0.047 A 
ENDBRANCH  13  14
ENDBRANCH  11  13
ENDBRANCH   8  11
ENDBRANCH   6   7
BRANCH   6  26
ATOM     26  C   UNL     1       0.588   1.685   3.487  1.00  0.00     0.040 C 
BRANCH  26  27
ATOM     27  C   UNL     1       2.101   1.814   3.933  1.00  0.00    -0.015 C 
ATOM     28  C   UNL     1       3.183   1.444   2.915  1.00  0.00     0.007 C 
ATOM     29  C   UNL     1       2.469   3.229   4.458  1.00  0.00     0.007 C 
ENDBRANCH  26  27
ENDBRANCH   6  26
ENDBRANCH   4   6
ENDBRANCH   3   4
ENDBRANCH   2   3
ENDBRANCH   1   2
BRANCH   1  30
ATOM     30  O   UNL     1      -2.663   4.244  -1.681  1.00  0.00    -0.374 OA
BRANCH  30  31
ATOM     31  C   UNL     1      -2.210   5.491  -2.263  1.00  0.00     0.202 C 
BRANCH  31  32
ATOM     32  C   UNL     1      -1.791   6.808  -1.543  1.00  0.00     0.261 C 
BRANCH  32  33
ATOM     33  O   UNL     1      -2.120   6.889  -0.163  1.00  0.00    -0.460 OA
BRANCH  33  34
ATOM     34  C   UNL     1      -3.253   7.578   0.089  1.00  0.00     0.338 C 
ATOM     35  O   UNL     1      -3.910   8.211  -0.697  1.00  0.00    -0.246 OA
BRANCH  34  36
ATOM     36  C   UNL     1      -3.716   7.216   1.442  1.00  0.00     0.060 A 
ATOM     37  C   UNL     1      -5.030   6.756   1.497  1.00  0.00     0.016 A 
ATOM     38  C   UNL     1      -2.946   7.350   2.603  1.00  0.00     0.016 A 
ATOM     39  C   UNL     1      -5.633   6.560   2.725  1.00  0.00     0.010 A 
ATOM     40  C   UNL     1      -3.555   7.133   3.846  1.00  0.00     0.010 A 
ATOM     41  C   UNL     1      -4.923   6.811   3.908  1.00  0.00    -0.014 A 
BRANCH  41  42
ATOM     42  C   UNL     1      -5.722   6.930   5.152  1.00  0.00     0.031 A 
ATOM     43  C   UNL     1      -6.030   8.304   5.690  1.00  0.00     0.074 A 
ATOM     44  C   UNL     1      -6.332   5.846   5.667  1.00  0.00     0.049 A 
ATOM     45  N   UNL     1      -6.864   8.652   6.636  1.00  0.00    -0.248 NA
ATOM     46  C   UNL     1      -5.322   9.438   5.072  1.00  0.00     0.031 C 
ATOM     47  C   UNL     1      -6.167   4.476   5.181  1.00  0.00     0.029 A 
ATOM     48  N   UNL     1      -7.256   5.738   6.675  1.00  0.00    -0.354 N 
ATOM     49  C   UNL     1      -6.784  10.038   6.722  1.00  0.00     0.074 A 
ATOM     50  C   UNL     1      -5.787  10.465   5.767  1.00  0.00     0.031 C 
ATOM     51  C   UNL     1      -6.995   3.669   5.864  1.00  0.00     0.029 A 
ATOM     52  C   UNL     1      -7.719   4.457   6.860  1.00  0.00     0.049 A 
ATOM     53  H   UNL     1      -7.558   6.504   7.214  1.00  0.00     0.167 HD
ATOM     54  C   UNL     1      -7.489  10.883   7.510  1.00  0.00     0.031 A 
ATOM     55  C   UNL     1      -8.625   3.973   7.732  1.00  0.00     0.031 A 
ATOM     56  C   UNL     1      -8.477  10.457   8.464  1.00  0.00     0.049 A 
ATOM     57  C   UNL     1      -9.327   4.923   8.664  1.00  0.00     0.074 A 
ATOM     58  C   UNL     1      -9.240  11.235   9.317  1.00  0.00     0.029 A 
ATOM     59  N   UNL     1      -8.838   9.138   8.695  1.00  0.00    -0.354 N 
ATOM     60  N   UNL     1      -9.240   6.231   8.728  1.00  0.00    -0.248 NA
ATOM     61  C   UNL     1     -10.258   4.332   9.634  1.00  0.00     0.031 C 
ATOM     62  C   UNL     1     -10.013  10.382  10.111  1.00  0.00     0.029 A 
ATOM     63  C   UNL     1      -9.789   9.077   9.700  1.00  0.00     0.049 A 
ATOM     64  H   UNL     1      -8.472   8.359   8.216  1.00  0.00     0.167 HD
ATOM     65  C   UNL     1     -10.126   6.621   9.728  1.00  0.00     0.074 A 
ATOM     66  C   UNL     1     -10.751   5.412  10.226  1.00  0.00     0.031 C 
ATOM     67  C   UNL     1     -10.398   7.866  10.191  1.00  0.00     0.031 A 
BRANCH  54  68
ATOM     68  C   UNL     1      -7.188  12.356   7.400  1.00  0.00    -0.014 A 
ATOM     69  C   UNL     1      -7.548  13.096   6.258  1.00  0.00     0.010 A 
ATOM     70  C   UNL     1      -6.567  13.019   8.474  1.00  0.00     0.010 A 
ATOM     71  C   UNL     1      -7.261  14.462   6.180  1.00  0.00     0.020 A 
ATOM     72  C   UNL     1      -6.306  14.390   8.413  1.00  0.00     0.020 A 
ATOM     73  C   UNL     1      -6.640  15.100   7.258  1.00  0.00     0.054 A 
BRANCH  73  74
ATOM     74  S   UNL     1      -6.300  16.878   7.138  1.00  0.00     0.124 S 
ATOM     75  O   UNL     1      -5.229  16.913   6.144  1.00  0.00    -0.237 OA
ATOM     76  O   UNL     1      -7.583  17.419   6.698  1.00  0.00    -0.237 OA
ATOM     77  O   UNL     1      -5.902  17.248   8.494  1.00  0.00    -0.744 OA
ENDBRANCH  73  74
ENDBRANCH  54  68
BRANCH  55  78
ATOM     78  C   UNL     1      -8.902   2.510   7.776  1.00  0.00    -0.014 A 
ATOM     79  C   UNL     1     -10.157   1.996   7.407  1.00  0.00     0.010 A 
ATOM     80  C   UNL     1      -7.896   1.619   8.193  1.00  0.00     0.010 A 
ATOM     81  C   UNL     1     -10.404   0.620   7.468  1.00  0.00     0.020 A 
ATOM     82  C   UNL     1      -8.127   0.243   8.225  1.00  0.00     0.020 A 
ATOM     83  C   UNL     1      -9.384  -0.247   7.872  1.00  0.00     0.054 A 
BRANCH  83  84
ATOM     84  S   UNL     1      -9.710  -2.032   7.894  1.00  0.00     0.124 S 
ATOM     85  O   UNL     1     -10.619  -2.162   9.028  1.00  0.00    -0.237 OA
ATOM     86  O   UNL     1     -10.300  -2.258   6.577  1.00  0.00    -0.237 OA
ATOM     87  O   UNL     1      -8.384  -2.618   8.083  1.00  0.00    -0.744 OA
ENDBRANCH  83  84
ENDBRANCH  55  78
BRANCH  67  88
ATOM     88  C   UNL     1     -11.442   7.995  11.271  1.00  0.00    -0.014 A 
ATOM     89  C   UNL     1     -11.202   7.540  12.580  1.00  0.00     0.010 A 
ATOM     90  C   UNL     1     -12.663   8.631  10.981  1.00  0.00     0.010 A 
ATOM     91  C   UNL     1     -12.179   7.686  13.569  1.00  0.00     0.020 A 
ATOM     92  C   UNL     1     -13.629   8.809  11.975  1.00  0.00     0.020 A 
ATOM     93  C   UNL     1     -13.386   8.320  13.260  1.00  0.00     0.054 A 
BRANCH  93  94
ATOM     94  S   UNL     1     -14.620   8.530  14.572  1.00  0.00     0.124 S 
ATOM     95  O   UNL     1     -15.099   7.163  14.760  1.00  0.00    -0.237 OA
ATOM     96  O   UNL     1     -13.828   9.077  15.671  1.00  0.00    -0.237 OA
ATOM     97  O   UNL     1     -15.591   9.455  13.991  1.00  0.00    -0.744 OA
ENDBRANCH  93  94
ENDBRANCH  67  88
ENDBRANCH  41  42
ENDBRANCH  34  36
ENDBRANCH  33  34
ENDBRANCH  32  33
ENDBRANCH  31  32
ENDBRANCH  30  31
ENDBRANCH   1  30
TORSDOF 23
