REMARK SMILES CS(=O)(=O)c1ccc(-c2cc(Cl)cnc2-c2ccc(C(=O)OCCOCCOC(=O)c3ccc(-c4c5nc(c(-c6ccc(S(=O)(=O)[O-])cc6)c6ccc([nH]6)c(-c6ccc(S(=O)(=O)[O-])cc6)c6nc(c(-c7ccc(S(=O)(=O)[O-])cc7)c7ccc4[nH]7)C=C6)C=C5)cc3)nc2)cc1
REMARK SMILES IDX 25 1 24 2 23 3 22 4 20 5 21 6 19 7 16 8 17 9 92 10 18 11
REMARK SMILES IDX 91 12 15 13 9 14 10 15 11 16 14 17 12 18 13 19 8 20 5 21
REMARK SMILES IDX 6 22 94 23 7 24 93 25 2 26 1 27 3 28 4 29 26 30 27 31 28 32
REMARK SMILES IDX 29 33 30 34 31 35 32 36 90 37 33 38 89 39 34 40 35 41 36 42
REMARK SMILES IDX 83 43 37 44 88 45 82 46 84 47 38 48 87 49 81 50 80 51 39 53
REMARK SMILES IDX 69 54 50 55 68 56 51 57 54 58 67 59 85 60 52 61 53 62 66 64
REMARK SMILES IDX 86 65 55 66 40 67 41 68 49 69 42 70 48 71 43 72 44 73 45 74
REMARK SMILES IDX 46 75 47 76 70 77 71 78 79 79 72 80 78 81 73 82 74 83 75 84
REMARK SMILES IDX 76 85 77 86 56 87 57 88 65 89 58 90 64 91 59 92 60 93 61 94
REMARK SMILES IDX 62 95 63 96
REMARK H PARENT 84 52 54 63
REMARK Flexibility Score: inf
ROOT
ATOM      1  O   UNL     1       7.812  -4.696   1.883  1.00  0.00    -0.374 OA
ENDROOT
BRANCH   1   2
ATOM      2  C   UNL     1       7.754  -3.767   0.801  1.00  0.00     0.202 C 
BRANCH   2   3
ATOM      3  C   UNL     1       6.377  -3.179   0.481  1.00  0.00     0.261 C 
BRANCH   3   4
ATOM      4  O   UNL     1       5.895  -2.395   1.583  1.00  0.00    -0.459 OA
BRANCH   4   5
ATOM      5  C   UNL     1       4.793  -2.892   2.198  1.00  0.00     0.356 C 
ATOM      6  O   UNL     1       4.062  -3.775   1.776  1.00  0.00    -0.244 OA
BRANCH   5   7
ATOM      7  C   UNL     1       4.647  -2.267   3.544  1.00  0.00     0.148 A 
ATOM      8  C   UNL     1       3.980  -1.173   5.969  1.00  0.00     0.019 A 
ATOM      9  C   UNL     1       4.616  -0.381   5.002  1.00  0.00     0.014 A 
ATOM     10  C   UNL     1       3.846  -2.529   5.693  1.00  0.00     0.122 A 
ATOM     11  C   UNL     1       4.955  -0.930   3.766  1.00  0.00     0.037 A 
ATOM     12  N   UNL     1       4.146  -3.089   4.504  1.00  0.00    -0.249 NA
BRANCH   8  13
ATOM     13  C   UNL     1       3.250  -0.593   7.100  1.00  0.00     0.080 A 
ATOM     14  C   UNL     1       2.073   0.167   6.894  1.00  0.00     0.010 A 
ATOM     15  C   UNL     1       1.394   0.623   8.033  1.00  0.00     0.033 A 
ATOM     16  C   UNL     1       1.877   0.306   9.298  1.00  0.00     0.060 A 
ATOM     17  N   UNL     1       3.724  -0.922   8.330  1.00  0.00    -0.254 NA
ATOM     18  Cl  UNL     1       1.047   0.835  10.704  1.00  0.00    -0.083 Cl
ATOM     19  C   UNL     1       3.029  -0.458   9.397  1.00  0.00     0.132 A 
BRANCH  14  20
ATOM     20  C   UNL     1       1.549   0.457   5.545  1.00  0.00    -0.016 A 
ATOM     21  C   UNL     1       0.765   0.976   2.896  1.00  0.00     0.067 A 
ATOM     22  C   UNL     1       0.694  -0.325   3.390  1.00  0.00     0.021 A 
ATOM     23  C   UNL     1       1.198   2.023   3.713  1.00  0.00     0.021 A 
ATOM     24  C   UNL     1       1.077  -0.576   4.711  1.00  0.00     0.010 A 
ATOM     25  C   UNL     1       1.585   1.762   5.031  1.00  0.00     0.010 A 
BRANCH  21  26
ATOM     26  S   UNL     1       0.267   1.319   1.223  1.00  0.00     0.175 S 
ATOM     27  C   UNL     1       1.128   0.137   0.218  1.00  0.00     0.163 C 
ATOM     28  O   UNL     1       0.786   2.631   0.891  1.00  0.00    -0.224 OA
ATOM     29  O   UNL     1      -1.153   1.031   1.159  1.00  0.00    -0.224 OA
ENDBRANCH  21  26
ENDBRANCH  14  20
ENDBRANCH   8  13
ENDBRANCH   5   7
ENDBRANCH   4   5
ENDBRANCH   3   4
ENDBRANCH   2   3
ENDBRANCH   1   2
BRANCH   1  30
ATOM     30  C   UNL     1       7.816  -4.171   3.212  1.00  0.00     0.202 C 
BRANCH  30  31
ATOM     31  C   UNL     1       9.128  -3.562   3.720  1.00  0.00     0.261 C 
BRANCH  31  32
ATOM     32  O   UNL     1       9.467  -2.341   3.040  1.00  0.00    -0.460 OA
BRANCH  32  33
ATOM     33  C   UNL     1      10.502  -2.439   2.173  1.00  0.00     0.338 C 
ATOM     34  O   UNL     1      11.181  -3.431   1.941  1.00  0.00    -0.246 OA
BRANCH  33  35
ATOM     35  C   UNL     1      10.600  -1.204   1.376  1.00  0.00     0.060 A 
ATOM     36  C   UNL     1      10.607  -1.318  -0.022  1.00  0.00     0.016 A 
ATOM     37  C   UNL     1      10.751   0.041   1.989  1.00  0.00     0.016 A 
ATOM     38  C   UNL     1      10.809  -0.190  -0.815  1.00  0.00     0.010 A 
ATOM     39  C   UNL     1      10.966   1.167   1.193  1.00  0.00     0.010 A 
ATOM     40  C   UNL     1      11.030   1.052  -0.209  1.00  0.00    -0.014 A 
BRANCH  40  41
ATOM     41  C   UNL     1      11.494   2.212  -1.006  1.00  0.00     0.031 A 
ATOM     42  C   UNL     1      12.956   2.562  -0.976  1.00  0.00     0.074 A 
ATOM     43  C   UNL     1      10.629   2.961  -1.712  1.00  0.00     0.049 A 
ATOM     44  N   UNL     1      13.565   3.617  -1.449  1.00  0.00    -0.248 NA
ATOM     45  C   UNL     1      13.848   1.595  -0.312  1.00  0.00     0.031 C 
ATOM     46  C   UNL     1       9.202   2.687  -1.869  1.00  0.00     0.029 A 
ATOM     47  N   UNL     1      10.829   4.125  -2.410  1.00  0.00    -0.354 N 
ATOM     48  C   UNL     1      14.906   3.456  -1.118  1.00  0.00     0.074 A 
ATOM     49  C   UNL     1      15.018   2.210  -0.391  1.00  0.00     0.031 C 
ATOM     50  C   UNL     1       8.648   3.671  -2.599  1.00  0.00     0.029 A 
ATOM     51  C   UNL     1       9.672   4.665  -2.918  1.00  0.00     0.049 A 
ATOM     52  H   UNL     1      11.716   4.534  -2.536  1.00  0.00     0.167 HD
ATOM     53  C   UNL     1      15.948   4.276  -1.392  1.00  0.00     0.031 A 
ATOM     54  C   UNL     1       9.458   5.845  -3.535  1.00  0.00     0.031 A 
ATOM     55  C   UNL     1      15.825   5.518  -2.106  1.00  0.00     0.049 A 
ATOM     56  C   UNL     1      10.618   6.780  -3.762  1.00  0.00     0.074 A 
ATOM     57  C   UNL     1      16.819   6.421  -2.439  1.00  0.00     0.029 A 
ATOM     58  N   UNL     1      14.633   6.034  -2.594  1.00  0.00    -0.354 N 
ATOM     59  N   UNL     1      11.880   6.620  -3.441  1.00  0.00    -0.248 NA
ATOM     60  C   UNL     1      10.326   8.053  -4.437  1.00  0.00     0.031 C 
ATOM     61  C   UNL     1      16.220   7.509  -3.082  1.00  0.00     0.029 A 
ATOM     62  C   UNL     1      14.864   7.251  -3.210  1.00  0.00     0.049 A 
ATOM     63  H   UNL     1      13.754   5.598  -2.514  1.00  0.00     0.167 HD
ATOM     64  C   UNL     1      12.539   7.751  -3.914  1.00  0.00     0.074 A 
ATOM     65  C   UNL     1      11.536   8.589  -4.538  1.00  0.00     0.031 C 
ATOM     66  C   UNL     1      13.856   8.062  -3.846  1.00  0.00     0.031 A 
BRANCH  53  67
ATOM     67  C   UNL     1      17.305   3.874  -0.878  1.00  0.00    -0.014 A 
ATOM     68  C   UNL     1      18.005   2.787  -1.431  1.00  0.00     0.010 A 
ATOM     69  C   UNL     1      17.901   4.617   0.158  1.00  0.00     0.010 A 
ATOM     70  C   UNL     1      19.259   2.426  -0.930  1.00  0.00     0.020 A 
ATOM     71  C   UNL     1      19.167   4.278   0.641  1.00  0.00     0.020 A 
ATOM     72  C   UNL     1      19.830   3.172   0.106  1.00  0.00     0.054 A 
BRANCH  72  73
ATOM     73  S   UNL     1      21.465   2.692   0.726  1.00  0.00     0.124 S 
ATOM     74  O   UNL     1      21.159   1.470   1.466  1.00  0.00    -0.237 OA
ATOM     75  O   UNL     1      22.232   2.505  -0.503  1.00  0.00    -0.237 OA
ATOM     76  O   UNL     1      21.875   3.829   1.546  1.00  0.00    -0.744 OA
ENDBRANCH  72  73
ENDBRANCH  53  67
BRANCH  54  77
ATOM     77  C   UNL     1       8.082   6.220  -3.963  1.00  0.00    -0.014 A 
ATOM     78  C   UNL     1       7.752   6.281  -5.328  1.00  0.00     0.010 A 
ATOM     79  C   UNL     1       7.093   6.514  -3.007  1.00  0.00     0.010 A 
ATOM     80  C   UNL     1       6.463   6.645  -5.729  1.00  0.00     0.020 A 
ATOM     81  C   UNL     1       5.795   6.850  -3.403  1.00  0.00     0.020 A 
ATOM     82  C   UNL     1       5.492   6.924  -4.763  1.00  0.00     0.054 A 
BRANCH  82  83
ATOM     83  S   UNL     1       3.813   7.344  -5.309  1.00  0.00     0.124 S 
ATOM     84  O   UNL     1       3.997   8.688  -5.848  1.00  0.00    -0.237 OA
ATOM     85  O   UNL     1       3.534   6.300  -6.293  1.00  0.00    -0.237 OA
ATOM     86  O   UNL     1       3.025   7.262  -4.082  1.00  0.00    -0.744 OA
ENDBRANCH  82  83
ENDBRANCH  54  77
BRANCH  66  87
ATOM     87  C   UNL     1      14.319   9.327  -4.521  1.00  0.00    -0.014 A 
ATOM     88  C   UNL     1      14.062  10.593  -3.969  1.00  0.00     0.010 A 
ATOM     89  C   UNL     1      15.112   9.231  -5.680  1.00  0.00     0.010 A 
ATOM     90  C   UNL     1      14.581  11.743  -4.572  1.00  0.00     0.020 A 
ATOM     91  C   UNL     1      15.654  10.375  -6.270  1.00  0.00     0.020 A 
ATOM     92  C   UNL     1      15.379  11.626  -5.716  1.00  0.00     0.054 A 
BRANCH  92  93
ATOM     93  S   UNL     1      16.105  13.125  -6.434  1.00  0.00     0.124 S 
ATOM     94  O   UNL     1      14.945  13.758  -7.054  1.00  0.00    -0.237 OA
ATOM     95  O   UNL     1      16.645  13.812  -5.263  1.00  0.00    -0.237 OA
ATOM     96  O   UNL     1      17.108  12.614  -7.365  1.00  0.00    -0.744 OA
ENDBRANCH  92  93
ENDBRANCH  66  87
ENDBRANCH  40  41
ENDBRANCH  33  35
ENDBRANCH  32  33
ENDBRANCH  31  32
ENDBRANCH  30  31
ENDBRANCH   1  30
TORSDOF 20
