REMARK SMILES O=C(COc1ccc(Cl)c2ccccc12)N[C@@H](Cc1c[nH]c2ccccc12)C(=O)OCCOCCOC(=O)c1ccc(-c2c3nc(c(-c4ccc(S(=O)(=O)[O-])cc4)c4ccc([nH]4)c(-c4ccc(S(=O)(=O)[O-])cc4)c4nc(c(-c5ccc(S(=O)(=O)[O-])cc5)c5ccc2[nH]5)C=C4)C=C3)cc1
REMARK SMILES IDX 32 1 31 2 30 3 28 4 29 5 17 6 16 7 1 8 2 9 3 11 4 12 5 13
REMARK SMILES IDX 6 14 15 15 7 16 10 17 14 18 8 19 11 20 13 21 9 22 12 23
REMARK SMILES IDX 18 24 19 25 20 26 27 27 21 28 22 29 26 30 23 32 25 33 24 34
REMARK SMILES IDX 33 35 34 36 35 37 36 38 37 39 38 40 39 41 40 42 98 43 41 44
REMARK SMILES IDX 97 45 42 46 43 47 44 48 91 49 45 50 96 51 90 52 92 53 46 54
REMARK SMILES IDX 95 55 89 56 88 57 47 59 77 60 58 61 76 62 59 63 62 64 75 65
REMARK SMILES IDX 93 66 60 67 61 68 74 70 94 71 63 72 48 73 49 74 57 75 50 76
REMARK SMILES IDX 56 77 51 78 52 79 53 80 54 81 55 82 78 83 79 84 87 85 80 86
REMARK SMILES IDX 86 87 81 88 82 89 83 90 84 91 85 92 64 93 65 94 73 95 66 96
REMARK SMILES IDX 72 97 67 98 68 99 69 100 70 101 71 102
REMARK H PARENT 16 10 21 31 92 58 62 69
REMARK Flexibility Score: inf
ROOT
ATOM      1  C   UNL     1       3.291  -6.098   0.018  1.00  0.00     0.202 C 
ENDROOT
BRANCH   1   2
ATOM      2  C   UNL     1       3.388  -5.393  -1.340  1.00  0.00     0.261 C 
BRANCH   2   3
ATOM      3  O   UNL     1       3.229  -3.961  -1.289  1.00  0.00    -0.462 OA
BRANCH   3   4
ATOM      4  C   UNL     1       2.266  -3.456  -2.111  1.00  0.00     0.329 C 
ATOM      5  O   UNL     1       1.530  -4.133  -2.825  1.00  0.00    -0.250 OA
BRANCH   4   6
ATOM      6  C   UNL     1       2.252  -1.925  -2.169  1.00  0.00     0.196 C 
BRANCH   6   7
ATOM      7  N   UNL     1       2.824  -1.173  -1.031  1.00  0.00    -0.339 N 
ATOM      8  O   UNL     1       0.904   0.013  -0.670  1.00  0.00    -0.271 OA
ATOM      9  C   UNL     1       2.086  -0.200  -0.391  1.00  0.00     0.258 C 
ATOM     10  H   UNL     1       3.740  -1.369  -0.728  1.00  0.00     0.164 HD
BRANCH   9  11
ATOM     11  C   UNL     1       2.804   0.690   0.647  1.00  0.00     0.329 C 
BRANCH  11  12
ATOM     12  O   UNL     1       3.435   0.150   1.789  1.00  0.00    -0.483 OA
BRANCH  12  13
ATOM     13  C   UNL     1       2.676  -0.338   2.829  1.00  0.00     0.128 A 
ATOM     14  C   UNL     1       1.350  -0.752   2.688  1.00  0.00     0.048 A 
ATOM     15  C   UNL     1       3.371  -0.576   4.048  1.00  0.00     0.025 A 
ATOM     16  C   UNL     1       0.753  -1.525   3.682  1.00  0.00     0.025 A 
ATOM     17  C   UNL     1       2.767  -1.367   5.062  1.00  0.00     0.004 A 
ATOM     18  C   UNL     1       4.660  -0.048   4.288  1.00  0.00     0.012 A 
ATOM     19  C   UNL     1       1.460  -1.859   4.838  1.00  0.00     0.049 A 
ATOM     20  C   UNL     1       3.507  -1.635   6.241  1.00  0.00     0.010 A 
ATOM     21  C   UNL     1       5.346  -0.288   5.479  1.00  0.00     0.001 A 
ATOM     22  Cl  UNL     1       0.657  -2.909   5.961  1.00  0.00    -0.084 Cl
ATOM     23  C   UNL     1       4.776  -1.096   6.450  1.00  0.00     0.001 A 
ENDBRANCH  12  13
ENDBRANCH  11  12
ENDBRANCH   9  11
ENDBRANCH   6   7
BRANCH   6  24
ATOM     24  C   UNL     1       2.846  -1.483  -3.525  1.00  0.00     0.074 C 
BRANCH  24  25
ATOM     25  C   UNL     1       4.320  -1.742  -3.661  1.00  0.00    -0.020 A 
ATOM     26  C   UNL     1       5.329  -0.819  -3.462  1.00  0.00     0.087 A 
ATOM     27  C   UNL     1       4.959  -2.979  -4.016  1.00  0.00     0.003 A 
ATOM     28  N   UNL     1       6.532  -1.453  -3.619  1.00  0.00    -0.361 N 
ATOM     29  C   UNL     1       6.334  -2.783  -3.901  1.00  0.00     0.046 A 
ATOM     30  C   UNL     1       4.502  -4.261  -4.395  1.00  0.00     0.010 A 
ATOM     31  H   UNL     1       7.412  -1.018  -3.542  1.00  0.00     0.166 HD
ATOM     32  C   UNL     1       7.268  -3.812  -4.076  1.00  0.00     0.026 A 
ATOM     33  C   UNL     1       5.420  -5.306  -4.559  1.00  0.00     0.001 A 
ATOM     34  C   UNL     1       6.782  -5.085  -4.386  1.00  0.00     0.002 A 
ENDBRANCH  24  25
ENDBRANCH   6  24
ENDBRANCH   4   6
ENDBRANCH   3   4
ENDBRANCH   2   3
ENDBRANCH   1   2
BRANCH   1  35
ATOM     35  O   UNL     1       2.177  -5.801   0.849  1.00  0.00    -0.374 OA
BRANCH  35  36
ATOM     36  C   UNL     1       1.971  -4.444   1.206  1.00  0.00     0.202 C 
BRANCH  36  37
ATOM     37  C   UNL     1       3.091  -3.682   1.924  1.00  0.00     0.261 C 
BRANCH  37  38
ATOM     38  O   UNL     1       4.425  -3.846   1.432  1.00  0.00    -0.460 OA
BRANCH  38  39
ATOM     39  C   UNL     1       5.277  -4.409   2.319  1.00  0.00     0.338 C 
ATOM     40  O   UNL     1       5.024  -4.842   3.434  1.00  0.00    -0.246 OA
BRANCH  39  41
ATOM     41  C   UNL     1       6.606  -4.529   1.711  1.00  0.00     0.060 A 
ATOM     42  C   UNL     1       7.072  -5.808   1.388  1.00  0.00     0.016 A 
ATOM     43  C   UNL     1       7.430  -3.406   1.591  1.00  0.00     0.016 A 
ATOM     44  C   UNL     1       8.392  -5.971   0.976  1.00  0.00     0.010 A 
ATOM     45  C   UNL     1       8.753  -3.579   1.179  1.00  0.00     0.010 A 
ATOM     46  C   UNL     1       9.248  -4.864   0.904  1.00  0.00    -0.014 A 
BRANCH  46  47
ATOM     47  C   UNL     1      10.694  -5.076   0.658  1.00  0.00     0.031 A 
ATOM     48  C   UNL     1      11.648  -5.069   1.821  1.00  0.00     0.074 A 
ATOM     49  C   UNL     1      11.139  -5.302  -0.591  1.00  0.00     0.049 A 
ATOM     50  N   UNL     1      12.944  -5.245   1.826  1.00  0.00    -0.248 NA
ATOM     51  C   UNL     1      11.065  -4.833   3.152  1.00  0.00     0.031 C 
ATOM     52  C   UNL     1      10.301  -5.361  -1.788  1.00  0.00     0.029 A 
ATOM     53  N   UNL     1      12.409  -5.525  -1.056  1.00  0.00    -0.354 N 
ATOM     54  C   UNL     1      13.333  -5.139   3.157  1.00  0.00     0.074 A 
ATOM     55  C   UNL     1      12.141  -4.853   3.925  1.00  0.00     0.031 C 
ATOM     56  C   UNL     1      11.082  -5.604  -2.854  1.00  0.00     0.029 A 
ATOM     57  C   UNL     1      12.473  -5.695  -2.417  1.00  0.00     0.049 A 
ATOM     58  H   UNL     1      13.200  -5.561  -0.470  1.00  0.00     0.167 HD
ATOM     59  C   UNL     1      14.571  -5.274   3.690  1.00  0.00     0.031 A 
ATOM     60  C   UNL     1      13.537  -5.891  -3.221  1.00  0.00     0.031 A 
ATOM     61  C   UNL     1      15.755  -5.545   2.919  1.00  0.00     0.049 A 
ATOM     62  C   UNL     1      14.909  -5.988  -2.612  1.00  0.00     0.074 A 
ATOM     63  C   UNL     1      17.054  -5.713   3.363  1.00  0.00     0.029 A 
ATOM     64  N   UNL     1      15.783  -5.681   1.539  1.00  0.00    -0.354 N 
ATOM     65  N   UNL     1      15.256  -5.911  -1.349  1.00  0.00    -0.248 NA
ATOM     66  C   UNL     1      16.031  -6.208  -3.536  1.00  0.00     0.031 C 
ATOM     67  C   UNL     1      17.875  -5.905   2.246  1.00  0.00     0.029 A 
ATOM     68  C   UNL     1      17.080  -5.906   1.111  1.00  0.00     0.049 A 
ATOM     69  H   UNL     1      14.996  -5.625   0.950  1.00  0.00     0.167 HD
ATOM     70  C   UNL     1      16.634  -6.094  -1.324  1.00  0.00     0.074 A 
ATOM     71  C   UNL     1      17.054  -6.297  -2.696  1.00  0.00     0.031 C 
ATOM     72  C   UNL     1      17.477  -6.098  -0.261  1.00  0.00     0.031 A 
BRANCH  59  73
ATOM     73  C   UNL     1      14.705  -5.097   5.179  1.00  0.00    -0.014 A 
ATOM     74  C   UNL     1      14.230  -6.073   6.075  1.00  0.00     0.010 A 
ATOM     75  C   UNL     1      15.332  -3.946   5.691  1.00  0.00     0.010 A 
ATOM     76  C   UNL     1      14.339  -5.880   7.455  1.00  0.00     0.020 A 
ATOM     77  C   UNL     1      15.463  -3.760   7.070  1.00  0.00     0.020 A 
ATOM     78  C   UNL     1      14.947  -4.720   7.944  1.00  0.00     0.054 A 
BRANCH  78  79
ATOM     79  S   UNL     1      15.079  -4.492   9.739  1.00  0.00     0.124 S 
ATOM     80  O   UNL     1      13.710  -4.130  10.096  1.00  0.00    -0.237 OA
ATOM     81  O   UNL     1      15.522  -5.805  10.200  1.00  0.00    -0.237 OA
ATOM     82  O   UNL     1      16.063  -3.421   9.880  1.00  0.00    -0.744 OA
ENDBRANCH  78  79
ENDBRANCH  59  73
BRANCH  60  83
ATOM     83  C   UNL     1      13.337  -6.003  -4.690  1.00  0.00    -0.014 A 
ATOM     84  C   UNL     1      13.474  -7.240  -5.341  1.00  0.00     0.010 A 
ATOM     85  C   UNL     1      12.977  -4.868  -5.441  1.00  0.00     0.010 A 
ATOM     86  C   UNL     1      13.260  -7.340  -6.719  1.00  0.00     0.020 A 
ATOM     87  C   UNL     1      12.740  -4.969  -6.814  1.00  0.00     0.020 A 
ATOM     88  C   UNL     1      12.891  -6.204  -7.446  1.00  0.00     0.054 A 
BRANCH  88  89
ATOM     89  S   UNL     1      12.549  -6.370  -9.220  1.00  0.00     0.124 S 
ATOM     90  O   UNL     1      13.892  -6.474  -9.779  1.00  0.00    -0.237 OA
ATOM     91  O   UNL     1      11.742  -7.587  -9.274  1.00  0.00    -0.237 OA
ATOM     92  O   UNL     1      11.828  -5.140  -9.543  1.00  0.00    -0.744 OA
ENDBRANCH  88  89
ENDBRANCH  60  83
BRANCH  72  93
ATOM     93  C   UNL     1      18.934  -6.348  -0.537  1.00  0.00    -0.014 A 
ATOM     94  C   UNL     1      19.745  -5.353  -1.109  1.00  0.00     0.010 A 
ATOM     95  C   UNL     1      19.509  -7.578  -0.168  1.00  0.00     0.010 A 
ATOM     96  C   UNL     1      21.103  -5.594  -1.334  1.00  0.00     0.020 A 
ATOM     97  C   UNL     1      20.872  -7.813  -0.370  1.00  0.00     0.020 A 
ATOM     98  C   UNL     1      21.657  -6.824  -0.965  1.00  0.00     0.054 A 
BRANCH  98  99
ATOM     99  S   UNL     1      23.431  -7.099  -1.226  1.00  0.00     0.124 S 
ATOM    100  O   UNL     1      23.491  -7.347  -2.663  1.00  0.00    -0.237 OA
ATOM    101  O   UNL     1      24.022  -5.839  -0.780  1.00  0.00    -0.237 OA
ATOM    102  O   UNL     1      23.730  -8.253  -0.380  1.00  0.00    -0.744 OA
ENDBRANCH  98  99
ENDBRANCH  72  93
ENDBRANCH  46  47
ENDBRANCH  39  41
ENDBRANCH  38  39
ENDBRANCH  37  38
ENDBRANCH  36  37
ENDBRANCH  35  36
ENDBRANCH   1  35
TORSDOF 23
