REMARK SMILES CC[C@@]1(C(=O)OCCOCCOC(=O)c2ccc(-c3c4nc(c(-c5ccc(S(=O)(=O)[O-])cc5)c5ccc([nH]5)c(-c5ccc(S(=O)(=O)[O-])cc5)c5nc(c(-c6ccc(S(=O)(=O)[O-])cc6)c6ccc3[nH]6)C=C5)C=C4)cc2)CCC[N@@H+](Cc2ccc(C3CC3)cc2)C1
REMARK SMILES IDX 9 1 8 2 7 3 6 4 4 5 5 6 3 7 75 8 89 9 76 10 78 11 77 12 2 14
REMARK SMILES IDX 1 15 79 16 80 17 81 18 88 19 82 20 87 21 83 22 84 23 85 24
REMARK SMILES IDX 86 25 10 26 11 27 12 28 13 29 14 30 15 31 16 32 74 33 17 34
REMARK SMILES IDX 73 35 18 36 19 37 20 38 67 39 21 40 72 41 66 42 68 43 22 44
REMARK SMILES IDX 71 45 65 46 64 47 23 49 53 50 34 51 52 52 35 53 38 54 51 55
REMARK SMILES IDX 69 56 36 57 37 58 50 60 70 61 39 62 24 63 25 64 33 65 26 66
REMARK SMILES IDX 32 67 27 68 28 69 29 70 30 71 31 72 54 73 55 74 63 75 56 76
REMARK SMILES IDX 62 77 57 78 58 79 59 80 60 81 61 82 40 83 41 84 49 85 42 86
REMARK SMILES IDX 48 87 43 88 44 89 45 90 46 91 47 92
REMARK H PARENT 78 13 68 48 38 59
REMARK Flexibility Score: inf
ROOT
ATOM      1  O   UNL     1      -0.997  -1.664   0.408  1.00  0.00    -0.374 OA
ENDROOT
BRANCH   1   2
ATOM      2  C   UNL     1      -1.804  -0.921   1.320  1.00  0.00     0.202 C 
BRANCH   2   3
ATOM      3  C   UNL     1      -1.106   0.153   2.156  1.00  0.00     0.261 C 
BRANCH   3   4
ATOM      4  O   UNL     1      -0.660   1.276   1.373  1.00  0.00    -0.463 OA
BRANCH   4   5
ATOM      5  C   UNL     1       0.683   1.355   1.203  1.00  0.00     0.317 C 
ATOM      6  O   UNL     1       1.466   0.466   1.533  1.00  0.00    -0.251 OA
BRANCH   5   7
ATOM      7  C   UNL     1       1.151   2.623   0.484  1.00  0.00     0.117 C 
ATOM      8  C   UNL     1       2.445   3.074   1.206  1.00  0.00     0.030 C 
ATOM      9  C   UNL     1       0.160   3.803   0.495  1.00  0.00     0.281 C 
ATOM     10  C   UNL     1       2.118   3.628   2.592  1.00  0.00     0.063 C 
ATOM     11  N   UNL     1      -0.058   4.511   1.761  1.00  0.00    -0.330 N 
ATOM     12  C   UNL     1       1.180   4.828   2.479  1.00  0.00     0.262 C 
ATOM     13  H   UNL     1      -0.558   3.860   2.367  1.00  0.00     0.348 HD
BRANCH   7  14
ATOM     14  C   UNL     1       1.496   2.233  -0.992  1.00  0.00     0.021 C 
ATOM     15  C   UNL     1       0.337   2.333  -1.988  1.00  0.00     0.005 C 
ENDBRANCH   7  14
BRANCH  11  16
ATOM     16  C   UNL     1      -0.923   5.711   1.570  1.00  0.00     0.299 C 
BRANCH  16  17
ATOM     17  C   UNL     1      -0.290   6.857   0.790  1.00  0.00     0.006 A 
ATOM     18  C   UNL     1       0.314   7.921   1.466  1.00  0.00     0.010 A 
ATOM     19  C   UNL     1      -0.192   6.828  -0.606  1.00  0.00     0.010 A 
ATOM     20  C   UNL     1       1.103   8.848   0.773  1.00  0.00     0.004 A 
ATOM     21  C   UNL     1       0.625   7.737  -1.287  1.00  0.00     0.004 A 
ATOM     22  C   UNL     1       1.328   8.748  -0.612  1.00  0.00    -0.045 A 
BRANCH  22  23
ATOM     23  C   UNL     1       2.311   9.687  -1.287  1.00  0.00     0.019 C 
ATOM     24  C   UNL     1       3.177   9.215  -2.433  1.00  0.00     0.009 C 
ATOM     25  C   UNL     1       2.078  10.208  -2.682  1.00  0.00     0.009 C 
ENDBRANCH  22  23
ENDBRANCH  16  17
ENDBRANCH  11  16
ENDBRANCH   5   7
ENDBRANCH   4   5
ENDBRANCH   3   4
ENDBRANCH   2   3
ENDBRANCH   1   2
BRANCH   1  26
ATOM     26  C   UNL     1      -0.618  -1.024  -0.809  1.00  0.00     0.202 C 
BRANCH  26  27
ATOM     27  C   UNL     1      -1.719  -0.849  -1.863  1.00  0.00     0.261 C 
BRANCH  27  28
ATOM     28  O   UNL     1      -2.654   0.182  -1.488  1.00  0.00    -0.460 OA
BRANCH  28  29
ATOM     29  C   UNL     1      -3.916  -0.252  -1.252  1.00  0.00     0.338 C 
ATOM     30  O   UNL     1      -4.343  -1.382  -1.416  1.00  0.00    -0.246 OA
BRANCH  29  31
ATOM     31  C   UNL     1      -4.694   0.792  -0.554  1.00  0.00     0.060 A 
ATOM     32  C   UNL     1      -5.353   0.417   0.624  1.00  0.00     0.016 A 
ATOM     33  C   UNL     1      -4.863   2.072  -1.083  1.00  0.00     0.016 A 
ATOM     34  C   UNL     1      -6.247   1.291   1.236  1.00  0.00     0.010 A 
ATOM     35  C   UNL     1      -5.770   2.948  -0.472  1.00  0.00     0.010 A 
ATOM     36  C   UNL     1      -6.505   2.540   0.658  1.00  0.00    -0.014 A 
BRANCH  36  37
ATOM     37  C   UNL     1      -7.693   3.312   1.103  1.00  0.00     0.031 A 
ATOM     38  C   UNL     1      -8.948   3.240   0.271  1.00  0.00     0.074 A 
ATOM     39  C   UNL     1      -7.687   4.018   2.248  1.00  0.00     0.049 A 
ATOM     40  N   UNL     1     -10.090   3.856   0.436  1.00  0.00    -0.248 NA
ATOM     41  C   UNL     1      -8.909   2.351  -0.903  1.00  0.00     0.031 C 
ATOM     42  C   UNL     1      -6.566   4.110   3.181  1.00  0.00     0.029 A 
ATOM     43  N   UNL     1      -8.666   4.794   2.818  1.00  0.00    -0.354 N 
ATOM     44  C   UNL     1     -10.898   3.443  -0.619  1.00  0.00     0.074 A 
ATOM     45  C   UNL     1     -10.108   2.546  -1.432  1.00  0.00     0.031 C 
ATOM     46  C   UNL     1      -6.919   4.906   4.207  1.00  0.00     0.029 A 
ATOM     47  C   UNL     1      -8.274   5.409   3.983  1.00  0.00     0.049 A 
ATOM     48  H   UNL     1      -9.565   4.899   2.430  1.00  0.00     0.167 HD
ATOM     49  C   UNL     1     -12.183   3.776  -0.886  1.00  0.00     0.031 A 
ATOM     50  C   UNL     1      -8.922   6.296   4.764  1.00  0.00     0.031 A 
ATOM     51  C   UNL     1     -12.968   4.672  -0.080  1.00  0.00     0.049 A 
ATOM     52  C   UNL     1     -10.323   6.723   4.400  1.00  0.00     0.074 A 
ATOM     53  C   UNL     1     -14.280   5.070  -0.269  1.00  0.00     0.029 A 
ATOM     54  N   UNL     1     -12.517   5.309   1.065  1.00  0.00    -0.354 N 
ATOM     55  N   UNL     1     -11.072   6.327   3.398  1.00  0.00    -0.248 NA
ATOM     56  C   UNL     1     -10.967   7.712   5.277  1.00  0.00     0.031 C 
ATOM     57  C   UNL     1     -14.603   5.994   0.729  1.00  0.00     0.029 A 
ATOM     58  C   UNL     1     -13.516   6.117   1.580  1.00  0.00     0.049 A 
ATOM     59  H   UNL     1     -11.618   5.204   1.454  1.00  0.00     0.167 HD
ATOM     60  C   UNL     1     -12.287   6.989   3.547  1.00  0.00     0.074 A 
ATOM     61  C   UNL     1     -12.175   7.807   4.736  1.00  0.00     0.031 C 
ATOM     62  C   UNL     1     -13.398   6.918   2.773  1.00  0.00     0.031 A 
BRANCH  49  63
ATOM     63  C   UNL     1     -12.807   3.200  -2.129  1.00  0.00    -0.014 A 
ATOM     64  C   UNL     1     -13.143   1.837  -2.216  1.00  0.00     0.010 A 
ATOM     65  C   UNL     1     -13.094   4.046  -3.216  1.00  0.00     0.010 A 
ATOM     66  C   UNL     1     -13.719   1.324  -3.382  1.00  0.00     0.020 A 
ATOM     67  C   UNL     1     -13.697   3.544  -4.372  1.00  0.00     0.020 A 
ATOM     68  C   UNL     1     -13.990   2.182  -4.454  1.00  0.00     0.054 A 
BRANCH  68  69
ATOM     69  S   UNL     1     -14.755   1.494  -5.947  1.00  0.00     0.124 S 
ATOM     70  O   UNL     1     -13.652   0.732  -6.527  1.00  0.00    -0.237 OA
ATOM     71  O   UNL     1     -15.853   0.697  -5.407  1.00  0.00    -0.237 OA
ATOM     72  O   UNL     1     -15.161   2.675  -6.705  1.00  0.00    -0.744 OA
ENDBRANCH  68  69
ENDBRANCH  49  63
BRANCH  50  73
ATOM     73  C   UNL     1      -8.245   6.868   5.961  1.00  0.00    -0.014 A 
ATOM     74  C   UNL     1      -8.687   6.555   7.259  1.00  0.00     0.010 A 
ATOM     75  C   UNL     1      -7.153   7.742   5.804  1.00  0.00     0.010 A 
ATOM     76  C   UNL     1      -8.060   7.118   8.375  1.00  0.00     0.020 A 
ATOM     77  C   UNL     1      -6.506   8.283   6.918  1.00  0.00     0.020 A 
ATOM     78  C   UNL     1      -6.972   7.977   8.198  1.00  0.00     0.054 A 
BRANCH  78  79
ATOM     79  S   UNL     1      -6.144   8.658   9.662  1.00  0.00     0.124 S 
ATOM     80  O   UNL     1      -7.118   9.637  10.133  1.00  0.00    -0.237 OA
ATOM     81  O   UNL     1      -5.974   7.477  10.505  1.00  0.00    -0.237 OA
ATOM     82  O   UNL     1      -4.905   9.215   9.125  1.00  0.00    -0.744 OA
ENDBRANCH  78  79
ENDBRANCH  50  73
BRANCH  62  83
ATOM     83  C   UNL     1     -14.613   7.697   3.207  1.00  0.00    -0.014 A 
ATOM     84  C   UNL     1     -14.670   9.097   3.093  1.00  0.00     0.010 A 
ATOM     85  C   UNL     1     -15.749   7.001   3.662  1.00  0.00     0.010 A 
ATOM     86  C   UNL     1     -15.834   9.787   3.447  1.00  0.00     0.020 A 
ATOM     87  C   UNL     1     -16.923   7.684   3.990  1.00  0.00     0.020 A 
ATOM     88  C   UNL     1     -16.954   9.076   3.890  1.00  0.00     0.054 A 
BRANCH  88  89
ATOM     89  S   UNL     1     -18.471   9.989   4.285  1.00  0.00     0.124 S 
ATOM     90  O   UNL     1     -18.116  10.640   5.544  1.00  0.00    -0.237 OA
ATOM     91  O   UNL     1     -18.616  10.880   3.136  1.00  0.00    -0.237 OA
ATOM     92  O   UNL     1     -19.488   8.946   4.389  1.00  0.00    -0.744 OA
ENDBRANCH  88  89
ENDBRANCH  62  83
ENDBRANCH  36  37
ENDBRANCH  29  31
ENDBRANCH  28  29
ENDBRANCH  27  28
ENDBRANCH  26  27
ENDBRANCH   1  26
TORSDOF 21
