REMARK SMILES COc1ccc(OC)c([C@H](C(=O)OCCOCCOC(=O)c2ccc(-c3c4nc(c(-c5ccc(S(=O)(=O)[O-])cc5)c5ccc([nH]5)c(-c5ccc(S(=O)(=O)[O-])cc5)c5nc(c(-c6ccc(S(=O)(=O)[O-])cc6)c6ccc3[nH]6)C=C5)C=C4)cc2)[NH+]2CC[NH+](Cc3nccn3C)CC2)c1
REMARK SMILES IDX 16 1 15 2 14 3 13 4 11 5 12 6 10 7 9 8 3 9 4 10 95 11 5 12
REMARK SMILES IDX 6 13 2 14 1 15 7 16 8 17 82 18 83 19 94 20 84 22 93 23 85 24
REMARK SMILES IDX 86 26 87 27 88 28 91 29 89 30 90 31 92 32 17 33 18 34 19 35
REMARK SMILES IDX 20 36 21 37 22 38 23 39 81 40 24 41 80 42 25 43 26 44 27 45
REMARK SMILES IDX 74 46 28 47 79 48 73 49 75 50 29 51 78 52 72 53 71 54 30 56
REMARK SMILES IDX 60 57 41 58 59 59 42 60 45 61 58 62 76 63 43 64 44 65 57 67
REMARK SMILES IDX 77 68 46 69 31 70 32 71 40 72 33 73 39 74 34 75 35 76 36 77
REMARK SMILES IDX 37 78 38 79 61 80 62 81 70 82 63 83 69 84 64 85 65 86 66 87
REMARK SMILES IDX 67 88 68 89 47 90 48 91 56 92 49 93 55 94 50 95 51 96 52 97
REMARK SMILES IDX 53 98 54 99
REMARK H PARENT 82 21 85 25 75 55 45 66
REMARK Flexibility Score: inf
ROOT
ATOM      1  O   UNL     1      -0.943  -1.192  -2.714  1.00  0.00    -0.374 OA
ENDROOT
BRANCH   1   2
ATOM      2  C   UNL     1      -0.172  -1.441  -1.533  1.00  0.00     0.202 C 
BRANCH   2   3
ATOM      3  C   UNL     1       0.861  -2.572  -1.595  1.00  0.00     0.261 C 
BRANCH   3   4
ATOM      4  O   UNL     1       2.124  -2.186  -2.196  1.00  0.00    -0.459 OA
BRANCH   4   5
ATOM      5  C   UNL     1       2.399  -2.797  -3.386  1.00  0.00     0.370 C 
ATOM      6  O   UNL     1       1.550  -3.430  -4.012  1.00  0.00    -0.245 OA
BRANCH   5   7
ATOM      7  C   UNL     1       3.911  -2.710  -3.790  1.00  0.00     0.330 C 
BRANCH   7   8
ATOM      8  C   UNL     1       4.595  -4.103  -3.809  1.00  0.00     0.067 A 
ATOM      9  C   UNL     1       4.191  -6.547  -3.789  1.00  0.00     0.119 A 
ATOM     10  C   UNL     1       5.493  -6.778  -4.184  1.00  0.00     0.050 A 
ATOM     11  C   UNL     1       3.783  -5.238  -3.549  1.00  0.00     0.060 A 
ATOM     12  C   UNL     1       6.367  -5.699  -4.312  1.00  0.00     0.051 A 
ATOM     13  C   UNL     1       5.945  -4.367  -4.115  1.00  0.00     0.128 A 
BRANCH   9  14
ATOM     14  O   UNL     1       3.377  -7.636  -3.632  1.00  0.00    -0.497 OA
ATOM     15  C   UNL     1       2.001  -7.395  -3.937  1.00  0.00     0.278 C 
ENDBRANCH   9  14
BRANCH  13  16
ATOM     16  O   UNL     1       7.018  -3.519  -4.078  1.00  0.00    -0.496 OA
ATOM     17  C   UNL     1       6.957  -2.282  -4.756  1.00  0.00     0.278 C 
ENDBRANCH  13  16
ENDBRANCH   7   8
BRANCH   7  18
ATOM     18  N   UNL     1       4.072  -2.062  -5.117  1.00  0.00    -0.310 N 
ATOM     19  C   UNL     1       3.308  -2.599  -6.245  1.00  0.00     0.325 C 
ATOM     20  C   UNL     1       4.129  -0.607  -5.160  1.00  0.00     0.325 C 
ATOM     21  H   UNL     1       5.030  -2.378  -5.269  1.00  0.00     0.349 HD
ATOM     22  C   UNL     1       1.958  -1.908  -6.552  1.00  0.00     0.324 C 
ATOM     23  C   UNL     1       2.776   0.087  -5.330  1.00  0.00     0.324 C 
ATOM     24  N   UNL     1       1.848  -0.454  -6.334  1.00  0.00    -0.319 N 
ATOM     25  H   UNL     1       0.942  -0.304  -5.891  1.00  0.00     0.348 HD
BRANCH  24  26
ATOM     26  C   UNL     1       1.789   0.292  -7.598  1.00  0.00     0.339 C 
BRANCH  26  27
ATOM     27  C   UNL     1       3.127   0.525  -8.223  1.00  0.00     0.164 A 
ATOM     28  N   UNL     1       3.846  -0.393  -8.846  1.00  0.00    -0.236 NA
ATOM     29  N   UNL     1       3.837   1.700  -8.122  1.00  0.00    -0.333 N 
ATOM     30  C   UNL     1       5.078   0.165  -9.044  1.00  0.00     0.131 A 
ATOM     31  C   UNL     1       5.102   1.459  -8.587  1.00  0.00     0.107 A 
ATOM     32  C   UNL     1       3.414   2.961  -7.559  1.00  0.00     0.151 C 
ENDBRANCH  26  27
ENDBRANCH  24  26
ENDBRANCH   7  18
ENDBRANCH   5   7
ENDBRANCH   4   5
ENDBRANCH   3   4
ENDBRANCH   2   3
ENDBRANCH   1   2
BRANCH   1  33
ATOM     33  C   UNL     1      -0.250  -0.558  -3.785  1.00  0.00     0.202 C 
BRANCH  33  34
ATOM     34  C   UNL     1      -0.187   0.974  -3.712  1.00  0.00     0.261 C 
BRANCH  34  35
ATOM     35  O   UNL     1       0.402   1.399  -2.474  1.00  0.00    -0.460 OA
BRANCH  35  36
ATOM     36  C   UNL     1      -0.448   2.113  -1.700  1.00  0.00     0.338 C 
ATOM     37  O   UNL     1      -1.473   2.672  -2.046  1.00  0.00    -0.246 OA
BRANCH  36  38
ATOM     38  C   UNL     1      -0.088   1.931  -0.288  1.00  0.00     0.060 A 
ATOM     39  C   UNL     1      -1.069   1.352   0.524  1.00  0.00     0.016 A 
ATOM     40  C   UNL     1       1.128   2.369   0.241  1.00  0.00     0.016 A 
ATOM     41  C   UNL     1      -0.883   1.309   1.895  1.00  0.00     0.010 A 
ATOM     42  C   UNL     1       1.313   2.329   1.625  1.00  0.00     0.010 A 
ATOM     43  C   UNL     1       0.277   1.863   2.452  1.00  0.00    -0.014 A 
BRANCH  43  44
ATOM     44  C   UNL     1       0.244   2.164   3.899  1.00  0.00     0.031 A 
ATOM     45  C   UNL     1      -0.177   3.547   4.319  1.00  0.00     0.074 A 
ATOM     46  C   UNL     1       0.427   1.179   4.794  1.00  0.00     0.049 A 
ATOM     47  N   UNL     1      -0.441   4.006   5.513  1.00  0.00    -0.248 NA
ATOM     48  C   UNL     1      -0.339   4.545   3.245  1.00  0.00     0.031 C 
ATOM     49  C   UNL     1       0.780  -0.203   4.463  1.00  0.00     0.029 A 
ATOM     50  N   UNL     1       0.305   1.180   6.157  1.00  0.00    -0.354 N 
ATOM     51  C   UNL     1      -0.800   5.338   5.333  1.00  0.00     0.074 A 
ATOM     52  C   UNL     1      -0.688   5.627   3.923  1.00  0.00     0.031 C 
ATOM     53  C   UNL     1       0.825  -0.923   5.596  1.00  0.00     0.029 A 
ATOM     54  C   UNL     1       0.527  -0.050   6.728  1.00  0.00     0.049 A 
ATOM     55  H   UNL     1       0.081   1.984   6.678  1.00  0.00     0.167 HD
ATOM     56  C   UNL     1      -1.198   6.236   6.265  1.00  0.00     0.031 A 
ATOM     57  C   UNL     1       0.490  -0.421   8.022  1.00  0.00     0.031 A 
ATOM     58  C   UNL     1      -1.288   5.924   7.665  1.00  0.00     0.049 A 
ATOM     59  C   UNL     1       0.100   0.610   9.047  1.00  0.00     0.074 A 
ATOM     60  C   UNL     1      -1.669   6.745   8.710  1.00  0.00     0.029 A 
ATOM     61  N   UNL     1      -0.986   4.685   8.215  1.00  0.00    -0.354 N 
ATOM     62  N   UNL     1      -0.252   1.862   8.861  1.00  0.00    -0.248 NA
ATOM     63  C   UNL     1       0.089   0.180  10.450  1.00  0.00     0.031 C 
ATOM     64  C   UNL     1      -1.540   6.019   9.899  1.00  0.00     0.029 A 
ATOM     65  C   UNL     1      -1.141   4.727   9.588  1.00  0.00     0.049 A 
ATOM     66  H   UNL     1      -0.704   3.894   7.702  1.00  0.00     0.167 HD
ATOM     67  C   UNL     1      -0.537   2.368  10.123  1.00  0.00     0.074 A 
ATOM     68  C   UNL     1      -0.344   1.276  11.059  1.00  0.00     0.031 C 
ATOM     69  C   UNL     1      -0.921   3.619  10.484  1.00  0.00     0.031 A 
BRANCH  56  70
ATOM     70  C   UNL     1      -1.509   7.636   5.802  1.00  0.00    -0.014 A 
ATOM     71  C   UNL     1      -2.655   7.921   5.036  1.00  0.00     0.010 A 
ATOM     72  C   UNL     1      -0.646   8.689   6.153  1.00  0.00     0.010 A 
ATOM     73  C   UNL     1      -2.911   9.226   4.602  1.00  0.00     0.020 A 
ATOM     74  C   UNL     1      -0.912  10.000   5.744  1.00  0.00     0.020 A 
ATOM     75  C   UNL     1      -2.036  10.258   4.957  1.00  0.00     0.054 A 
BRANCH  75  76
ATOM     76  S   UNL     1      -2.402  11.945   4.399  1.00  0.00     0.124 S 
ATOM     77  O   UNL     1      -2.111  11.860   2.969  1.00  0.00    -0.237 OA
ATOM     78  O   UNL     1      -3.813  12.098   4.744  1.00  0.00    -0.237 OA
ATOM     79  O   UNL     1      -1.481  12.775   5.172  1.00  0.00    -0.744 OA
ENDBRANCH  75  76
ENDBRANCH  56  70
BRANCH  57  80
ATOM     80  C   UNL     1       0.848  -1.815   8.406  1.00  0.00    -0.014 A 
ATOM     81  C   UNL     1      -0.111  -2.701   8.927  1.00  0.00     0.010 A 
ATOM     82  C   UNL     1       2.168  -2.271   8.226  1.00  0.00     0.010 A 
ATOM     83  C   UNL     1       0.246  -4.011   9.268  1.00  0.00     0.020 A 
ATOM     84  C   UNL     1       2.522  -3.586   8.538  1.00  0.00     0.020 A 
ATOM     85  C   UNL     1       1.560  -4.446   9.068  1.00  0.00     0.054 A 
BRANCH  85  86
ATOM     86  S   UNL     1       1.988  -6.165   9.464  1.00  0.00     0.124 S 
ATOM     87  O   UNL     1       1.992  -6.148  10.924  1.00  0.00    -0.237 OA
ATOM     88  O   UNL     1       0.899  -6.913   8.842  1.00  0.00    -0.237 OA
ATOM     89  O   UNL     1       3.295  -6.344   8.836  1.00  0.00    -0.744 OA
ENDBRANCH  85  86
ENDBRANCH  57  80
BRANCH  69  90
ATOM     90  C   UNL     1      -1.159   3.860  11.949  1.00  0.00    -0.014 A 
ATOM     91  C   UNL     1      -0.086   3.924  12.855  1.00  0.00     0.010 A 
ATOM     92  C   UNL     1      -2.470   4.070  12.414  1.00  0.00     0.010 A 
ATOM     93  C   UNL     1      -0.325   4.153  14.211  1.00  0.00     0.020 A 
ATOM     94  C   UNL     1      -2.709   4.330  13.764  1.00  0.00     0.020 A 
ATOM     95  C   UNL     1      -1.636   4.352  14.657  1.00  0.00     0.054 A 
BRANCH  95  96
ATOM     96  S   UNL     1      -1.916   4.676  16.418  1.00  0.00     0.124 S 
ATOM     97  O   UNL     1      -1.710   3.354  17.005  1.00  0.00    -0.237 OA
ATOM     98  O   UNL     1      -0.891   5.669  16.729  1.00  0.00    -0.237 OA
ATOM     99  O   UNL     1      -3.290   5.171  16.465  1.00  0.00    -0.744 OA
ENDBRANCH  95  96
ENDBRANCH  69  90
ENDBRANCH  43  44
ENDBRANCH  36  38
ENDBRANCH  35  36
ENDBRANCH  34  35
ENDBRANCH  33  34
ENDBRANCH   1  33
TORSDOF 23
