REMARK SMILES O=C(C[C@@H]([NH2+]Cc1cccnc1)C(=O)OCCOCCOC(=O)c1ccc(-c2c3nc(c(-c4ccc(S(=O)(=O)[O-])cc4)c4ccc([nH]4)c(-c4ccc(S(=O)(=O)[O-])cc4)c4nc(c(-c5ccc(S(=O)(=O)[O-])cc5)c5ccc2[nH]5)C=C4)C=C3)cc1)Nc1ccc2ccccc2c1
REMARK SMILES IDX 18 1 17 2 16 3 15 4 13 5 14 6 4 7 3 8 2 9 1 10 84 11 85 13
REMARK SMILES IDX 86 14 94 15 87 16 93 17 88 18 92 19 89 20 91 21 90 22 5 23
REMARK SMILES IDX 6 26 7 27 8 28 12 29 9 30 11 31 10 32 19 33 20 34 21 35
REMARK SMILES IDX 22 36 23 37 24 38 25 39 83 40 26 41 82 42 27 43 28 44 29 45
REMARK SMILES IDX 76 46 30 47 81 48 75 49 77 50 31 51 80 52 74 53 73 54 32 56
REMARK SMILES IDX 62 57 43 58 61 59 44 60 47 61 60 62 78 63 45 64 46 65 59 67
REMARK SMILES IDX 79 68 48 69 33 70 34 71 42 72 35 73 41 74 36 75 37 76 38 77
REMARK SMILES IDX 39 78 40 79 63 80 64 81 72 82 65 83 71 84 66 85 67 86 68 87
REMARK SMILES IDX 69 88 70 89 49 90 50 91 58 92 51 93 57 94 52 95 53 96 54 97
REMARK SMILES IDX 55 98 56 99
REMARK H PARENT 84 12 5 24 5 25 77 55 47 66
REMARK Flexibility Score: inf
ROOT
ATOM      1  O   UNL     1       4.376   2.381   5.067  1.00  0.00    -0.374 OA
ENDROOT
BRANCH   1   2
ATOM      2  C   UNL     1       5.527   3.009   4.515  1.00  0.00     0.202 C 
BRANCH   2   3
ATOM      3  C   UNL     1       6.286   2.308   3.377  1.00  0.00     0.261 C 
BRANCH   3   4
ATOM      4  O   UNL     1       5.454   1.715   2.371  1.00  0.00    -0.459 OA
BRANCH   4   5
ATOM      5  C   UNL     1       5.136   0.422   2.641  1.00  0.00     0.365 C 
ATOM      6  O   UNL     1       5.497  -0.159   3.662  1.00  0.00    -0.245 OA
BRANCH   5   7
ATOM      7  C   UNL     1       4.210  -0.237   1.596  1.00  0.00     0.303 C 
BRANCH   7   8
ATOM      8  C   UNL     1       3.732   0.743   0.495  1.00  0.00     0.177 C 
BRANCH   8   9
ATOM      9  C   UNL     1       2.663   0.136  -0.408  1.00  0.00     0.231 C 
ATOM     10  O   UNL     1       1.495   0.506  -0.376  1.00  0.00    -0.274 OA
ATOM     11  N   UNL     1       3.164  -0.915  -1.155  1.00  0.00    -0.326 N 
ATOM     12  H   UNL     1       4.143  -1.011  -1.190  1.00  0.00     0.169 HD
BRANCH  11  13
ATOM     13  C   UNL     1       2.407  -1.856  -1.868  1.00  0.00     0.041 A 
ATOM     14  C   UNL     1       2.767  -3.195  -1.706  1.00  0.00     0.027 A 
ATOM     15  C   UNL     1       1.371  -1.515  -2.738  1.00  0.00     0.034 A 
ATOM     16  C   UNL     1       2.059  -4.201  -2.357  1.00  0.00     0.011 A 
ATOM     17  C   UNL     1       0.724  -2.518  -3.493  1.00  0.00    -0.016 A 
ATOM     18  C   UNL     1       1.051  -3.878  -3.268  1.00  0.00    -0.018 A 
ATOM     19  C   UNL     1      -0.219  -2.216  -4.492  1.00  0.00     0.009 A 
ATOM     20  C   UNL     1       0.390  -4.888  -3.982  1.00  0.00     0.009 A 
ATOM     21  C   UNL     1      -0.831  -3.232  -5.235  1.00  0.00     0.001 A 
ATOM     22  C   UNL     1      -0.541  -4.566  -4.967  1.00  0.00     0.001 A 
ENDBRANCH  11  13
ENDBRANCH   8   9
ENDBRANCH   7   8
BRANCH   7  23
ATOM     23  N   UNL     1       4.803  -1.470   0.987  1.00  0.00    -0.330 N 
ATOM     24  H   UNL     1       5.377  -1.172   0.198  1.00  0.00     0.347 HD
ATOM     25  H   UNL     1       3.998  -2.051   0.754  1.00  0.00     0.347 HD
BRANCH  23  26
ATOM     26  C   UNL     1       5.641  -2.327   1.837  1.00  0.00     0.299 C 
BRANCH  26  27
ATOM     27  C   UNL     1       4.876  -3.296   2.702  1.00  0.00     0.024 A 
ATOM     28  C   UNL     1       5.029  -4.676   2.519  1.00  0.00     0.013 A 
ATOM     29  C   UNL     1       4.032  -2.898   3.735  1.00  0.00     0.120 A 
ATOM     30  C   UNL     1       4.340  -5.571   3.333  1.00  0.00     0.021 A 
ATOM     31  N   UNL     1       3.331  -3.744   4.527  1.00  0.00    -0.264 NA
ATOM     32  C   UNL     1       3.505  -5.061   4.311  1.00  0.00     0.111 A 
ENDBRANCH  26  27
ENDBRANCH  23  26
ENDBRANCH   7  23
ENDBRANCH   5   7
ENDBRANCH   4   5
ENDBRANCH   3   4
ENDBRANCH   2   3
ENDBRANCH   1   2
BRANCH   1  33
ATOM     33  C   UNL     1       3.166   2.341   4.312  1.00  0.00     0.202 C 
BRANCH  33  34
ATOM     34  C   UNL     1       2.559   3.656   3.816  1.00  0.00     0.261 C 
BRANCH  34  35
ATOM     35  O   UNL     1       3.371   4.275   2.802  1.00  0.00    -0.460 OA
BRANCH  35  36
ATOM     36  C   UNL     1       3.792   5.528   3.108  1.00  0.00     0.338 C 
ATOM     37  O   UNL     1       3.527   6.171   4.109  1.00  0.00    -0.246 OA
BRANCH  36  38
ATOM     38  C   UNL     1       4.812   5.964   2.141  1.00  0.00     0.060 A 
ATOM     39  C   UNL     1       6.069   6.336   2.639  1.00  0.00     0.016 A 
ATOM     40  C   UNL     1       4.502   6.123   0.791  1.00  0.00     0.016 A 
ATOM     41  C   UNL     1       7.005   6.929   1.795  1.00  0.00     0.010 A 
ATOM     42  C   UNL     1       5.436   6.731  -0.050  1.00  0.00     0.010 A 
ATOM     43  C   UNL     1       6.671   7.176   0.459  1.00  0.00    -0.014 A 
BRANCH  43  44
ATOM     44  C   UNL     1       7.516   8.075  -0.360  1.00  0.00     0.031 A 
ATOM     45  C   UNL     1       7.101   9.514  -0.499  1.00  0.00     0.074 A 
ATOM     46  C   UNL     1       8.627   7.623  -0.967  1.00  0.00     0.049 A 
ATOM     47  N   UNL     1       7.609  10.453  -1.253  1.00  0.00    -0.248 NA
ATOM     48  C   UNL     1       5.958   9.950   0.321  1.00  0.00     0.031 C 
ATOM     49  C   UNL     1       9.168   6.270  -0.845  1.00  0.00     0.029 A 
ATOM     50  N   UNL     1       9.493   8.259  -1.819  1.00  0.00    -0.354 N 
ATOM     51  C   UNL     1       6.837  11.585  -1.014  1.00  0.00     0.074 A 
ATOM     52  C   UNL     1       5.817  11.211  -0.060  1.00  0.00     0.031 C 
ATOM     53  C   UNL     1      10.267   6.172  -1.613  1.00  0.00     0.029 A 
ATOM     54  C   UNL     1      10.479   7.439  -2.312  1.00  0.00     0.049 A 
ATOM     55  H   UNL     1       9.415   9.211  -2.056  1.00  0.00     0.167 HD
ATOM     56  C   UNL     1       6.966  12.823  -1.545  1.00  0.00     0.031 A 
ATOM     57  C   UNL     1      11.423   7.676  -3.245  1.00  0.00     0.031 A 
ATOM     58  C   UNL     1       7.974  13.181  -2.505  1.00  0.00     0.049 A 
ATOM     59  C   UNL     1      11.493   9.035  -3.892  1.00  0.00     0.074 A 
ATOM     60  C   UNL     1       8.189  14.406  -3.112  1.00  0.00     0.029 A 
ATOM     61  N   UNL     1       8.936  12.313  -3.000  1.00  0.00    -0.354 N 
ATOM     62  N   UNL     1      10.752  10.094  -3.665  1.00  0.00    -0.248 NA
ATOM     63  C   UNL     1      12.525   9.232  -4.920  1.00  0.00     0.031 C 
ATOM     64  C   UNL     1       9.249  14.264  -4.012  1.00  0.00     0.029 A 
ATOM     65  C   UNL     1       9.735  12.969  -3.919  1.00  0.00     0.049 A 
ATOM     66  H   UNL     1       9.034  11.370  -2.737  1.00  0.00     0.167 HD
ATOM     67  C   UNL     1      11.255  11.093  -4.493  1.00  0.00     0.074 A 
ATOM     68  C   UNL     1      12.359  10.512  -5.228  1.00  0.00     0.031 C 
ATOM     69  C   UNL     1      10.844  12.378  -4.625  1.00  0.00     0.031 A 
BRANCH  56  70
ATOM     70  C   UNL     1       5.963  13.865  -1.130  1.00  0.00    -0.014 A 
ATOM     71  C   UNL     1       5.979  14.421   0.162  1.00  0.00     0.010 A 
ATOM     72  C   UNL     1       5.002  14.312  -2.055  1.00  0.00     0.010 A 
ATOM     73  C   UNL     1       5.026  15.373   0.534  1.00  0.00     0.020 A 
ATOM     74  C   UNL     1       4.065  15.284  -1.696  1.00  0.00     0.020 A 
ATOM     75  C   UNL     1       4.071  15.794  -0.397  1.00  0.00     0.054 A 
BRANCH  75  76
ATOM     76  S   UNL     1       2.852  17.039   0.109  1.00  0.00     0.124 S 
ATOM     77  O   UNL     1       1.971  16.261   0.976  1.00  0.00    -0.237 OA
ATOM     78  O   UNL     1       3.674  18.039   0.784  1.00  0.00    -0.237 OA
ATOM     79  O   UNL     1       2.257  17.474  -1.153  1.00  0.00    -0.744 OA
ENDBRANCH  75  76
ENDBRANCH  56  70
BRANCH  57  80
ATOM     80  C   UNL     1      12.363   6.592  -3.640  1.00  0.00    -0.014 A 
ATOM     81  C   UNL     1      13.723   6.663  -3.294  1.00  0.00     0.010 A 
ATOM     82  C   UNL     1      11.898   5.475  -4.359  1.00  0.00     0.010 A 
ATOM     83  C   UNL     1      14.604   5.644  -3.670  1.00  0.00     0.020 A 
ATOM     84  C   UNL     1      12.770   4.442  -4.714  1.00  0.00     0.020 A 
ATOM     85  C   UNL     1      14.120   4.538  -4.375  1.00  0.00     0.054 A 
BRANCH  85  86
ATOM     86  S   UNL     1      15.270   3.201  -4.802  1.00  0.00     0.124 S 
ATOM     87  O   UNL     1      16.044   3.800  -5.885  1.00  0.00    -0.237 OA
ATOM     88  O   UNL     1      15.990   2.991  -3.549  1.00  0.00    -0.237 OA
ATOM     89  O   UNL     1      14.387   2.104  -5.194  1.00  0.00    -0.744 OA
ENDBRANCH  85  86
ENDBRANCH  57  80
BRANCH  69  90
ATOM     90  C   UNL     1      11.622  13.276  -5.548  1.00  0.00    -0.014 A 
ATOM     91  C   UNL     1      11.485  13.188  -6.944  1.00  0.00     0.010 A 
ATOM     92  C   UNL     1      12.417  14.300  -4.998  1.00  0.00     0.010 A 
ATOM     93  C   UNL     1      12.134  14.106  -7.774  1.00  0.00     0.020 A 
ATOM     94  C   UNL     1      13.048  15.233  -5.824  1.00  0.00     0.020 A 
ATOM     95  C   UNL     1      12.906  15.127  -7.208  1.00  0.00     0.054 A 
BRANCH  95  96
ATOM     96  S   UNL     1      13.664  16.359  -8.303  1.00  0.00     0.124 S 
ATOM     97  O   UNL     1      14.758  15.601  -8.903  1.00  0.00    -0.237 OA
ATOM     98  O   UNL     1      12.568  16.703  -9.206  1.00  0.00    -0.237 OA
ATOM     99  O   UNL     1      14.072  17.427  -7.393  1.00  0.00    -0.744 OA
ENDBRANCH  95  96
ENDBRANCH  69  90
ENDBRANCH  43  44
ENDBRANCH  36  38
ENDBRANCH  35  36
ENDBRANCH  34  35
ENDBRANCH  33  34
ENDBRANCH   1  33
TORSDOF 23
