REMARK SMILES C[C@@H](C(=O)OCCOCCOC(=O)c1ccc(-c2c3nc(c(-c4ccc(S(=O)(=O)[O-])cc4)c4ccc([nH]4)c(-c4ccc(S(=O)(=O)[O-])cc4)c4nc(c(-c5ccc(S(=O)(=O)[O-])cc5)c5ccc2[nH]5)C=C4)C=C3)cc1)[N@@H+]1CCc2n[nH]c(C(c3ccccc3)c3ccccc3)c2C1
REMARK SMILES IDX 8 1 7 2 6 3 5 4 3 5 4 6 2 7 1 8 74 9 75 10 95 11 76 13 94 14
REMARK SMILES IDX 77 15 80 16 78 17 79 18 81 20 82 21 83 22 87 23 84 24 86 25
REMARK SMILES IDX 85 26 88 27 89 28 93 29 90 30 92 31 91 32 9 33 10 34 11 35
REMARK SMILES IDX 12 36 13 37 14 38 15 39 73 40 16 41 72 42 17 43 18 44 19 45
REMARK SMILES IDX 66 46 20 47 71 48 65 49 67 50 21 51 70 52 64 53 63 54 22 56
REMARK SMILES IDX 52 57 33 58 51 59 34 60 37 61 50 62 68 63 35 64 36 65 49 67
REMARK SMILES IDX 69 68 38 69 23 70 24 71 32 72 25 73 31 74 26 75 27 76 28 77
REMARK SMILES IDX 29 78 30 79 53 80 54 81 62 82 55 83 61 84 56 85 57 86 58 87
REMARK SMILES IDX 59 88 60 89 39 90 40 91 48 92 41 93 47 94 42 95 43 96 44 97
REMARK SMILES IDX 45 98 46 99
REMARK H PARENT 74 12 79 19 67 55 37 66
REMARK Flexibility Score: inf
ROOT
ATOM      1  O   UNL     1       1.248   4.320  -1.714  1.00  0.00    -0.374 OA
ENDROOT
BRANCH   1   2
ATOM      2  C   UNL     1       2.551   4.333  -1.101  1.00  0.00     0.202 C 
BRANCH   2   3
ATOM      3  C   UNL     1       2.463   4.216   0.453  1.00  0.00     0.261 C 
BRANCH   3   4
ATOM      4  O   UNL     1       2.073   2.890   0.911  1.00  0.00    -0.459 OA
BRANCH   4   5
ATOM      5  C   UNL     1       1.228   2.875   1.999  1.00  0.00     0.364 C 
ATOM      6  O   UNL     1       1.200   3.776   2.834  1.00  0.00    -0.245 OA
BRANCH   5   7
ATOM      7  C   UNL     1       0.226   1.664   2.028  1.00  0.00     0.292 C 
ATOM      8  C   UNL     1       0.945   0.348   2.301  1.00  0.00     0.088 C 
BRANCH   7   9
ATOM      9  N   UNL     1      -0.776   1.685   0.906  1.00  0.00    -0.319 N 
ATOM     10  C   UNL     1      -1.645   0.477   0.724  1.00  0.00     0.269 C 
ATOM     11  C   UNL     1      -0.165   2.070  -0.361  1.00  0.00     0.303 C 
ATOM     12  H   UNL     1      -1.428   2.403   1.221  1.00  0.00     0.349 HD
ATOM     13  C   UNL     1      -1.870  -0.018  -0.763  1.00  0.00     0.120 C 
ATOM     14  C   UNL     1       0.464   0.860  -0.979  1.00  0.00     0.052 A 
ATOM     15  C   UNL     1      -0.569   0.038  -1.490  1.00  0.00     0.077 A 
ATOM     16  C   UNL     1       1.507   0.590  -1.856  1.00  0.00     0.056 A 
ATOM     17  N   UNL     1      -0.435  -0.056  -2.818  1.00  0.00    -0.180 NA
ATOM     18  N   UNL     1       0.760   0.545  -3.012  1.00  0.00    -0.281 N 
ATOM     19  H   UNL     1       1.061   0.908  -3.877  1.00  0.00     0.190 HD
BRANCH  16  20
ATOM     20  C   UNL     1       2.919  -0.056  -1.755  1.00  0.00     0.098 C 
BRANCH  20  21
ATOM     21  C   UNL     1       3.219  -0.713  -0.379  1.00  0.00    -0.035 A 
ATOM     22  C   UNL     1       4.333  -0.310   0.384  1.00  0.00     0.005 A 
ATOM     23  C   UNL     1       2.496  -1.839   0.072  1.00  0.00     0.005 A 
ATOM     24  C   UNL     1       4.718  -1.016   1.534  1.00  0.00     0.000 A 
ATOM     25  C   UNL     1       2.890  -2.548   1.216  1.00  0.00     0.000 A 
ATOM     26  C   UNL     1       4.003  -2.139   1.945  1.00  0.00     0.000 A 
ENDBRANCH  20  21
BRANCH  20  27
ATOM     27  C   UNL     1       3.263  -1.030  -2.942  1.00  0.00    -0.035 A 
ATOM     28  C   UNL     1       3.806  -2.317  -2.755  1.00  0.00     0.005 A 
ATOM     29  C   UNL     1       3.080  -0.639  -4.283  1.00  0.00     0.005 A 
ATOM     30  C   UNL     1       4.038  -3.188  -3.829  1.00  0.00     0.000 A 
ATOM     31  C   UNL     1       3.286  -1.508  -5.357  1.00  0.00     0.000 A 
ATOM     32  C   UNL     1       3.753  -2.792  -5.128  1.00  0.00     0.000 A 
ENDBRANCH  20  27
ENDBRANCH  16  20
ENDBRANCH   7   9
ENDBRANCH   5   7
ENDBRANCH   4   5
ENDBRANCH   3   4
ENDBRANCH   2   3
ENDBRANCH   1   2
BRANCH   1  33
ATOM     33  C   UNL     1       1.161   4.865  -3.034  1.00  0.00     0.202 C 
BRANCH  33  34
ATOM     34  C   UNL     1       1.456   3.878  -4.170  1.00  0.00     0.261 C 
BRANCH  34  35
ATOM     35  O   UNL     1       2.738   3.258  -3.991  1.00  0.00    -0.460 OA
BRANCH  35  36
ATOM     36  C   UNL     1       3.714   3.701  -4.817  1.00  0.00     0.338 C 
ATOM     37  O   UNL     1       3.583   4.406  -5.799  1.00  0.00    -0.246 OA
BRANCH  36  38
ATOM     38  C   UNL     1       5.018   3.357  -4.228  1.00  0.00     0.060 A 
ATOM     39  C   UNL     1       5.900   4.402  -3.966  1.00  0.00     0.016 A 
ATOM     40  C   UNL     1       5.401   2.036  -3.993  1.00  0.00     0.016 A 
ATOM     41  C   UNL     1       7.192   4.115  -3.539  1.00  0.00     0.010 A 
ATOM     42  C   UNL     1       6.681   1.746  -3.521  1.00  0.00     0.010 A 
ATOM     43  C   UNL     1       7.604   2.785  -3.359  1.00  0.00    -0.014 A 
BRANCH  43  44
ATOM     44  C   UNL     1       9.047   2.504  -3.189  1.00  0.00     0.031 A 
ATOM     45  C   UNL     1       9.835   1.990  -4.365  1.00  0.00     0.074 A 
ATOM     46  C   UNL     1       9.661   2.804  -2.031  1.00  0.00     0.049 A 
ATOM     47  N   UNL     1      11.130   1.880  -4.503  1.00  0.00    -0.248 NA
ATOM     48  C   UNL     1       9.068   1.543  -5.542  1.00  0.00     0.031 C 
ATOM     49  C   UNL     1       8.994   3.281  -0.819  1.00  0.00     0.029 A 
ATOM     50  N   UNL     1      10.990   2.777  -1.698  1.00  0.00    -0.354 N 
ATOM     51  C   UNL     1      11.332   1.370  -5.781  1.00  0.00     0.074 A 
ATOM     52  C   UNL     1      10.028   1.134  -6.356  1.00  0.00     0.031 C 
ATOM     53  C   UNL     1       9.924   3.532   0.119  1.00  0.00     0.029 A 
ATOM     54  C   UNL     1      11.246   3.231  -0.427  1.00  0.00     0.049 A 
ATOM     55  H   UNL     1      11.693   2.462  -2.310  1.00  0.00     0.167 HD
ATOM     56  C   UNL     1      12.498   1.144  -6.430  1.00  0.00     0.031 A 
ATOM     57  C   UNL     1      12.417   3.407   0.215  1.00  0.00     0.031 A 
ATOM     58  C   UNL     1      13.792   1.373  -5.851  1.00  0.00     0.049 A 
ATOM     59  C   UNL     1      13.703   3.145  -0.522  1.00  0.00     0.074 A 
ATOM     60  C   UNL     1      15.038   1.210  -6.431  1.00  0.00     0.029 A 
ATOM     61  N   UNL     1      14.007   1.812  -4.553  1.00  0.00    -0.354 N 
ATOM     62  N   UNL     1      13.875   2.741  -1.759  1.00  0.00    -0.248 NA
ATOM     63  C   UNL     1      14.951   3.389   0.213  1.00  0.00     0.031 C 
ATOM     64  C   UNL     1      16.007   1.508  -5.467  1.00  0.00     0.029 A 
ATOM     65  C   UNL     1      15.364   1.905  -4.305  1.00  0.00     0.049 A 
ATOM     66  H   UNL     1      13.298   2.025  -3.904  1.00  0.00     0.167 HD
ATOM     67  C   UNL     1      15.252   2.702  -1.956  1.00  0.00     0.074 A 
ATOM     68  C   UNL     1      15.863   3.140  -0.717  1.00  0.00     0.031 C 
ATOM     69  C   UNL     1      15.948   2.338  -3.061  1.00  0.00     0.031 A 
BRANCH  56  70
ATOM     70  C   UNL     1      12.417   0.620  -7.839  1.00  0.00    -0.014 A 
ATOM     71  C   UNL     1      11.977   1.442  -8.893  1.00  0.00     0.010 A 
ATOM     72  C   UNL     1      12.810  -0.701  -8.120  1.00  0.00     0.010 A 
ATOM     73  C   UNL     1      11.893   0.942 -10.194  1.00  0.00     0.020 A 
ATOM     74  C   UNL     1      12.752  -1.198  -9.426  1.00  0.00     0.020 A 
ATOM     75  C   UNL     1      12.277  -0.378 -10.452  1.00  0.00     0.054 A 
BRANCH  75  76
ATOM     76  S   UNL     1      12.178  -0.997 -12.154  1.00  0.00     0.124 S 
ATOM     77  O   UNL     1      10.739  -1.186 -12.321  1.00  0.00    -0.237 OA
ATOM     78  O   UNL     1      12.761   0.096 -12.929  1.00  0.00    -0.237 OA
ATOM     79  O   UNL     1      12.968  -2.225 -12.123  1.00  0.00    -0.744 OA
ENDBRANCH  75  76
ENDBRANCH  56  70
BRANCH  57  80
ATOM     80  C   UNL     1      12.420   3.883   1.623  1.00  0.00    -0.014 A 
ATOM     81  C   UNL     1      12.827   5.190   1.944  1.00  0.00     0.010 A 
ATOM     82  C   UNL     1      11.985   3.029   2.653  1.00  0.00     0.010 A 
ATOM     83  C   UNL     1      12.810   5.630   3.271  1.00  0.00     0.020 A 
ATOM     84  C   UNL     1      11.945   3.473   3.978  1.00  0.00     0.020 A 
ATOM     85  C   UNL     1      12.367   4.769   4.279  1.00  0.00     0.054 A 
BRANCH  85  86
ATOM     86  S   UNL     1      12.292   5.379   5.987  1.00  0.00     0.124 S 
ATOM     87  O   UNL     1      13.697   5.356   6.379  1.00  0.00    -0.237 OA
ATOM     88  O   UNL     1      11.701   6.705   5.823  1.00  0.00    -0.237 OA
ATOM     89  O   UNL     1      11.435   4.404   6.659  1.00  0.00    -0.744 OA
ENDBRANCH  85  86
ENDBRANCH  57  80
BRANCH  69  90
ATOM     90  C   UNL     1      17.449   2.412  -2.987  1.00  0.00    -0.014 A 
ATOM     91  C   UNL     1      18.185   1.462  -2.259  1.00  0.00     0.010 A 
ATOM     92  C   UNL     1      18.131   3.410  -3.706  1.00  0.00     0.010 A 
ATOM     93  C   UNL     1      19.580   1.528  -2.225  1.00  0.00     0.020 A 
ATOM     94  C   UNL     1      19.527   3.464  -3.694  1.00  0.00     0.020 A 
ATOM     95  C   UNL     1      20.242   2.530  -2.941  1.00  0.00     0.054 A 
BRANCH  95  96
ATOM     96  S   UNL     1      22.055   2.571  -2.915  1.00  0.00     0.124 S 
ATOM     97  O   UNL     1      22.326   3.130  -1.593  1.00  0.00    -0.237 OA
ATOM     98  O   UNL     1      22.412   1.165  -3.088  1.00  0.00    -0.237 OA
ATOM     99  O   UNL     1      22.397   3.437  -4.041  1.00  0.00    -0.744 OA
ENDBRANCH  95  96
ENDBRANCH  69  90
ENDBRANCH  43  44
ENDBRANCH  36  38
ENDBRANCH  35  36
ENDBRANCH  34  35
ENDBRANCH  33  34
ENDBRANCH   1  33
TORSDOF 21
