REMARK SMILES CC(C)Cc1ccc([C@H](CC[C@@H](C)O)C(=O)OCCOCCOC(=O)c2ccc(-c3c4nc(c(-c5ccc(S(=O)(=O)[O-])cc5)c5ccc([nH]5)c(-c5ccc(S(=O)(=O)[O-])cc5)c5nc(c(-c6ccc(S(=O)(=O)[O-])cc6)c6ccc3[nH]6)C=C5)C=C4)cc2)cc1
REMARK SMILES IDX 19 1 18 2 17 3 15 4 16 5 9 6 8 7 5 8 6 9 87 10 7 11 86 12
REMARK SMILES IDX 4 13 2 14 1 15 3 16 10 17 11 18 12 19 13 20 14 21 20 23
REMARK SMILES IDX 21 24 22 25 23 26 24 27 25 28 26 29 27 30 85 31 28 32 84 33
REMARK SMILES IDX 29 34 30 35 31 36 78 37 32 38 83 39 77 40 79 41 33 42 82 43
REMARK SMILES IDX 76 44 75 45 34 47 64 48 45 49 63 50 46 51 49 52 62 53 80 54
REMARK SMILES IDX 47 55 48 56 61 58 81 59 50 60 35 61 36 62 44 63 37 64 43 65
REMARK SMILES IDX 38 66 39 67 40 68 41 69 42 70 65 71 66 72 74 73 67 74 73 75
REMARK SMILES IDX 68 76 69 77 70 78 71 79 72 80 51 81 52 82 60 83 53 84 59 85
REMARK SMILES IDX 54 86 55 87 56 88 57 89 58 90
REMARK H PARENT 14 22 79 46 49 57
REMARK Flexibility Score: inf
ROOT
ATOM      1  C   UNL     1      -6.669   0.267   5.405  1.00  0.00     0.202 C 
ENDROOT
BRANCH   1   2
ATOM      2  C   UNL     1      -5.533   0.368   6.427  1.00  0.00     0.261 C 
BRANCH   2   3
ATOM      3  O   UNL     1      -4.231   0.308   5.820  1.00  0.00    -0.463 OA
BRANCH   3   4
ATOM      4  C   UNL     1      -3.537  -0.840   6.052  1.00  0.00     0.313 C 
ATOM      5  O   UNL     1      -3.956  -1.788   6.711  1.00  0.00    -0.252 OA
BRANCH   4   6
ATOM      6  C   UNL     1      -2.143  -0.835   5.422  1.00  0.00     0.129 C 
BRANCH   6   7
ATOM      7  C   UNL     1      -1.102  -0.469   6.447  1.00  0.00    -0.034 A 
ATOM      8  C   UNL     1       0.865   0.207   8.324  1.00  0.00    -0.048 A 
ATOM      9  C   UNL     1      -0.242   1.041   8.137  1.00  0.00     0.004 A 
ATOM     10  C   UNL     1       0.992  -0.956   7.556  1.00  0.00     0.004 A 
ATOM     11  C   UNL     1      -1.218   0.707   7.204  1.00  0.00     0.005 A 
ATOM     12  C   UNL     1       0.009  -1.300   6.635  1.00  0.00     0.005 A 
BRANCH   8  13
ATOM     13  C   UNL     1       1.862   0.515   9.410  1.00  0.00     0.038 C 
BRANCH  13  14
ATOM     14  C   UNL     1       1.393  -0.013  10.780  1.00  0.00    -0.013 C 
ATOM     15  C   UNL     1       1.302  -1.542  10.814  1.00  0.00     0.008 C 
ATOM     16  C   UNL     1       2.342   0.475  11.872  1.00  0.00     0.008 C 
ENDBRANCH  13  14
ENDBRANCH   8  13
ENDBRANCH   6   7
BRANCH   6  17
ATOM     17  C   UNL     1      -2.010  -0.158   4.035  1.00  0.00     0.023 C 
BRANCH  17  18
ATOM     18  C   UNL     1      -1.199   1.138   3.869  1.00  0.00     0.033 C 
BRANCH  18  19
ATOM     19  C   UNL     1       0.329   1.073   4.049  1.00  0.00     0.111 C 
ATOM     20  C   UNL     1       1.021  -0.049   3.289  1.00  0.00     0.038 C 
BRANCH  19  21
ATOM     21  O   UNL     1       0.894   2.316   3.620  1.00  0.00    -0.393 OA
ATOM     22  H   UNL     1       0.718   2.441   2.674  1.00  0.00     0.210 HD
ENDBRANCH  19  21
ENDBRANCH  18  19
ENDBRANCH  17  18
ENDBRANCH   6  17
ENDBRANCH   4   6
ENDBRANCH   3   4
ENDBRANCH   2   3
ENDBRANCH   1   2
BRANCH   1  23
ATOM     23  O   UNL     1      -6.771  -0.943   4.660  1.00  0.00    -0.374 OA
BRANCH  23  24
ATOM     24  C   UNL     1      -5.825  -1.172   3.618  1.00  0.00     0.202 C 
BRANCH  24  25
ATOM     25  C   UNL     1      -5.933  -0.298   2.362  1.00  0.00     0.261 C 
BRANCH  25  26
ATOM     26  O   UNL     1      -5.637   1.088   2.616  1.00  0.00    -0.460 OA
BRANCH  26  27
ATOM     27  C   UNL     1      -6.674   1.933   2.393  1.00  0.00     0.338 C 
ATOM     28  O   UNL     1      -7.779   1.640   1.958  1.00  0.00    -0.246 OA
BRANCH  27  29
ATOM     29  C   UNL     1      -6.375   3.279   2.911  1.00  0.00     0.060 A 
ATOM     30  C   UNL     1      -7.259   3.818   3.855  1.00  0.00     0.016 A 
ATOM     31  C   UNL     1      -5.332   4.051   2.394  1.00  0.00     0.016 A 
ATOM     32  C   UNL     1      -7.138   5.150   4.244  1.00  0.00     0.010 A 
ATOM     33  C   UNL     1      -5.218   5.393   2.780  1.00  0.00     0.010 A 
ATOM     34  C   UNL     1      -6.146   5.959   3.674  1.00  0.00    -0.014 A 
BRANCH  34  35
ATOM     35  C   UNL     1      -6.189   7.425   3.902  1.00  0.00     0.031 A 
ATOM     36  C   UNL     1      -6.817   8.310   2.858  1.00  0.00     0.074 A 
ATOM     37  C   UNL     1      -5.726   7.958   5.048  1.00  0.00     0.049 A 
ATOM     38  N   UNL     1      -6.977   9.609   2.863  1.00  0.00    -0.248 NA
ATOM     39  C   UNL     1      -7.337   7.644   1.653  1.00  0.00     0.031 C 
ATOM     40  C   UNL     1      -5.138   7.204   6.154  1.00  0.00     0.029 A 
ATOM     41  N   UNL     1      -5.684   9.263   5.469  1.00  0.00    -0.354 N 
ATOM     42  C   UNL     1      -7.611   9.916   1.664  1.00  0.00     0.074 A 
ATOM     43  C   UNL     1      -7.782   8.672   0.945  1.00  0.00     0.031 C 
ATOM     44  C   UNL     1      -4.791   8.062   7.129  1.00  0.00     0.029 A 
ATOM     45  C   UNL     1      -5.106   9.425   6.705  1.00  0.00     0.049 A 
ATOM     46  H   UNL     1      -6.034  10.013   4.936  1.00  0.00     0.167 HD
ATOM     47  C   UNL     1      -8.021  11.123   1.205  1.00  0.00     0.031 A 
ATOM     48  C   UNL     1      -4.847  10.545   7.409  1.00  0.00     0.031 A 
ATOM     49  C   UNL     1      -7.842  12.362   1.913  1.00  0.00     0.049 A 
ATOM     50  C   UNL     1      -5.247  11.883   6.846  1.00  0.00     0.074 A 
ATOM     51  C   UNL     1      -8.235  13.634   1.534  1.00  0.00     0.029 A 
ATOM     52  N   UNL     1      -7.212  12.488   3.141  1.00  0.00    -0.354 N 
ATOM     53  N   UNL     1      -5.867  12.153   5.721  1.00  0.00    -0.248 NA
ATOM     54  C   UNL     1      -4.920  13.068   7.652  1.00  0.00     0.031 C 
ATOM     55  C   UNL     1      -7.796  14.536   2.510  1.00  0.00     0.029 A 
ATOM     56  C   UNL     1      -7.181  13.818   3.523  1.00  0.00     0.049 A 
ATOM     57  H   UNL     1      -6.842  11.741   3.665  1.00  0.00     0.167 HD
ATOM     58  C   UNL     1      -6.026  13.535   5.697  1.00  0.00     0.074 A 
ATOM     59  C   UNL     1      -5.448  14.044   6.924  1.00  0.00     0.031 C 
ATOM     60  C   UNL     1      -6.601  14.312   4.746  1.00  0.00     0.031 A 
BRANCH  47  61
ATOM     61  C   UNL     1      -8.678  11.163  -0.149  1.00  0.00    -0.014 A 
ATOM     62  C   UNL     1      -9.983  10.675  -0.340  1.00  0.00     0.010 A 
ATOM     63  C   UNL     1      -7.993  11.731  -1.238  1.00  0.00     0.010 A 
ATOM     64  C   UNL     1     -10.577  10.720  -1.605  1.00  0.00     0.020 A 
ATOM     65  C   UNL     1      -8.592  11.799  -2.499  1.00  0.00     0.020 A 
ATOM     66  C   UNL     1      -9.874  11.277  -2.678  1.00  0.00     0.054 A 
BRANCH  66  67
ATOM     67  S   UNL     1     -10.673  11.339  -4.306  1.00  0.00     0.124 S 
ATOM     68  O   UNL     1     -10.602   9.942  -4.728  1.00  0.00    -0.237 OA
ATOM     69  O   UNL     1     -12.011  11.832  -3.989  1.00  0.00    -0.237 OA
ATOM     70  O   UNL     1      -9.837  12.262  -5.068  1.00  0.00    -0.744 OA
ENDBRANCH  66  67
ENDBRANCH  47  61
BRANCH  48  71
ATOM     71  C   UNL     1      -4.154  10.451   8.722  1.00  0.00    -0.014 A 
ATOM     72  C   UNL     1      -4.838  10.725   9.919  1.00  0.00     0.010 A 
ATOM     73  C   UNL     1      -2.796  10.084   8.778  1.00  0.00     0.010 A 
ATOM     74  C   UNL     1      -4.174  10.648  11.147  1.00  0.00     0.020 A 
ATOM     75  C   UNL     1      -2.136   9.981  10.006  1.00  0.00     0.020 A 
ATOM     76  C   UNL     1      -2.827  10.274  11.182  1.00  0.00     0.054 A 
BRANCH  76  77
ATOM     77  S   UNL     1      -1.999  10.127  12.790  1.00  0.00     0.124 S 
ATOM     78  O   UNL     1      -1.788  11.524  13.152  1.00  0.00    -0.237 OA
ATOM     79  O   UNL     1      -2.987   9.407  13.590  1.00  0.00    -0.237 OA
ATOM     80  O   UNL     1      -0.788   9.368  12.481  1.00  0.00    -0.744 OA
ENDBRANCH  76  77
ENDBRANCH  48  71
BRANCH  60  81
ATOM     81  C   UNL     1      -6.664  15.794   5.003  1.00  0.00    -0.014 A 
ATOM     82  C   UNL     1      -5.515  16.600   4.913  1.00  0.00     0.010 A 
ATOM     83  C   UNL     1      -7.904  16.397   5.283  1.00  0.00     0.010 A 
ATOM     84  C   UNL     1      -5.601  17.979   5.126  1.00  0.00     0.020 A 
ATOM     85  C   UNL     1      -7.998  17.779   5.472  1.00  0.00     0.020 A 
ATOM     86  C   UNL     1      -6.842  18.559   5.406  1.00  0.00     0.054 A 
BRANCH  86  87
ATOM     87  S   UNL     1      -6.936  20.357   5.635  1.00  0.00     0.124 S 
ATOM     88  O   UNL     1      -6.372  20.522   6.972  1.00  0.00    -0.237 OA
ATOM     89  O   UNL     1      -6.115  20.865   4.539  1.00  0.00    -0.237 OA
ATOM     90  O   UNL     1      -8.364  20.646   5.521  1.00  0.00    -0.744 OA
ENDBRANCH  86  87
ENDBRANCH  60  81
ENDBRANCH  34  35
ENDBRANCH  27  29
ENDBRANCH  26  27
ENDBRANCH  25  26
ENDBRANCH  24  25
ENDBRANCH  23  24
ENDBRANCH   1  23
TORSDOF 24
