REMARK SMILES O=C(NC(=S)Nc1c(Cl)cc(Cl)cc1C(=O)OCCOCCOC(=O)c1ccc(-c2c3nc(c(-c4ccc(S(=O)(=O)[O-])cc4)c4ccc([nH]4)c(-c4ccc(S(=O)(=O)[O-])cc4)c4nc(c(-c5ccc(S(=O)(=O)[O-])cc5)c5ccc2[nH]5)C=C4)C=C3)cc1)c1cccc([N+](=O)[O-])c1
REMARK SMILES IDX 19 1 18 2 17 3 15 4 16 5 14 6 7 7 8 8 9 9 10 10 13 11 11 12
REMARK SMILES IDX 12 13 6 14 4 16 5 17 3 18 1 19 2 20 86 22 87 23 94 24 88 25
REMARK SMILES IDX 90 26 89 27 91 28 92 29 93 30 20 31 21 32 22 33 23 34 24 35
REMARK SMILES IDX 25 36 26 37 27 38 85 39 28 40 84 41 29 42 30 43 31 44 78 45
REMARK SMILES IDX 32 46 83 47 77 48 79 49 33 50 82 51 76 52 75 53 34 55 64 56
REMARK SMILES IDX 45 57 63 58 46 59 49 60 62 61 80 62 47 63 48 64 61 66 81 67
REMARK SMILES IDX 50 68 35 69 36 70 44 71 37 72 43 73 38 74 39 75 40 76 41 77
REMARK SMILES IDX 42 78 65 79 66 80 74 81 67 82 73 83 68 84 69 85 70 86 71 87
REMARK SMILES IDX 72 88 51 89 52 90 60 91 53 92 59 93 54 94 55 95 56 96 57 97
REMARK SMILES IDX 58 98
REMARK H PARENT 6 15 3 21 79 54 49 65
REMARK Flexibility Score: inf
ROOT
ATOM      1  C   UNL     1       7.834   1.584  -3.514  1.00  0.00     0.202 C 
ENDROOT
BRANCH   1   2
ATOM      2  C   UNL     1       8.338   1.775  -2.081  1.00  0.00     0.261 C 
BRANCH   2   3
ATOM      3  O   UNL     1       7.259   1.678  -1.129  1.00  0.00    -0.460 OA
BRANCH   3   4
ATOM      4  C   UNL     1       6.750   2.862  -0.742  1.00  0.00     0.340 C 
ATOM      5  O   UNL     1       7.111   3.987  -1.039  1.00  0.00    -0.246 OA
BRANCH   4   6
ATOM      6  C   UNL     1       5.544   2.665   0.055  1.00  0.00     0.086 A 
ATOM      7  C   UNL     1       4.989   1.064   1.077  1.00  0.00     0.074 A 
ATOM      8  C   UNL     1       3.295   0.911   2.070  1.00  0.00     0.066 A 
ATOM      9  Cl  UNL     1       2.948  -0.528   2.978  1.00  0.00    -0.082 Cl
ATOM     10  C   UNL     1       1.905   2.318   2.088  1.00  0.00     0.043 A 
ATOM     11  C   UNL     1       4.171   4.115   0.101  1.00  0.00     0.038 A 
ATOM     12  C   UNL     1       2.457   3.924   1.033  1.00  0.00     0.043 A 
ATOM     13  Cl  UNL     1       1.257   5.149   0.741  1.00  0.00    -0.084 Cl
BRANCH   7  14
ATOM     14  N   UNL     1       5.571  -0.140   0.643  1.00  0.00    -0.330 N 
ATOM     15  H   UNL     1       6.553  -0.208   0.649  1.00  0.00     0.169 HD
BRANCH  14  16
ATOM     16  C   UNL     1       4.858  -1.212   0.216  1.00  0.00     0.177 C 
ATOM     17  S   UNL     1       5.619  -2.684   0.025  1.00  0.00    -0.040 S 
BRANCH  16  18
ATOM     18  N   UNL     1       3.524  -1.099  -0.139  1.00  0.00    -0.299 N 
ATOM     19  O   UNL     1       1.406  -0.358  -0.620  1.00  0.00    -0.269 OA
ATOM     20  C   UNL     1       2.585  -0.088  -0.399  1.00  0.00     0.257 C 
ATOM     21  H   UNL     1       3.114  -1.989  -0.237  1.00  0.00     0.172 HD
BRANCH  20  22
ATOM     22  C   UNL     1       2.974   1.327  -0.545  1.00  0.00     0.047 A 
ATOM     23  C   UNL     1       3.743   2.195   0.004  1.00  0.00     0.014 A 
ATOM     24  C   UNL     1       2.870   2.071   0.543  1.00  0.00     0.099 A 
ATOM     25  C   UNL     1       4.645   2.968   1.655  1.00  0.00     0.008 A 
ATOM     26  C   UNL     1       3.687   2.876   2.251  1.00  0.00     0.270 A 
ATOM     27  C   UNL     1       4.792   2.820   2.910  1.00  0.00     0.085 A 
BRANCH  26  28
ATOM     28  N   UNL     1       2.892   3.912   3.451  1.00  0.00     0.062 N 
ATOM     29  O   UNL     1       3.123   5.130   3.351  1.00  0.00    -0.258 OA
ATOM     30  O   UNL     1       2.353   3.352   4.421  1.00  0.00    -0.258 OA
ENDBRANCH  26  28
ENDBRANCH  20  22
ENDBRANCH  16  18
ENDBRANCH  14  16
ENDBRANCH   7  14
ENDBRANCH   4   6
ENDBRANCH   3   4
ENDBRANCH   2   3
ENDBRANCH   1   2
BRANCH   1  31
ATOM     31  O   UNL     1       7.040   2.682  -3.974  1.00  0.00    -0.374 OA
BRANCH  31  32
ATOM     32  C   UNL     1       5.626   2.523  -3.839  1.00  0.00     0.202 C 
BRANCH  32  33
ATOM     33  C   UNL     1       4.996   1.757  -5.001  1.00  0.00     0.261 C 
BRANCH  33  34
ATOM     34  O   UNL     1       5.234   0.351  -4.812  1.00  0.00    -0.460 OA
BRANCH  34  35
ATOM     35  C   UNL     1       5.874  -0.262  -5.835  1.00  0.00     0.338 C 
ATOM     36  O   UNL     1       6.092   0.202  -6.942  1.00  0.00    -0.246 OA
BRANCH  35  37
ATOM     37  C   UNL     1       6.455  -1.534  -5.358  1.00  0.00     0.060 A 
ATOM     38  C   UNL     1       7.757  -1.835  -5.781  1.00  0.00     0.016 A 
ATOM     39  C   UNL     1       5.744  -2.425  -4.541  1.00  0.00     0.016 A 
ATOM     40  C   UNL     1       8.332  -3.054  -5.436  1.00  0.00     0.010 A 
ATOM     41  C   UNL     1       6.317  -3.658  -4.208  1.00  0.00     0.010 A 
ATOM     42  C   UNL     1       7.598  -3.989  -4.688  1.00  0.00    -0.014 A 
BRANCH  42  43
ATOM     43  C   UNL     1       8.115  -5.373  -4.592  1.00  0.00     0.031 A 
ATOM     44  C   UNL     1       7.820  -6.327  -5.718  1.00  0.00     0.074 A 
ATOM     45  C   UNL     1       8.891  -5.762  -3.566  1.00  0.00     0.049 A 
ATOM     46  N   UNL     1       8.266  -7.541  -5.913  1.00  0.00    -0.248 NA
ATOM     47  C   UNL     1       6.913  -5.840  -6.771  1.00  0.00     0.031 C 
ATOM     48  C   UNL     1       9.268  -4.933  -2.423  1.00  0.00     0.029 A 
ATOM     49  N   UNL     1       9.511  -6.964  -3.333  1.00  0.00    -0.354 N 
ATOM     50  C   UNL     1       7.713  -7.954  -7.119  1.00  0.00     0.074 A 
ATOM     51  C   UNL     1       6.880  -6.873  -7.600  1.00  0.00     0.031 C 
ATOM     52  C   UNL     1      10.059  -5.653  -1.607  1.00  0.00     0.029 A 
ATOM     53  C   UNL     1      10.239  -6.991  -2.169  1.00  0.00     0.049 A 
ATOM     54  H   UNL     1       9.441  -7.733  -3.943  1.00  0.00     0.167 HD
ATOM     55  C   UNL     1       7.885  -9.125  -7.775  1.00  0.00     0.031 A 
ATOM     56  C   UNL     1      10.967  -7.983  -1.621  1.00  0.00     0.031 A 
ATOM     57  C   UNL     1       8.677 -10.219  -7.291  1.00  0.00     0.049 A 
ATOM     58  C   UNL     1      11.091  -9.301  -2.335  1.00  0.00     0.074 A 
ATOM     59  C   UNL     1       8.905 -11.448  -7.885  1.00  0.00     0.029 A 
ATOM     60  N   UNL     1       9.358 -10.222  -6.085  1.00  0.00    -0.354 N 
ATOM     61  N   UNL     1      10.596  -9.659  -3.495  1.00  0.00    -0.248 NA
ATOM     62  C   UNL     1      11.878 -10.347  -1.665  1.00  0.00     0.031 C 
ATOM     63  C   UNL     1       9.704 -12.207  -7.020  1.00  0.00     0.029 A 
ATOM     64  C   UNL     1       9.991 -11.439  -5.903  1.00  0.00     0.049 A 
ATOM     65  H   UNL     1       9.387  -9.470  -5.450  1.00  0.00     0.167 HD
ATOM     66  C   UNL     1      11.022 -10.967  -3.700  1.00  0.00     0.074 A 
ATOM     67  C   UNL     1      11.820 -11.335  -2.549  1.00  0.00     0.031 C 
ATOM     68  C   UNL     1      10.776 -11.789  -4.750  1.00  0.00     0.031 A 
BRANCH  55  69
ATOM     69  C   UNL     1       7.175  -9.271  -9.089  1.00  0.00    -0.014 A 
ATOM     70  C   UNL     1       7.716  -8.701 -10.257  1.00  0.00     0.010 A 
ATOM     71  C   UNL     1       5.955  -9.968  -9.154  1.00  0.00     0.010 A 
ATOM     72  C   UNL     1       7.027  -8.796 -11.467  1.00  0.00     0.020 A 
ATOM     73  C   UNL     1       5.269 -10.073 -10.366  1.00  0.00     0.020 A 
ATOM     74  C   UNL     1       5.801  -9.470 -11.511  1.00  0.00     0.054 A 
BRANCH  74  75
ATOM     75  S   UNL     1       4.912  -9.577 -13.089  1.00  0.00     0.124 S 
ATOM     76  O   UNL     1       4.225  -8.288 -13.133  1.00  0.00    -0.237 OA
ATOM     77  O   UNL     1       5.988  -9.746 -14.063  1.00  0.00    -0.237 OA
ATOM     78  O   UNL     1       4.046 -10.741 -12.916  1.00  0.00    -0.744 OA
ENDBRANCH  74  75
ENDBRANCH  55  69
BRANCH  56  79
ATOM     79  C   UNL     1      11.638  -7.767  -0.314  1.00  0.00    -0.014 A 
ATOM     80  C   UNL     1      13.021  -7.513  -0.254  1.00  0.00     0.010 A 
ATOM     81  C   UNL     1      10.886  -7.805   0.876  1.00  0.00     0.010 A 
ATOM     82  C   UNL     1      13.645  -7.304   0.979  1.00  0.00     0.020 A 
ATOM     83  C   UNL     1      11.505  -7.583   2.108  1.00  0.00     0.020 A 
ATOM     84  C   UNL     1      12.882  -7.341   2.152  1.00  0.00     0.054 A 
BRANCH  84  85
ATOM     85  S   UNL     1      13.683  -6.997   3.746  1.00  0.00     0.124 S 
ATOM     86  O   UNL     1      14.176  -8.315   4.129  1.00  0.00    -0.237 OA
ATOM     87  O   UNL     1      14.706  -6.016   3.391  1.00  0.00    -0.237 OA
ATOM     88  O   UNL     1      12.590  -6.471   4.562  1.00  0.00    -0.744 OA
ENDBRANCH  84  85
ENDBRANCH  56  79
BRANCH  68  89
ATOM     89  C   UNL     1      11.382 -13.163  -4.707  1.00  0.00    -0.014 A 
ATOM     90  C   UNL     1      10.768 -14.192  -3.971  1.00  0.00     0.010 A 
ATOM     91  C   UNL     1      12.539 -13.439  -5.458  1.00  0.00     0.010 A 
ATOM     92  C   UNL     1      11.314 -15.478  -3.972  1.00  0.00     0.020 A 
ATOM     93  C   UNL     1      13.081 -14.727  -5.470  1.00  0.00     0.020 A 
ATOM     94  C   UNL     1      12.470 -15.735  -4.717  1.00  0.00     0.054 A 
BRANCH  94  95
ATOM     95  S   UNL     1      13.143 -17.422  -4.755  1.00  0.00     0.124 S 
ATOM     96  O   UNL     1      13.979 -17.441  -3.558  1.00  0.00    -0.237 OA
ATOM     97  O   UNL     1      11.946 -18.257  -4.698  1.00  0.00    -0.237 OA
ATOM     98  O   UNL     1      13.867 -17.471  -6.024  1.00  0.00    -0.744 OA
ENDBRANCH  94  95
ENDBRANCH  68  89
ENDBRANCH  42  43
ENDBRANCH  35  37
ENDBRANCH  34  35
ENDBRANCH  33  34
ENDBRANCH  32  33
ENDBRANCH  31  32
ENDBRANCH   1  31
TORSDOF 22
