REMARK SMILES C[C@@H](C(=O)OCCOCCOC(=O)c1ccc(-c2c3nc(c(-c4ccc(S(=O)(=O)[O-])cc4)c4ccc([nH]4)c(-c4ccc(S(=O)(=O)[O-])cc4)c4nc(c(-c5ccc(S(=O)(=O)[O-])cc5)c5ccc2[nH]5)C=C4)C=C3)cc1)c1ccc2c3cc(Cl)ccc3n(C(=O)c3cocn3)c2c1
REMARK SMILES IDX 8 1 7 2 6 3 5 4 3 5 4 6 2 7 1 8 74 9 75 10 94 11 76 12 93 13
REMARK SMILES IDX 77 14 85 15 78 16 84 17 79 18 83 19 80 20 82 21 81 22 86 23
REMARK SMILES IDX 87 24 88 25 89 26 92 27 90 28 91 29 9 30 10 31 11 32 12 33
REMARK SMILES IDX 13 34 14 35 15 36 73 37 16 38 72 39 17 40 18 41 19 42 66 43
REMARK SMILES IDX 20 44 71 45 65 46 67 47 21 48 70 49 64 50 63 51 22 53 52 54
REMARK SMILES IDX 33 55 51 56 34 57 37 58 50 59 68 60 35 61 36 62 49 64 69 65
REMARK SMILES IDX 38 66 23 67 24 68 32 69 25 70 31 71 26 72 27 73 28 74 29 75
REMARK SMILES IDX 30 76 53 77 54 78 62 79 55 80 61 81 56 82 57 83 58 84 59 85
REMARK SMILES IDX 60 86 39 87 40 88 48 89 41 90 47 91 42 92 43 93 44 94 45 95
REMARK SMILES IDX 46 96
REMARK H PARENT 67 52 37 63
REMARK Flexibility Score: inf
ROOT
ATOM      1  O   UNL     1       1.065   3.529   3.389  1.00  0.00    -0.374 OA
ENDROOT
BRANCH   1   2
ATOM      2  C   UNL     1       2.305   2.897   3.709  1.00  0.00     0.202 C 
BRANCH   2   3
ATOM      3  C   UNL     1       2.302   1.377   3.901  1.00  0.00     0.261 C 
BRANCH   3   4
ATOM      4  O   UNL     1       2.019   0.696   2.664  1.00  0.00    -0.463 OA
BRANCH   4   5
ATOM      5  C   UNL     1       0.975  -0.177   2.699  1.00  0.00     0.313 C 
ATOM      6  O   UNL     1       0.381  -0.497   3.723  1.00  0.00    -0.252 OA
BRANCH   5   7
ATOM      7  C   UNL     1       0.592  -0.702   1.309  1.00  0.00     0.126 C 
ATOM      8  C   UNL     1       1.395  -0.135   0.136  1.00  0.00     0.025 C 
BRANCH   7   9
ATOM      9  C   UNL     1      -0.919  -0.587   1.099  1.00  0.00    -0.032 A 
ATOM     10  C   UNL     1      -1.544   0.570   0.624  1.00  0.00     0.005 A 
ATOM     11  C   UNL     1      -1.717  -1.666   1.504  1.00  0.00     0.032 A 
ATOM     12  C   UNL     1      -2.939   0.668   0.557  1.00  0.00     0.011 A 
ATOM     13  C   UNL     1      -3.121  -1.558   1.464  1.00  0.00     0.058 A 
ATOM     14  C   UNL     1      -3.740  -0.413   0.976  1.00  0.00     0.008 A 
ATOM     15  N   UNL     1      -4.110  -2.471   1.845  1.00  0.00    -0.274 N 
ATOM     16  C   UNL     1      -5.144  -0.619   1.061  1.00  0.00     0.009 A 
ATOM     17  C   UNL     1      -5.364  -1.877   1.638  1.00  0.00     0.057 A 
ATOM     18  C   UNL     1      -6.245   0.204   0.732  1.00  0.00     0.031 A 
ATOM     19  C   UNL     1      -6.668  -2.287   1.982  1.00  0.00     0.029 A 
ATOM     20  C   UNL     1      -7.534  -0.224   1.037  1.00  0.00     0.041 A 
ATOM     21  C   UNL     1      -7.744  -1.442   1.669  1.00  0.00     0.023 A 
ATOM     22  Cl  UNL     1      -8.874   0.789   0.658  1.00  0.00    -0.084 Cl
BRANCH  15  23
ATOM     23  C   UNL     1      -3.821  -3.747   2.399  1.00  0.00     0.284 C 
ATOM     24  O   UNL     1      -2.810  -3.810   3.095  1.00  0.00    -0.266 OA
BRANCH  23  25
ATOM     25  C   UNL     1      -4.581  -4.968   2.145  1.00  0.00     0.167 A 
ATOM     26  C   UNL     1      -5.453  -5.267   1.121  1.00  0.00     0.231 A 
ATOM     27  N   UNL     1      -4.374  -6.122   2.892  1.00  0.00    -0.211 NA
ATOM     28  O   UNL     1      -5.789  -6.588   1.210  1.00  0.00    -0.451 OA
ATOM     29  C   UNL     1      -5.087  -7.037   2.284  1.00  0.00     0.308 A 
ENDBRANCH  23  25
ENDBRANCH  15  23
ENDBRANCH   7   9
ENDBRANCH   5   7
ENDBRANCH   4   5
ENDBRANCH   3   4
ENDBRANCH   2   3
ENDBRANCH   1   2
BRANCH   1  30
ATOM     30  C   UNL     1       0.473   3.228   2.130  1.00  0.00     0.202 C 
BRANCH  30  31
ATOM     31  C   UNL     1       1.087   3.865   0.874  1.00  0.00     0.261 C 
BRANCH  31  32
ATOM     32  O   UNL     1       2.484   3.580   0.715  1.00  0.00    -0.460 OA
BRANCH  32  33
ATOM     33  C   UNL     1       3.294   4.639   0.957  1.00  0.00     0.338 C 
ATOM     34  O   UNL     1       2.952   5.791   1.201  1.00  0.00    -0.246 OA
BRANCH  33  35
ATOM     35  C   UNL     1       4.691   4.194   1.081  1.00  0.00     0.060 A 
ATOM     36  C   UNL     1       5.347   4.473   2.287  1.00  0.00     0.016 A 
ATOM     37  C   UNL     1       5.370   3.592   0.020  1.00  0.00     0.016 A 
ATOM     38  C   UNL     1       6.701   4.192   2.423  1.00  0.00     0.010 A 
ATOM     39  C   UNL     1       6.736   3.323   0.155  1.00  0.00     0.010 A 
ATOM     40  C   UNL     1       7.413   3.657   1.343  1.00  0.00    -0.014 A 
BRANCH  40  41
ATOM     41  C   UNL     1       8.892   3.604   1.413  1.00  0.00     0.031 A 
ATOM     42  C   UNL     1       9.689   4.685   0.734  1.00  0.00     0.074 A 
ATOM     43  C   UNL     1       9.510   2.638   2.116  1.00  0.00     0.049 A 
ATOM     44  N   UNL     1      10.986   4.836   0.665  1.00  0.00    -0.248 NA
ATOM     45  C   UNL     1       8.922   5.735   0.044  1.00  0.00     0.031 C 
ATOM     46  C   UNL     1       8.839   1.574   2.862  1.00  0.00     0.029 A 
ATOM     47  N   UNL     1      10.846   2.402   2.320  1.00  0.00    -0.354 N 
ATOM     48  C   UNL     1      11.191   5.988  -0.086  1.00  0.00     0.074 A 
ATOM     49  C   UNL     1       9.888   6.482  -0.471  1.00  0.00     0.031 C 
ATOM     50  C   UNL     1       9.769   0.797   3.444  1.00  0.00     0.029 A 
ATOM     51  C   UNL     1      11.097   1.286   3.081  1.00  0.00     0.049 A 
ATOM     52  H   UNL     1      11.557   2.978   1.956  1.00  0.00     0.167 HD
ATOM     53  C   UNL     1      12.361   6.582  -0.421  1.00  0.00     0.031 A 
ATOM     54  C   UNL     1      12.267   0.714   3.428  1.00  0.00     0.031 A 
ATOM     55  C   UNL     1      13.654   6.078  -0.039  1.00  0.00     0.049 A 
ATOM     56  C   UNL     1      13.556   1.350   2.976  1.00  0.00     0.074 A 
ATOM     57  C   UNL     1      14.900   6.615  -0.312  1.00  0.00     0.029 A 
ATOM     58  N   UNL     1      13.869   4.917   0.688  1.00  0.00    -0.354 N 
ATOM     59  N   UNL     1      13.735   2.451   2.285  1.00  0.00    -0.248 NA
ATOM     60  C   UNL     1      14.801   0.669   3.358  1.00  0.00     0.031 C 
ATOM     61  C   UNL     1      15.870   5.743   0.194  1.00  0.00     0.029 A 
ATOM     62  C   UNL     1      15.227   4.702   0.845  1.00  0.00     0.049 A 
ATOM     63  H   UNL     1      13.160   4.333   1.042  1.00  0.00     0.167 HD
ATOM     64  C   UNL     1      15.113   2.611   2.177  1.00  0.00     0.074 A 
ATOM     65  C   UNL     1      15.718   1.502   2.884  1.00  0.00     0.031 C 
ATOM     66  C   UNL     1      15.814   3.591   1.552  1.00  0.00     0.031 A 
BRANCH  53  67
ATOM     67  C   UNL     1      12.299   7.818  -1.280  1.00  0.00    -0.014 A 
ATOM     68  C   UNL     1      11.818   9.040  -0.776  1.00  0.00     0.010 A 
ATOM     69  C   UNL     1      12.769   7.763  -2.605  1.00  0.00     0.010 A 
ATOM     70  C   UNL     1      11.777  10.175  -1.593  1.00  0.00     0.020 A 
ATOM     71  C   UNL     1      12.757   8.901  -3.415  1.00  0.00     0.020 A 
ATOM     72  C   UNL     1      12.246  10.097  -2.908  1.00  0.00     0.054 A 
BRANCH  72  73
ATOM     73  S   UNL     1      12.207  11.591  -3.936  1.00  0.00     0.124 S 
ATOM     74  O   UNL     1      10.776  11.746  -4.187  1.00  0.00    -0.237 OA
ATOM     75  O   UNL     1      12.804  12.597  -3.061  1.00  0.00    -0.237 OA
ATOM     76  O   UNL     1      13.007  11.231  -5.104  1.00  0.00    -0.744 OA
ENDBRANCH  72  73
ENDBRANCH  53  67
BRANCH  54  77
ATOM     77  C   UNL     1      12.274  -0.541   4.230  1.00  0.00    -0.014 A 
ATOM     78  C   UNL     1      12.757  -0.549   5.550  1.00  0.00     0.010 A 
ATOM     79  C   UNL     1      11.797  -1.741   3.671  1.00  0.00     0.010 A 
ATOM     80  C   UNL     1      12.780  -1.736   6.289  1.00  0.00     0.020 A 
ATOM     81  C   UNL     1      11.789  -2.923   4.416  1.00  0.00     0.020 A 
ATOM     82  C   UNL     1      12.293  -2.915   5.718  1.00  0.00     0.054 A 
BRANCH  82  83
ATOM     83  S   UNL     1      12.290  -4.433   6.712  1.00  0.00     0.124 S 
ATOM     84  O   UNL     1      13.710  -4.766   6.760  1.00  0.00    -0.237 OA
ATOM     85  O   UNL     1      11.701  -3.983   7.970  1.00  0.00    -0.237 OA
ATOM     86  O   UNL     1      11.458  -5.349   5.935  1.00  0.00    -0.744 OA
ENDBRANCH  82  83
ENDBRANCH  54  77
BRANCH  66  87
ATOM     87  C   UNL     1      17.317   3.532   1.637  1.00  0.00    -0.014 A 
ATOM     88  C   UNL     1      18.054   2.562   0.936  1.00  0.00     0.010 A 
ATOM     89  C   UNL     1      18.005   4.504   2.387  1.00  0.00     0.010 A 
ATOM     90  C   UNL     1      19.449   2.544   1.011  1.00  0.00     0.020 A 
ATOM     91  C   UNL     1      19.401   4.510   2.439  1.00  0.00     0.020 A 
ATOM     92  C   UNL     1      20.114   3.519   1.762  1.00  0.00     0.054 A 
BRANCH  92  93
ATOM     93  S   UNL     1      21.927   3.501   1.808  1.00  0.00     0.124 S 
ATOM     94  O   UNL     1      22.198   2.342   2.654  1.00  0.00    -0.237 OA
ATOM     95  O   UNL     1      22.281   3.346   0.399  1.00  0.00    -0.237 OA
ATOM     96  O   UNL     1      22.273   4.794   2.392  1.00  0.00    -0.744 OA
ENDBRANCH  92  93
ENDBRANCH  66  87
ENDBRANCH  40  41
ENDBRANCH  33  35
ENDBRANCH  32  33
ENDBRANCH  31  32
ENDBRANCH  30  31
ENDBRANCH   1  30
TORSDOF 20
