REMARK SMILES CC(=O)Nc1cccc(-c2cc(F)ccc2C(=O)OCCOCCOC(=O)c2ccc(-c3c4nc(c(-c5ccc(S(=O)(=O)[O-])cc5)c5ccc([nH]5)c(-c5ccc(S(=O)(=O)[O-])cc5)c5nc(c(-c6ccc(S(=O)(=O)[O-])cc6)c6ccc3[nH]6)C=C5)C=C4)cc2)c1
REMARK SMILES IDX 23 1 22 2 21 3 20 4 19 5 17 6 18 7 16 8 10 9 11 10 12 11
REMARK SMILES IDX 15 12 13 13 14 14 9 15 5 16 6 17 88 18 7 19 8 20 4 21 1 22
REMARK SMILES IDX 2 23 3 24 24 26 25 27 26 28 27 29 28 30 29 31 87 32 30 33
REMARK SMILES IDX 86 34 31 35 32 36 33 37 80 38 34 39 85 40 79 41 81 42 35 43
REMARK SMILES IDX 84 44 78 45 77 46 36 48 66 49 47 50 65 51 48 52 51 53 64 54
REMARK SMILES IDX 82 55 49 56 50 57 63 59 83 60 52 61 37 62 38 63 46 64 39 65
REMARK SMILES IDX 45 66 40 67 41 68 42 69 43 70 44 71 67 72 68 73 76 74 69 75
REMARK SMILES IDX 75 76 70 77 71 78 72 79 73 80 74 81 53 82 54 83 62 84 55 85
REMARK SMILES IDX 61 86 56 87 57 88 58 89 59 90 60 91
REMARK H PARENT 4 25 81 47 51 58
REMARK Flexibility Score: inf
ROOT
ATOM      1  C   UNL     1       6.735   2.658  -3.022  1.00  0.00     0.202 C 
ENDROOT
BRANCH   1   2
ATOM      2  O   UNL     1       6.140   1.925  -4.092  1.00  0.00    -0.374 OA
BRANCH   2   3
ATOM      3  C   UNL     1       4.724   1.731  -4.052  1.00  0.00     0.202 C 
BRANCH   3   4
ATOM      4  C   UNL     1       4.222   0.742  -3.001  1.00  0.00     0.261 C 
BRANCH   4   5
ATOM      5  O   UNL     1       4.497   1.246  -1.684  1.00  0.00    -0.460 OA
BRANCH   5   6
ATOM      6  C   UNL     1       4.966   0.349  -0.793  1.00  0.00     0.338 C 
ATOM      7  O   UNL     1       5.094  -0.854  -0.974  1.00  0.00    -0.246 OA
BRANCH   6   8
ATOM      8  C   UNL     1       5.469   1.019   0.436  1.00  0.00     0.068 A 
ATOM      9  C   UNL     1       4.810   2.063   1.136  1.00  0.00    -0.001 A 
ATOM     10  C   UNL     1       5.423   2.518   2.326  1.00  0.00     0.048 A 
ATOM     11  C   UNL     1       6.640   2.001   2.765  1.00  0.00     0.123 A 
ATOM     12  C   UNL     1       6.706   0.516   0.894  1.00  0.00     0.019 A 
ATOM     13  F   UNL     1       7.187   2.469   3.894  1.00  0.00    -0.207 F 
ATOM     14  C   UNL     1       7.296   1.014   2.050  1.00  0.00     0.040 A 
BRANCH   9  15
ATOM     15  C   UNL     1       3.553   2.714   0.695  1.00  0.00    -0.015 A 
ATOM     16  C   UNL     1       1.336   2.585  -0.339  1.00  0.00     0.041 A 
ATOM     17  C   UNL     1       1.271   3.981  -0.358  1.00  0.00     0.026 A 
ATOM     18  C   UNL     1       2.452   1.969   0.234  1.00  0.00     0.034 A 
ATOM     19  C   UNL     1       2.308   4.745   0.171  1.00  0.00     0.003 A 
ATOM     20  C   UNL     1       3.447   4.117   0.672  1.00  0.00     0.009 A 
BRANCH  16  21
ATOM     21  N   UNL     1       0.325   1.895  -1.028  1.00  0.00    -0.326 N 
ATOM     22  C   UNL     1       0.433  -0.404  -0.073  1.00  0.00     0.114 C 
ATOM     23  C   UNL     1       0.013   0.573  -1.132  1.00  0.00     0.221 C 
ATOM     24  O   UNL     1      -0.650   0.201  -2.102  1.00  0.00    -0.275 OA
ATOM     25  H   UNL     1      -0.277   2.484  -1.538  1.00  0.00     0.169 HD
ENDBRANCH  16  21
ENDBRANCH   9  15
ENDBRANCH   6   8
ENDBRANCH   5   6
ENDBRANCH   4   5
ENDBRANCH   3   4
ENDBRANCH   2   3
ENDBRANCH   1   2
BRANCH   1  26
ATOM     26  C   UNL     1       6.572   4.183  -3.047  1.00  0.00     0.261 C 
BRANCH  26  27
ATOM     27  O   UNL     1       5.204   4.621  -2.989  1.00  0.00    -0.460 OA
BRANCH  27  28
ATOM     28  C   UNL     1       4.727   5.124  -4.154  1.00  0.00     0.338 C 
ATOM     29  O   UNL     1       5.338   5.256  -5.205  1.00  0.00    -0.246 OA
BRANCH  28  30
ATOM     30  C   UNL     1       3.280   5.387  -4.053  1.00  0.00     0.060 A 
ATOM     31  C   UNL     1       2.440   4.793  -5.004  1.00  0.00     0.016 A 
ATOM     32  C   UNL     1       2.766   6.290  -3.121  1.00  0.00     0.016 A 
ATOM     33  C   UNL     1       1.089   5.134  -5.053  1.00  0.00     0.010 A 
ATOM     34  C   UNL     1       1.410   6.633  -3.175  1.00  0.00     0.010 A 
ATOM     35  C   UNL     1       0.571   6.082  -4.162  1.00  0.00    -0.014 A 
BRANCH  35  36
ATOM     36  C   UNL     1      -0.814   6.587  -4.340  1.00  0.00     0.031 A 
ATOM     37  C   UNL     1      -1.030   7.933  -4.979  1.00  0.00     0.074 A 
ATOM     38  C   UNL     1      -1.869   5.854  -3.941  1.00  0.00     0.049 A 
ATOM     39  N   UNL     1      -2.149   8.575  -5.192  1.00  0.00    -0.248 NA
ATOM     40  C   UNL     1       0.172   8.650  -5.438  1.00  0.00     0.031 C 
ATOM     41  C   UNL     1      -1.794   4.519  -3.348  1.00  0.00     0.029 A 
ATOM     42  N   UNL     1      -3.213   6.134  -3.963  1.00  0.00    -0.354 N 
ATOM     43  C   UNL     1      -1.789   9.775  -5.794  1.00  0.00     0.074 A 
ATOM     44  C   UNL     1      -0.346   9.782  -5.895  1.00  0.00     0.031 C 
ATOM     45  C   UNL     1      -3.034   4.109  -3.031  1.00  0.00     0.029 A 
ATOM     46  C   UNL     1      -3.990   5.156  -3.388  1.00  0.00     0.049 A 
ATOM     47  H   UNL     1      -3.585   6.957  -4.355  1.00  0.00     0.167 HD
ATOM     48  C   UNL     1      -2.589  10.777  -6.229  1.00  0.00     0.031 A 
ATOM     49  C   UNL     1      -5.317   5.117  -3.159  1.00  0.00     0.031 A 
ATOM     50  C   UNL     1      -4.025  10.764  -6.141  1.00  0.00     0.049 A 
ATOM     51  C   UNL     1      -6.181   6.265  -3.615  1.00  0.00     0.074 A 
ATOM     52  C   UNL     1      -4.921  11.712  -6.603  1.00  0.00     0.029 A 
ATOM     53  N   UNL     1      -4.774   9.761  -5.547  1.00  0.00    -0.354 N 
ATOM     54  N   UNL     1      -5.826   7.367  -4.234  1.00  0.00    -0.248 NA
ATOM     55  C   UNL     1      -7.624   6.158  -3.356  1.00  0.00     0.031 C 
ATOM     56  C   UNL     1      -6.210  11.309  -6.238  1.00  0.00     0.029 A 
ATOM     57  C   UNL     1      -6.119  10.083  -5.599  1.00  0.00     0.049 A 
ATOM     58  H   UNL     1      -4.404   8.941  -5.147  1.00  0.00     0.167 HD
ATOM     59  C   UNL     1      -7.006   8.068  -4.464  1.00  0.00     0.074 A 
ATOM     60  C   UNL     1      -8.084   7.263  -3.929  1.00  0.00     0.031 C 
ATOM     61  C   UNL     1      -7.182   9.270  -5.066  1.00  0.00     0.031 A 
BRANCH  48  62
ATOM     62  C   UNL     1      -1.932  11.997  -6.816  1.00  0.00    -0.014 A 
ATOM     63  C   UNL     1      -1.364  11.974  -8.102  1.00  0.00     0.010 A 
ATOM     64  C   UNL     1      -1.951  13.205  -6.095  1.00  0.00     0.010 A 
ATOM     65  C   UNL     1      -0.806  13.134  -8.647  1.00  0.00     0.020 A 
ATOM     66  C   UNL     1      -1.414  14.371  -6.645  1.00  0.00     0.020 A 
ATOM     67  C   UNL     1      -0.836  14.326  -7.915  1.00  0.00     0.054 A 
BRANCH  67  68
ATOM     68  S   UNL     1      -0.149  15.828  -8.666  1.00  0.00     0.124 S 
ATOM     69  O   UNL     1       1.287  15.575  -8.584  1.00  0.00    -0.237 OA
ATOM     70  O   UNL     1      -0.716  15.802 -10.012  1.00  0.00    -0.237 OA
ATOM     71  O   UNL     1      -0.642  16.902  -7.806  1.00  0.00    -0.744 OA
ENDBRANCH  67  68
ENDBRANCH  48  62
BRANCH  49  72
ATOM     72  C   UNL     1      -5.916   3.965  -2.432  1.00  0.00    -0.014 A 
ATOM     73  C   UNL     1      -6.758   3.050  -3.089  1.00  0.00     0.010 A 
ATOM     74  C   UNL     1      -5.663   3.796  -1.058  1.00  0.00     0.010 A 
ATOM     75  C   UNL     1      -7.361   2.007  -2.378  1.00  0.00     0.020 A 
ATOM     76  C   UNL     1      -6.243   2.740  -0.350  1.00  0.00     0.020 A 
ATOM     77  C   UNL     1      -7.104   1.862  -1.012  1.00  0.00     0.054 A 
BRANCH  77  78
ATOM     78  S   UNL     1      -7.882   0.494  -0.108  1.00  0.00     0.124 S 
ATOM     79  O   UNL     1      -9.247   0.983   0.061  1.00  0.00    -0.237 OA
ATOM     80  O   UNL     1      -7.720  -0.629  -1.027  1.00  0.00    -0.237 OA
ATOM     81  O   UNL     1      -7.092   0.405   1.119  1.00  0.00    -0.744 OA
ENDBRANCH  77  78
ENDBRANCH  49  72
BRANCH  61  82
ATOM     82  C   UNL     1      -8.592   9.777  -5.214  1.00  0.00    -0.014 A 
ATOM     83  C   UNL     1      -9.309  10.268  -4.109  1.00  0.00     0.010 A 
ATOM     84  C   UNL     1      -9.184   9.819  -6.490  1.00  0.00     0.010 A 
ATOM     85  C   UNL     1     -10.605  10.764  -4.273  1.00  0.00     0.020 A 
ATOM     86  C   UNL     1     -10.469  10.338  -6.662  1.00  0.00     0.020 A 
ATOM     87  C   UNL     1     -11.178  10.795  -5.549  1.00  0.00     0.054 A 
BRANCH  87  88
ATOM     88  S   UNL     1     -12.844  11.486  -5.745  1.00  0.00     0.124 S 
ATOM     89  O   UNL     1     -13.681  10.411  -5.221  1.00  0.00    -0.237 OA
ATOM     90  O   UNL     1     -12.789  12.696  -4.928  1.00  0.00    -0.237 OA
ATOM     91  O   UNL     1     -12.955  11.719  -7.183  1.00  0.00    -0.744 OA
ENDBRANCH  87  88
ENDBRANCH  61  82
ENDBRANCH  35  36
ENDBRANCH  28  30
ENDBRANCH  27  28
ENDBRANCH  26  27
ENDBRANCH   1  26
TORSDOF 19
