REMARK SMILES Cc1ccc(-c2c(C)sc(NC(=O)[C@H]3CC=CC[C@H]3C(=O)OCCOCCOC(=O)c3ccc(-c4c5nc(c(-c6ccc(S(=O)(=O)[O-])cc6)c6ccc([nH]6)c(-c6ccc(S(=O)(=O)[O-])cc6)c6nc(c(-c7ccc(S(=O)(=O)[O-])cc7)c7ccc4[nH]7)C=C6)C=C5)cc3)c2C(N)=O)cc1
REMARK SMILES IDX 25 1 24 2 23 3 22 4 20 5 21 6 19 7 14 8 15 9 16 10 18 11
REMARK SMILES IDX 17 12 12 13 11 14 13 16 10 17 6 18 7 19 91 20 8 21 9 22 5 23
REMARK SMILES IDX 1 24 2 25 3 26 96 27 4 28 95 29 92 30 93 31 94 32 26 35
REMARK SMILES IDX 27 36 28 37 29 38 30 39 31 40 32 41 90 42 33 43 89 44 34 45
REMARK SMILES IDX 35 46 36 47 83 48 37 49 88 50 82 51 84 52 38 53 87 54 81 55
REMARK SMILES IDX 80 56 39 58 69 59 50 60 68 61 51 62 54 63 67 64 85 65 52 66
REMARK SMILES IDX 53 67 66 69 86 70 55 71 40 72 41 73 49 74 42 75 48 76 43 77
REMARK SMILES IDX 44 78 45 79 46 80 47 81 70 82 71 83 79 84 72 85 78 86 73 87
REMARK SMILES IDX 74 88 75 89 76 90 77 91 56 92 57 93 65 94 58 95 64 96 59 97
REMARK SMILES IDX 60 98 61 99 62 100 63 101
REMARK H PARENT 11 15 93 33 93 34 84 57 54 68
REMARK Flexibility Score: inf
ROOT
ATOM      1  O   UNL     1     -10.804  -1.300  -0.282  1.00  0.00    -0.374 OA
ENDROOT
BRANCH   1   2
ATOM      2  C   UNL     1     -10.352  -1.515   1.049  1.00  0.00     0.202 C 
BRANCH   2   3
ATOM      3  C   UNL     1      -9.200  -2.473   0.964  1.00  0.00     0.261 C 
BRANCH   3   4
ATOM      4  O   UNL     1      -8.072  -1.926   0.253  1.00  0.00    -0.463 OA
BRANCH   4   5
ATOM      5  C   UNL     1      -8.226  -1.685  -1.068  1.00  0.00     0.310 C 
ATOM      6  O   UNL     1      -8.742  -2.440  -1.889  1.00  0.00    -0.252 OA
BRANCH   5   7
ATOM      7  C   UNL     1      -7.714  -0.342  -1.449  1.00  0.00     0.116 C 
ATOM      8  C   UNL     1      -7.833   0.736  -0.358  1.00  0.00     0.097 C 
ATOM      9  C   UNL     1      -7.514   2.114  -0.948  1.00  0.00     0.041 C 
ATOM     10  C   UNL     1      -6.552   2.095  -2.116  1.00  0.00    -0.030 C 
ATOM     11  C   UNL     1      -6.369  -0.401  -2.146  1.00  0.00     0.043 C 
ATOM     12  C   UNL     1      -6.019   0.976  -2.637  1.00  0.00    -0.030 C 
BRANCH   8  13
ATOM     13  C   UNL     1      -7.378   0.460   1.112  1.00  0.00     0.229 C 
ATOM     14  N   UNL     1      -6.222  -0.177   1.481  1.00  0.00    -0.317 N 
ATOM     15  H   UNL     1      -6.330  -0.949   2.082  1.00  0.00     0.170 HD
ATOM     16  O   UNL     1      -8.171   0.715   2.031  1.00  0.00    -0.274 OA
BRANCH  14  17
ATOM     17  C   UNL     1      -4.930   0.128   1.117  1.00  0.00     0.109 A 
ATOM     18  C   UNL     1      -2.713   0.164   0.447  1.00  0.00     0.010 A 
ATOM     19  C   UNL     1      -3.317   1.114  -0.366  1.00  0.00     0.012 A 
ATOM     20  C   UNL     1      -3.681  -0.443   1.377  1.00  0.00     0.082 A 
ATOM     21  C   UNL     1      -2.890   1.768  -1.635  1.00  0.00     0.057 C 
ATOM     22  S   UNL     1      -4.686   1.674   0.453  1.00  0.00    -0.122 S 
BRANCH  18  23
ATOM     23  C   UNL     1      -1.271  -0.011   0.325  1.00  0.00    -0.016 A 
ATOM     24  C   UNL     1       3.004  -0.216  -0.109  1.00  0.00     0.044 C 
ATOM     25  C   UNL     1       1.514  -0.142   0.011  1.00  0.00    -0.051 A 
ATOM     26  C   UNL     1       0.725  -1.298  -0.097  1.00  0.00     0.004 A 
ATOM     27  C   UNL     1       0.901   1.080   0.283  1.00  0.00     0.004 A 
ATOM     28  C   UNL     1      -0.667  -1.232   0.041  1.00  0.00     0.009 A 
ATOM     29  C   UNL     1      -0.473   1.137   0.462  1.00  0.00     0.009 A 
ENDBRANCH  18  23
BRANCH  20  30
ATOM     30  C   UNL     1      -3.342  -1.492   2.349  1.00  0.00     0.252 C 
ATOM     31  N   UNL     1      -4.240  -1.803   3.329  1.00  0.00    -0.365 N 
ATOM     32  O   UNL     1      -2.261  -2.077   2.376  1.00  0.00    -0.269 OA
ATOM     33  H   UNL     1      -5.119  -1.361   3.350  1.00  0.00     0.159 HD
ATOM     34  H   UNL     1      -4.008  -2.469   4.016  1.00  0.00     0.159 HD
ENDBRANCH  20  30
ENDBRANCH  14  17
ENDBRANCH   8  13
ENDBRANCH   5   7
ENDBRANCH   4   5
ENDBRANCH   3   4
ENDBRANCH   2   3
ENDBRANCH   1   2
BRANCH   1  35
ATOM     35  C   UNL     1     -11.955  -0.507  -0.459  1.00  0.00     0.202 C 
BRANCH  35  36
ATOM     36  C   UNL     1     -13.035  -0.591   0.627  1.00  0.00     0.261 C 
BRANCH  36  37
ATOM     37  O   UNL     1     -13.187  -1.862   1.304  1.00  0.00    -0.460 OA
BRANCH  37  38
ATOM     38  C   UNL     1     -13.828  -2.914   0.750  1.00  0.00     0.338 C 
ATOM     39  O   UNL     1     -15.033  -3.090   0.760  1.00  0.00    -0.246 OA
BRANCH  38  40
ATOM     40  C   UNL     1     -12.853  -3.853   0.159  1.00  0.00     0.060 A 
ATOM     41  C   UNL     1     -12.219  -4.873   0.885  1.00  0.00     0.016 A 
ATOM     42  C   UNL     1     -12.480  -3.588  -1.150  1.00  0.00     0.016 A 
ATOM     43  C   UNL     1     -11.124  -5.557   0.329  1.00  0.00     0.010 A 
ATOM     44  C   UNL     1     -11.339  -4.183  -1.648  1.00  0.00     0.010 A 
ATOM     45  C   UNL     1     -10.640  -5.162  -0.915  1.00  0.00    -0.014 A 
BRANCH  45  46
ATOM     46  C   UNL     1      -9.438  -5.663  -1.597  1.00  0.00     0.031 A 
ATOM     47  C   UNL     1      -9.656  -6.367  -2.878  1.00  0.00     0.074 A 
ATOM     48  C   UNL     1      -8.202  -5.204  -1.279  1.00  0.00     0.049 A 
ATOM     49  N   UNL     1      -8.717  -6.821  -3.624  1.00  0.00    -0.248 NA
ATOM     50  C   UNL     1     -10.986  -6.638  -3.427  1.00  0.00     0.031 C 
ATOM     51  C   UNL     1      -7.026  -5.029  -2.139  1.00  0.00     0.029 A 
ATOM     52  N   UNL     1      -7.727  -4.755  -0.048  1.00  0.00    -0.354 N 
ATOM     53  C   UNL     1      -9.259  -7.094  -4.856  1.00  0.00     0.074 A 
ATOM     54  C   UNL     1     -10.684  -7.082  -4.651  1.00  0.00     0.031 C 
ATOM     55  C   UNL     1      -5.935  -4.811  -1.376  1.00  0.00     0.029 A 
ATOM     56  C   UNL     1      -6.352  -4.996   0.006  1.00  0.00     0.049 A 
ATOM     57  H   UNL     1      -8.268  -4.339   0.662  1.00  0.00     0.167 HD
ATOM     58  C   UNL     1      -8.415  -7.153  -5.923  1.00  0.00     0.031 A 
ATOM     59  C   UNL     1      -5.867  -5.880   0.919  1.00  0.00     0.031 A 
ATOM     60  C   UNL     1      -7.018  -7.091  -5.470  1.00  0.00     0.049 A 
ATOM     61  C   UNL     1      -5.260  -7.015   0.145  1.00  0.00     0.074 A 
ATOM     62  C   UNL     1      -6.042  -6.109  -5.504  1.00  0.00     0.029 A 
ATOM     63  N   UNL     1      -6.579  -8.045  -4.552  1.00  0.00    -0.354 N 
ATOM     64  N   UNL     1      -5.698  -7.387  -1.030  1.00  0.00    -0.248 NA
ATOM     65  C   UNL     1      -4.016  -7.670   0.525  1.00  0.00     0.031 C 
ATOM     66  C   UNL     1      -5.060  -6.441  -4.519  1.00  0.00     0.029 A 
ATOM     67  C   UNL     1      -5.428  -7.633  -3.909  1.00  0.00     0.049 A 
ATOM     68  H   UNL     1      -7.032  -8.902  -4.383  1.00  0.00     0.167 HD
ATOM     69  C   UNL     1      -4.747  -8.157  -1.629  1.00  0.00     0.074 A 
ATOM     70  C   UNL     1      -3.745  -8.368  -0.592  1.00  0.00     0.031 C 
ATOM     71  C   UNL     1      -4.776  -8.515  -2.945  1.00  0.00     0.031 A 
BRANCH  58  72
ATOM     72  C   UNL     1      -8.839  -7.066  -7.373  1.00  0.00    -0.014 A 
ATOM     73  C   UNL     1      -7.857  -6.892  -8.370  1.00  0.00     0.010 A 
ATOM     74  C   UNL     1     -10.173  -7.094  -7.829  1.00  0.00     0.010 A 
ATOM     75  C   UNL     1      -8.185  -6.747  -9.729  1.00  0.00     0.020 A 
ATOM     76  C   UNL     1     -10.519  -6.954  -9.182  1.00  0.00     0.020 A 
ATOM     77  C   UNL     1      -9.519  -6.781 -10.128  1.00  0.00     0.054 A 
BRANCH  77  78
ATOM     78  S   UNL     1      -9.927  -6.613 -11.884  1.00  0.00     0.124 S 
ATOM     79  O   UNL     1      -9.400  -5.289 -12.204  1.00  0.00    -0.237 OA
ATOM     80  O   UNL     1      -9.213  -7.738 -12.481  1.00  0.00    -0.237 OA
ATOM     81  O   UNL     1     -11.385  -6.720 -11.915  1.00  0.00    -0.744 OA
ENDBRANCH  77  78
ENDBRANCH  58  72
BRANCH  59  82
ATOM     82  C   UNL     1      -6.694  -5.906   2.175  1.00  0.00    -0.014 A 
ATOM     83  C   UNL     1      -6.675  -4.736   2.980  1.00  0.00     0.010 A 
ATOM     84  C   UNL     1      -7.782  -6.784   2.325  1.00  0.00     0.010 A 
ATOM     85  C   UNL     1      -7.763  -4.386   3.792  1.00  0.00     0.020 A 
ATOM     86  C   UNL     1      -8.876  -6.436   3.144  1.00  0.00     0.020 A 
ATOM     87  C   UNL     1      -8.885  -5.211   3.819  1.00  0.00     0.054 A 
BRANCH  87  88
ATOM     88  S   UNL     1     -10.400  -4.605   4.630  1.00  0.00     0.124 S 
ATOM     89  O   UNL     1      -9.882  -3.861   5.776  1.00  0.00    -0.237 OA
ATOM     90  O   UNL     1     -10.992  -3.780   3.581  1.00  0.00    -0.237 OA
ATOM     91  O   UNL     1     -11.126  -5.828   4.954  1.00  0.00    -0.744 OA
ENDBRANCH  87  88
ENDBRANCH  59  82
BRANCH  71  92
ATOM     92  C   UNL     1      -4.159  -9.791  -3.445  1.00  0.00    -0.014 A 
ATOM     93  C   UNL     1      -3.721 -10.812  -2.590  1.00  0.00     0.010 A 
ATOM     94  C   UNL     1      -4.211 -10.081  -4.829  1.00  0.00     0.010 A 
ATOM     95  C   UNL     1      -3.301 -12.043  -3.090  1.00  0.00     0.020 A 
ATOM     96  C   UNL     1      -3.864 -11.332  -5.332  1.00  0.00     0.020 A 
ATOM     97  C   UNL     1      -3.383 -12.297  -4.457  1.00  0.00     0.054 A 
BRANCH  97  98
ATOM     98  S   UNL     1      -2.900 -13.924  -5.060  1.00  0.00     0.124 S 
ATOM     99  O   UNL     1      -1.442 -13.831  -5.021  1.00  0.00    -0.237 OA
ATOM    100  O   UNL     1      -3.498 -14.822  -4.074  1.00  0.00    -0.237 OA
ATOM    101  O   UNL     1      -3.489 -13.990  -6.394  1.00  0.00    -0.744 OA
ENDBRANCH  97  98
ENDBRANCH  71  92
ENDBRANCH  45  46
ENDBRANCH  38  40
ENDBRANCH  37  38
ENDBRANCH  36  37
ENDBRANCH  35  36
ENDBRANCH   1  35
TORSDOF 21
