REMARK SMILES CC(C)(C)OC(=O)N[C@H](Cc1ccc(N=[N+]=[N-])cc1)C(=O)OCCOCCOC(=O)c1ccc(-c2c3nc(c(-c4ccc(S(=O)(=O)[O-])cc4)c4ccc([nH]4)c(-c4ccc(S(=O)(=O)[O-])cc4)c4nc(c(-c5ccc(S(=O)(=O)[O-])cc5)c5ccc2[nH]5)C=C4)C=C3)cc1
REMARK SMILES IDX 25 1 24 2 23 3 22 4 20 5 21 6 9 7 8 8 6 9 7 10 5 12 2 13
REMARK SMILES IDX 1 14 3 15 4 16 10 17 11 18 12 19 19 20 13 21 18 22 14 23
REMARK SMILES IDX 15 24 16 25 17 26 26 27 27 28 28 29 29 30 30 31 31 32 32 33
REMARK SMILES IDX 90 34 33 35 89 36 34 37 35 38 36 39 83 40 37 41 88 42 82 43
REMARK SMILES IDX 84 44 38 45 87 46 81 47 80 48 39 50 69 51 50 52 68 53 51 54
REMARK SMILES IDX 54 55 67 56 85 57 52 58 53 59 66 61 86 62 55 63 40 64 41 65
REMARK SMILES IDX 49 66 42 67 48 68 43 69 44 70 45 71 46 72 47 73 70 74 71 75
REMARK SMILES IDX 79 76 72 77 78 78 73 79 74 80 75 81 76 82 77 83 56 84 57 85
REMARK SMILES IDX 65 86 58 87 64 88 59 89 60 90 61 91 62 92 63 93
REMARK H PARENT 8 11 84 49 54 60
REMARK Flexibility Score: inf
ROOT
ATOM      1  O   UNL     1      -0.833   4.910   4.746  1.00  0.00    -0.374 OA
ENDROOT
BRANCH   1   2
ATOM      2  C   UNL     1      -0.554   6.304   4.844  1.00  0.00     0.202 C 
BRANCH   2   3
ATOM      3  C   UNL     1       0.827   6.796   4.403  1.00  0.00     0.261 C 
BRANCH   3   4
ATOM      4  O   UNL     1       1.175   6.344   3.085  1.00  0.00    -0.462 OA
BRANCH   4   5
ATOM      5  C   UNL     1       2.197   5.452   3.042  1.00  0.00     0.329 C 
ATOM      6  O   UNL     1       2.872   5.114   4.013  1.00  0.00    -0.250 OA
BRANCH   5   7
ATOM      7  C   UNL     1       2.501   4.911   1.641  1.00  0.00     0.199 C 
BRANCH   7   8
ATOM      8  N   UNL     1       3.776   5.474   1.218  1.00  0.00    -0.308 N 
ATOM      9  C   UNL     1       4.009   6.741   0.786  1.00  0.00     0.408 C 
ATOM     10  O   UNL     1       5.156   7.124   0.608  1.00  0.00    -0.225 OA
ATOM     11  H   UNL     1       4.554   4.872   1.249  1.00  0.00     0.168 HD
BRANCH   9  12
ATOM     12  O   UNL     1       2.877   7.456   0.587  1.00  0.00    -0.444 OA
BRANCH  12  13
ATOM     13  C   UNL     1       2.964   8.814   0.076  1.00  0.00     0.106 C 
ATOM     14  C   UNL     1       1.511   9.273  -0.128  1.00  0.00     0.056 C 
ATOM     15  C   UNL     1       3.670   8.854  -1.286  1.00  0.00     0.056 C 
ATOM     16  C   UNL     1       3.626   9.739   1.103  1.00  0.00     0.056 C 
ENDBRANCH  12  13
ENDBRANCH   9  12
ENDBRANCH   7   8
BRANCH   7  17
ATOM     17  C   UNL     1       1.385   4.902   0.568  1.00  0.00     0.072 C 
BRANCH  17  18
ATOM     18  C   UNL     1       0.831   3.551   0.102  1.00  0.00    -0.045 A 
ATOM     19  C   UNL     1      -0.239   3.558  -0.810  1.00  0.00     0.004 A 
ATOM     20  C   UNL     1       1.335   2.301   0.482  1.00  0.00     0.004 A 
ATOM     21  C   UNL     1      -0.779   2.362  -1.309  1.00  0.00     0.010 A 
ATOM     22  C   UNL     1       0.788   1.108  -0.015  1.00  0.00     0.010 A 
ATOM     23  C   UNL     1      -0.275   1.118  -0.923  1.00  0.00     0.038 A 
BRANCH  23  24
ATOM     24  N   UNL     1      -0.886  -0.029  -1.469  1.00  0.00    -0.061 NA
ATOM     25  N   UNL     1      -0.315  -1.111  -1.254  1.00  0.00     0.005 N 
ATOM     26  N   UNL     1       0.200  -2.114  -1.060  1.00  0.00    -0.003 NA
ENDBRANCH  23  24
ENDBRANCH  17  18
ENDBRANCH   7  17
ENDBRANCH   5   7
ENDBRANCH   4   5
ENDBRANCH   3   4
ENDBRANCH   2   3
ENDBRANCH   1   2
BRANCH   1  27
ATOM     27  C   UNL     1      -0.991   4.334   3.451  1.00  0.00     0.202 C 
BRANCH  27  28
ATOM     28  C   UNL     1      -2.164   4.789   2.569  1.00  0.00     0.261 C 
BRANCH  28  29
ATOM     29  O   UNL     1      -2.124   6.186   2.223  1.00  0.00    -0.460 OA
BRANCH  29  30
ATOM     30  C   UNL     1      -3.133   6.922   2.756  1.00  0.00     0.338 C 
ATOM     31  O   UNL     1      -4.050   6.517   3.452  1.00  0.00    -0.246 OA
BRANCH  30  32
ATOM     32  C   UNL     1      -2.886   8.362   2.554  1.00  0.00     0.060 A 
ATOM     33  C   UNL     1      -2.771   9.168   3.695  1.00  0.00     0.016 A 
ATOM     34  C   UNL     1      -2.886   8.930   1.280  1.00  0.00     0.016 A 
ATOM     35  C   UNL     1      -2.695  10.552   3.567  1.00  0.00     0.010 A 
ATOM     36  C   UNL     1      -2.818  10.322   1.156  1.00  0.00     0.010 A 
ATOM     37  C   UNL     1      -2.755  11.141   2.298  1.00  0.00    -0.014 A 
BRANCH  37  38
ATOM     38  C   UNL     1      -2.865  12.616   2.178  1.00  0.00     0.031 A 
ATOM     39  C   UNL     1      -4.197  13.235   1.848  1.00  0.00     0.074 A 
ATOM     40  C   UNL     1      -1.790  13.398   2.388  1.00  0.00     0.049 A 
ATOM     41  N   UNL     1      -4.499  14.493   1.654  1.00  0.00    -0.248 NA
ATOM     42  C   UNL     1      -5.339  12.315   1.718  1.00  0.00     0.031 C 
ATOM     43  C   UNL     1      -0.460  12.920   2.764  1.00  0.00     0.029 A 
ATOM     44  N   UNL     1      -1.649  14.760   2.309  1.00  0.00    -0.354 N 
ATOM     45  C   UNL     1      -5.860  14.516   1.364  1.00  0.00     0.074 A 
ATOM     46  C   UNL     1      -6.317  13.144   1.382  1.00  0.00     0.031 C 
ATOM     47  C   UNL     1       0.365  13.975   2.879  1.00  0.00     0.029 A 
ATOM     48  C   UNL     1      -0.366  15.195   2.541  1.00  0.00     0.049 A 
ATOM     49  H   UNL     1      -2.396  15.369   2.105  1.00  0.00     0.167 HD
ATOM     50  C   UNL     1      -6.654  15.584   1.109  1.00  0.00     0.031 A 
ATOM     51  C   UNL     1       0.166  16.430   2.463  1.00  0.00     0.031 A 
ATOM     52  C   UNL     1      -6.188  16.947   1.081  1.00  0.00     0.049 A 
ATOM     53  C   UNL     1      -0.720  17.592   2.096  1.00  0.00     0.074 A 
ATOM     54  C   UNL     1      -6.918  18.101   0.851  1.00  0.00     0.029 A 
ATOM     55  N   UNL     1      -4.873  17.341   1.279  1.00  0.00    -0.354 N 
ATOM     56  N   UNL     1      -2.008  17.601   1.847  1.00  0.00    -0.248 NA
ATOM     57  C   UNL     1      -0.080  18.912   2.006  1.00  0.00     0.031 C 
ATOM     58  C   UNL     1      -6.033  19.183   0.837  1.00  0.00     0.029 A 
ATOM     59  C   UNL     1      -4.764  18.715   1.139  1.00  0.00     0.049 A 
ATOM     60  H   UNL     1      -4.127  16.734   1.488  1.00  0.00     0.167 HD
ATOM     61  C   UNL     1      -2.337  18.930   1.600  1.00  0.00     0.074 A 
ATOM     62  C   UNL     1      -1.117  19.697   1.747  1.00  0.00     0.031 C 
ATOM     63  C   UNL     1      -3.542  19.468   1.282  1.00  0.00     0.031 A 
BRANCH  50  64
ATOM     64  C   UNL     1      -8.106  15.321   0.797  1.00  0.00    -0.014 A 
ATOM     65  C   UNL     1      -8.999  14.863   1.783  1.00  0.00     0.010 A 
ATOM     66  C   UNL     1      -8.596  15.586  -0.496  1.00  0.00     0.010 A 
ATOM     67  C   UNL     1     -10.344  14.639   1.471  1.00  0.00     0.020 A 
ATOM     68  C   UNL     1      -9.946  15.394  -0.803  1.00  0.00     0.020 A 
ATOM     69  C   UNL     1     -10.808  14.906   0.180  1.00  0.00     0.054 A 
BRANCH  69  70
ATOM     70  S   UNL     1     -12.563  14.631  -0.188  1.00  0.00     0.124 S 
ATOM     71  O   UNL     1     -12.653  13.173  -0.151  1.00  0.00    -0.237 OA
ATOM     72  O   UNL     1     -13.232  15.329   0.907  1.00  0.00    -0.237 OA
ATOM     73  O   UNL     1     -12.741  15.231  -1.508  1.00  0.00    -0.744 OA
ENDBRANCH  69  70
ENDBRANCH  50  64
BRANCH  51  74
ATOM     74  C   UNL     1       1.621  16.628   2.712  1.00  0.00    -0.014 A 
ATOM     75  C   UNL     1       2.068  17.348   3.833  1.00  0.00     0.010 A 
ATOM     76  C   UNL     1       2.571  16.091   1.823  1.00  0.00     0.010 A 
ATOM     77  C   UNL     1       3.436  17.541   4.052  1.00  0.00     0.020 A 
ATOM     78  C   UNL     1       3.938  16.253   2.055  1.00  0.00     0.020 A 
ATOM     79  C   UNL     1       4.362  16.988   3.163  1.00  0.00     0.054 A 
BRANCH  79  80
ATOM     80  S   UNL     1       6.131  17.207   3.497  1.00  0.00     0.124 S 
ATOM     81  O   UNL     1       6.319  18.627   3.219  1.00  0.00    -0.237 OA
ATOM     82  O   UNL     1       6.235  16.817   4.901  1.00  0.00    -0.237 OA
ATOM     83  O   UNL     1       6.773  16.294   2.554  1.00  0.00    -0.744 OA
ENDBRANCH  79  80
ENDBRANCH  51  74
BRANCH  63  84
ATOM     84  C   UNL     1      -3.613  20.964   1.106  1.00  0.00    -0.014 A 
ATOM     85  C   UNL     1      -3.014  21.604   0.006  1.00  0.00     0.010 A 
ATOM     86  C   UNL     1      -4.337  21.737   2.034  1.00  0.00     0.010 A 
ATOM     87  C   UNL     1      -3.108  22.991  -0.143  1.00  0.00     0.020 A 
ATOM     88  C   UNL     1      -4.462  23.119   1.870  1.00  0.00     0.020 A 
ATOM     89  C   UNL     1      -3.834  23.739   0.789  1.00  0.00     0.054 A 
BRANCH  89  90
ATOM     90  S   UNL     1      -3.974  25.532   0.548  1.00  0.00     0.124 S 
ATOM     91  O   UNL     1      -2.620  25.987   0.850  1.00  0.00    -0.237 OA
ATOM     92  O   UNL     1      -4.375  25.635  -0.853  1.00  0.00    -0.237 OA
ATOM     93  O   UNL     1      -4.995  25.933   1.514  1.00  0.00    -0.744 OA
ENDBRANCH  89  90
ENDBRANCH  63  84
ENDBRANCH  37  38
ENDBRANCH  30  32
ENDBRANCH  29  30
ENDBRANCH  28  29
ENDBRANCH  27  28
ENDBRANCH   1  27
TORSDOF 23
