REMARK SMILES O=C(OCCOCCOC(=O)[C@@H]1[C@H](C(=O)Nc2ccccc2OC(F)F)[C@@H]2C=C[C@H]1C2)c1ccc(-c2c3nc(c(-c4ccc(S(=O)(=O)[O-])cc4)c4ccc([nH]4)c(-c4ccc(S(=O)(=O)[O-])cc4)c4nc(c(-c5ccc(S(=O)(=O)[O-])cc5)c5ccc2[nH]5)C=C4)C=C3)cc1
REMARK SMILES IDX 7 1 6 2 5 3 4 4 3 5 2 6 1 7 32 8 33 9 91 10 34 11 90 12
REMARK SMILES IDX 35 13 36 14 37 15 84 16 38 17 89 18 83 19 85 20 39 21 88 22
REMARK SMILES IDX 82 23 81 24 40 26 70 27 51 28 69 29 52 30 55 31 68 32 86 33
REMARK SMILES IDX 53 34 54 35 67 37 87 38 56 39 41 40 42 41 50 42 43 43 49 44
REMARK SMILES IDX 44 45 45 46 46 47 47 48 48 49 71 50 72 51 80 52 73 53 79 54
REMARK SMILES IDX 74 55 75 56 76 57 77 58 78 59 57 60 58 61 66 62 59 63 65 64
REMARK SMILES IDX 60 65 61 66 62 67 63 68 64 69 8 70 9 71 10 72 11 73 12 74
REMARK SMILES IDX 13 75 30 76 27 77 29 78 31 79 28 80 14 81 15 82 16 83 17 85
REMARK SMILES IDX 18 86 22 87 19 88 21 89 20 90 23 91 24 92 25 93 26 94
REMARK H PARENT 85 25 55 36 16 84
REMARK Flexibility Score: inf
ROOT
ATOM      1  C   UNL     1       1.858   1.306  -3.477  1.00  0.00     0.202 C 
ENDROOT
BRANCH   1   2
ATOM      2  O   UNL     1       1.924   1.965  -2.199  1.00  0.00    -0.374 OA
BRANCH   2   3
ATOM      3  C   UNL     1       2.795   1.347  -1.269  1.00  0.00     0.202 C 
BRANCH   3   4
ATOM      4  C   UNL     1       2.144   0.584  -0.098  1.00  0.00     0.261 C 
BRANCH   4   5
ATOM      5  O   UNL     1       0.815   1.054   0.236  1.00  0.00    -0.460 OA
BRANCH   5   6
ATOM      6  C   UNL     1       0.507   1.647   1.420  1.00  0.00     0.338 C 
ATOM      7  O   UNL     1      -0.605   1.567   1.929  1.00  0.00    -0.246 OA
BRANCH   6   8
ATOM      8  C   UNL     1       1.593   2.409   2.064  1.00  0.00     0.060 A 
ATOM      9  C   UNL     1       2.487   3.083   1.252  1.00  0.00     0.016 A 
ATOM     10  C   UNL     1       1.784   2.404   3.442  1.00  0.00     0.016 A 
ATOM     11  C   UNL     1       3.729   3.418   1.745  1.00  0.00     0.010 A 
ATOM     12  C   UNL     1       2.913   3.042   3.971  1.00  0.00     0.010 A 
ATOM     13  C   UNL     1       3.922   3.533   3.120  1.00  0.00    -0.014 A 
BRANCH  13  14
ATOM     14  C   UNL     1       5.135   4.235   3.630  1.00  0.00     0.031 A 
ATOM     15  C   UNL     1       5.897   3.670   4.796  1.00  0.00     0.074 A 
ATOM     16  C   UNL     1       5.540   5.392   3.055  1.00  0.00     0.049 A 
ATOM     17  N   UNL     1       6.711   4.281   5.614  1.00  0.00    -0.248 NA
ATOM     18  C   UNL     1       5.688   2.247   5.111  1.00  0.00     0.031 C 
ATOM     19  C   UNL     1       4.939   6.030   1.874  1.00  0.00     0.029 A 
ATOM     20  N   UNL     1       6.573   6.239   3.369  1.00  0.00    -0.354 N 
ATOM     21  C   UNL     1       7.007   3.359   6.612  1.00  0.00     0.074 A 
ATOM     22  C   UNL     1       6.329   2.129   6.266  1.00  0.00     0.031 C 
ATOM     23  C   UNL     1       5.680   7.075   1.494  1.00  0.00     0.029 A 
ATOM     24  C   UNL     1       6.672   7.320   2.520  1.00  0.00     0.049 A 
ATOM     25  H   UNL     1       7.184   6.089   4.126  1.00  0.00     0.167 HD
ATOM     26  C   UNL     1       7.742   3.558   7.733  1.00  0.00     0.031 A 
ATOM     27  C   UNL     1       7.401   8.447   2.603  1.00  0.00     0.031 A 
ATOM     28  C   UNL     1       8.439   4.790   8.002  1.00  0.00     0.049 A 
ATOM     29  C   UNL     1       8.211   8.647   3.845  1.00  0.00     0.074 A 
ATOM     30  C   UNL     1       9.180   5.149   9.113  1.00  0.00     0.029 A 
ATOM     31  N   UNL     1       8.501   5.861   7.117  1.00  0.00    -0.354 N 
ATOM     32  N   UNL     1       8.352   7.837   4.868  1.00  0.00    -0.248 NA
ATOM     33  C   UNL     1       8.919   9.923   3.969  1.00  0.00     0.031 C 
ATOM     34  C   UNL     1       9.671   6.445   8.907  1.00  0.00     0.029 A 
ATOM     35  C   UNL     1       9.278   6.873   7.647  1.00  0.00     0.049 A 
ATOM     36  H   UNL     1       8.056   5.893   6.239  1.00  0.00     0.167 HD
ATOM     37  C   UNL     1       9.176   8.503   5.761  1.00  0.00     0.074 A 
ATOM     38  C   UNL     1       9.518   9.772   5.142  1.00  0.00     0.031 C 
ATOM     39  C   UNL     1       9.603   8.112   6.986  1.00  0.00     0.031 A 
BRANCH  26  40
ATOM     40  C   UNL     1       7.734   2.468   8.775  1.00  0.00    -0.014 A 
ATOM     41  C   UNL     1       8.391   1.240   8.584  1.00  0.00     0.010 A 
ATOM     42  C   UNL     1       7.018   2.674   9.970  1.00  0.00     0.010 A 
ATOM     43  C   UNL     1       8.278   0.219   9.536  1.00  0.00     0.020 A 
ATOM     44  C   UNL     1       6.924   1.667  10.936  1.00  0.00     0.020 A 
ATOM     45  C   UNL     1       7.531   0.434  10.699  1.00  0.00     0.054 A 
BRANCH  45  46
ATOM     46  S   UNL     1       7.364  -0.917  11.900  1.00  0.00     0.124 S 
ATOM     47  O   UNL     1       6.396  -1.787  11.238  1.00  0.00    -0.237 OA
ATOM     48  O   UNL     1       8.724  -1.443  11.985  1.00  0.00    -0.237 OA
ATOM     49  O   UNL     1       6.881  -0.251  13.107  1.00  0.00    -0.744 OA
ENDBRANCH  45  46
ENDBRANCH  26  40
BRANCH  27  50
ATOM     50  C   UNL     1       7.308   9.488   1.539  1.00  0.00    -0.014 A 
ATOM     51  C   UNL     1       8.413   9.761   0.716  1.00  0.00     0.010 A 
ATOM     52  C   UNL     1       6.102  10.179   1.306  1.00  0.00     0.010 A 
ATOM     53  C   UNL     1       8.317  10.703  -0.314  1.00  0.00     0.020 A 
ATOM     54  C   UNL     1       5.989  11.092   0.254  1.00  0.00     0.020 A 
ATOM     55  C   UNL     1       7.104  11.359  -0.542  1.00  0.00     0.054 A 
BRANCH  55  56
ATOM     56  S   UNL     1       6.984  12.533  -1.921  1.00  0.00     0.124 S 
ATOM     57  O   UNL     1       7.690  13.694  -1.391  1.00  0.00    -0.237 OA
ATOM     58  O   UNL     1       7.659  11.821  -3.003  1.00  0.00    -0.237 OA
ATOM     59  O   UNL     1       5.544  12.701  -2.102  1.00  0.00    -0.744 OA
ENDBRANCH  55  56
ENDBRANCH  27  50
BRANCH  39  60
ATOM     60  C   UNL     1      10.546   9.044   7.685  1.00  0.00    -0.014 A 
ATOM     61  C   UNL     1      10.089  10.227   8.290  1.00  0.00     0.010 A 
ATOM     62  C   UNL     1      11.909   8.710   7.747  1.00  0.00     0.010 A 
ATOM     63  C   UNL     1      10.993  11.082   8.921  1.00  0.00     0.020 A 
ATOM     64  C   UNL     1      12.811   9.550   8.398  1.00  0.00     0.020 A 
ATOM     65  C   UNL     1      12.349  10.739   8.967  1.00  0.00     0.054 A 
BRANCH  65  66
ATOM     66  S   UNL     1      13.502  11.843   9.824  1.00  0.00     0.124 S 
ATOM     67  O   UNL     1      13.679  12.912   8.845  1.00  0.00    -0.237 OA
ATOM     68  O   UNL     1      12.763  12.208  11.030  1.00  0.00    -0.237 OA
ATOM     69  O   UNL     1      14.677  11.004  10.052  1.00  0.00    -0.744 OA
ENDBRANCH  65  66
ENDBRANCH  39  60
ENDBRANCH  13  14
ENDBRANCH   6   8
ENDBRANCH   5   6
ENDBRANCH   4   5
ENDBRANCH   3   4
ENDBRANCH   2   3
ENDBRANCH   1   2
BRANCH   1  70
ATOM     70  C   UNL     1       3.192   1.229  -4.271  1.00  0.00     0.261 C 
BRANCH  70  71
ATOM     71  O   UNL     1       3.770  -0.123  -4.334  1.00  0.00    -0.463 OA
BRANCH  71  72
ATOM     72  C   UNL     1       5.146  -0.190  -4.307  1.00  0.00     0.310 C 
ATOM     73  O   UNL     1       5.843   0.819  -4.235  1.00  0.00    -0.252 OA
BRANCH  72  74
ATOM     74  C   UNL     1       5.738  -1.604  -4.582  1.00  0.00     0.119 C 
ATOM     75  C   UNL     1       5.866  -3.008  -3.800  1.00  0.00     0.100 C 
ATOM     76  C   UNL     1       7.234  -1.385  -5.009  1.00  0.00     0.027 C 
ATOM     77  C   UNL     1       7.383  -3.346  -3.963  1.00  0.00     0.025 C 
ATOM     78  C   UNL     1       8.078  -1.177  -3.771  1.00  0.00    -0.027 C 
ATOM     79  C   UNL     1       7.674  -2.806  -5.358  1.00  0.00     0.017 C 
ATOM     80  C   UNL     1       8.181  -2.359  -3.152  1.00  0.00    -0.027 C 
BRANCH  75  81
ATOM     81  C   UNL     1       5.464  -3.752  -2.484  1.00  0.00     0.229 C 
ATOM     82  O   UNL     1       4.922  -4.864  -2.600  1.00  0.00    -0.274 OA
ATOM     83  N   UNL     1       5.765  -3.389  -1.205  1.00  0.00    -0.323 N 
ATOM     84  H   UNL     1       5.860  -4.128  -0.561  1.00  0.00     0.170 HD
BRANCH  83  85
ATOM     85  C   UNL     1       5.954  -2.111  -0.691  1.00  0.00     0.084 A 
ATOM     86  C   UNL     1       6.787  -1.897   0.410  1.00  0.00     0.030 A 
ATOM     87  C   UNL     1       5.334  -1.041  -1.289  1.00  0.00     0.149 A 
ATOM     88  C   UNL     1       7.201  -0.597   0.725  1.00  0.00     0.002 A 
ATOM     89  C   UNL     1       5.859   0.239  -1.075  1.00  0.00     0.049 A 
ATOM     90  C   UNL     1       6.796   0.466  -0.072  1.00  0.00     0.004 A 
BRANCH  87  91
ATOM     91  O   UNL     1       4.270  -1.182  -2.125  1.00  0.00    -0.433 OA
BRANCH  91  92
ATOM     92  C   UNL     1       3.205  -2.118  -1.909  1.00  0.00     0.542 C 
ATOM     93  F   UNL     1       3.136  -2.502  -0.618  1.00  0.00    -0.167 F 
ATOM     94  F   UNL     1       2.045  -1.477  -2.200  1.00  0.00    -0.167 F 
ENDBRANCH  91  92
ENDBRANCH  87  91
ENDBRANCH  83  85
ENDBRANCH  75  81
ENDBRANCH  72  74
ENDBRANCH  71  72
ENDBRANCH  70  71
ENDBRANCH   1  70
TORSDOF 21
