REMARK SMILES Cc1cscc1-c1noc(SCC(=O)OCCOCCOC(=O)c2ccc(-c3c4nc(c(-c5ccc(S(=O)(=O)[O-])cc5)c5ccc([nH]5)c(-c5ccc(S(=O)(=O)[O-])cc5)c5nc(c(-c6ccc(S(=O)(=O)[O-])cc6)c6ccc3[nH]6)C=C5)C=C4)cc2)n1
REMARK SMILES IDX 18 1 17 2 16 3 15 4 13 5 14 6 12 7 11 8 10 9 7 10 8 11 84 12
REMARK SMILES IDX 9 13 6 14 1 15 2 16 3 17 4 18 5 19 19 20 20 21 21 22 22 23
REMARK SMILES IDX 23 24 24 25 25 26 83 27 26 28 82 29 27 30 28 31 29 32 76 33
REMARK SMILES IDX 30 34 81 35 75 36 77 37 31 38 80 39 74 40 73 41 32 43 62 44
REMARK SMILES IDX 43 45 61 46 44 47 47 48 60 49 78 50 45 51 46 52 59 54 79 55
REMARK SMILES IDX 48 56 33 57 34 58 42 59 35 60 41 61 36 62 37 63 38 64 39 65
REMARK SMILES IDX 40 66 63 67 64 68 72 69 65 70 71 71 66 72 67 73 68 74 69 75
REMARK SMILES IDX 70 76 49 77 50 78 58 79 51 80 57 81 52 82 53 83 54 84 55 85
REMARK SMILES IDX 56 86
REMARK H PARENT 77 42 47 53
REMARK Flexibility Score: inf
ROOT
ATOM      1  O   UNL     1       5.099   0.072  -1.913  1.00  0.00    -0.374 OA
ENDROOT
BRANCH   1   2
ATOM      2  C   UNL     1       6.436   0.553  -1.852  1.00  0.00     0.202 C 
BRANCH   2   3
ATOM      3  C   UNL     1       6.783   1.890  -2.538  1.00  0.00     0.261 C 
BRANCH   3   4
ATOM      4  O   UNL     1       5.790   2.935  -2.391  1.00  0.00    -0.463 OA
BRANCH   4   5
ATOM      5  C   UNL     1       5.193   3.351  -3.543  1.00  0.00     0.316 C 
ATOM      6  O   UNL     1       5.553   2.990  -4.663  1.00  0.00    -0.251 OA
BRANCH   5   7
ATOM      7  C   UNL     1       3.955   4.222  -3.395  1.00  0.00     0.202 C 
BRANCH   7   8
ATOM      8  S   UNL     1       3.600   4.978  -1.807  1.00  0.00    -0.053 SA
BRANCH   8   9
ATOM      9  C   UNL     1       2.243   4.102  -1.111  1.00  0.00     0.286 A 
ATOM     10  C   UNL     1       0.950   2.577  -0.395  1.00  0.00     0.204 A 
ATOM     11  N   UNL     1       0.837   3.541   0.526  1.00  0.00    -0.056 NA
ATOM     12  N   UNL     1       1.770   2.917  -1.467  1.00  0.00    -0.181 NA
ATOM     13  O   UNL     1       1.695   4.535   0.071  1.00  0.00    -0.327 OA
BRANCH  10  14
ATOM     14  C   UNL     1       0.067   1.388  -0.381  1.00  0.00     0.036 A 
ATOM     15  C   UNL     1       1.639  -0.610   0.489  1.00  0.00     0.046 C 
ATOM     16  C   UNL     1       0.374   0.011  -0.016  1.00  0.00    -0.029 A 
ATOM     17  C   UNL     1      -0.758  -0.783  -0.137  1.00  0.00     0.069 A 
ATOM     18  S   UNL     1      -2.164   0.088  -0.528  1.00  0.00    -0.151 S 
ATOM     19  C   UNL     1      -1.290   1.547  -0.601  1.00  0.00     0.077 A 
ENDBRANCH  10  14
ENDBRANCH   8   9
ENDBRANCH   7   8
ENDBRANCH   5   7
ENDBRANCH   4   5
ENDBRANCH   3   4
ENDBRANCH   2   3
ENDBRANCH   1   2
BRANCH   1  20
ATOM     20  C   UNL     1       4.071   0.962  -1.524  1.00  0.00     0.202 C 
BRANCH  20  21
ATOM     21  C   UNL     1       4.139   1.648  -0.154  1.00  0.00     0.261 C 
BRANCH  21  22
ATOM     22  O   UNL     1       5.373   1.638   0.521  1.00  0.00    -0.460 OA
BRANCH  22  23
ATOM     23  C   UNL     1       5.424   0.819   1.583  1.00  0.00     0.338 C 
ATOM     24  O   UNL     1       4.633  -0.031   1.948  1.00  0.00    -0.246 OA
BRANCH  23  25
ATOM     25  C   UNL     1       6.681   1.168   2.223  1.00  0.00     0.060 A 
ATOM     26  C   UNL     1       7.740   0.272   2.115  1.00  0.00     0.016 A 
ATOM     27  C   UNL     1       6.805   2.417   2.844  1.00  0.00     0.016 A 
ATOM     28  C   UNL     1       8.947   0.610   2.698  1.00  0.00     0.010 A 
ATOM     29  C   UNL     1       8.021   2.760   3.409  1.00  0.00     0.010 A 
ATOM     30  C   UNL     1       9.076   1.837   3.368  1.00  0.00    -0.014 A 
BRANCH  30  31
ATOM     31  C   UNL     1      10.295   2.090   4.147  1.00  0.00     0.031 A 
ATOM     32  C   UNL     1      10.239   1.905   5.632  1.00  0.00     0.074 A 
ATOM     33  C   UNL     1      11.423   2.430   3.505  1.00  0.00     0.049 A 
ATOM     34  N   UNL     1      11.196   2.019   6.510  1.00  0.00    -0.248 NA
ATOM     35  C   UNL     1       8.929   1.546   6.207  1.00  0.00     0.031 C 
ATOM     36  C   UNL     1      11.547   2.611   2.057  1.00  0.00     0.029 A 
ATOM     37  N   UNL     1      12.678   2.670   3.986  1.00  0.00    -0.354 N 
ATOM     38  C   UNL     1      10.607   1.752   7.739  1.00  0.00     0.074 A 
ATOM     39  C   UNL     1       9.203   1.510   7.502  1.00  0.00     0.031 C 
ATOM     40  C   UNL     1      12.821   2.920   1.766  1.00  0.00     0.029 A 
ATOM     41  C   UNL     1      13.585   2.989   3.007  1.00  0.00     0.049 A 
ATOM     42  H   UNL     1      12.910   2.620   4.941  1.00  0.00     0.167 HD
ATOM     43  C   UNL     1      11.198   1.705   8.955  1.00  0.00     0.031 A 
ATOM     44  C   UNL     1      14.887   3.309   3.114  1.00  0.00     0.031 A 
ATOM     45  C   UNL     1      12.596   1.970   9.157  1.00  0.00     0.049 A 
ATOM     46  C   UNL     1      15.511   3.294   4.482  1.00  0.00     0.074 A 
ATOM     47  C   UNL     1      13.318   1.940  10.335  1.00  0.00     0.029 A 
ATOM     48  N   UNL     1      13.482   2.324   8.148  1.00  0.00    -0.354 N 
ATOM     49  N   UNL     1      14.955   3.002   5.635  1.00  0.00    -0.248 NA
ATOM     50  C   UNL     1      16.934   3.638   4.563  1.00  0.00     0.031 C 
ATOM     51  C   UNL     1      14.629   2.335  10.046  1.00  0.00     0.029 A 
ATOM     52  C   UNL     1      14.740   2.544   8.678  1.00  0.00     0.049 A 
ATOM     53  H   UNL     1      13.249   2.405   7.195  1.00  0.00     0.167 HD
ATOM     54  C   UNL     1      15.967   3.106   6.581  1.00  0.00     0.074 A 
ATOM     55  C   UNL     1      17.171   3.470   5.858  1.00  0.00     0.031 C 
ATOM     56  C   UNL     1      15.912   2.917   7.924  1.00  0.00     0.031 A 
BRANCH  43  57
ATOM     57  C   UNL     1      10.322   1.401  10.141  1.00  0.00    -0.014 A 
ATOM     58  C   UNL     1       9.749   0.129  10.324  1.00  0.00     0.010 A 
ATOM     59  C   UNL     1      10.070   2.406  11.092  1.00  0.00     0.010 A 
ATOM     60  C   UNL     1       8.907  -0.119  11.412  1.00  0.00     0.020 A 
ATOM     61  C   UNL     1       9.253   2.153  12.198  1.00  0.00     0.020 A 
ATOM     62  C   UNL     1       8.662   0.896  12.341  1.00  0.00     0.054 A 
BRANCH  62  63
ATOM     63  S   UNL     1       7.578   0.543  13.752  1.00  0.00     0.124 S 
ATOM     64  O   UNL     1       6.265   0.478  13.115  1.00  0.00    -0.237 OA
ATOM     65  O   UNL     1       8.100  -0.728  14.246  1.00  0.00    -0.237 OA
ATOM     66  O   UNL     1       7.782   1.685  14.641  1.00  0.00    -0.744 OA
ENDBRANCH  62  63
ENDBRANCH  43  57
BRANCH  44  67
ATOM     67  C   UNL     1      15.661   3.664   1.895  1.00  0.00    -0.014 A 
ATOM     68  C   UNL     1      16.656   2.807   1.397  1.00  0.00     0.010 A 
ATOM     69  C   UNL     1      15.368   4.851   1.196  1.00  0.00     0.010 A 
ATOM     70  C   UNL     1      17.350   3.134   0.227  1.00  0.00     0.020 A 
ATOM     71  C   UNL     1      16.039   5.167   0.013  1.00  0.00     0.020 A 
ATOM     72  C   UNL     1      17.033   4.310  -0.460  1.00  0.00     0.054 A 
BRANCH  72  73
ATOM     73  S   UNL     1      17.902   4.680  -2.009  1.00  0.00     0.124 S 
ATOM     74  O   UNL     1      19.232   5.044  -1.532  1.00  0.00    -0.237 OA
ATOM     75  O   UNL     1      17.811   3.413  -2.730  1.00  0.00    -0.237 OA
ATOM     76  O   UNL     1      17.121   5.773  -2.586  1.00  0.00    -0.744 OA
ENDBRANCH  72  73
ENDBRANCH  44  67
BRANCH  56  77
ATOM     77  C   UNL     1      17.198   3.077   8.687  1.00  0.00    -0.014 A 
ATOM     78  C   UNL     1      17.769   4.345   8.892  1.00  0.00     0.010 A 
ATOM     79  C   UNL     1      17.810   1.944   9.253  1.00  0.00     0.010 A 
ATOM     80  C   UNL     1      18.953   4.472   9.622  1.00  0.00     0.020 A 
ATOM     81  C   UNL     1      18.974   2.071  10.011  1.00  0.00     0.020 A 
ATOM     82  C   UNL     1      19.547   3.334  10.177  1.00  0.00     0.054 A 
BRANCH  82  83
ATOM     83  S   UNL     1      21.059   3.531  11.155  1.00  0.00     0.124 S 
ATOM     84  O   UNL     1      22.054   3.808  10.123  1.00  0.00    -0.237 OA
ATOM     85  O   UNL     1      20.731   4.655  12.029  1.00  0.00    -0.237 OA
ATOM     86  O   UNL     1      21.205   2.244  11.833  1.00  0.00    -0.744 OA
ENDBRANCH  82  83
ENDBRANCH  56  77
ENDBRANCH  30  31
ENDBRANCH  23  25
ENDBRANCH  22  23
ENDBRANCH  21  22
ENDBRANCH  20  21
ENDBRANCH   1  20
TORSDOF 20
