REMARK SMILES CC(C)(C)OC(=O)N1C[C@H](Oc2ccncc2)C[C@H]1C(=O)OCCOCCOC(=O)c1ccc(-c2c3nc(c(-c4ccc(S(=O)(=O)[O-])cc4)c4ccc([nH]4)c(-c4ccc(S(=O)(=O)[O-])cc4)c4nc(c(-c5ccc(S(=O)(=O)[O-])cc5)c5ccc2[nH]5)C=C4)C=C3)cc1
REMARK SMILES IDX 25 1 24 2 23 3 22 4 20 5 21 6 19 7 8 8 9 9 10 10 18 11 6 12
REMARK SMILES IDX 7 13 5 14 2 15 1 16 3 17 4 18 11 19 12 20 13 21 17 22 14 23
REMARK SMILES IDX 16 24 15 25 26 26 27 27 28 28 29 29 30 30 31 31 32 32 90 33
REMARK SMILES IDX 33 34 89 35 34 36 35 37 36 38 83 39 37 40 88 41 82 42 84 43
REMARK SMILES IDX 38 44 87 45 81 46 80 47 39 49 69 50 50 51 68 52 51 53 54 54
REMARK SMILES IDX 67 55 85 56 52 57 53 58 66 60 86 61 55 62 40 63 41 64 49 65
REMARK SMILES IDX 42 66 48 67 43 68 44 69 45 70 46 71 47 72 70 73 71 74 79 75
REMARK SMILES IDX 72 76 78 77 73 78 74 79 75 80 76 81 77 82 56 83 57 84 65 85
REMARK SMILES IDX 58 86 64 87 59 88 60 89 61 90 62 91 63 92
REMARK H PARENT 84 48 54 59
REMARK Flexibility Score: inf
ROOT
ATOM      1  O   UNL     1      -1.199  -9.126   2.195  1.00  0.00    -0.374 OA
ENDROOT
BRANCH   1   2
ATOM      2  C   UNL     1      -0.769  -8.356   3.320  1.00  0.00     0.202 C 
BRANCH   2   3
ATOM      3  C   UNL     1       0.584  -7.654   3.190  1.00  0.00     0.261 C 
BRANCH   3   4
ATOM      4  O   UNL     1       0.506  -6.660   2.162  1.00  0.00    -0.462 OA
BRANCH   4   5
ATOM      5  C   UNL     1       1.315  -6.831   1.085  1.00  0.00     0.329 C 
ATOM      6  O   UNL     1       2.259  -7.609   1.026  1.00  0.00    -0.250 OA
BRANCH   5   7
ATOM      7  C   UNL     1       0.847  -5.938  -0.073  1.00  0.00     0.202 C 
ATOM      8  N   UNL     1       1.362  -4.593   0.047  1.00  0.00    -0.291 N 
ATOM      9  C   UNL     1       2.562  -4.434  -0.745  1.00  0.00     0.169 C 
ATOM     10  C   UNL     1       2.342  -5.380  -1.929  1.00  0.00     0.195 C 
ATOM     11  C   UNL     1       1.370  -6.460  -1.422  1.00  0.00     0.084 C 
BRANCH   8  12
ATOM     12  C   UNL     1       0.670  -3.634   0.742  1.00  0.00     0.411 C 
ATOM     13  O   UNL     1      -0.290  -3.896   1.454  1.00  0.00    -0.224 OA
BRANCH  12  14
ATOM     14  O   UNL     1       1.133  -2.389   0.487  1.00  0.00    -0.444 OA
BRANCH  14  15
ATOM     15  C   UNL     1       0.538  -1.215   1.106  1.00  0.00     0.106 C 
ATOM     16  C   UNL     1       1.086  -0.036   0.287  1.00  0.00     0.056 C 
ATOM     17  C   UNL     1       1.031  -1.109   2.549  1.00  0.00     0.056 C 
ATOM     18  C   UNL     1      -0.996  -1.165   1.036  1.00  0.00     0.056 C 
ENDBRANCH  14  15
ENDBRANCH  12  14
ENDBRANCH   8  12
BRANCH  10  19
ATOM     19  O   UNL     1       1.942  -4.752  -3.164  1.00  0.00    -0.488 OA
BRANCH  19  20
ATOM     20  C   UNL     1       0.722  -4.140  -3.190  1.00  0.00     0.122 A 
ATOM     21  C   UNL     1       0.546  -2.859  -2.689  1.00  0.00     0.066 A 
ATOM     22  C   UNL     1      -0.325  -4.762  -3.859  1.00  0.00     0.066 A 
ATOM     23  C   UNL     1      -0.710  -2.288  -2.786  1.00  0.00     0.115 A 
ATOM     24  C   UNL     1      -1.542  -4.105  -3.918  1.00  0.00     0.115 A 
ATOM     25  N   UNL     1      -1.762  -2.886  -3.383  1.00  0.00    -0.264 NA
ENDBRANCH  19  20
ENDBRANCH  10  19
ENDBRANCH   5   7
ENDBRANCH   4   5
ENDBRANCH   3   4
ENDBRANCH   2   3
ENDBRANCH   1   2
BRANCH   1  26
ATOM     26  C   UNL     1      -1.748  -8.423   1.079  1.00  0.00     0.202 C 
BRANCH  26  27
ATOM     27  C   UNL     1      -3.162  -7.841   1.210  1.00  0.00     0.261 C 
BRANCH  27  28
ATOM     28  O   UNL     1      -3.249  -6.781   2.174  1.00  0.00    -0.460 OA
BRANCH  28  29
ATOM     29  C   UNL     1      -3.869  -7.116   3.332  1.00  0.00     0.338 C 
ATOM     30  O   UNL     1      -4.373  -8.191   3.612  1.00  0.00    -0.246 OA
BRANCH  29  31
ATOM     31  C   UNL     1      -3.685  -6.040   4.324  1.00  0.00     0.060 A 
ATOM     32  C   UNL     1      -3.085  -6.372   5.547  1.00  0.00     0.016 A 
ATOM     33  C   UNL     1      -4.163  -4.751   4.092  1.00  0.00     0.016 A 
ATOM     34  C   UNL     1      -2.993  -5.420   6.562  1.00  0.00     0.010 A 
ATOM     35  C   UNL     1      -4.084  -3.804   5.116  1.00  0.00     0.010 A 
ATOM     36  C   UNL     1      -3.528  -4.143   6.364  1.00  0.00    -0.014 A 
BRANCH  36  37
ATOM     37  C   UNL     1      -3.646  -3.195   7.497  1.00  0.00     0.031 A 
ATOM     38  C   UNL     1      -4.987  -3.031   8.159  1.00  0.00     0.074 A 
ATOM     39  C   UNL     1      -2.589  -2.470   7.905  1.00  0.00     0.049 A 
ATOM     40  N   UNL     1      -5.363  -2.163   9.061  1.00  0.00    -0.248 NA
ATOM     41  C   UNL     1      -6.049  -3.966   7.745  1.00  0.00     0.031 C 
ATOM     42  C   UNL     1      -1.230  -2.581   7.375  1.00  0.00     0.029 A 
ATOM     43  N   UNL     1      -2.502  -1.474   8.846  1.00  0.00    -0.354 N 
ATOM     44  C   UNL     1      -6.709  -2.419   9.293  1.00  0.00     0.074 A 
ATOM     45  C   UNL     1      -7.087  -3.524   8.441  1.00  0.00     0.031 C 
ATOM     46  C   UNL     1      -0.450  -1.669   7.981  1.00  0.00     0.029 A 
ATOM     47  C   UNL     1      -1.263  -0.878   8.903  1.00  0.00     0.049 A 
ATOM     48  H   UNL     1      -3.253  -1.212   9.425  1.00  0.00     0.167 HD
ATOM     49  C   UNL     1      -7.554  -1.779  10.134  1.00  0.00     0.031 A 
ATOM     50  C   UNL     1      -0.849   0.208   9.585  1.00  0.00     0.031 A 
ATOM     51  C   UNL     1      -7.164  -0.687  10.985  1.00  0.00     0.049 A 
ATOM     52  C   UNL     1      -1.830   0.943  10.466  1.00  0.00     0.074 A 
ATOM     53  C   UNL     1      -7.936  -0.004  11.908  1.00  0.00     0.029 A 
ATOM     54  N   UNL     1      -5.903  -0.114  11.011  1.00  0.00    -0.354 N 
ATOM     55  N   UNL     1      -3.089   0.664  10.708  1.00  0.00    -0.248 NA
ATOM     56  C   UNL     1      -1.337   2.139  11.165  1.00  0.00     0.031 C 
ATOM     57  C   UNL     1      -7.162   1.028  12.441  1.00  0.00     0.029 A 
ATOM     58  C   UNL     1      -5.886   0.939  11.907  1.00  0.00     0.049 A 
ATOM     59  H   UNL     1      -5.135  -0.411  10.472  1.00  0.00     0.167 HD
ATOM     60  C   UNL     1      -3.521   1.622  11.621  1.00  0.00     0.074 A 
ATOM     61  C   UNL     1      -2.393   2.487  11.889  1.00  0.00     0.031 C 
ATOM     62  C   UNL     1      -4.743   1.769  12.189  1.00  0.00     0.031 A 
BRANCH  49  63
ATOM     63  C   UNL     1      -8.998  -2.201  10.156  1.00  0.00    -0.014 A 
ATOM     64  C   UNL     1      -9.404  -3.404  10.758  1.00  0.00     0.010 A 
ATOM     65  C   UNL     1      -9.975  -1.320   9.655  1.00  0.00     0.010 A 
ATOM     66  C   UNL     1     -10.763  -3.721  10.852  1.00  0.00     0.020 A 
ATOM     67  C   UNL     1     -11.334  -1.621   9.769  1.00  0.00     0.020 A 
ATOM     68  C   UNL     1     -11.719  -2.824  10.363  1.00  0.00     0.054 A 
BRANCH  68  69
ATOM     69  S   UNL     1     -13.476  -3.227  10.568  1.00  0.00     0.124 S 
ATOM     70  O   UNL     1     -13.645  -4.327   9.623  1.00  0.00    -0.237 OA
ATOM     71  O   UNL     1     -13.556  -3.595  11.979  1.00  0.00    -0.237 OA
ATOM     72  O   UNL     1     -14.162  -1.988  10.210  1.00  0.00    -0.744 OA
ENDBRANCH  68  69
ENDBRANCH  49  63
BRANCH  50  73
ATOM     73  C   UNL     1       0.545   0.712   9.428  1.00  0.00    -0.014 A 
ATOM     74  C   UNL     1       1.441   0.701  10.512  1.00  0.00     0.010 A 
ATOM     75  C   UNL     1       0.970   1.252   8.200  1.00  0.00     0.010 A 
ATOM     76  C   UNL     1       2.718   1.258  10.383  1.00  0.00     0.020 A 
ATOM     77  C   UNL     1       2.256   1.779   8.057  1.00  0.00     0.020 A 
ATOM     78  C   UNL     1       3.115   1.798   9.157  1.00  0.00     0.054 A 
BRANCH  78  79
ATOM     79  S   UNL     1       4.775   2.515   9.010  1.00  0.00     0.124 S 
ATOM     80  O   UNL     1       4.634   3.760   9.758  1.00  0.00    -0.237 OA
ATOM     81  O   UNL     1       5.616   1.494   9.630  1.00  0.00    -0.237 OA
ATOM     82  O   UNL     1       4.955   2.668   7.568  1.00  0.00    -0.744 OA
ENDBRANCH  78  79
ENDBRANCH  50  73
BRANCH  62  83
ATOM     83  C   UNL     1      -4.923   2.853  13.219  1.00  0.00    -0.014 A 
ATOM     84  C   UNL     1      -5.008   4.207  12.854  1.00  0.00     0.010 A 
ATOM     85  C   UNL     1      -5.130   2.489  14.563  1.00  0.00     0.010 A 
ATOM     86  C   UNL     1      -5.292   5.179  13.818  1.00  0.00     0.020 A 
ATOM     87  C   UNL     1      -5.442   3.454  15.523  1.00  0.00     0.020 A 
ATOM     88  C   UNL     1      -5.517   4.795  15.144  1.00  0.00     0.054 A 
BRANCH  88  89
ATOM     89  S   UNL     1      -5.978   6.064  16.355  1.00  0.00     0.124 S 
ATOM     90  O   UNL     1      -4.721   6.786  16.534  1.00  0.00    -0.237 OA
ATOM     91  O   UNL     1      -7.032   6.800  15.662  1.00  0.00    -0.237 OA
ATOM     92  O   UNL     1      -6.423   5.294  17.515  1.00  0.00    -0.744 OA
ENDBRANCH  88  89
ENDBRANCH  62  83
ENDBRANCH  36  37
ENDBRANCH  29  31
ENDBRANCH  28  29
ENDBRANCH  27  28
ENDBRANCH  26  27
ENDBRANCH   1  26
TORSDOF 22
