REMARK SMILES Cn1ccnc1N[C@H]1CCCCC[C@@H]1C(=O)OCCOCCOC(=O)c1ccc(-c2c3nc(c(-c4ccc(S(=O)(=O)[O-])cc4)c4ccc([nH]4)c(-c4ccc(S(=O)(=O)[O-])cc4)c4nc(c(-c5ccc(S(=O)(=O)[O-])cc5)c5ccc2[nH]5)C=C4)C=C3)cc1
REMARK SMILES IDX 20 1 19 2 18 3 17 4 15 5 16 6 14 7 8 8 7 9 6 11 1 12 2 13
REMARK SMILES IDX 3 14 4 15 5 16 9 17 10 18 13 20 12 21 11 22 21 24 22 25
REMARK SMILES IDX 23 26 24 27 25 28 26 29 27 30 85 31 28 32 84 33 29 34 30 35
REMARK SMILES IDX 31 36 78 37 32 38 83 39 77 40 79 41 33 42 82 43 76 44 75 45
REMARK SMILES IDX 34 47 64 48 45 49 63 50 46 51 49 52 62 53 80 54 47 55 48 56
REMARK SMILES IDX 61 58 81 59 50 60 35 61 36 62 44 63 37 64 43 65 38 66 39 67
REMARK SMILES IDX 40 68 41 69 42 70 65 71 66 72 74 73 67 74 73 75 68 76 69 77
REMARK SMILES IDX 70 78 71 79 72 80 51 81 52 82 60 83 53 84 59 85 54 86 55 87
REMARK SMILES IDX 56 88 57 89 58 90
REMARK H PARENT 7 10 79 46 49 57
REMARK Flexibility Score: 100.00
ROOT
ATOM      1  O   UNL     1       0.429  -0.144  -3.177  1.00  0.00    -0.374 OA
ENDROOT
BRANCH   1   2
ATOM      2  C   UNL     1       1.610   0.604  -2.858  1.00  0.00     0.202 C 
BRANCH   2   3
ATOM      3  C   UNL     1       1.489   2.121  -3.031  1.00  0.00     0.261 C 
BRANCH   3   4
ATOM      4  O   UNL     1       0.656   2.666  -1.988  1.00  0.00    -0.463 OA
BRANCH   4   5
ATOM      5  C   UNL     1      -0.252   3.597  -2.365  1.00  0.00     0.311 C 
ATOM      6  O   UNL     1      -0.322   4.090  -3.487  1.00  0.00    -0.252 OA
BRANCH   5   7
ATOM      7  C   UNL     1      -1.301   3.881  -1.300  1.00  0.00     0.121 C 
BRANCH   7   8
ATOM      8  C   UNL     1      -0.763   3.853   0.151  1.00  0.00     0.096 C 
BRANCH   8   9
ATOM      9  N   UNL     1       0.027   5.070   0.389  1.00  0.00    -0.352 N 
ATOM     10  H   UNL     1       0.047   5.777  -0.295  1.00  0.00     0.163 HD
BRANCH   9  11
ATOM     11  C   UNL     1       0.726   5.231   1.534  1.00  0.00     0.202 A 
ATOM     12  C   UNL     1       1.523   7.590   1.039  1.00  0.00     0.153 C 
ATOM     13  N   UNL     1       1.377   6.403   1.843  1.00  0.00    -0.321 N 
ATOM     14  C   UNL     1       1.865   6.289   3.120  1.00  0.00     0.109 A 
ATOM     15  C   UNL     1       1.539   5.015   3.511  1.00  0.00     0.133 A 
ATOM     16  N   UNL     1       0.848   4.370   2.520  1.00  0.00    -0.222 NA
ENDBRANCH   9  11
ENDBRANCH   8   9
BRANCH   8  17
ATOM     17  C   UNL     1      -1.901   3.749   1.199  1.00  0.00     0.026 C 
BRANCH  17  18
ATOM     18  C   UNL     1      -3.096   4.669   0.935  1.00  0.00     0.002 CG0
ATOM     19  G   UNL     1      -4.195   3.981   0.131  1.00  0.00     0.000 G0
ENDBRANCH  17  18
ENDBRANCH   8  17
ENDBRANCH   7   8
BRANCH   7  20
ATOM     20  C   UNL     1      -2.513   2.957  -1.541  1.00  0.00     0.017 C 
BRANCH  20  21
ATOM     21  C   UNL     1      -3.849   3.667  -1.322  1.00  0.00     0.001 C 
BRANCH  21  22
ATOM     22  C   UNL     1      -4.195   3.981   0.131  1.00  0.00     0.000 CG0
ATOM     23  G   UNL     1      -3.096   4.669   0.935  1.00  0.00     0.000 G0
ENDBRANCH  21  22
ENDBRANCH  20  21
ENDBRANCH   7  20
ENDBRANCH   5   7
ENDBRANCH   4   5
ENDBRANCH   3   4
ENDBRANCH   2   3
ENDBRANCH   1   2
BRANCH   1  24
ATOM     24  C   UNL     1      -0.654  -0.053  -2.255  1.00  0.00     0.202 C 
BRANCH  24  25
ATOM     25  C   UNL     1      -0.606  -0.991  -1.045  1.00  0.00     0.261 C 
BRANCH  25  26
ATOM     26  O   UNL     1       0.581  -0.806  -0.260  1.00  0.00    -0.460 OA
BRANCH  26  27
ATOM     27  C   UNL     1       1.510  -1.776  -0.429  1.00  0.00     0.338 C 
ATOM     28  O   UNL     1       1.388  -2.804  -1.084  1.00  0.00    -0.246 OA
BRANCH  27  29
ATOM     29  C   UNL     1       2.799  -1.363   0.154  1.00  0.00     0.060 A 
ATOM     30  C   UNL     1       3.937  -1.528  -0.644  1.00  0.00     0.016 A 
ATOM     31  C   UNL     1       2.912  -0.884   1.462  1.00  0.00     0.016 A 
ATOM     32  C   UNL     1       5.200  -1.275  -0.117  1.00  0.00     0.010 A 
ATOM     33  C   UNL     1       4.184  -0.635   1.992  1.00  0.00     0.010 A 
ATOM     34  C   UNL     1       5.334  -0.867   1.217  1.00  0.00    -0.014 A 
BRANCH  34  35
ATOM     35  C   UNL     1       6.690  -0.810   1.812  1.00  0.00     0.031 A 
ATOM     36  C   UNL     1       7.178  -1.966   2.642  1.00  0.00     0.074 A 
ATOM     37  C   UNL     1       7.502   0.232   1.559  1.00  0.00     0.049 A 
ATOM     38  N   UNL     1       8.354  -2.156   3.183  1.00  0.00    -0.248 NA
ATOM     39  C   UNL     1       6.216  -3.051   2.894  1.00  0.00     0.031 C 
ATOM     40  C   UNL     1       7.148   1.401   0.753  1.00  0.00     0.029 A 
ATOM     41  N   UNL     1       8.795   0.470   1.949  1.00  0.00    -0.354 N 
ATOM     42  C   UNL     1       8.274  -3.378   3.841  1.00  0.00     0.074 A 
ATOM     43  C   UNL     1       6.926  -3.870   3.657  1.00  0.00     0.031 C 
ATOM     44  C   UNL     1       8.202   2.233   0.708  1.00  0.00     0.029 A 
ATOM     45  C   UNL     1       9.295   1.666   1.496  1.00  0.00     0.049 A 
ATOM     46  H   UNL     1       9.316  -0.158   2.501  1.00  0.00     0.167 HD
ATOM     47  C   UNL     1       9.238  -4.035   4.530  1.00  0.00     0.031 A 
ATOM     48  C   UNL     1      10.495   2.245   1.700  1.00  0.00     0.031 A 
ATOM     49  C   UNL     1      10.574  -3.536   4.726  1.00  0.00     0.049 A 
ATOM     50  C   UNL     1      11.537   1.516   2.504  1.00  0.00     0.074 A 
ATOM     51  C   UNL     1      11.633  -4.141   5.380  1.00  0.00     0.029 A 
ATOM     52  N   UNL     1      11.031  -2.304   4.281  1.00  0.00    -0.354 N 
ATOM     53  N   UNL     1      11.463   0.336   3.073  1.00  0.00    -0.248 NA
ATOM     54  C   UNL     1      12.830   2.191   2.681  1.00  0.00     0.031 C 
ATOM     55  C   UNL     1      12.712  -3.251   5.381  1.00  0.00     0.029 A 
ATOM     56  C   UNL     1      12.345  -2.115   4.676  1.00  0.00     0.049 A 
ATOM     57  H   UNL     1      10.500  -1.659   3.761  1.00  0.00     0.167 HD
ATOM     58  C   UNL     1      12.704   0.121   3.664  1.00  0.00     0.074 A 
ATOM     59  C   UNL     1      13.515   1.284   3.363  1.00  0.00     0.031 C 
ATOM     60  C   UNL     1      13.134  -0.943   4.388  1.00  0.00     0.031 A 
BRANCH  47  61
ATOM     61  C   UNL     1       8.864  -5.352   5.159  1.00  0.00    -0.014 A 
ATOM     62  C   UNL     1       8.646  -6.500   4.377  1.00  0.00     0.010 A 
ATOM     63  C   UNL     1       8.753  -5.446   6.558  1.00  0.00     0.010 A 
ATOM     64  C   UNL     1       8.281  -7.708   4.979  1.00  0.00     0.020 A 
ATOM     65  C   UNL     1       8.413  -6.657   7.166  1.00  0.00     0.020 A 
ATOM     66  C   UNL     1       8.161  -7.777   6.371  1.00  0.00     0.054 A 
BRANCH  66  67
ATOM     67  S   UNL     1       7.695  -9.358   7.129  1.00  0.00     0.124 S 
ATOM     68  O   UNL     1       6.274  -9.442   6.801  1.00  0.00    -0.237 OA
ATOM     69  O   UNL     1       8.556 -10.313   6.438  1.00  0.00    -0.237 OA
ATOM     70  O   UNL     1       7.995  -9.165   8.546  1.00  0.00    -0.744 OA
ENDBRANCH  66  67
ENDBRANCH  47  61
BRANCH  48  71
ATOM     71  C   UNL     1      10.763   3.596   1.138  1.00  0.00    -0.014 A 
ATOM     72  C   UNL     1      11.645   3.768   0.057  1.00  0.00     0.010 A 
ATOM     73  C   UNL     1      10.105   4.720   1.671  1.00  0.00     0.010 A 
ATOM     74  C   UNL     1      11.866   5.041  -0.478  1.00  0.00     0.020 A 
ATOM     75  C   UNL     1      10.305   5.989   1.123  1.00  0.00     0.020 A 
ATOM     76  C   UNL     1      11.190   6.143   0.055  1.00  0.00     0.054 A 
BRANCH  76  77
ATOM     77  S   UNL     1      11.429   7.773  -0.706  1.00  0.00     0.124 S 
ATOM     78  O   UNL     1      12.753   8.145  -0.219  1.00  0.00    -0.237 OA
ATOM     79  O   UNL     1      11.339   7.473  -2.133  1.00  0.00    -0.237 OA
ATOM     80  O   UNL     1      10.320   8.563  -0.174  1.00  0.00    -0.744 OA
ENDBRANCH  76  77
ENDBRANCH  48  71
BRANCH  60  81
ATOM     81  C   UNL     1      14.550  -0.902   4.899  1.00  0.00    -0.014 A 
ATOM     82  C   UNL     1      14.920  -0.042   5.948  1.00  0.00     0.010 A 
ATOM     83  C   UNL     1      15.517  -1.760   4.343  1.00  0.00     0.010 A 
ATOM     84  C   UNL     1      16.241  -0.010   6.405  1.00  0.00     0.020 A 
ATOM     85  C   UNL     1      16.832  -1.751   4.815  1.00  0.00     0.020 A 
ATOM     86  C   UNL     1      17.190  -0.862   5.831  1.00  0.00     0.054 A 
BRANCH  86  87
ATOM     87  S   UNL     1      18.894  -0.818   6.453  1.00  0.00     0.124 S 
ATOM     88  O   UNL     1      19.401   0.416   5.860  1.00  0.00    -0.237 OA
ATOM     89  O   UNL     1      18.708  -0.789   7.902  1.00  0.00    -0.237 OA
ATOM     90  O   UNL     1      19.484  -2.049   5.932  1.00  0.00    -0.744 OA
ENDBRANCH  86  87
ENDBRANCH  60  81
ENDBRANCH  34  35
ENDBRANCH  27  29
ENDBRANCH  26  27
ENDBRANCH  25  26
ENDBRANCH  24  25
ENDBRANCH   1  24
TORSDOF 19
