REMARK SMILES Cc1cc(C)c2c(c1)C=C(C(=O)OCCOCCOC(=O)c1ccc(-c3c4nc(c(-c5ccc(S(=O)(=O)[O-])cc5)c5ccc([nH]5)c(-c5ccc(S(=O)(=O)[O-])cc5)c5nc(c(-c6ccc(S(=O)(=O)[O-])cc6)c6ccc3[nH]6)C=C5)C=C4)cc1)[C@@H](C(F)(F)F)O2
REMARK SMILES IDX 17 1 16 2 15 3 14 4 13 5 11 6 12 7 10 8 1 9 2 10 3 11 8 12
REMARK SMILES IDX 4 13 7 14 5 15 6 16 9 17 87 18 82 19 83 20 84 21 85 22 86 23
REMARK SMILES IDX 18 24 19 25 20 26 21 27 22 28 23 29 81 30 24 31 80 32 25 33
REMARK SMILES IDX 26 34 27 35 74 36 28 37 79 38 73 39 75 40 29 41 78 42 72 43
REMARK SMILES IDX 71 44 30 46 60 47 41 48 59 49 42 50 45 51 58 52 76 53 43 54
REMARK SMILES IDX 44 55 57 57 77 58 46 59 31 60 32 61 40 62 33 63 39 64 34 65
REMARK SMILES IDX 35 66 36 67 37 68 38 69 61 70 62 71 70 72 63 73 69 74 64 75
REMARK SMILES IDX 65 76 66 77 67 78 68 79 47 80 48 81 56 82 49 83 55 84 50 85
REMARK SMILES IDX 51 86 52 87 53 88 54 89
REMARK H PARENT 75 45 45 56
REMARK Flexibility Score: inf
ROOT
ATOM      1  C   UNL     1       4.069   7.493   0.242  1.00  0.00     0.202 C 
ENDROOT
BRANCH   1   2
ATOM      2  O   UNL     1       4.211   8.476  -0.782  1.00  0.00    -0.374 OA
BRANCH   2   3
ATOM      3  C   UNL     1       3.336   9.602  -0.755  1.00  0.00     0.202 C 
BRANCH   3   4
ATOM      4  C   UNL     1       1.902   9.387  -1.247  1.00  0.00     0.261 C 
BRANCH   4   5
ATOM      5  O   UNL     1       1.233   8.354  -0.508  1.00  0.00    -0.460 OA
BRANCH   5   6
ATOM      6  C   UNL     1       0.980   7.231  -1.218  1.00  0.00     0.338 C 
ATOM      7  O   UNL     1       1.169   7.059  -2.413  1.00  0.00    -0.246 OA
BRANCH   6   8
ATOM      8  C   UNL     1       0.562   6.147  -0.309  1.00  0.00     0.087 C 
ATOM      9  C   UNL     1       0.923   0.031   0.092  1.00  0.00     0.044 C 
ATOM     10  C   UNL     1       0.500   1.407   0.510  1.00  0.00    -0.050 A 
ATOM     11  C   UNL     1      -0.477   1.600   1.494  1.00  0.00     0.010 A 
ATOM     12  C   UNL     1       1.036   2.523  -0.140  1.00  0.00     0.015 A 
ATOM     13  C   UNL     1      -0.898   2.892   1.852  1.00  0.00    -0.008 A 
ATOM     14  C   UNL     1       0.608   3.812   0.191  1.00  0.00     0.018 A 
ATOM     15  C   UNL     1      -1.968   3.071   2.892  1.00  0.00     0.048 C 
ATOM     16  C   UNL     1      -0.335   4.001   1.203  1.00  0.00     0.130 A 
ATOM     17  C   UNL     1       1.084   4.944  -0.578  1.00  0.00     0.027 C 
ATOM     18  O   UNL     1      -0.751   5.240   1.608  1.00  0.00    -0.475 OA
ATOM     19  C   UNL     1      -0.406   6.408   0.810  1.00  0.00     0.316 C 
BRANCH  19  20
ATOM     20  C   UNL     1      -1.710   7.060   0.327  1.00  0.00     0.430 C 
ATOM     21  F   UNL     1      -2.580   7.229   1.352  1.00  0.00    -0.167 F 
ATOM     22  F   UNL     1      -1.491   8.284  -0.206  1.00  0.00    -0.167 F 
ATOM     23  F   UNL     1      -2.329   6.310  -0.613  1.00  0.00    -0.167 F 
ENDBRANCH  19  20
ENDBRANCH   6   8
ENDBRANCH   5   6
ENDBRANCH   4   5
ENDBRANCH   3   4
ENDBRANCH   2   3
ENDBRANCH   1   2
BRANCH   1  24
ATOM     24  C   UNL     1       4.535   7.857   1.658  1.00  0.00     0.261 C 
BRANCH  24  25
ATOM     25  O   UNL     1       3.737   8.892   2.260  1.00  0.00    -0.460 OA
BRANCH  25  26
ATOM     26  C   UNL     1       4.378  10.071   2.444  1.00  0.00     0.338 C 
ATOM     27  O   UNL     1       5.548  10.324   2.186  1.00  0.00    -0.246 OA
BRANCH  26  28
ATOM     28  C   UNL     1       3.410  11.108   2.837  1.00  0.00     0.060 A 
ATOM     29  C   UNL     1       3.286  12.236   2.015  1.00  0.00     0.016 A 
ATOM     30  C   UNL     1       2.681  11.008   4.023  1.00  0.00     0.016 A 
ATOM     31  C   UNL     1       2.447  13.282   2.392  1.00  0.00     0.010 A 
ATOM     32  C   UNL     1       1.847  12.065   4.404  1.00  0.00     0.010 A 
ATOM     33  C   UNL     1       1.744  13.216   3.603  1.00  0.00    -0.014 A 
BRANCH  33  34
ATOM     34  C   UNL     1       0.981  14.399   4.070  1.00  0.00     0.031 A 
ATOM     35  C   UNL     1       1.583  15.302   5.111  1.00  0.00     0.074 A 
ATOM     36  C   UNL     1      -0.219  14.687   3.533  1.00  0.00     0.049 A 
ATOM     37  N   UNL     1       1.094  16.396   5.635  1.00  0.00    -0.248 NA
ATOM     38  C   UNL     1       2.909  14.927   5.628  1.00  0.00     0.031 C 
ATOM     39  C   UNL     1      -0.884  13.909   2.487  1.00  0.00     0.029 A 
ATOM     40  N   UNL     1      -1.087  15.719   3.787  1.00  0.00    -0.354 N 
ATOM     41  C   UNL     1       2.053  16.845   6.535  1.00  0.00     0.074 A 
ATOM     42  C   UNL     1       3.134  15.884   6.518  1.00  0.00     0.031 C 
ATOM     43  C   UNL     1      -2.050  14.501   2.178  1.00  0.00     0.029 A 
ATOM     44  C   UNL     1      -2.231  15.678   3.025  1.00  0.00     0.049 A 
ATOM     45  H   UNL     1      -0.908  16.422   4.452  1.00  0.00     0.167 HD
ATOM     46  C   UNL     1       2.040  17.965   7.296  1.00  0.00     0.031 A 
ATOM     47  C   UNL     1      -3.304  16.494   3.014  1.00  0.00     0.031 A 
ATOM     48  C   UNL     1       0.955  18.910   7.322  1.00  0.00     0.049 A 
ATOM     49  C   UNL     1      -3.333  17.686   3.934  1.00  0.00     0.074 A 
ATOM     50  C   UNL     1       0.851  20.076   8.061  1.00  0.00     0.029 A 
ATOM     51  N   UNL     1      -0.211  18.800   6.580  1.00  0.00    -0.354 N 
ATOM     52  N   UNL     1      -2.411  18.104   4.768  1.00  0.00    -0.248 NA
ATOM     53  C   UNL     1      -4.544  18.520   3.909  1.00  0.00     0.031 C 
ATOM     54  C   UNL     1      -0.403  20.641   7.808  1.00  0.00     0.029 A 
ATOM     55  C   UNL     1      -1.051  19.863   6.862  1.00  0.00     0.049 A 
ATOM     56  H   UNL     1      -0.411  18.073   5.947  1.00  0.00     0.167 HD
ATOM     57  C   UNL     1      -2.917  19.266   5.343  1.00  0.00     0.074 A 
ATOM     58  C   UNL     1      -4.223  19.488   4.757  1.00  0.00     0.031 C 
ATOM     59  C   UNL     1      -2.347  20.076   6.268  1.00  0.00     0.031 A 
BRANCH  46  60
ATOM     60  C   UNL     1       3.231  18.228   8.178  1.00  0.00    -0.014 A 
ATOM     61  C   UNL     1       4.463  18.628   7.629  1.00  0.00     0.010 A 
ATOM     62  C   UNL     1       3.100  18.146   9.577  1.00  0.00     0.010 A 
ATOM     63  C   UNL     1       5.548  18.916   8.460  1.00  0.00     0.020 A 
ATOM     64  C   UNL     1       4.176  18.459  10.413  1.00  0.00     0.020 A 
ATOM     65  C   UNL     1       5.397  18.832   9.848  1.00  0.00     0.054 A 
BRANCH  65  66
ATOM     66  S   UNL     1       6.813  19.252  10.900  1.00  0.00     0.124 S 
ATOM     67  O   UNL     1       7.727  18.144  10.632  1.00  0.00    -0.237 OA
ATOM     68  O   UNL     1       7.228  20.549  10.374  1.00  0.00    -0.237 OA
ATOM     69  O   UNL     1       6.250  19.279  12.248  1.00  0.00    -0.744 OA
ENDBRANCH  65  66
ENDBRANCH  46  60
BRANCH  47  70
ATOM     70  C   UNL     1      -4.437  16.216   2.088  1.00  0.00    -0.014 A 
ATOM     71  C   UNL     1      -4.691  17.062   0.995  1.00  0.00     0.010 A 
ATOM     72  C   UNL     1      -5.258  15.090   2.286  1.00  0.00     0.010 A 
ATOM     73  C   UNL     1      -5.750  16.794   0.122  1.00  0.00     0.020 A 
ATOM     74  C   UNL     1      -6.301  14.803   1.400  1.00  0.00     0.020 A 
ATOM     75  C   UNL     1      -6.545  15.662   0.328  1.00  0.00     0.054 A 
BRANCH  75  76
ATOM     76  S   UNL     1      -7.877  15.308  -0.852  1.00  0.00     0.124 S 
ATOM     77  O   UNL     1      -8.831  16.375  -0.563  1.00  0.00    -0.237 OA
ATOM     78  O   UNL     1      -7.190  15.403  -2.137  1.00  0.00    -0.237 OA
ATOM     79  O   UNL     1      -8.312  13.963  -0.483  1.00  0.00    -0.744 OA
ENDBRANCH  75  76
ENDBRANCH  47  70
BRANCH  59  80
ATOM     80  C   UNL     1      -3.105  21.306   6.694  1.00  0.00    -0.014 A 
ATOM     81  C   UNL     1      -4.221  21.214   7.544  1.00  0.00     0.010 A 
ATOM     82  C   UNL     1      -2.625  22.577   6.326  1.00  0.00     0.010 A 
ATOM     83  C   UNL     1      -4.848  22.373   8.012  1.00  0.00     0.020 A 
ATOM     84  C   UNL     1      -3.233  23.737   6.814  1.00  0.00     0.020 A 
ATOM     85  C   UNL     1      -4.344  23.627   7.651  1.00  0.00     0.054 A 
BRANCH  85  86
ATOM     86  S   UNL     1      -5.128  25.110   8.341  1.00  0.00     0.124 S 
ATOM     87  O   UNL     1      -6.415  25.125   7.651  1.00  0.00    -0.237 OA
ATOM     88  O   UNL     1      -5.183  24.807   9.768  1.00  0.00    -0.237 OA
ATOM     89  O   UNL     1      -4.214  26.190   7.974  1.00  0.00    -0.744 OA
ENDBRANCH  85  86
ENDBRANCH  59  80
ENDBRANCH  33  34
ENDBRANCH  26  28
ENDBRANCH  25  26
ENDBRANCH  24  25
ENDBRANCH   1  24
TORSDOF 18
