REMARK SMILES O=C(OCCOCCOC(=O)c1cc2n[nH]cc2cc1[N+](=O)[O-])c1ccc(-c2c3nc(c(-c4ccc(S(=O)(=O)[O-])cc4)c4ccc([nH]4)c(-c4ccc(S(=O)(=O)[O-])cc4)c4nc(c(-c5ccc(S(=O)(=O)[O-])cc5)c5ccc2[nH]5)C=C4)C=C3)cc1
REMARK SMILES IDX 5 1 4 2 3 3 2 4 1 5 24 6 25 7 83 8 26 9 82 10 27 11 28 12
REMARK SMILES IDX 29 13 76 14 30 15 81 16 75 17 77 18 31 19 80 20 74 21 73 22
REMARK SMILES IDX 32 24 62 25 43 26 61 27 44 28 47 29 60 30 78 31 45 32 46 33
REMARK SMILES IDX 59 35 79 36 48 37 33 38 34 39 42 40 35 41 41 42 36 43 37 44
REMARK SMILES IDX 38 45 39 46 40 47 63 48 64 49 72 50 65 51 71 52 66 53 67 54
REMARK SMILES IDX 68 55 69 56 70 57 49 58 50 59 58 60 51 61 57 62 52 63 53 64
REMARK SMILES IDX 54 65 55 66 56 67 6 68 7 69 8 70 9 71 10 72 11 73 12 74
REMARK SMILES IDX 13 75 20 76 14 77 19 78 15 79 18 80 16 81 17 82 21 84 22 85
REMARK SMILES IDX 23 86
REMARK H PARENT 77 23 47 34 16 83
REMARK Flexibility Score: inf
ROOT
ATOM      1  C   UNL     1       4.485  -1.576   0.409  1.00  0.00     0.202 C 
ENDROOT
BRANCH   1   2
ATOM      2  C   UNL     1       4.234  -0.308   1.233  1.00  0.00     0.261 C 
BRANCH   2   3
ATOM      3  O   UNL     1       2.840   0.037   1.217  1.00  0.00    -0.460 OA
BRANCH   3   4
ATOM      4  C   UNL     1       2.205   0.958   0.457  1.00  0.00     0.338 C 
ATOM      5  O   UNL     1       0.990   1.091   0.604  1.00  0.00    -0.246 OA
BRANCH   4   6
ATOM      6  C   UNL     1       2.884   1.824  -0.556  1.00  0.00     0.060 A 
ATOM      7  C   UNL     1       4.072   1.513  -1.224  1.00  0.00     0.016 A 
ATOM      8  C   UNL     1       2.214   3.003  -0.924  1.00  0.00     0.016 A 
ATOM      9  C   UNL     1       4.601   2.340  -2.201  1.00  0.00     0.010 A 
ATOM     10  C   UNL     1       2.733   3.842  -1.912  1.00  0.00     0.010 A 
ATOM     11  C   UNL     1       3.938   3.511  -2.538  1.00  0.00    -0.014 A 
BRANCH  11  12
ATOM     12  C   UNL     1       4.615   4.451  -3.436  1.00  0.00     0.031 A 
ATOM     13  C   UNL     1       5.344   5.595  -2.811  1.00  0.00     0.074 A 
ATOM     14  C   UNL     1       4.638   4.215  -4.757  1.00  0.00     0.049 A 
ATOM     15  N   UNL     1       5.909   6.622  -3.377  1.00  0.00    -0.248 NA
ATOM     16  C   UNL     1       5.454   5.571  -1.341  1.00  0.00     0.031 C 
ATOM     17  C   UNL     1       4.075   3.032  -5.413  1.00  0.00     0.029 A 
ATOM     18  N   UNL     1       5.157   4.954  -5.783  1.00  0.00    -0.354 N 
ATOM     19  C   UNL     1       6.402   7.392  -2.332  1.00  0.00     0.074 A 
ATOM     20  C   UNL     1       6.082   6.710  -1.100  1.00  0.00     0.031 C 
ATOM     21  C   UNL     1       4.266   3.136  -6.738  1.00  0.00     0.029 A 
ATOM     22  C   UNL     1       4.897   4.421  -7.022  1.00  0.00     0.049 A 
ATOM     23  H   UNL     1       5.667   5.786  -5.647  1.00  0.00     0.167 HD
ATOM     24  C   UNL     1       7.039   8.582  -2.410  1.00  0.00     0.031 A 
ATOM     25  C   UNL     1       5.097   4.951  -8.242  1.00  0.00     0.031 A 
ATOM     26  C   UNL     1       7.295   9.236  -3.663  1.00  0.00     0.049 A 
ATOM     27  C   UNL     1       5.717   6.321  -8.312  1.00  0.00     0.074 A 
ATOM     28  C   UNL     1       7.862  10.472  -3.898  1.00  0.00     0.029 A 
ATOM     29  N   UNL     1       6.980   8.690  -4.904  1.00  0.00    -0.354 N 
ATOM     30  N   UNL     1       6.118   7.088  -7.322  1.00  0.00    -0.248 NA
ATOM     31  C   UNL     1       5.907   6.903  -9.644  1.00  0.00     0.031 C 
ATOM     32  C   UNL     1       7.841  10.695  -5.279  1.00  0.00     0.029 A 
ATOM     33  C   UNL     1       7.325   9.570  -5.910  1.00  0.00     0.049 A 
ATOM     34  H   UNL     1       6.571   7.806  -5.043  1.00  0.00     0.167 HD
ATOM     35  C   UNL     1       6.630   8.236  -7.911  1.00  0.00     0.074 A 
ATOM     36  C   UNL     1       6.489   8.059  -9.345  1.00  0.00     0.031 C 
ATOM     37  C   UNL     1       7.173   9.334  -7.327  1.00  0.00     0.031 A 
BRANCH  24  38
ATOM     38  C   UNL     1       7.366   9.264  -1.109  1.00  0.00    -0.014 A 
ATOM     39  C   UNL     1       8.338   8.756  -0.227  1.00  0.00     0.010 A 
ATOM     40  C   UNL     1       6.617  10.391  -0.722  1.00  0.00     0.010 A 
ATOM     41  C   UNL     1       8.502   9.316   1.044  1.00  0.00     0.020 A 
ATOM     42  C   UNL     1       6.799  10.972   0.536  1.00  0.00     0.020 A 
ATOM     43  C   UNL     1       7.719  10.411   1.423  1.00  0.00     0.054 A 
BRANCH  43  44
ATOM     44  S   UNL     1       7.908  11.084   3.097  1.00  0.00     0.124 S 
ATOM     45  O   UNL     1       7.246  10.064   3.907  1.00  0.00    -0.237 OA
ATOM     46  O   UNL     1       9.358  11.163   3.251  1.00  0.00    -0.237 OA
ATOM     47  O   UNL     1       7.220  12.371   3.033  1.00  0.00    -0.744 OA
ENDBRANCH  43  44
ENDBRANCH  24  38
BRANCH  25  48
ATOM     48  C   UNL     1       4.646   4.208  -9.451  1.00  0.00    -0.014 A 
ATOM     49  C   UNL     1       5.571   3.649 -10.349  1.00  0.00     0.010 A 
ATOM     50  C   UNL     1       3.271   3.990  -9.669  1.00  0.00     0.010 A 
ATOM     51  C   UNL     1       5.130   2.879 -11.433  1.00  0.00     0.020 A 
ATOM     52  C   UNL     1       2.828   3.200 -10.735  1.00  0.00     0.020 A 
ATOM     53  C   UNL     1       3.762   2.651 -11.613  1.00  0.00     0.054 A 
BRANCH  53  54
ATOM     54  S   UNL     1       3.221   1.578 -12.974  1.00  0.00     0.124 S 
ATOM     55  O   UNL     1       3.477   2.415 -14.142  1.00  0.00    -0.237 OA
ATOM     56  O   UNL     1       4.094   0.416 -12.825  1.00  0.00    -0.237 OA
ATOM     57  O   UNL     1       1.812   1.331 -12.678  1.00  0.00    -0.744 OA
ENDBRANCH  53  54
ENDBRANCH  25  48
BRANCH  37  58
ATOM     58  C   UNL     1       7.706  10.404  -8.235  1.00  0.00    -0.014 A 
ATOM     59  C   UNL     1       6.847  11.305  -8.883  1.00  0.00     0.010 A 
ATOM     60  C   UNL     1       9.099  10.583  -8.323  1.00  0.00     0.010 A 
ATOM     61  C   UNL     1       7.375  12.376  -9.606  1.00  0.00     0.020 A 
ATOM     62  C   UNL     1       9.629  11.667  -9.022  1.00  0.00     0.020 A 
ATOM     63  C   UNL     1       8.762  12.556  -9.660  1.00  0.00     0.054 A 
BRANCH  63  64
ATOM     64  S   UNL     1       9.418  14.017 -10.510  1.00  0.00     0.124 S 
ATOM     65  O   UNL     1       9.211  13.670 -11.913  1.00  0.00    -0.237 OA
ATOM     66  O   UNL     1       8.573  15.092  -9.996  1.00  0.00    -0.237 OA
ATOM     67  O   UNL     1      10.814  14.070 -10.080  1.00  0.00    -0.744 OA
ENDBRANCH  63  64
ENDBRANCH  37  58
ENDBRANCH  11  12
ENDBRANCH   4   6
ENDBRANCH   3   4
ENDBRANCH   2   3
ENDBRANCH   1   2
BRANCH   1  68
ATOM     68  O   UNL     1       4.157  -1.466  -0.978  1.00  0.00    -0.374 OA
BRANCH  68  69
ATOM     69  C   UNL     1       2.787  -1.723  -1.316  1.00  0.00     0.202 C 
BRANCH  69  70
ATOM     70  C   UNL     1       2.700  -2.943  -2.228  1.00  0.00     0.261 C 
BRANCH  70  71
ATOM     71  O   UNL     1       3.268  -4.062  -1.527  1.00  0.00    -0.459 OA
BRANCH  71  72
ATOM     72  C   UNL     1       4.563  -4.320  -1.824  1.00  0.00     0.345 C 
ATOM     73  O   UNL     1       5.241  -3.860  -2.725  1.00  0.00    -0.246 OA
BRANCH  72  74
ATOM     74  C   UNL     1       5.130  -5.090  -0.703  1.00  0.00     0.139 A 
ATOM     75  C   UNL     1       6.311  -4.536  -0.142  1.00  0.00     0.053 A 
ATOM     76  C   UNL     1       4.490  -6.258  -0.174  1.00  0.00     0.284 A 
ATOM     77  C   UNL     1       6.768  -5.213   0.995  1.00  0.00     0.093 A 
ATOM     78  C   UNL     1       4.940  -6.974   0.964  1.00  0.00     0.098 A 
ATOM     79  N   UNL     1       7.813  -4.951   1.793  1.00  0.00    -0.176 NA
ATOM     80  C   UNL     1       6.081  -6.380   1.488  1.00  0.00     0.026 A 
ATOM     81  N   UNL     1       7.798  -5.926   2.721  1.00  0.00    -0.285 N 
ATOM     82  C   UNL     1       6.772  -6.818   2.582  1.00  0.00     0.114 A 
ATOM     83  H   UNL     1       8.469  -5.991   3.439  1.00  0.00     0.189 HD
BRANCH  76  84
ATOM     84  N   UNL     1       3.317  -6.797  -0.849  1.00  0.00     0.063 N 
ATOM     85  O   UNL     1       2.356  -7.117  -0.135  1.00  0.00    -0.258 OA
ATOM     86  O   UNL     1       3.389  -6.960  -2.073  1.00  0.00    -0.258 OA
ENDBRANCH  76  84
ENDBRANCH  72  74
ENDBRANCH  71  72
ENDBRANCH  70  71
ENDBRANCH  69  70
ENDBRANCH  68  69
ENDBRANCH   1  68
TORSDOF 18
