REMARK SMILES CC1=C(CC(=O)OCCOCCOC(=O)c2ccc(-c3c4nc(c(-c5ccc(S(=O)(=O)[O-])cc5)c5ccc([nH]5)c(-c5ccc(S(=O)(=O)[O-])cc5)c5nc(c(-c6ccc(S(=O)(=O)[O-])cc6)c6ccc3[nH]6)C=C5)C=C4)cc2)c2cc(F)ccc2/C1=C\c1cccc(OCc2ccccc2)c1
REMARK SMILES IDX 9 1 8 2 7 3 5 4 6 5 4 6 3 7 1 8 2 9 83 10 76 11 82 12 84 13
REMARK SMILES IDX 77 14 81 15 78 16 80 17 79 18 85 19 86 20 98 21 87 22 89 23
REMARK SMILES IDX 88 24 90 25 91 26 92 27 93 28 97 29 94 30 96 31 95 32 10 33
REMARK SMILES IDX 11 34 12 35 13 36 14 37 15 38 16 39 17 40 75 41 18 42 74 43
REMARK SMILES IDX 19 44 20 45 21 46 68 47 22 48 73 49 67 50 69 51 23 52 72 53
REMARK SMILES IDX 66 54 65 55 24 57 54 58 35 59 53 60 36 61 39 62 52 63 70 64
REMARK SMILES IDX 37 65 38 66 51 68 71 69 40 70 25 71 26 72 34 73 27 74 33 75
REMARK SMILES IDX 28 76 29 77 30 78 31 79 32 80 55 81 56 82 64 83 57 84 63 85
REMARK SMILES IDX 58 86 59 87 60 88 61 89 62 90 41 91 42 92 50 93 43 94 49 95
REMARK SMILES IDX 44 96 45 97 46 98 47 99 48 100
REMARK H PARENT 69 56 39 67
REMARK Flexibility Score: inf
ROOT
ATOM      1  C   UNL     1       0.575  -4.926   4.255  1.00  0.00     0.202 C 
ENDROOT
BRANCH   1   2
ATOM      2  C   UNL     1       1.161  -3.526   4.008  1.00  0.00     0.261 C 
BRANCH   2   3
ATOM      3  O   UNL     1       1.228  -3.132   2.622  1.00  0.00    -0.463 OA
BRANCH   3   4
ATOM      4  C   UNL     1       2.484  -2.939   2.133  1.00  0.00     0.310 C 
ATOM      5  O   UNL     1       3.512  -3.074   2.793  1.00  0.00    -0.252 OA
BRANCH   4   6
ATOM      6  C   UNL     1       2.560  -2.544   0.660  1.00  0.00     0.159 C 
BRANCH   6   7
ATOM      7  C   UNL     1       1.318  -2.506  -0.171  1.00  0.00    -0.025 C 
ATOM      8  C   UNL     1       0.688  -0.047   0.037  1.00  0.00     0.045 C 
ATOM      9  C   UNL     1       0.508  -1.452  -0.436  1.00  0.00    -0.039 C 
ATOM     10  C   UNL     1      -0.575  -1.873  -1.342  1.00  0.00    -0.014 C 
ATOM     11  C   UNL     1       0.837  -3.647  -0.973  1.00  0.00    -0.011 A 
ATOM     12  C   UNL     1      -0.350  -3.300  -1.641  1.00  0.00    -0.010 A 
ATOM     13  C   UNL     1      -1.538  -1.066  -1.825  1.00  0.00     0.017 C 
ATOM     14  C   UNL     1       1.389  -4.911  -1.142  1.00  0.00     0.048 A 
ATOM     15  C   UNL     1      -1.040  -4.240  -2.400  1.00  0.00     0.012 A 
ATOM     16  C   UNL     1       0.694  -5.843  -1.914  1.00  0.00     0.123 A 
ATOM     17  C   UNL     1      -0.520  -5.528  -2.522  1.00  0.00     0.040 A 
ATOM     18  F   UNL     1       1.176  -7.088  -2.029  1.00  0.00    -0.207 F 
BRANCH  13  19
ATOM     19  C   UNL     1      -2.568  -1.475  -2.784  1.00  0.00    -0.021 A 
ATOM     20  C   UNL     1      -3.752  -2.063  -2.329  1.00  0.00     0.008 A 
ATOM     21  C   UNL     1      -2.322  -1.364  -4.161  1.00  0.00     0.054 A 
ATOM     22  C   UNL     1      -4.658  -2.597  -3.244  1.00  0.00     0.004 A 
ATOM     23  C   UNL     1      -3.247  -1.865  -5.078  1.00  0.00     0.120 A 
ATOM     24  C   UNL     1      -4.396  -2.510  -4.612  1.00  0.00     0.046 A 
BRANCH  23  25
ATOM     25  O   UNL     1      -3.168  -1.766  -6.442  1.00  0.00    -0.489 OA
BRANCH  25  26
ATOM     26  C   UNL     1      -2.230  -0.843  -7.009  1.00  0.00     0.265 C 
BRANCH  26  27
ATOM     27  C   UNL     1      -2.502   0.626  -6.742  1.00  0.00    -0.011 A 
ATOM     28  C   UNL     1      -3.728   1.083  -6.238  1.00  0.00     0.007 A 
ATOM     29  C   UNL     1      -1.494   1.567  -7.006  1.00  0.00     0.007 A 
ATOM     30  C   UNL     1      -3.917   2.431  -5.934  1.00  0.00     0.000 A 
ATOM     31  C   UNL     1      -1.692   2.919  -6.721  1.00  0.00     0.000 A 
ATOM     32  C   UNL     1      -2.897   3.348  -6.170  1.00  0.00     0.000 A 
ENDBRANCH  26  27
ENDBRANCH  25  26
ENDBRANCH  23  25
ENDBRANCH  13  19
ENDBRANCH   6   7
ENDBRANCH   4   6
ENDBRANCH   3   4
ENDBRANCH   2   3
ENDBRANCH   1   2
BRANCH   1  33
ATOM     33  O   UNL     1       1.119  -6.030   3.539  1.00  0.00    -0.374 OA
BRANCH  33  34
ATOM     34  C   UNL     1       0.945  -6.057   2.126  1.00  0.00     0.202 C 
BRANCH  34  35
ATOM     35  C   UNL     1      -0.474  -6.214   1.567  1.00  0.00     0.261 C 
BRANCH  35  36
ATOM     36  O   UNL     1      -1.399  -5.236   2.043  1.00  0.00    -0.460 OA
BRANCH  36  37
ATOM     37  C   UNL     1      -2.426  -5.749   2.759  1.00  0.00     0.338 C 
ATOM     38  O   UNL     1      -2.654  -6.925   3.004  1.00  0.00    -0.246 OA
BRANCH  37  39
ATOM     39  C   UNL     1      -3.168  -4.644   3.376  1.00  0.00     0.060 A 
ATOM     40  C   UNL     1      -3.741  -3.640   2.595  1.00  0.00     0.016 A 
ATOM     41  C   UNL     1      -3.318  -4.658   4.767  1.00  0.00     0.016 A 
ATOM     42  C   UNL     1      -4.508  -2.657   3.218  1.00  0.00     0.010 A 
ATOM     43  C   UNL     1      -4.089  -3.681   5.385  1.00  0.00     0.010 A 
ATOM     44  C   UNL     1      -4.712  -2.692   4.611  1.00  0.00    -0.014 A 
BRANCH  44  45
ATOM     45  C   UNL     1      -5.714  -1.802   5.238  1.00  0.00     0.031 A 
ATOM     46  C   UNL     1      -5.307  -0.673   6.130  1.00  0.00     0.074 A 
ATOM     47  C   UNL     1      -7.014  -2.077   5.021  1.00  0.00     0.049 A 
ATOM     48  N   UNL     1      -6.067   0.216   6.713  1.00  0.00    -0.248 NA
ATOM     49  C   UNL     1      -3.872  -0.524   6.417  1.00  0.00     0.031 C 
ATOM     50  C   UNL     1      -7.505  -3.192   4.205  1.00  0.00     0.029 A 
ATOM     51  N   UNL     1      -8.155  -1.450   5.450  1.00  0.00    -0.354 N 
ATOM     52  C   UNL     1      -5.207   1.039   7.429  1.00  0.00     0.074 A 
ATOM     53  C   UNL     1      -3.871   0.514   7.245  1.00  0.00     0.031 C 
ATOM     54  C   UNL     1      -8.843  -3.144   4.158  1.00  0.00     0.029 A 
ATOM     55  C   UNL     1      -9.309  -2.028   4.975  1.00  0.00     0.049 A 
ATOM     56  H   UNL     1      -8.149  -0.663   6.041  1.00  0.00     0.167 HD
ATOM     57  C   UNL     1      -5.516   2.139   8.154  1.00  0.00     0.031 A 
ATOM     58  C   UNL     1     -10.601  -1.697   5.168  1.00  0.00     0.031 A 
ATOM     59  C   UNL     1      -6.861   2.629   8.330  1.00  0.00     0.049 A 
ATOM     60  C   UNL     1     -10.917  -0.482   5.990  1.00  0.00     0.074 A 
ATOM     61  C   UNL     1      -7.273   3.770   8.996  1.00  0.00     0.029 A 
ATOM     62  N   UNL     1      -8.009   2.010   7.854  1.00  0.00    -0.354 N 
ATOM     63  N   UNL     1     -10.086   0.347   6.577  1.00  0.00    -0.248 NA
ATOM     64  C   UNL     1     -12.334  -0.144   6.165  1.00  0.00     0.031 C 
ATOM     65  C   UNL     1      -8.669   3.792   9.000  1.00  0.00     0.029 A 
ATOM     66  C   UNL     1      -9.131   2.718   8.254  1.00  0.00     0.049 A 
ATOM     67  H   UNL     1      -8.023   1.188   7.312  1.00  0.00     0.167 HD
ATOM     68  C   UNL     1     -10.879   1.311   7.186  1.00  0.00     0.074 A 
ATOM     69  C   UNL     1     -12.254   0.980   6.868  1.00  0.00     0.031 C 
ATOM     70  C   UNL     1     -10.499   2.369   7.946  1.00  0.00     0.031 A 
BRANCH  57  71
ATOM     71  C   UNL     1      -4.395   2.909   8.808  1.00  0.00    -0.014 A 
ATOM     72  C   UNL     1      -4.351   3.029  10.210  1.00  0.00     0.010 A 
ATOM     73  C   UNL     1      -3.467   3.631   8.035  1.00  0.00     0.010 A 
ATOM     74  C   UNL     1      -3.431   3.885  10.824  1.00  0.00     0.020 A 
ATOM     75  C   UNL     1      -2.523   4.463   8.646  1.00  0.00     0.020 A 
ATOM     76  C   UNL     1      -2.530   4.605  10.036  1.00  0.00     0.054 A 
BRANCH  76  77
ATOM     77  S   UNL     1      -1.378   5.748  10.847  1.00  0.00     0.124 S 
ATOM     78  O   UNL     1      -2.260   6.836  11.258  1.00  0.00    -0.237 OA
ATOM     79  O   UNL     1      -0.831   4.934  11.929  1.00  0.00    -0.237 OA
ATOM     80  O   UNL     1      -0.426   6.082   9.789  1.00  0.00    -0.744 OA
ENDBRANCH  76  77
ENDBRANCH  57  71
BRANCH  58  81
ATOM     81  C   UNL     1     -11.656  -2.513   4.505  1.00  0.00    -0.014 A 
ATOM     82  C   UNL     1     -11.842  -3.863   4.864  1.00  0.00     0.010 A 
ATOM     83  C   UNL     1     -12.383  -1.990   3.422  1.00  0.00     0.010 A 
ATOM     84  C   UNL     1     -12.669  -4.693   4.104  1.00  0.00     0.020 A 
ATOM     85  C   UNL     1     -13.241  -2.809   2.680  1.00  0.00     0.020 A 
ATOM     86  C   UNL     1     -13.348  -4.164   3.003  1.00  0.00     0.054 A 
BRANCH  86  87
ATOM     87  S   UNL     1     -14.334  -5.284   1.972  1.00  0.00     0.124 S 
ATOM     88  O   UNL     1     -13.296  -6.048   1.284  1.00  0.00    -0.237 OA
ATOM     89  O   UNL     1     -15.111  -6.025   2.961  1.00  0.00    -0.237 OA
ATOM     90  O   UNL     1     -15.107  -4.379   1.124  1.00  0.00    -0.744 OA
ENDBRANCH  86  87
ENDBRANCH  58  81
BRANCH  70  91
ATOM     91  C   UNL     1     -11.580   3.249   8.524  1.00  0.00    -0.014 A 
ATOM     92  C   UNL     1     -11.666   4.600   8.139  1.00  0.00     0.010 A 
ATOM     93  C   UNL     1     -12.424   2.775   9.544  1.00  0.00     0.010 A 
ATOM     94  C   UNL     1     -12.539   5.471   8.794  1.00  0.00     0.020 A 
ATOM     95  C   UNL     1     -13.327   3.635  10.176  1.00  0.00     0.020 A 
ATOM     96  C   UNL     1     -13.357   4.984   9.817  1.00  0.00     0.054 A 
BRANCH  96  97
ATOM     97  S   UNL     1     -14.452   6.140  10.684  1.00  0.00     0.124 S 
ATOM     98  O   UNL     1     -13.510   6.903  11.499  1.00  0.00    -0.237 OA
ATOM     99  O   UNL     1     -15.075   6.876   9.586  1.00  0.00    -0.237 OA
ATOM    100  O   UNL     1     -15.355   5.266  11.429  1.00  0.00    -0.744 OA
ENDBRANCH  96  97
ENDBRANCH  70  91
ENDBRANCH  44  45
ENDBRANCH  37  39
ENDBRANCH  36  37
ENDBRANCH  35  36
ENDBRANCH  34  35
ENDBRANCH  33  34
ENDBRANCH   1  33
TORSDOF 22
