REMARK SMILES COc1ccc(-c2nc(NCC(=O)OCCOCCOC(=O)c3ccc(-c4c5nc(c(-c6ccc(S(=O)(=O)[O-])cc6)c6ccc([nH]6)c(-c6ccc(S(=O)(=O)[O-])cc6)c6nc(c(-c7ccc(S(=O)(=O)[O-])cc7)c7ccc4[nH]7)C=C6)C=C5)cc3)sc2-c2ccc(OC)cc2)cc1
REMARK SMILES IDX 16 1 15 2 14 3 12 4 13 5 11 6 10 7 9 9 7 10 8 11 84 12 83 13
REMARK SMILES IDX 6 14 3 15 4 16 94 17 5 18 93 19 2 20 1 21 85 22 86 23 92 24
REMARK SMILES IDX 87 25 91 26 88 27 89 28 90 29 17 30 18 31 19 32 20 33 21 34
REMARK SMILES IDX 22 35 23 36 24 37 82 38 25 39 81 40 26 41 27 42 28 43 75 44
REMARK SMILES IDX 29 45 80 46 74 47 76 48 30 49 79 50 73 51 72 52 31 54 61 55
REMARK SMILES IDX 42 56 60 57 43 58 46 59 59 60 77 61 44 62 45 63 58 65 78 66
REMARK SMILES IDX 47 67 32 68 33 69 41 70 34 71 40 72 35 73 36 74 37 75 38 76
REMARK SMILES IDX 39 77 62 78 63 79 71 80 64 81 70 82 65 83 66 84 67 85 68 86
REMARK SMILES IDX 69 87 48 88 49 89 57 90 50 91 56 92 51 93 52 94 53 95 54 96
REMARK SMILES IDX 55 97
REMARK H PARENT 10 8 76 53 46 64
REMARK Flexibility Score: inf
ROOT
ATOM      1  C   UNL     1       8.132   2.284  10.441  1.00  0.00     0.202 C 
ENDROOT
BRANCH   1   2
ATOM      2  C   UNL     1       6.877   1.696  11.092  1.00  0.00     0.261 C 
BRANCH   2   3
ATOM      3  O   UNL     1       5.700   2.079  10.364  1.00  0.00    -0.462 OA
BRANCH   3   4
ATOM      4  C   UNL     1       4.742   2.730  11.077  1.00  0.00     0.325 C 
ATOM      5  O   UNL     1       4.743   2.858  12.298  1.00  0.00    -0.250 OA
BRANCH   4   6
ATOM      6  C   UNL     1       3.699   3.412  10.199  1.00  0.00     0.238 C 
BRANCH   6   7
ATOM      7  N   UNL     1       3.825   3.172   8.767  1.00  0.00    -0.351 N 
ATOM      8  H   UNL     1       4.609   3.551   8.307  1.00  0.00     0.163 HD
BRANCH   7   9
ATOM      9  C   UNL     1       2.945   2.468   8.027  1.00  0.00     0.184 A 
ATOM     10  C   UNL     1       1.884   1.801   6.198  1.00  0.00     0.091 A 
ATOM     11  N   UNL     1       2.920   2.564   6.716  1.00  0.00    -0.220 NA
ATOM     12  C   UNL     1       1.172   1.063   7.131  1.00  0.00     0.064 A 
ATOM     13  S   UNL     1       1.786   1.387   8.693  1.00  0.00    -0.096 S 
BRANCH  10  14
ATOM     14  C   UNL     1       1.593   1.764   4.771  1.00  0.00     0.002 A 
ATOM     15  C   UNL     1       0.950   1.423   2.060  1.00  0.00     0.118 A 
ATOM     16  C   UNL     1      -0.002   1.925   2.947  1.00  0.00     0.047 A 
ATOM     17  C   UNL     1       2.244   1.156   2.512  1.00  0.00     0.047 A 
ATOM     18  C   UNL     1       0.315   2.090   4.297  1.00  0.00     0.014 A 
ATOM     19  C   UNL     1       2.566   1.331   3.864  1.00  0.00     0.014 A 
BRANCH  15  20
ATOM     20  O   UNL     1       0.529   1.266   0.767  1.00  0.00    -0.497 OA
ATOM     21  C   UNL     1       1.065   0.121   0.108  1.00  0.00     0.278 C 
ENDBRANCH  15  20
ENDBRANCH  10  14
BRANCH  12  22
ATOM     22  C   UNL     1       0.094   0.093   6.973  1.00  0.00    -0.006 A 
ATOM     23  C   UNL     1      -1.151   0.293   7.580  1.00  0.00     0.013 A 
ATOM     24  C   UNL     1       0.297  -1.054   6.197  1.00  0.00     0.013 A 
ATOM     25  C   UNL     1      -2.171  -0.645   7.411  1.00  0.00     0.047 A 
ATOM     26  C   UNL     1      -0.726  -1.991   6.030  1.00  0.00     0.047 A 
ATOM     27  C   UNL     1      -1.965  -1.789   6.637  1.00  0.00     0.118 A 
BRANCH  27  28
ATOM     28  O   UNL     1      -3.045  -2.623   6.551  1.00  0.00    -0.497 OA
ATOM     29  C   UNL     1      -2.865  -3.816   5.796  1.00  0.00     0.278 C 
ENDBRANCH  27  28
ENDBRANCH  12  22
ENDBRANCH   7   9
ENDBRANCH   6   7
ENDBRANCH   4   6
ENDBRANCH   3   4
ENDBRANCH   2   3
ENDBRANCH   1   2
BRANCH   1  30
ATOM     30  O   UNL     1       8.208   3.711  10.397  1.00  0.00    -0.374 OA
BRANCH  30  31
ATOM     31  C   UNL     1       7.412   4.384   9.421  1.00  0.00     0.202 C 
BRANCH  31  32
ATOM     32  C   UNL     1       7.880   4.307   7.962  1.00  0.00     0.261 C 
BRANCH  32  33
ATOM     33  O   UNL     1       7.831   2.970   7.434  1.00  0.00    -0.460 OA
BRANCH  33  34
ATOM     34  C   UNL     1       9.036   2.443   7.108  1.00  0.00     0.338 C 
ATOM     35  O   UNL     1      10.123   3.009   7.152  1.00  0.00    -0.246 OA
BRANCH  34  36
ATOM     36  C   UNL     1       8.913   0.998   6.852  1.00  0.00     0.060 A 
ATOM     37  C   UNL     1       9.716   0.135   7.609  1.00  0.00     0.016 A 
ATOM     38  C   UNL     1       8.088   0.494   5.844  1.00  0.00     0.016 A 
ATOM     39  C   UNL     1       9.721  -1.233   7.342  1.00  0.00     0.010 A 
ATOM     40  C   UNL     1       8.105  -0.878   5.568  1.00  0.00     0.010 A 
ATOM     41  C   UNL     1       8.938  -1.745   6.299  1.00  0.00    -0.014 A 
BRANCH  41  42
ATOM     42  C   UNL     1       9.067  -3.171   5.912  1.00  0.00     0.031 A 
ATOM     43  C   UNL     1       9.936  -3.545   4.742  1.00  0.00     0.074 A 
ATOM     44  C   UNL     1       8.425  -4.128   6.609  1.00  0.00     0.049 A 
ATOM     45  N   UNL     1      10.148  -4.723   4.214  1.00  0.00    -0.248 NA
ATOM     46  C   UNL     1      10.663  -2.449   4.083  1.00  0.00     0.031 C 
ATOM     47  C   UNL     1       7.590  -3.898   7.787  1.00  0.00     0.029 A 
ATOM     48  N   UNL     1       8.373  -5.486   6.417  1.00  0.00    -0.354 N 
ATOM     49  C   UNL     1      11.026  -4.512   3.157  1.00  0.00     0.074 A 
ATOM     50  C   UNL     1      11.291  -3.090   3.107  1.00  0.00     0.031 C 
ATOM     51  C   UNL     1       7.096  -5.076   8.206  1.00  0.00     0.029 A 
ATOM     52  C   UNL     1       7.550  -6.135   7.307  1.00  0.00     0.049 A 
ATOM     53  H   UNL     1       8.876  -5.951   5.710  1.00  0.00     0.167 HD
ATOM     54  C   UNL     1      11.562  -5.419   2.307  1.00  0.00     0.031 A 
ATOM     55  C   UNL     1       7.182  -7.430   7.373  1.00  0.00     0.031 A 
ATOM     56  C   UNL     1      11.287  -6.832   2.349  1.00  0.00     0.049 A 
ATOM     57  C   UNL     1       7.729  -8.407   6.365  1.00  0.00     0.074 A 
ATOM     58  C   UNL     1      11.799  -7.832   1.540  1.00  0.00     0.029 A 
ATOM     59  N   UNL     1      10.419  -7.444   3.240  1.00  0.00    -0.354 N 
ATOM     60  N   UNL     1       8.576  -8.194   5.387  1.00  0.00    -0.248 NA
ATOM     61  C   UNL     1       7.269  -9.799   6.471  1.00  0.00     0.031 C 
ATOM     62  C   UNL     1      11.196  -9.040   1.905  1.00  0.00     0.029 A 
ATOM     63  C   UNL     1      10.353  -8.802   2.978  1.00  0.00     0.049 A 
ATOM     64  H   UNL     1       9.922  -6.981   3.953  1.00  0.00     0.167 HD
ATOM     65  C   UNL     1       8.766  -9.429   4.775  1.00  0.00     0.074 A 
ATOM     66  C   UNL     1       7.959 -10.386   5.503  1.00  0.00     0.031 C 
ATOM     67  C   UNL     1       9.540  -9.743   3.706  1.00  0.00     0.031 A 
BRANCH  54  68
ATOM     68  C   UNL     1      12.479  -4.908   1.228  1.00  0.00    -0.014 A 
ATOM     69  C   UNL     1      13.784  -4.477   1.524  1.00  0.00     0.010 A 
ATOM     70  C   UNL     1      12.046  -4.912  -0.110  1.00  0.00     0.010 A 
ATOM     71  C   UNL     1      14.629  -4.031   0.504  1.00  0.00     0.020 A 
ATOM     72  C   UNL     1      12.895  -4.489  -1.136  1.00  0.00     0.020 A 
ATOM     73  C   UNL     1      14.178  -4.038  -0.820  1.00  0.00     0.054 A 
BRANCH  73  74
ATOM     74  S   UNL     1      15.307  -3.485  -2.128  1.00  0.00     0.124 S 
ATOM     75  O   UNL     1      15.326  -2.040  -1.917  1.00  0.00    -0.237 OA
ATOM     76  O   UNL     1      16.546  -4.184  -1.800  1.00  0.00    -0.237 OA
ATOM     77  O   UNL     1      14.654  -3.925  -3.359  1.00  0.00    -0.744 OA
ENDBRANCH  73  74
ENDBRANCH  54  68
BRANCH  55  78
ATOM     78  C   UNL     1       6.211  -7.875   8.409  1.00  0.00    -0.014 A 
ATOM     79  C   UNL     1       6.614  -8.710   9.465  1.00  0.00     0.010 A 
ATOM     80  C   UNL     1       4.865  -7.470   8.333  1.00  0.00     0.010 A 
ATOM     81  C   UNL     1       5.686  -9.147  10.415  1.00  0.00     0.020 A 
ATOM     82  C   UNL     1       3.941  -7.882   9.296  1.00  0.00     0.020 A 
ATOM     83  C   UNL     1       4.355  -8.730  10.324  1.00  0.00     0.054 A 
BRANCH  83  84
ATOM     84  S   UNL     1       3.176  -9.274  11.591  1.00  0.00     0.124 S 
ATOM     85  O   UNL     1       2.942 -10.663  11.210  1.00  0.00    -0.237 OA
ATOM     86  O   UNL     1       3.925  -9.072  12.829  1.00  0.00    -0.237 OA
ATOM     87  O   UNL     1       2.039  -8.374  11.407  1.00  0.00    -0.744 OA
ENDBRANCH  83  84
ENDBRANCH  55  78
BRANCH  67  88
ATOM     88  C   UNL     1       9.569 -11.183   3.269  1.00  0.00    -0.014 A 
ATOM     89  C   UNL     1       8.473 -11.765   2.608  1.00  0.00     0.010 A 
ATOM     90  C   UNL     1      10.730 -11.950   3.475  1.00  0.00     0.010 A 
ATOM     91  C   UNL     1       8.526 -13.097   2.188  1.00  0.00     0.020 A 
ATOM     92  C   UNL     1      10.797 -13.275   3.034  1.00  0.00     0.020 A 
ATOM     93  C   UNL     1       9.688 -13.844   2.405  1.00  0.00     0.054 A 
BRANCH  93  94
ATOM     94  S   UNL     1       9.748 -15.558   1.814  1.00  0.00     0.124 S 
ATOM     95  O   UNL     1       8.913 -16.247   2.793  1.00  0.00    -0.237 OA
ATOM     96  O   UNL     1       9.185 -15.455   0.469  1.00  0.00    -0.237 OA
ATOM     97  O   UNL     1      11.170 -15.892   1.863  1.00  0.00    -0.744 OA
ENDBRANCH  93  94
ENDBRANCH  67  88
ENDBRANCH  41  42
ENDBRANCH  34  36
ENDBRANCH  33  34
ENDBRANCH  32  33
ENDBRANCH  31  32
ENDBRANCH  30  31
ENDBRANCH   1  30
TORSDOF 23
