REMARK SMILES COc1cc2nc(SCC(=O)OCCOCCOC(=O)c3ccc(-c4c5nc(c(-c6ccc(S(=O)(=O)[O-])cc6)c6ccc([nH]6)c(-c6ccc(S(=O)(=O)[O-])cc6)c6nc(c(-c7ccc(S(=O)(=O)[O-])cc7)c7ccc4[nH]7)C=C6)C=C5)cc3)nc(O)c2cc1OC
REMARK SMILES IDX 15 1 14 2 13 3 12 4 10 5 11 6 9 7 8 8 7 9 3 10 4 11 86 12
REMARK SMILES IDX 5 13 85 14 6 15 84 16 82 17 81 18 2 19 1 20 87 21 88 22
REMARK SMILES IDX 83 23 16 25 17 26 18 27 19 28 20 29 21 30 22 31 80 32 23 33
REMARK SMILES IDX 79 34 24 35 25 36 26 37 73 38 27 39 78 40 72 41 74 42 28 43
REMARK SMILES IDX 77 44 71 45 70 46 29 48 59 49 40 50 58 51 41 52 44 53 57 54
REMARK SMILES IDX 75 55 42 56 43 57 56 59 76 60 45 61 30 62 31 63 39 64 32 65
REMARK SMILES IDX 38 66 33 67 34 68 35 69 36 70 37 71 60 72 61 73 69 74 62 75
REMARK SMILES IDX 68 76 63 77 64 78 65 79 66 80 67 81 46 82 47 83 55 84 48 85
REMARK SMILES IDX 54 86 49 87 50 88 51 89 52 90 53 91
REMARK H PARENT 83 24 74 47 44 58
REMARK Flexibility Score: inf
ROOT
ATOM      1  O   UNL     1       1.710  -1.093   9.173  1.00  0.00    -0.374 OA
ENDROOT
BRANCH   1   2
ATOM      2  C   UNL     1       0.513  -1.759   9.566  1.00  0.00     0.202 C 
BRANCH   2   3
ATOM      3  C   UNL     1      -0.618  -0.927  10.191  1.00  0.00     0.261 C 
BRANCH   3   4
ATOM      4  O   UNL     1      -1.037   0.206   9.399  1.00  0.00    -0.463 OA
BRANCH   4   5
ATOM      5  C   UNL     1      -0.802   1.429   9.948  1.00  0.00     0.316 C 
ATOM      6  O   UNL     1      -0.274   1.596  11.047  1.00  0.00    -0.251 OA
BRANCH   5   7
ATOM      7  C   UNL     1      -1.224   2.628   9.123  1.00  0.00     0.200 C 
BRANCH   7   8
ATOM      8  S   UNL     1      -1.906   2.325   7.475  1.00  0.00    -0.074 SA
BRANCH   8   9
ATOM      9  C   UNL     1      -0.530   2.615   6.381  1.00  0.00     0.192 A 
ATOM     10  C   UNL     1       0.972   1.661   1.986  1.00  0.00     0.162 A 
ATOM     11  C   UNL     1      -0.053   1.982   2.886  1.00  0.00     0.079 A 
ATOM     12  C   UNL     1       2.309   1.678   2.400  1.00  0.00     0.161 A 
ATOM     13  C   UNL     1       0.207   2.289   4.214  1.00  0.00     0.083 A 
ATOM     14  C   UNL     1       2.588   2.062   3.714  1.00  0.00     0.066 A 
ATOM     15  N   UNL     1      -0.809   2.426   5.078  1.00  0.00    -0.222 NA
ATOM     16  C   UNL     1       1.536   2.376   4.617  1.00  0.00     0.066 A 
ATOM     17  C   UNL     1       1.687   2.719   5.959  1.00  0.00     0.223 A 
ATOM     18  N   UNL     1       0.702   2.822   6.867  1.00  0.00    -0.187 NA
BRANCH  10  19
ATOM     19  O   UNL     1       0.568   1.417   0.697  1.00  0.00    -0.493 OA
ATOM     20  C   UNL     1       0.928   0.120   0.221  1.00  0.00     0.278 C 
ENDBRANCH  10  19
BRANCH  12  21
ATOM     21  O   UNL     1       3.262   1.367   1.470  1.00  0.00    -0.493 OA
ATOM     22  C   UNL     1       4.544   0.981   1.950  1.00  0.00     0.278 C 
ENDBRANCH  12  21
BRANCH  17  23
ATOM     23  O   UNL     1       2.933   2.822   6.504  1.00  0.00    -0.493 OA
ATOM     24  H   UNL     1       3.032   3.053   7.407  1.00  0.00     0.295 HD
ENDBRANCH  17  23
ENDBRANCH   8   9
ENDBRANCH   7   8
ENDBRANCH   5   7
ENDBRANCH   4   5
ENDBRANCH   3   4
ENDBRANCH   2   3
ENDBRANCH   1   2
BRANCH   1  25
ATOM     25  C   UNL     1       1.618  -0.125   8.136  1.00  0.00     0.202 C 
BRANCH  25  26
ATOM     26  C   UNL     1       1.210  -0.591   6.736  1.00  0.00     0.261 C 
BRANCH  26  27
ATOM     27  O   UNL     1       0.024  -1.373   6.691  1.00  0.00    -0.460 OA
BRANCH  27  28
ATOM     28  C   UNL     1       0.202  -2.606   6.170  1.00  0.00     0.338 C 
ATOM     29  O   UNL     1       1.234  -3.103   5.745  1.00  0.00    -0.246 OA
BRANCH  28  30
ATOM     30  C   UNL     1      -1.045  -3.346   6.349  1.00  0.00     0.060 A 
ATOM     31  C   UNL     1      -2.218  -2.928   5.718  1.00  0.00     0.016 A 
ATOM     32  C   UNL     1      -1.009  -4.489   7.151  1.00  0.00     0.016 A 
ATOM     33  C   UNL     1      -3.370  -3.692   5.872  1.00  0.00     0.010 A 
ATOM     34  C   UNL     1      -2.158  -5.253   7.296  1.00  0.00     0.010 A 
ATOM     35  C   UNL     1      -3.336  -4.871   6.638  1.00  0.00    -0.014 A 
BRANCH  35  36
ATOM     36  C   UNL     1      -4.490  -5.791   6.645  1.00  0.00     0.031 A 
ATOM     37  C   UNL     1      -5.335  -5.955   7.867  1.00  0.00     0.074 A 
ATOM     38  C   UNL     1      -4.718  -6.520   5.536  1.00  0.00     0.049 A 
ATOM     39  N   UNL     1      -6.380  -6.720   8.038  1.00  0.00    -0.248 NA
ATOM     40  C   UNL     1      -4.956  -5.170   9.052  1.00  0.00     0.031 C 
ATOM     41  C   UNL     1      -3.921  -6.441   4.309  1.00  0.00     0.029 A 
ATOM     42  N   UNL     1      -5.675  -7.457   5.255  1.00  0.00    -0.354 N 
ATOM     43  C   UNL     1      -6.797  -6.500   9.343  1.00  0.00     0.074 A 
ATOM     44  C   UNL     1      -5.857  -5.574   9.938  1.00  0.00     0.031 C 
ATOM     45  C   UNL     1      -4.448  -7.264   3.393  1.00  0.00     0.029 A 
ATOM     46  C   UNL     1      -5.584  -7.966   3.981  1.00  0.00     0.049 A 
ATOM     47  H   UNL     1      -6.362  -7.740   5.901  1.00  0.00     0.167 HD
ATOM     48  C   UNL     1      -7.882  -7.012   9.969  1.00  0.00     0.031 A 
ATOM     49  C   UNL     1      -6.333  -8.893   3.353  1.00  0.00     0.031 A 
ATOM     50  C   UNL     1      -8.785  -7.952   9.354  1.00  0.00     0.049 A 
ATOM     51  C   UNL     1      -7.502  -9.486   4.085  1.00  0.00     0.074 A 
ATOM     52  C   UNL     1      -9.929  -8.516   9.889  1.00  0.00     0.029 A 
ATOM     53  N   UNL     1      -8.646  -8.473   8.072  1.00  0.00    -0.354 N 
ATOM     54  N   UNL     1      -7.927  -9.221   5.298  1.00  0.00    -0.248 NA
ATOM     55  C   UNL     1      -8.301 -10.488   3.369  1.00  0.00     0.031 C 
ATOM     56  C   UNL     1     -10.433  -9.436   8.968  1.00  0.00     0.029 A 
ATOM     57  C   UNL     1      -9.661  -9.380   7.816  1.00  0.00     0.049 A 
ATOM     58  H   UNL     1      -7.931  -8.232   7.440  1.00  0.00     0.167 HD
ATOM     59  C   UNL     1      -9.055 -10.009   5.487  1.00  0.00     0.074 A 
ATOM     60  C   UNL     1      -9.257 -10.746   4.255  1.00  0.00     0.031 C 
ATOM     61  C   UNL     1      -9.846 -10.113   6.584  1.00  0.00     0.031 A 
BRANCH  48  62
ATOM     62  C   UNL     1      -8.166  -6.566  11.382  1.00  0.00    -0.014 A 
ATOM     63  C   UNL     1      -8.160  -7.501  12.434  1.00  0.00     0.010 A 
ATOM     64  C   UNL     1      -8.543  -5.238  11.657  1.00  0.00     0.010 A 
ATOM     65  C   UNL     1      -8.551  -7.127  13.723  1.00  0.00     0.020 A 
ATOM     66  C   UNL     1      -8.901  -4.850  12.952  1.00  0.00     0.020 A 
ATOM     67  C   UNL     1      -8.925  -5.804  13.972  1.00  0.00     0.054 A 
BRANCH  67  68
ATOM     68  S   UNL     1      -9.447  -5.341  15.646  1.00  0.00     0.124 S 
ATOM     69  O   UNL     1     -10.762  -5.967  15.744  1.00  0.00    -0.237 OA
ATOM     70  O   UNL     1      -8.402  -5.932  16.479  1.00  0.00    -0.237 OA
ATOM     71  O   UNL     1      -9.451  -3.880  15.613  1.00  0.00    -0.744 OA
ENDBRANCH  67  68
ENDBRANCH  48  62
BRANCH  49  72
ATOM     72  C   UNL     1      -6.012  -9.234   1.939  1.00  0.00    -0.014 A 
ATOM     73  C   UNL     1      -4.792  -9.858   1.614  1.00  0.00     0.010 A 
ATOM     74  C   UNL     1      -6.854  -8.801   0.900  1.00  0.00     0.010 A 
ATOM     75  C   UNL     1      -4.382  -9.965   0.282  1.00  0.00     0.020 A 
ATOM     76  C   UNL     1      -6.463  -8.940  -0.435  1.00  0.00     0.020 A 
ATOM     77  C   UNL     1      -5.213  -9.485  -0.733  1.00  0.00     0.054 A 
BRANCH  77  78
ATOM     78  S   UNL     1      -4.610  -9.535  -2.443  1.00  0.00     0.124 S 
ATOM     79  O   UNL     1      -3.573  -8.506  -2.425  1.00  0.00    -0.237 OA
ATOM     80  O   UNL     1      -4.131 -10.908  -2.571  1.00  0.00    -0.237 OA
ATOM     81  O   UNL     1      -5.794  -9.213  -3.235  1.00  0.00    -0.744 OA
ENDBRANCH  77  78
ENDBRANCH  49  72
BRANCH  61  82
ATOM     82  C   UNL     1     -11.012 -11.069   6.530  1.00  0.00    -0.014 A 
ATOM     83  C   UNL     1     -12.326 -10.573   6.631  1.00  0.00     0.010 A 
ATOM     84  C   UNL     1     -10.804 -12.459   6.535  1.00  0.00     0.010 A 
ATOM     85  C   UNL     1     -13.404 -11.445   6.797  1.00  0.00     0.020 A 
ATOM     86  C   UNL     1     -11.885 -13.337   6.662  1.00  0.00     0.020 A 
ATOM     87  C   UNL     1     -13.173 -12.823   6.825  1.00  0.00     0.054 A 
BRANCH  87  88
ATOM     88  S   UNL     1     -14.577 -13.935   7.110  1.00  0.00     0.124 S 
ATOM     89  O   UNL     1     -14.864 -13.712   8.524  1.00  0.00    -0.237 OA
ATOM     90  O   UNL     1     -15.579 -13.430   6.175  1.00  0.00    -0.237 OA
ATOM     91  O   UNL     1     -14.041 -15.255   6.784  1.00  0.00    -0.744 OA
ENDBRANCH  87  88
ENDBRANCH  61  82
ENDBRANCH  35  36
ENDBRANCH  28  30
ENDBRANCH  27  28
ENDBRANCH  26  27
ENDBRANCH  25  26
ENDBRANCH   1  25
TORSDOF 22
