REMARK SMILES C[N@H+](C[C@H]1CCC[N@@H+]1C)C[C@]([NH3+])(C(=O)OCCOCCOC(=O)c1ccc(-c2c3nc(c(-c4ccc(S(=O)(=O)[O-])cc4)c4ccc([nH]4)c(-c4ccc(S(=O)(=O)[O-])cc4)c4nc(c(-c5ccc(S(=O)(=O)[O-])cc5)c5ccc2[nH]5)C=C4)C=C3)cc1)c1ccccc1
REMARK SMILES IDX 17 1 16 2 15 3 13 4 14 5 11 6 10 7 2 8 1 9 3 11 4 12 5 13
REMARK SMILES IDX 8 14 6 15 7 16 9 17 84 19 85 20 89 21 86 22 88 23 87 24
REMARK SMILES IDX 12 25 18 29 19 30 20 31 21 32 22 33 23 34 24 35 25 36 83 37
REMARK SMILES IDX 26 38 82 39 27 40 28 41 29 42 76 43 30 44 81 45 75 46 77 47
REMARK SMILES IDX 31 48 80 49 74 50 73 51 32 53 62 54 43 55 61 56 44 57 47 58
REMARK SMILES IDX 60 59 78 60 45 61 46 62 59 64 79 65 48 66 33 67 34 68 42 69
REMARK SMILES IDX 35 70 41 71 36 72 37 73 38 74 39 75 40 76 63 77 64 78 72 79
REMARK SMILES IDX 65 80 71 81 66 82 67 83 68 84 69 85 70 86 49 87 50 88 58 89
REMARK SMILES IDX 51 90 57 91 52 92 53 93 54 94 55 95 56 96
REMARK H PARENT 2 10 8 18 12 26 12 27 12 28 77 52 47 63
REMARK Flexibility Score: inf
ROOT
ATOM      1  C   UNL     1       2.407   2.260  -6.233  1.00  0.00     0.202 C 
ENDROOT
BRANCH   1   2
ATOM      2  C   UNL     1       2.279   3.384  -5.191  1.00  0.00     0.261 C 
BRANCH   2   3
ATOM      3  O   UNL     1       1.859   2.819  -3.937  1.00  0.00    -0.458 OA
BRANCH   3   4
ATOM      4  C   UNL     1       0.691   3.287  -3.377  1.00  0.00     0.379 C 
ATOM      5  O   UNL     1       0.247   4.409  -3.582  1.00  0.00    -0.244 OA
BRANCH   4   6
ATOM      6  C   UNL     1       0.047   2.148  -2.487  1.00  0.00     0.267 C 
BRANCH   6   7
ATOM      7  C   UNL     1       0.593   2.178  -1.016  1.00  0.00     0.349 C 
BRANCH   7   8
ATOM      8  N   UNL     1       0.237   0.967  -0.238  1.00  0.00    -0.326 N 
ATOM      9  C   UNL     1      -0.935   1.071   0.602  1.00  0.00     0.333 C 
ATOM     10  H   UNL     1      -0.069   0.422  -1.044  1.00  0.00     0.348 HD
BRANCH   8  11
ATOM     11  C   UNL     1       1.205  -0.106   0.019  1.00  0.00     0.327 C 
BRANCH  11  12
ATOM     12  C   UNL     1       0.974  -1.540  -0.616  1.00  0.00     0.239 C 
ATOM     13  C   UNL     1      -0.324  -2.236  -0.203  1.00  0.00     0.077 C 
ATOM     14  N   UNL     1       0.954  -1.533  -2.083  1.00  0.00    -0.330 N 
ATOM     15  C   UNL     1      -1.003  -2.723  -1.474  1.00  0.00     0.068 C 
ATOM     16  C   UNL     1      -0.017  -2.492  -2.598  1.00  0.00     0.262 C 
ATOM     17  C   UNL     1       2.260  -1.692  -2.717  1.00  0.00     0.333 C 
ATOM     18  H   UNL     1       0.657  -0.592  -2.343  1.00  0.00     0.348 HD
ENDBRANCH  11  12
ENDBRANCH   8  11
ENDBRANCH   7   8
ENDBRANCH   6   7
BRANCH   6  19
ATOM     19  C   UNL     1      -1.499   2.110  -2.538  1.00  0.00     0.030 A 
ATOM     20  C   UNL     1      -2.290   3.266  -2.508  1.00  0.00     0.011 A 
ATOM     21  C   UNL     1      -2.186   0.874  -2.550  1.00  0.00     0.011 A 
ATOM     22  C   UNL     1      -3.690   3.183  -2.514  1.00  0.00     0.001 A 
ATOM     23  C   UNL     1      -3.576   0.785  -2.527  1.00  0.00     0.001 A 
ATOM     24  C   UNL     1      -4.331   1.946  -2.516  1.00  0.00     0.000 A 
ENDBRANCH   6  19
BRANCH   6  25
ATOM     25  N   UNL     1       0.566   0.893  -3.065  1.00  0.00    -0.335 N 
ATOM     26  H   UNL     1       0.247   0.806  -4.030  1.00  0.00     0.345 HD
ATOM     27  H   UNL     1       0.224   0.101  -2.520  1.00  0.00     0.345 HD
ATOM     28  H   UNL     1       1.585   0.906  -3.043  1.00  0.00     0.345 HD
ENDBRANCH   6  25
ENDBRANCH   4   6
ENDBRANCH   3   4
ENDBRANCH   2   3
ENDBRANCH   1   2
BRANCH   1  29
ATOM     29  O   UNL     1       1.172   1.829  -6.823  1.00  0.00    -0.374 OA
BRANCH  29  30
ATOM     30  C   UNL     1       0.590   0.666  -6.228  1.00  0.00     0.202 C 
BRANCH  30  31
ATOM     31  C   UNL     1       1.112  -0.694  -6.709  1.00  0.00     0.261 C 
BRANCH  31  32
ATOM     32  O   UNL     1       2.507  -0.872  -6.395  1.00  0.00    -0.460 OA
BRANCH  32  33
ATOM     33  C   UNL     1       3.343  -0.654  -7.434  1.00  0.00     0.338 C 
ATOM     34  O   UNL     1       3.027  -0.472  -8.602  1.00  0.00    -0.246 OA
BRANCH  33  35
ATOM     35  C   UNL     1       4.730  -0.475  -6.958  1.00  0.00     0.060 A 
ATOM     36  C   UNL     1       5.445   0.598  -7.504  1.00  0.00     0.016 A 
ATOM     37  C   UNL     1       5.352  -1.352  -6.064  1.00  0.00     0.016 A 
ATOM     38  C   UNL     1       6.799   0.754  -7.223  1.00  0.00     0.010 A 
ATOM     39  C   UNL     1       6.717  -1.190  -5.780  1.00  0.00     0.010 A 
ATOM     40  C   UNL     1       7.459  -0.164  -6.396  1.00  0.00    -0.014 A 
BRANCH  40  41
ATOM     41  C   UNL     1       8.944  -0.121  -6.319  1.00  0.00     0.031 A 
ATOM     42  C   UNL     1       9.752  -1.137  -7.086  1.00  0.00     0.074 A 
ATOM     43  C   UNL     1       9.574   0.860  -5.646  1.00  0.00     0.049 A 
ATOM     44  N   UNL     1      11.051  -1.256  -7.189  1.00  0.00    -0.248 NA
ATOM     45  C   UNL     1       8.996  -2.149  -7.841  1.00  0.00     0.031 C 
ATOM     46  C   UNL     1       8.915   1.936  -4.905  1.00  0.00     0.029 A 
ATOM     47  N   UNL     1      10.915   1.116  -5.487  1.00  0.00    -0.354 N 
ATOM     48  C   UNL     1      11.269  -2.354  -8.014  1.00  0.00     0.074 A 
ATOM     49  C   UNL     1       9.968  -2.890  -8.352  1.00  0.00     0.031 C 
ATOM     50  C   UNL     1       9.854   2.738  -4.374  1.00  0.00     0.029 A 
ATOM     51  C   UNL     1      11.179   2.215  -4.704  1.00  0.00     0.049 A 
ATOM     52  H   UNL     1      11.620   0.563  -5.895  1.00  0.00     0.167 HD
ATOM     53  C   UNL     1      12.441  -2.865  -8.461  1.00  0.00     0.031 A 
ATOM     54  C   UNL     1      12.351   2.733  -4.285  1.00  0.00     0.031 A 
ATOM     55  C   UNL     1      13.738  -2.340  -8.119  1.00  0.00     0.049 A 
ATOM     56  C   UNL     1      13.645   2.097  -4.726  1.00  0.00     0.074 A 
ATOM     57  C   UNL     1      14.982  -2.787  -8.531  1.00  0.00     0.029 A 
ATOM     58  N   UNL     1      13.961  -1.260  -7.279  1.00  0.00    -0.354 N 
ATOM     59  N   UNL     1      13.830   1.071  -5.523  1.00  0.00    -0.248 NA
ATOM     60  C   UNL     1      14.888   2.697  -4.221  1.00  0.00     0.031 C 
ATOM     61  C   UNL     1      15.958  -2.020  -7.887  1.00  0.00     0.029 A 
ATOM     62  C   UNL     1      15.322  -1.046  -7.134  1.00  0.00     0.049 A 
ATOM     63  H   UNL     1      13.256  -0.724  -6.848  1.00  0.00     0.167 HD
ATOM     64  C   UNL     1      15.210   0.923  -5.636  1.00  0.00     0.074 A 
ATOM     65  C   UNL     1      15.810   1.973  -4.840  1.00  0.00     0.031 C 
ATOM     66  C   UNL     1      15.915   0.000  -6.338  1.00  0.00     0.031 A 
BRANCH  53  67
ATOM     67  C   UNL     1      12.379  -4.083  -9.349  1.00  0.00    -0.014 A 
ATOM     68  C   UNL     1      11.886  -4.006 -10.665  1.00  0.00     0.010 A 
ATOM     69  C   UNL     1      12.865  -5.315  -8.873  1.00  0.00     0.010 A 
ATOM     70  C   UNL     1      11.843  -5.147 -11.472  1.00  0.00     0.020 A 
ATOM     71  C   UNL     1      12.853  -6.450  -9.688  1.00  0.00     0.020 A 
ATOM     72  C   UNL     1      12.326  -6.362 -10.977  1.00  0.00     0.054 A 
BRANCH  72  73
ATOM     73  S   UNL     1      12.278  -7.821 -12.055  1.00  0.00     0.124 S 
ATOM     74  O   UNL     1      10.845  -8.102 -12.116  1.00  0.00    -0.237 OA
ATOM     75  O   UNL     1      12.873  -7.323 -13.293  1.00  0.00    -0.237 OA
ATOM     76  O   UNL     1      13.075  -8.811 -11.336  1.00  0.00    -0.744 OA
ENDBRANCH  72  73
ENDBRANCH  53  67
BRANCH  54  77
ATOM     77  C   UNL     1      12.357   3.907  -3.367  1.00  0.00    -0.014 A 
ATOM     78  C   UNL     1      12.849   5.155  -3.785  1.00  0.00     0.010 A 
ATOM     79  C   UNL     1      11.869   3.773  -2.053  1.00  0.00     0.010 A 
ATOM     80  C   UNL     1      12.868   6.242  -2.904  1.00  0.00     0.020 A 
ATOM     81  C   UNL     1      11.855   4.864  -1.180  1.00  0.00     0.020 A 
ATOM     82  C   UNL     1      12.366   6.089  -1.608  1.00  0.00     0.054 A 
BRANCH  82  83
ATOM     83  S   UNL     1      12.350   7.525  -0.500  1.00  0.00     0.124 S 
ATOM     84  O   UNL     1      13.767   7.690  -0.195  1.00  0.00    -0.237 OA
ATOM     85  O   UNL     1      11.756   8.563  -1.339  1.00  0.00    -0.237 OA
ATOM     86  O   UNL     1      11.516   7.086   0.617  1.00  0.00    -0.744 OA
ENDBRANCH  82  83
ENDBRANCH  54  77
BRANCH  66  87
ATOM     87  C   UNL     1      17.420   0.101  -6.316  1.00  0.00    -0.014 A 
ATOM     88  C   UNL     1      18.159  -0.201  -5.158  1.00  0.00     0.010 A 
ATOM     89  C   UNL     1      18.108   0.448  -7.494  1.00  0.00     0.010 A 
ATOM     90  C   UNL     1      19.556  -0.124  -5.170  1.00  0.00     0.020 A 
ATOM     91  C   UNL     1      19.505   0.494  -7.519  1.00  0.00     0.020 A 
ATOM     92  C   UNL     1      20.220   0.221  -6.352  1.00  0.00     0.054 A 
BRANCH  92  93
ATOM     93  S   UNL     1      22.033   0.272  -6.351  1.00  0.00     0.124 S 
ATOM     94  O   UNL     1      22.305   1.465  -5.554  1.00  0.00    -0.237 OA
ATOM     95  O   UNL     1      22.388  -0.998  -5.721  1.00  0.00    -0.237 OA
ATOM     96  O   UNL     1      22.379   0.377  -7.766  1.00  0.00    -0.744 OA
ENDBRANCH  92  93
ENDBRANCH  66  87
ENDBRANCH  40  41
ENDBRANCH  33  35
ENDBRANCH  32  33
ENDBRANCH  31  32
ENDBRANCH  30  31
ENDBRANCH  29  30
ENDBRANCH   1  29
TORSDOF 23
