REMARK SMILES Nc1cc(C(=O)OCCOCCOC(=O)c2ccc(-c3c4nc(c(-c5ccc(S(=O)(=O)[O-])cc5)c5ccc([nH]5)c(-c5ccc(S(=O)(=O)[O-])cc5)c5nc(c(-c6ccc(S(=O)(=O)[O-])cc6)c6ccc3[nH]6)C=C5)C=C4)cc2)ccc1N1CC2(CCOCC2)C1
REMARK SMILES IDX 11 1 10 2 9 3 8 4 7 5 5 6 6 7 4 8 2 9 3 10 78 11 77 12 76 13
REMARK SMILES IDX 1 14 79 17 80 18 87 19 81 20 82 21 86 22 83 23 85 24 84 25
REMARK SMILES IDX 12 26 13 27 14 28 15 29 16 30 17 31 75 32 18 33 74 34 19 35
REMARK SMILES IDX 20 36 21 37 68 38 22 39 73 40 67 41 69 42 23 43 72 44 66 45
REMARK SMILES IDX 65 46 24 48 54 49 35 50 53 51 36 52 39 53 52 54 70 55 37 56
REMARK SMILES IDX 38 57 51 59 71 60 40 61 25 62 26 63 34 64 27 65 33 66 28 67
REMARK SMILES IDX 29 68 30 69 31 70 32 71 55 72 56 73 64 74 57 75 63 76 58 77
REMARK SMILES IDX 59 78 60 79 61 80 62 81 41 82 42 83 50 84 43 85 49 86 44 87
REMARK SMILES IDX 45 88 46 89 47 90 48 91
REMARK H PARENT 1 15 1 16 69 47 39 58
REMARK Flexibility Score: inf
ROOT
ATOM      1  C   UNL     1      -1.612  -3.601  -1.892  1.00  0.00     0.202 C 
ENDROOT
BRANCH   1   2
ATOM      2  O   UNL     1      -2.169  -4.709  -1.182  1.00  0.00    -0.374 OA
BRANCH   2   3
ATOM      3  C   UNL     1      -3.432  -4.499  -0.548  1.00  0.00     0.202 C 
BRANCH   3   4
ATOM      4  C   UNL     1      -3.389  -3.815   0.823  1.00  0.00     0.261 C 
BRANCH   4   5
ATOM      5  O   UNL     1      -2.870  -2.479   0.722  1.00  0.00    -0.460 OA
BRANCH   5   6
ATOM      6  C   UNL     1      -1.653  -2.301   1.287  1.00  0.00     0.338 C 
ATOM      7  O   UNL     1      -1.036  -3.101   1.975  1.00  0.00    -0.246 OA
BRANCH   6   8
ATOM      8  C   UNL     1      -1.048  -1.038   0.816  1.00  0.00     0.062 A 
ATOM      9  C   UNL     1       1.021   0.088   0.162  1.00  0.00     0.056 A 
ATOM     10  C   UNL     1       0.320  -1.069   0.525  1.00  0.00     0.043 A 
ATOM     11  C   UNL     1       0.315   1.306   0.052  1.00  0.00     0.060 A 
ATOM     12  C   UNL     1      -1.077   1.306   0.302  1.00  0.00     0.029 A 
ATOM     13  C   UNL     1      -1.763   0.145   0.672  1.00  0.00     0.018 A 
BRANCH   9  14
ATOM     14  N   UNL     1       2.375  -0.056  -0.124  1.00  0.00    -0.397 N 
ATOM     15  H   UNL     1       2.808  -0.935  -0.026  1.00  0.00     0.156 HD
ATOM     16  H   UNL     1       2.901   0.721  -0.423  1.00  0.00     0.156 HD
ENDBRANCH   9  14
BRANCH  11  17
ATOM     17  N   UNL     1       0.910   2.560  -0.215  1.00  0.00    -0.369 N 
ATOM     18  C   UNL     1       2.029   2.986  -0.985  1.00  0.00     0.125 C 
ATOM     19  C   UNL     1       1.034   3.614   0.753  1.00  0.00     0.125 C 
ATOM     20  C   UNL     1       2.457   3.870   0.215  1.00  0.00     0.010 C 
ATOM     21  C   UNL     1       2.767   5.334  -0.102  1.00  0.00     0.039 C 
ATOM     22  C   UNL     1       3.565   3.294   1.110  1.00  0.00     0.039 C 
ATOM     23  C   UNL     1       4.158   5.422  -0.721  1.00  0.00     0.161 C 
ATOM     24  C   UNL     1       4.908   3.482   0.416  1.00  0.00     0.161 C 
ATOM     25  O   UNL     1       5.140   4.870   0.162  1.00  0.00    -0.381 OA
ENDBRANCH  11  17
ENDBRANCH   6   8
ENDBRANCH   5   6
ENDBRANCH   4   5
ENDBRANCH   3   4
ENDBRANCH   2   3
ENDBRANCH   1   2
BRANCH   1  26
ATOM     26  C   UNL     1      -2.174  -3.337  -3.294  1.00  0.00     0.261 C 
BRANCH  26  27
ATOM     27  O   UNL     1      -3.543  -2.896  -3.251  1.00  0.00    -0.460 OA
BRANCH  27  28
ATOM     28  C   UNL     1      -4.447  -3.800  -3.699  1.00  0.00     0.338 C 
ATOM     29  O   UNL     1      -4.212  -4.891  -4.200  1.00  0.00    -0.246 OA
BRANCH  28  30
ATOM     30  C   UNL     1      -5.812  -3.371  -3.336  1.00  0.00     0.060 A 
ATOM     31  C   UNL     1      -6.636  -4.309  -2.701  1.00  0.00     0.016 A 
ATOM     32  C   UNL     1      -6.301  -2.103  -3.660  1.00  0.00     0.016 A 
ATOM     33  C   UNL     1      -7.968  -4.002  -2.432  1.00  0.00     0.010 A 
ATOM     34  C   UNL     1      -7.641  -1.799  -3.396  1.00  0.00     0.010 A 
ATOM     35  C   UNL     1      -8.489  -2.758  -2.813  1.00  0.00    -0.014 A 
BRANCH  35  36
ATOM     36  C   UNL     1      -9.950  -2.517  -2.723  1.00  0.00     0.031 A 
ATOM     37  C   UNL     1     -10.791  -2.650  -3.965  1.00  0.00     0.074 A 
ATOM     38  C   UNL     1     -10.527  -2.210  -1.546  1.00  0.00     0.049 A 
ATOM     39  N   UNL     1     -12.076  -2.462  -4.118  1.00  0.00    -0.248 NA
ATOM     40  C   UNL     1     -10.089  -3.046  -5.198  1.00  0.00     0.031 C 
ATOM     41  C   UNL     1      -9.829  -2.094  -0.266  1.00  0.00     0.029 A 
ATOM     42  N   UNL     1     -11.837  -1.937  -1.241  1.00  0.00    -0.354 N 
ATOM     43  C   UNL     1     -12.337  -2.707  -5.462  1.00  0.00     0.074 A 
ATOM     44  C   UNL     1     -11.073  -3.033  -6.086  1.00  0.00     0.031 C 
ATOM     45  C   UNL     1     -10.719  -1.767   0.687  1.00  0.00     0.029 A 
ATOM     46  C   UNL     1     -12.040  -1.620   0.081  1.00  0.00     0.049 A 
ATOM     47  H   UNL     1     -12.562  -1.965  -1.906  1.00  0.00     0.167 HD
ATOM     48  C   UNL     1     -13.522  -2.668  -6.116  1.00  0.00     0.031 A 
ATOM     49  C   UNL     1     -13.161  -1.236   0.725  1.00  0.00     0.031 A 
ATOM     50  C   UNL     1     -14.777  -2.338  -5.495  1.00  0.00     0.049 A 
ATOM     51  C   UNL     1     -14.455  -1.134  -0.041  1.00  0.00     0.074 A 
ATOM     52  C   UNL     1     -16.035  -2.294  -6.071  1.00  0.00     0.029 A 
ATOM     53  N   UNL     1     -14.935  -1.990  -4.163  1.00  0.00    -0.354 N 
ATOM     54  N   UNL     1     -14.688  -1.396  -1.305  1.00  0.00    -0.248 NA
ATOM     55  C   UNL     1     -15.638  -0.691   0.711  1.00  0.00     0.031 C 
ATOM     56  C   UNL     1     -16.945  -1.866  -5.100  1.00  0.00     0.029 A 
ATOM     57  C   UNL     1     -16.264  -1.702  -3.904  1.00  0.00     0.049 A 
ATOM     58  H   UNL     1     -14.209  -1.954  -3.499  1.00  0.00     0.167 HD
ATOM     59  C   UNL     1     -16.050  -1.178  -1.492  1.00  0.00     0.074 A 
ATOM     60  C   UNL     1     -16.589  -0.774  -0.210  1.00  0.00     0.031 C 
ATOM     61  C   UNL     1     -16.788  -1.305  -2.622  1.00  0.00     0.031 A 
BRANCH  48  62
ATOM     62  C   UNL     1     -13.515  -2.959  -7.593  1.00  0.00    -0.014 A 
ATOM     63  C   UNL     1     -13.323  -4.266  -8.077  1.00  0.00     0.010 A 
ATOM     64  C   UNL     1     -13.758  -1.918  -8.507  1.00  0.00     0.010 A 
ATOM     65  C   UNL     1     -13.346  -4.520  -9.451  1.00  0.00     0.020 A 
ATOM     66  C   UNL     1     -13.806  -2.172  -9.880  1.00  0.00     0.020 A 
ATOM     67  C   UNL     1     -13.586  -3.471 -10.344  1.00  0.00     0.054 A 
BRANCH  67  68
ATOM     68  S   UNL     1     -13.646  -3.835 -12.121  1.00  0.00     0.124 S 
ATOM     69  O   UNL     1     -12.236  -4.064 -12.428  1.00  0.00    -0.237 OA
ATOM     70  O   UNL     1     -14.501  -5.017 -12.177  1.00  0.00    -0.237 OA
ATOM     71  O   UNL     1     -14.221  -2.625 -12.704  1.00  0.00    -0.744 OA
ENDBRANCH  67  68
ENDBRANCH  48  62
BRANCH  49  72
ATOM     72  C   UNL     1     -13.111  -0.896   2.173  1.00  0.00    -0.014 A 
ATOM     73  C   UNL     1     -13.740  -1.715   3.126  1.00  0.00     0.010 A 
ATOM     74  C   UNL     1     -12.443   0.265   2.604  1.00  0.00     0.010 A 
ATOM     75  C   UNL     1     -13.723  -1.368   4.481  1.00  0.00     0.020 A 
ATOM     76  C   UNL     1     -12.400   0.601   3.960  1.00  0.00     0.020 A 
ATOM     77  C   UNL     1     -13.053  -0.211   4.889  1.00  0.00     0.054 A 
BRANCH  77  78
ATOM     78  S   UNL     1     -13.010   0.202   6.655  1.00  0.00     0.124 S 
ATOM     79  O   UNL     1     -14.364   0.693   6.885  1.00  0.00    -0.237 OA
ATOM     80  O   UNL     1     -12.688  -1.083   7.272  1.00  0.00    -0.237 OA
ATOM     81  O   UNL     1     -11.954   1.208   6.744  1.00  0.00    -0.744 OA
ENDBRANCH  77  78
ENDBRANCH  49  72
BRANCH  61  82
ATOM     82  C   UNL     1     -18.268  -1.044  -2.521  1.00  0.00    -0.014 A 
ATOM     83  C   UNL     1     -18.772   0.260  -2.374  1.00  0.00     0.010 A 
ATOM     84  C   UNL     1     -19.169  -2.119  -2.634  1.00  0.00     0.010 A 
ATOM     85  C   UNL     1     -20.151   0.481  -2.311  1.00  0.00     0.020 A 
ATOM     86  C   UNL     1     -20.549  -1.899  -2.599  1.00  0.00     0.020 A 
ATOM     87  C   UNL     1     -21.031  -0.601  -2.423  1.00  0.00     0.054 A 
BRANCH  87  88
ATOM     88  S   UNL     1     -22.816  -0.283  -2.383  1.00  0.00     0.124 S 
ATOM     89  O   UNL     1     -23.045  -0.012  -0.966  1.00  0.00    -0.237 OA
ATOM     90  O   UNL     1     -22.959   0.866  -3.274  1.00  0.00    -0.237 OA
ATOM     91  O   UNL     1     -23.401  -1.527  -2.881  1.00  0.00    -0.744 OA
ENDBRANCH  87  88
ENDBRANCH  61  82
ENDBRANCH  35  36
ENDBRANCH  28  30
ENDBRANCH  27  28
ENDBRANCH  26  27
ENDBRANCH   1  26
TORSDOF 19
