REMARK SMILES C[C@H](NC(=O)c1cccc(NC(=O)c2ccccc2C(=O)OCCOCCOC(=O)c2ccc(-c3c4nc(c(-c5ccc(S(=O)(=O)[O-])cc5)c5ccc([nH]5)c(-c5ccc(S(=O)(=O)[O-])cc5)c5nc(c(-c6ccc(S(=O)(=O)[O-])cc6)c6ccc3[nH]6)C=C5)C=C4)cc2)c1)c1ccccc1
REMARK SMILES IDX 24 1 23 2 22 3 20 4 21 5 19 6 14 7 15 8 16 9 18 10 17 11
REMARK SMILES IDX 12 12 11 13 13 15 10 16 6 17 7 18 91 19 8 20 9 21 4 22 3 23
REMARK SMILES IDX 5 25 2 26 1 27 92 28 93 29 97 30 94 31 96 32 95 33 25 34
REMARK SMILES IDX 26 35 27 36 28 37 29 38 30 39 31 40 32 41 90 42 33 43 89 44
REMARK SMILES IDX 34 45 35 46 36 47 83 48 37 49 88 50 82 51 84 52 38 53 87 54
REMARK SMILES IDX 81 55 80 56 39 58 69 59 50 60 68 61 51 62 54 63 67 64 85 65
REMARK SMILES IDX 52 66 53 67 66 69 86 70 55 71 40 72 41 73 49 74 42 75 48 76
REMARK SMILES IDX 43 77 44 78 45 79 46 80 47 81 70 82 71 83 79 84 72 85 78 86
REMARK SMILES IDX 73 87 74 88 75 89 76 90 77 91 56 92 57 93 65 94 58 95 64 96
REMARK SMILES IDX 59 97 60 98 61 99 62 100 63 101
REMARK H PARENT 11 14 3 24 84 57 54 68
REMARK Flexibility Score: inf
ROOT
ATOM      1  C   UNL     1       1.127  -5.555   0.924  1.00  0.00     0.202 C 
ENDROOT
BRANCH   1   2
ATOM      2  C   UNL     1       2.036  -4.531   0.238  1.00  0.00     0.261 C 
BRANCH   2   3
ATOM      3  O   UNL     1       3.114  -5.086  -0.518  1.00  0.00    -0.460 OA
BRANCH   3   4
ATOM      4  C   UNL     1       4.317  -5.005   0.095  1.00  0.00     0.339 C 
ATOM      5  O   UNL     1       4.525  -4.628   1.246  1.00  0.00    -0.246 OA
BRANCH   4   6
ATOM      6  C   UNL     1       5.404  -5.530  -0.751  1.00  0.00     0.072 A 
ATOM      7  C   UNL     1       5.538  -5.304  -2.126  1.00  0.00     0.054 A 
ATOM      8  C   UNL     1       6.633  -5.877  -2.804  1.00  0.00     0.015 A 
ATOM      9  C   UNL     1       7.597  -6.623  -2.122  1.00  0.00     0.001 A 
ATOM     10  C   UNL     1       6.390  -6.272  -0.069  1.00  0.00     0.016 A 
ATOM     11  C   UNL     1       7.479  -6.817  -0.750  1.00  0.00     0.001 A 
BRANCH   7  12
ATOM     12  C   UNL     1       4.577  -4.574  -2.983  1.00  0.00     0.256 C 
ATOM     13  N   UNL     1       4.064  -3.330  -2.704  1.00  0.00    -0.322 N 
ATOM     14  H   UNL     1       3.351  -3.057  -3.326  1.00  0.00     0.170 HD
ATOM     15  O   UNL     1       4.205  -5.147  -4.010  1.00  0.00    -0.269 OA
BRANCH  13  16
ATOM     16  C   UNL     1       4.340  -2.366  -1.722  1.00  0.00     0.042 A 
ATOM     17  C   UNL     1       3.479  -0.507  -0.419  1.00  0.00     0.041 A 
ATOM     18  C   UNL     1       4.643  -0.514   0.356  1.00  0.00     0.014 A 
ATOM     19  C   UNL     1       3.341  -1.411  -1.476  1.00  0.00     0.040 A 
ATOM     20  C   UNL     1       5.666  -1.413   0.068  1.00  0.00     0.003 A 
ATOM     21  C   UNL     1       5.523  -2.321  -0.983  1.00  0.00     0.026 A 
BRANCH  17  22
ATOM     22  C   UNL     1       2.481   0.549  -0.146  1.00  0.00     0.251 C 
ATOM     23  N   UNL     1       1.148   0.272   0.013  1.00  0.00    -0.346 N 
ATOM     24  H   UNL     1       0.554   1.055  -0.040  1.00  0.00     0.164 HD
ATOM     25  O   UNL     1       2.872   1.706  -0.005  1.00  0.00    -0.269 OA
BRANCH  23  26
ATOM     26  C   UNL     1       0.468  -0.998   0.247  1.00  0.00     0.109 C 
ATOM     27  C   UNL     1       0.748  -1.446   1.688  1.00  0.00     0.036 C 
BRANCH  26  28
ATOM     28  C   UNL     1      -1.039  -0.962  -0.009  1.00  0.00    -0.026 A 
ATOM     29  C   UNL     1      -1.750   0.206  -0.330  1.00  0.00     0.006 A 
ATOM     30  C   UNL     1      -1.776  -2.161   0.086  1.00  0.00     0.006 A 
ATOM     31  C   UNL     1      -3.138   0.182  -0.509  1.00  0.00     0.000 A 
ATOM     32  C   UNL     1      -3.162  -2.185  -0.093  1.00  0.00     0.000 A 
ATOM     33  C   UNL     1      -3.844  -1.010  -0.385  1.00  0.00     0.000 A 
ENDBRANCH  26  28
ENDBRANCH  23  26
ENDBRANCH  17  22
ENDBRANCH  13  16
ENDBRANCH   7  12
ENDBRANCH   4   6
ENDBRANCH   3   4
ENDBRANCH   2   3
ENDBRANCH   1   2
BRANCH   1  34
ATOM     34  O   UNL     1       1.746  -6.649   1.585  1.00  0.00    -0.374 OA
BRANCH  34  35
ATOM     35  C   UNL     1       2.361  -7.654   0.779  1.00  0.00     0.202 C 
BRANCH  35  36
ATOM     36  C   UNL     1       1.489  -8.368  -0.261  1.00  0.00     0.261 C 
BRANCH  36  37
ATOM     37  O   UNL     1       1.091  -7.510  -1.345  1.00  0.00    -0.460 OA
BRANCH  37  38
ATOM     38  C   UNL     1      -0.244  -7.499  -1.596  1.00  0.00     0.338 C 
ATOM     39  O   UNL     1      -1.107  -8.137  -0.997  1.00  0.00    -0.246 OA
BRANCH  38  40
ATOM     40  C   UNL     1      -0.597  -6.498  -2.612  1.00  0.00     0.060 A 
ATOM     41  C   UNL     1      -1.387  -5.413  -2.218  1.00  0.00     0.016 A 
ATOM     42  C   UNL     1      -0.335  -6.734  -3.959  1.00  0.00     0.016 A 
ATOM     43  C   UNL     1      -1.966  -4.582  -3.182  1.00  0.00     0.010 A 
ATOM     44  C   UNL     1      -0.927  -5.911  -4.926  1.00  0.00     0.010 A 
ATOM     45  C   UNL     1      -1.780  -4.859  -4.543  1.00  0.00    -0.014 A 
BRANCH  45  46
ATOM     46  C   UNL     1      -2.601  -4.158  -5.562  1.00  0.00     0.031 A 
ATOM     47  C   UNL     1      -3.834  -4.835  -6.102  1.00  0.00     0.074 A 
ATOM     48  C   UNL     1      -2.273  -2.926  -5.989  1.00  0.00     0.049 A 
ATOM     49  N   UNL     1      -4.638  -4.450  -7.059  1.00  0.00    -0.248 NA
ATOM     50  C   UNL     1      -4.214  -6.112  -5.474  1.00  0.00     0.031 C 
ATOM     51  C   UNL     1      -1.148  -2.131  -5.499  1.00  0.00     0.029 A 
ATOM     52  N   UNL     1      -2.857  -2.132  -6.944  1.00  0.00    -0.354 N 
ATOM     53  C   UNL     1      -5.616  -5.434  -7.152  1.00  0.00     0.074 A 
ATOM     54  C   UNL     1      -5.295  -6.444  -6.166  1.00  0.00     0.031 C 
ATOM     55  C   UNL     1      -1.112  -0.967  -6.173  1.00  0.00     0.029 A 
ATOM     56  C   UNL     1      -2.186  -0.953  -7.165  1.00  0.00     0.049 A 
ATOM     57  H   UNL     1      -3.678  -2.383  -7.426  1.00  0.00     0.167 HD
ATOM     58  C   UNL     1      -6.687  -5.493  -7.980  1.00  0.00     0.031 A 
ATOM     59  C   UNL     1      -2.393   0.011  -8.084  1.00  0.00     0.031 A 
ATOM     60  C   UNL     1      -6.999  -4.504  -8.976  1.00  0.00     0.049 A 
ATOM     61  C   UNL     1      -3.530  -0.126  -9.063  1.00  0.00     0.074 A 
ATOM     62  C   UNL     1      -8.044  -4.496  -9.885  1.00  0.00     0.029 A 
ATOM     63  N   UNL     1      -6.269  -3.347  -9.194  1.00  0.00    -0.354 N 
ATOM     64  N   UNL     1      -4.429  -1.076  -9.156  1.00  0.00    -0.248 NA
ATOM     65  C   UNL     1      -3.676   0.942 -10.065  1.00  0.00     0.031 C 
ATOM     66  C   UNL     1      -7.924  -3.348 -10.677  1.00  0.00     0.029 A 
ATOM     67  C   UNL     1      -6.832  -2.623 -10.231  1.00  0.00     0.049 A 
ATOM     68  H   UNL     1      -5.469  -3.079  -8.687  1.00  0.00     0.167 HD
ATOM     69  C   UNL     1      -5.257  -0.711 -10.213  1.00  0.00     0.074 A 
ATOM     70  C   UNL     1      -4.762   0.552 -10.719  1.00  0.00     0.031 C 
ATOM     71  C   UNL     1      -6.331  -1.365 -10.720  1.00  0.00     0.031 A 
BRANCH  58  72
ATOM     72  C   UNL     1      -7.590  -6.690  -7.858  1.00  0.00    -0.014 A 
ATOM     73  C   UNL     1      -8.499  -6.802  -6.791  1.00  0.00     0.010 A 
ATOM     74  C   UNL     1      -7.557  -7.695  -8.841  1.00  0.00     0.010 A 
ATOM     75  C   UNL     1      -9.338  -7.914  -6.692  1.00  0.00     0.020 A 
ATOM     76  C   UNL     1      -8.409  -8.800  -8.756  1.00  0.00     0.020 A 
ATOM     77  C   UNL     1      -9.284  -8.910  -7.673  1.00  0.00     0.054 A 
BRANCH  77  78
ATOM     78  S   UNL     1     -10.398 -10.335  -7.533  1.00  0.00     0.124 S 
ATOM     79  O   UNL     1      -9.757 -11.114  -6.476  1.00  0.00    -0.237 OA
ATOM     80  O   UNL     1     -11.671  -9.716  -7.173  1.00  0.00    -0.237 OA
ATOM     81  O   UNL     1     -10.357 -10.938  -8.863  1.00  0.00    -0.744 OA
ENDBRANCH  77  78
ENDBRANCH  58  72
BRANCH  59  82
ATOM     82  C   UNL     1      -1.469   1.173  -8.165  1.00  0.00    -0.014 A 
ATOM     83  C   UNL     1      -1.896   2.459  -7.793  1.00  0.00     0.010 A 
ATOM     84  C   UNL     1      -0.159   0.997  -8.647  1.00  0.00     0.010 A 
ATOM     85  C   UNL     1      -1.037   3.554  -7.926  1.00  0.00     0.020 A 
ATOM     86  C   UNL     1       0.710   2.085  -8.758  1.00  0.00     0.020 A 
ATOM     87  C   UNL     1       0.259   3.361  -8.414  1.00  0.00     0.054 A 
BRANCH  87  88
ATOM     88  S   UNL     1       1.371   4.787  -8.558  1.00  0.00     0.124 S 
ATOM     89  O   UNL     1       0.922   5.394  -9.806  1.00  0.00    -0.237 OA
ATOM     90  O   UNL     1       1.080   5.545  -7.344  1.00  0.00    -0.237 OA
ATOM     91  O   UNL     1       2.699   4.176  -8.598  1.00  0.00    -0.744 OA
ENDBRANCH  87  88
ENDBRANCH  59  82
BRANCH  71  92
ATOM     92  C   UNL     1      -7.066  -0.713 -11.860  1.00  0.00    -0.014 A 
ATOM     93  C   UNL     1      -6.544  -0.731 -13.165  1.00  0.00     0.010 A 
ATOM     94  C   UNL     1      -8.326  -0.129 -11.631  1.00  0.00     0.010 A 
ATOM     95  C   UNL     1      -7.259  -0.154 -14.218  1.00  0.00     0.020 A 
ATOM     96  C   UNL     1      -9.052   0.430 -12.685  1.00  0.00     0.020 A 
ATOM     97  C   UNL     1      -8.508   0.424 -13.972  1.00  0.00     0.054 A 
BRANCH  97  98
ATOM     98  S   UNL     1      -9.444   1.119 -15.362  1.00  0.00     0.124 S 
ATOM     99  O   UNL     1      -8.766   2.395 -15.576  1.00  0.00    -0.237 OA
ATOM    100  O   UNL     1      -9.252   0.122 -16.413  1.00  0.00    -0.237 OA
ATOM    101  O   UNL     1     -10.808   1.216 -14.847  1.00  0.00    -0.744 OA
ENDBRANCH  97  98
ENDBRANCH  71  92
ENDBRANCH  45  46
ENDBRANCH  38  40
ENDBRANCH  37  38
ENDBRANCH  36  37
ENDBRANCH  35  36
ENDBRANCH  34  35
ENDBRANCH   1  34
TORSDOF 22
