REMARK SMILES CC[NH2+][C@@]1(C(=O)OCCOCCOC(=O)c2ccc(-c3c4nc(c(-c5ccc(S(=O)(=O)[O-])cc5)c5ccc([nH]5)c(-c5ccc(S(=O)(=O)[O-])cc5)c5nc(c(-c6ccc(S(=O)(=O)[O-])cc6)c6ccc3[nH]6)C=C5)C=C4)cc2)CC[C@H]([NH+]2CCC(C(C)(C)C)CC2)C1
REMARK SMILES IDX 11 1 10 2 9 3 8 4 7 5 5 6 6 7 4 8 76 9 89 10 77 11 78 12
REMARK SMILES IDX 3 13 2 16 1 17 79 18 80 19 88 20 81 22 87 23 82 24 83 25
REMARK SMILES IDX 84 26 85 27 86 28 12 29 13 30 14 31 15 32 16 33 17 34 75 35
REMARK SMILES IDX 18 36 74 37 19 38 20 39 21 40 68 41 22 42 73 43 67 44 69 45
REMARK SMILES IDX 23 46 72 47 66 48 65 49 24 51 54 52 35 53 53 54 36 55 39 56
REMARK SMILES IDX 52 57 70 58 37 59 38 60 51 62 71 63 40 64 25 65 26 66 34 67
REMARK SMILES IDX 27 68 33 69 28 70 29 71 30 72 31 73 32 74 55 75 56 76 64 77
REMARK SMILES IDX 57 78 63 79 58 80 59 81 60 82 61 83 62 84 41 85 42 86 50 87
REMARK SMILES IDX 43 88 49 89 44 90 45 91 46 92 47 93 48 94
REMARK H PARENT 3 14 3 15 79 21 69 50 39 61
REMARK Flexibility Score: inf
ROOT
ATOM      1  C   UNL     1      -1.511  -0.222  -4.929  1.00  0.00     0.202 C 
ENDROOT
BRANCH   1   2
ATOM      2  O   UNL     1      -2.889  -0.209  -4.559  1.00  0.00    -0.374 OA
BRANCH   2   3
ATOM      3  C   UNL     1      -3.501   1.076  -4.418  1.00  0.00     0.202 C 
BRANCH   3   4
ATOM      4  C   UNL     1      -3.119   1.840  -3.152  1.00  0.00     0.261 C 
BRANCH   4   5
ATOM      5  O   UNL     1      -1.737   2.239  -3.251  1.00  0.00    -0.459 OA
BRANCH   5   6
ATOM      6  C   UNL     1      -0.978   2.105  -2.140  1.00  0.00     0.368 C 
ATOM      7  O   UNL     1      -1.467   1.789  -1.059  1.00  0.00    -0.245 OA
BRANCH   6   8
ATOM      8  C   UNL     1       0.571   2.360  -2.394  1.00  0.00     0.200 C 
ATOM      9  C   UNL     1       1.054   3.671  -1.763  1.00  0.00     0.087 C 
ATOM     10  C   UNL     1       1.003   2.509  -3.884  1.00  0.00     0.146 C 
ATOM     11  C   UNL     1       1.190   4.710  -2.864  1.00  0.00     0.072 C 
ATOM     12  C   UNL     1       1.164   4.015  -4.218  1.00  0.00     0.191 C 
BRANCH   8  13
ATOM     13  N   UNL     1       1.300   1.191  -1.786  1.00  0.00    -0.332 N 
ATOM     14  H   UNL     1       0.866   0.332  -2.125  1.00  0.00     0.347 HD
ATOM     15  H   UNL     1       2.277   1.276  -2.066  1.00  0.00     0.347 HD
BRANCH  13  16
ATOM     16  C   UNL     1       1.280   1.170  -0.312  1.00  0.00     0.257 C 
ATOM     17  C   UNL     1       1.480  -0.249   0.192  1.00  0.00     0.071 C 
ENDBRANCH  13  16
ENDBRANCH   8  13
BRANCH  12  18
ATOM     18  N   UNL     1       0.339   4.603  -5.292  1.00  0.00    -0.332 N 
ATOM     19  C   UNL     1       0.492   6.044  -5.540  1.00  0.00     0.262 C 
ATOM     20  C   UNL     1      -1.080   4.295  -5.331  1.00  0.00     0.262 C 
ATOM     21  H   UNL     1       0.784   4.079  -6.046  1.00  0.00     0.348 HD
ATOM     22  C   UNL     1      -0.304   6.990  -4.615  1.00  0.00     0.066 C 
ATOM     23  C   UNL     1      -1.861   4.976  -4.223  1.00  0.00     0.066 C 
ATOM     24  C   UNL     1      -1.715   6.503  -4.182  1.00  0.00     0.005 C 
BRANCH  24  25
ATOM     25  C   UNL     1      -2.242   7.097  -2.805  1.00  0.00    -0.035 C 
ATOM     26  C   UNL     1      -2.435   8.617  -2.935  1.00  0.00     0.011 C 
ATOM     27  C   UNL     1      -3.604   6.468  -2.421  1.00  0.00     0.011 C 
ATOM     28  C   UNL     1      -1.305   6.854  -1.601  1.00  0.00     0.011 C 
ENDBRANCH  24  25
ENDBRANCH  12  18
ENDBRANCH   6   8
ENDBRANCH   5   6
ENDBRANCH   4   5
ENDBRANCH   3   4
ENDBRANCH   2   3
ENDBRANCH   1   2
BRANCH   1  29
ATOM     29  C   UNL     1      -1.209  -0.052  -6.426  1.00  0.00     0.261 C 
BRANCH  29  30
ATOM     30  O   UNL     1      -1.629   1.216  -6.965  1.00  0.00    -0.460 OA
BRANCH  30  31
ATOM     31  C   UNL     1      -2.790   1.192  -7.664  1.00  0.00     0.338 C 
ATOM     32  O   UNL     1      -3.486   0.212  -7.896  1.00  0.00    -0.246 OA
BRANCH  31  33
ATOM     33  C   UNL     1      -3.231   2.568  -7.974  1.00  0.00     0.060 A 
ATOM     34  C   UNL     1      -4.506   2.959  -7.545  1.00  0.00     0.016 A 
ATOM     35  C   UNL     1      -2.441   3.448  -8.716  1.00  0.00     0.016 A 
ATOM     36  C   UNL     1      -5.004   4.221  -7.876  1.00  0.00     0.010 A 
ATOM     37  C   UNL     1      -2.945   4.714  -9.049  1.00  0.00     0.010 A 
ATOM     38  C   UNL     1      -4.240   5.102  -8.653  1.00  0.00    -0.014 A 
BRANCH  38  39
ATOM     39  C   UNL     1      -4.827   6.386  -9.126  1.00  0.00     0.031 A 
ATOM     40  C   UNL     1      -5.255   6.524 -10.564  1.00  0.00     0.074 A 
ATOM     41  C   UNL     1      -5.000   7.421  -8.281  1.00  0.00     0.049 A 
ATOM     42  N   UNL     1      -5.747   7.567 -11.183  1.00  0.00    -0.248 NA
ATOM     43  C   UNL     1      -5.117   5.330 -11.414  1.00  0.00     0.031 C 
ATOM     44  C   UNL     1      -4.692   7.406  -6.852  1.00  0.00     0.029 A 
ATOM     45  N   UNL     1      -5.475   8.692  -8.504  1.00  0.00    -0.354 N 
ATOM     46  C   UNL     1      -5.965   7.163 -12.495  1.00  0.00     0.074 A 
ATOM     47  C   UNL     1      -5.532   5.785 -12.589  1.00  0.00     0.031 C 
ATOM     48  C   UNL     1      -4.974   8.611  -6.330  1.00  0.00     0.029 A 
ATOM     49  C   UNL     1      -5.442   9.499  -7.391  1.00  0.00     0.049 A 
ATOM     50  H   UNL     1      -5.808   8.996  -9.380  1.00  0.00     0.167 HD
ATOM     51  C   UNL     1      -6.482   7.873 -13.527  1.00  0.00     0.031 A 
ATOM     52  C   UNL     1      -5.731  10.809  -7.242  1.00  0.00     0.031 A 
ATOM     53  C   UNL     1      -6.915   9.243 -13.435  1.00  0.00     0.049 A 
ATOM     54  C   UNL     1      -6.209  11.601  -8.433  1.00  0.00     0.074 A 
ATOM     55  C   UNL     1      -7.490  10.027 -14.422  1.00  0.00     0.029 A 
ATOM     56  N   UNL     1      -6.812  10.039 -12.306  1.00  0.00    -0.354 N 
ATOM     57  N   UNL     1      -6.457  11.188  -9.652  1.00  0.00    -0.248 NA
ATOM     58  C   UNL     1      -6.453  13.037  -8.224  1.00  0.00     0.031 C 
ATOM     59  C   UNL     1      -7.662  11.317 -13.913  1.00  0.00     0.029 A 
ATOM     60  C   UNL     1      -7.264  11.319 -12.587  1.00  0.00     0.049 A 
ATOM     61  H   UNL     1      -6.468   9.739 -11.433  1.00  0.00     0.167 HD
ATOM     62  C   UNL     1      -6.910  12.306 -10.347  1.00  0.00     0.074 A 
ATOM     63  C   UNL     1      -6.925  13.406  -9.406  1.00  0.00     0.031 C 
ATOM     64  C   UNL     1      -7.276  12.412 -11.648  1.00  0.00     0.031 A 
BRANCH  51  65
ATOM     65  C   UNL     1      -6.583   7.199 -14.870  1.00  0.00    -0.014 A 
ATOM     66  C   UNL     1      -7.543   6.203 -15.121  1.00  0.00     0.010 A 
ATOM     67  C   UNL     1      -5.762   7.640 -15.925  1.00  0.00     0.010 A 
ATOM     68  C   UNL     1      -7.670   5.650 -16.399  1.00  0.00     0.020 A 
ATOM     69  C   UNL     1      -5.904   7.109 -17.210  1.00  0.00     0.020 A 
ATOM     70  C   UNL     1      -6.853   6.111 -17.437  1.00  0.00     0.054 A 
BRANCH  70  71
ATOM     71  S   UNL     1      -7.083   5.419 -19.098  1.00  0.00     0.124 S 
ATOM     72  O   UNL     1      -6.581   4.058 -18.929  1.00  0.00    -0.237 OA
ATOM     73  O   UNL     1      -8.526   5.536 -19.294  1.00  0.00    -0.237 OA
ATOM     74  O   UNL     1      -6.269   6.281 -19.951  1.00  0.00    -0.744 OA
ENDBRANCH  70  71
ENDBRANCH  51  65
BRANCH  52  75
ATOM     75  C   UNL     1      -5.539  11.479  -5.924  1.00  0.00    -0.014 A 
ATOM     76  C   UNL     1      -6.636  11.998  -5.212  1.00  0.00     0.010 A 
ATOM     77  C   UNL     1      -4.245  11.645  -5.395  1.00  0.00     0.010 A 
ATOM     78  C   UNL     1      -6.440  12.696  -4.016  1.00  0.00     0.020 A 
ATOM     79  C   UNL     1      -4.048  12.312  -4.183  1.00  0.00     0.020 A 
ATOM     80  C   UNL     1      -5.146  12.850  -3.510  1.00  0.00     0.054 A 
BRANCH  80  81
ATOM     81  S   UNL     1      -4.918  13.743  -1.947  1.00  0.00     0.124 S 
ATOM     82  O   UNL     1      -5.189  15.121  -2.342  1.00  0.00    -0.237 OA
ATOM     83  O   UNL     1      -5.919  13.122  -1.082  1.00  0.00    -0.237 OA
ATOM     84  O   UNL     1      -3.531  13.454  -1.589  1.00  0.00    -0.744 OA
ENDBRANCH  80  81
ENDBRANCH  52  75
BRANCH  64  85
ATOM     85  C   UNL     1      -7.746  13.758 -12.137  1.00  0.00    -0.014 A 
ATOM     86  C   UNL     1      -6.849  14.831 -12.289  1.00  0.00     0.010 A 
ATOM     87  C   UNL     1      -9.092  13.936 -12.508  1.00  0.00     0.010 A 
ATOM     88  C   UNL     1      -7.295  16.063 -12.775  1.00  0.00     0.020 A 
ATOM     89  C   UNL     1      -9.535  15.157 -13.025  1.00  0.00     0.020 A 
ATOM     90  C   UNL     1      -8.635  16.218 -13.144  1.00  0.00     0.054 A 
BRANCH  90  91
ATOM     91  S   UNL     1      -9.174  17.812 -13.820  1.00  0.00     0.124 S 
ATOM     92  O   UNL     1      -9.131  18.674 -12.641  1.00  0.00    -0.237 OA
ATOM     93  O   UNL     1      -8.161  18.087 -14.836  1.00  0.00    -0.237 OA
ATOM     94  O   UNL     1     -10.511  17.536 -14.340  1.00  0.00    -0.744 OA
ENDBRANCH  90  91
ENDBRANCH  64  85
ENDBRANCH  38  39
ENDBRANCH  31  33
ENDBRANCH  30  31
ENDBRANCH  29  30
ENDBRANCH   1  29
TORSDOF 21
