REMARK SMILES NS(=O)(=O)c1ccc(C#Cc2cc(Cl)cc3c2O[C@H](C(F)(F)F)C(C(=O)OCCOCCOC(=O)c2ccc(-c4c5nc(c(-c6ccc(S(=O)(=O)[O-])cc6)c6ccc([nH]6)c(-c6ccc(S(=O)(=O)[O-])cc6)c6nc(c(-c7ccc(S(=O)(=O)[O-])cc7)c7ccc4[nH]7)C=C6)C=C5)cc2)=C3)cc1
REMARK SMILES IDX 29 1 28 2 27 3 25 4 26 5 24 6 11 7 12 8 17 9 13 10 16 11
REMARK SMILES IDX 18 12 14 13 15 14 96 15 19 16 10 17 9 18 8 19 5 20 6 21
REMARK SMILES IDX 98 22 7 23 97 24 2 25 3 26 4 27 1 28 20 31 21 32 22 33 23 34
REMARK SMILES IDX 30 35 31 36 32 37 33 38 34 39 35 40 36 41 37 42 95 43 38 44
REMARK SMILES IDX 94 45 39 46 40 47 41 48 88 49 42 50 93 51 87 52 89 53 43 54
REMARK SMILES IDX 92 55 86 56 85 57 44 59 74 60 55 61 73 62 56 63 59 64 72 65
REMARK SMILES IDX 90 66 57 67 58 68 71 70 91 71 60 72 45 73 46 74 54 75 47 76
REMARK SMILES IDX 53 77 48 78 49 79 50 80 51 81 52 82 75 83 76 84 84 85 77 86
REMARK SMILES IDX 83 87 78 88 79 89 80 90 81 91 82 92 61 93 62 94 70 95 63 96
REMARK SMILES IDX 69 97 64 98 65 99 66 100 67 101 68 102
REMARK H PARENT 1 29 1 30 89 58 59 69
REMARK Flexibility Score: inf
ROOT
ATOM      1  C   UNL     1       0.666 -15.603  -4.919  1.00  0.00     0.202 C 
ENDROOT
BRANCH   1   2
ATOM      2  C   UNL     1       1.925 -14.807  -4.558  1.00  0.00     0.261 C 
BRANCH   2   3
ATOM      3  O   UNL     1       1.718 -13.389  -4.616  1.00  0.00    -0.460 OA
BRANCH   3   4
ATOM      4  C   UNL     1       2.302 -12.788  -5.679  1.00  0.00     0.338 C 
ATOM      5  O   UNL     1       3.003 -13.318  -6.527  1.00  0.00    -0.246 OA
BRANCH   4   6
ATOM      6  C   UNL     1       1.855 -11.385  -5.770  1.00  0.00     0.087 C 
ATOM      7  C   UNL     1       1.200  -7.297  -6.247  1.00  0.00     0.069 A 
ATOM      8  C   UNL     1       1.121  -6.765  -7.539  1.00  0.00     0.041 A 
ATOM      9  C   UNL     1       1.299  -8.684  -6.063  1.00  0.00     0.143 A 
ATOM     10  C   UNL     1       1.129  -7.615  -8.641  1.00  0.00     0.043 A 
ATOM     11  C   UNL     1       1.352  -9.524  -7.180  1.00  0.00     0.020 A 
ATOM     12  O   UNL     1       1.324  -9.163  -4.781  1.00  0.00    -0.474 OA
ATOM     13  Cl  UNL     1       1.036  -6.960 -10.229  1.00  0.00    -0.084 Cl
ATOM     14  C   UNL     1       1.244  -8.991  -8.469  1.00  0.00     0.032 A 
ATOM     15  C   UNL     1       1.614 -10.940  -7.010  1.00  0.00     0.027 C 
ATOM     16  C   UNL     1       1.742 -10.536  -4.536  1.00  0.00     0.316 C 
BRANCH   7  17
ATOM     17  C   UNL     1       1.221  -6.392  -5.138  1.00  0.00    -0.058 C 
ATOM     18  C   UNL     1       1.229  -5.616  -4.218  1.00  0.00    -0.062 C 
BRANCH  18  19
ATOM     19  C   UNL     1       1.164  -4.696  -3.128  1.00  0.00     0.025 A 
ATOM     20  C   UNL     1       0.813  -2.892  -1.033  1.00  0.00     0.082 A 
ATOM     21  C   UNL     1       1.123  -2.414  -2.310  1.00  0.00     0.023 A 
ATOM     22  C   UNL     1       0.728  -4.266  -0.787  1.00  0.00     0.023 A 
ATOM     23  C   UNL     1       1.300  -3.322  -3.358  1.00  0.00     0.018 A 
ATOM     24  C   UNL     1       0.902  -5.167  -1.839  1.00  0.00     0.018 A 
BRANCH  20  25
ATOM     25  S   UNL     1       0.492  -1.786   0.307  1.00  0.00     0.238 S 
ATOM     26  O   UNL     1       1.234  -2.226   1.464  1.00  0.00    -0.207 OA
ATOM     27  O   UNL     1      -0.924  -1.511   0.337  1.00  0.00    -0.207 OA
BRANCH  25  28
ATOM     28  N   UNL     1       1.221  -0.338  -0.147  1.00  0.00    -0.225 NA
ATOM     29  H   UNL     1       1.078   0.359   0.585  1.00  0.00     0.137 HD
ATOM     30  H   UNL     1       0.805  -0.007  -1.018  1.00  0.00     0.137 HD
ENDBRANCH  25  28
ENDBRANCH  20  25
ENDBRANCH  18  19
ENDBRANCH   7  17
BRANCH  16  31
ATOM     31  C   UNL     1       3.040 -10.506  -3.717  1.00  0.00     0.430 C 
ATOM     32  F   UNL     1       2.928  -9.675  -2.654  1.00  0.00    -0.167 F 
ATOM     33  F   UNL     1       3.355 -11.727  -3.229  1.00  0.00    -0.167 F 
ATOM     34  F   UNL     1       4.087 -10.081  -4.461  1.00  0.00    -0.167 F 
ENDBRANCH  16  31
ENDBRANCH   4   6
ENDBRANCH   3   4
ENDBRANCH   2   3
ENDBRANCH   1   2
BRANCH   1  35
ATOM     35  O   UNL     1       0.013 -15.333  -6.155  1.00  0.00    -0.374 OA
BRANCH  35  36
ATOM     36  C   UNL     1      -0.705 -14.112  -6.308  1.00  0.00     0.202 C 
BRANCH  36  37
ATOM     37  C   UNL     1      -1.985 -13.874  -5.495  1.00  0.00     0.261 C 
BRANCH  37  38
ATOM     38  O   UNL     1      -1.790 -13.917  -4.074  1.00  0.00    -0.460 OA
BRANCH  38  39
ATOM     39  C   UNL     1      -2.273 -15.036  -3.472  1.00  0.00     0.338 C 
ATOM     40  O   UNL     1      -2.835 -15.976  -4.007  1.00  0.00    -0.246 OA
BRANCH  39  41
ATOM     41  C   UNL     1      -1.831 -15.051  -2.065  1.00  0.00     0.060 A 
ATOM     42  C   UNL     1      -2.181 -14.020  -1.195  1.00  0.00     0.016 A 
ATOM     43  C   UNL     1      -1.080 -16.144  -1.613  1.00  0.00     0.016 A 
ATOM     44  C   UNL     1      -1.786 -14.094   0.142  1.00  0.00     0.010 A 
ATOM     45  C   UNL     1      -0.689 -16.216  -0.276  1.00  0.00     0.010 A 
ATOM     46  C   UNL     1      -1.053 -15.200   0.617  1.00  0.00    -0.014 A 
BRANCH  46  47
ATOM     47  C   UNL     1      -0.778 -15.342   2.070  1.00  0.00     0.031 A 
ATOM     48  C   UNL     1       0.607 -15.188   2.625  1.00  0.00     0.074 A 
ATOM     49  C   UNL     1      -1.809 -15.620   2.893  1.00  0.00     0.049 A 
ATOM     50  N   UNL     1       0.991 -15.203   3.875  1.00  0.00    -0.248 NA
ATOM     51  C   UNL     1       1.702 -14.998   1.662  1.00  0.00     0.031 C 
ATOM     52  C   UNL     1      -3.193 -15.819   2.457  1.00  0.00     0.029 A 
ATOM     53  N   UNL     1      -1.865 -15.765   4.257  1.00  0.00    -0.354 N 
ATOM     54  C   UNL     1       2.365 -15.005   3.856  1.00  0.00     0.074 A 
ATOM     55  C   UNL     1       2.758 -14.929   2.465  1.00  0.00     0.031 C 
ATOM     56  C   UNL     1      -3.968 -16.007   3.534  1.00  0.00     0.029 A 
ATOM     57  C   UNL     1      -3.135 -15.996   4.735  1.00  0.00     0.049 A 
ATOM     58  H   UNL     1      -1.073 -15.710   4.838  1.00  0.00     0.167 HD
ATOM     59  C   UNL     1       3.212 -14.875   4.905  1.00  0.00     0.031 A 
ATOM     60  C   UNL     1      -3.588 -16.173   5.993  1.00  0.00     0.031 A 
ATOM     61  C   UNL     1       2.802 -14.964   6.286  1.00  0.00     0.049 A 
ATOM     62  C   UNL     1      -2.619 -16.071   7.139  1.00  0.00     0.074 A 
ATOM     63  C   UNL     1       3.583 -14.803   7.418  1.00  0.00     0.029 A 
ATOM     64  N   UNL     1       1.516 -15.242   6.729  1.00  0.00    -0.354 N 
ATOM     65  N   UNL     1      -1.337 -15.795   7.106  1.00  0.00    -0.248 NA
ATOM     66  C   UNL     1      -3.154 -16.284   8.491  1.00  0.00     0.031 C 
ATOM     67  C   UNL     1       2.796 -15.077   8.536  1.00  0.00     0.029 A 
ATOM     68  C   UNL     1       1.495 -15.302   8.114  1.00  0.00     0.049 A 
ATOM     69  H   UNL     1       0.735 -15.376   6.145  1.00  0.00     0.167 HD
ATOM     70  C   UNL     1      -0.917 -15.778   8.432  1.00  0.00     0.074 A 
ATOM     71  C   UNL     1      -2.086 -16.047   9.243  1.00  0.00     0.031 C 
ATOM     72  C   UNL     1       0.328 -15.563   8.925  1.00  0.00     0.031 A 
BRANCH  59  73
ATOM     73  C   UNL     1       4.670 -14.596   4.630  1.00  0.00    -0.014 A 
ATOM     74  C   UNL     1       5.654 -15.508   5.059  1.00  0.00     0.010 A 
ATOM     75  C   UNL     1       5.079 -13.361   4.092  1.00  0.00     0.010 A 
ATOM     76  C   UNL     1       7.010 -15.172   5.006  1.00  0.00     0.020 A 
ATOM     77  C   UNL     1       6.436 -13.036   4.003  1.00  0.00     0.020 A 
ATOM     78  C   UNL     1       7.391 -13.932   4.489  1.00  0.00     0.054 A 
BRANCH  78  79
ATOM     79  S   UNL     1       9.150 -13.489   4.489  1.00  0.00     0.124 S 
ATOM     80  O   UNL     1       9.422 -13.300   5.910  1.00  0.00    -0.237 OA
ATOM     81  O   UNL     1       9.771 -14.662   3.877  1.00  0.00    -0.237 OA
ATOM     82  O   UNL     1       9.199 -12.275   3.677  1.00  0.00    -0.744 OA
ENDBRANCH  78  79
ENDBRANCH  59  73
BRANCH  60  83
ATOM     83  C   UNL     1      -5.045 -16.408   6.214  1.00  0.00    -0.014 A 
ATOM     84  C   UNL     1      -5.668 -17.559   5.693  1.00  0.00     0.010 A 
ATOM     85  C   UNL     1      -5.836 -15.441   6.859  1.00  0.00     0.010 A 
ATOM     86  C   UNL     1      -7.057 -17.701   5.743  1.00  0.00     0.020 A 
ATOM     87  C   UNL     1      -7.223 -15.599   6.949  1.00  0.00     0.020 A 
ATOM     88  C   UNL     1      -7.827 -16.711   6.357  1.00  0.00     0.054 A 
BRANCH  88  89
ATOM     89  S   UNL     1      -9.633 -16.879   6.332  1.00  0.00     0.124 S 
ATOM     90  O   UNL     1      -9.936 -16.642   4.923  1.00  0.00    -0.237 OA
ATOM     91  O   UNL     1      -9.829 -18.250   6.796  1.00  0.00    -0.237 OA
ATOM     92  O   UNL     1     -10.089 -15.840   7.251  1.00  0.00    -0.744 OA
ENDBRANCH  88  89
ENDBRANCH  60  83
BRANCH  72  93
ATOM     93  C   UNL     1       0.529 -15.604  10.422  1.00  0.00    -0.014 A 
ATOM     94  C   UNL     1       0.984 -14.455  11.098  1.00  0.00     0.010 A 
ATOM     95  C   UNL     1       0.423 -16.813  11.134  1.00  0.00     0.010 A 
ATOM     96  C   UNL     1       1.387 -14.526  12.434  1.00  0.00     0.020 A 
ATOM     97  C   UNL     1       0.785 -16.878  12.484  1.00  0.00     0.020 A 
ATOM     98  C   UNL     1       1.297 -15.742  13.115  1.00  0.00     0.054 A 
BRANCH  98  99
ATOM     99  S   UNL     1       1.894 -15.830  14.826  1.00  0.00     0.124 S 
ATOM    100  O   UNL     1       3.339 -15.719  14.654  1.00  0.00    -0.237 OA
ATOM    101  O   UNL     1       1.243 -14.680  15.450  1.00  0.00    -0.237 OA
ATOM    102  O   UNL     1       1.419 -17.132  15.290  1.00  0.00    -0.744 OA
ENDBRANCH  98  99
ENDBRANCH  72  93
ENDBRANCH  46  47
ENDBRANCH  39  41
ENDBRANCH  38  39
ENDBRANCH  37  38
ENDBRANCH  36  37
ENDBRANCH  35  36
ENDBRANCH   1  35
TORSDOF 22
