REMARK SMILES CC1=C(C)C(=O)N([C@@](C)(C(=O)OCCOCCOC(=O)c2ccc(-c3c4nc(c(-c5ccc(S(=O)(=O)[O-])cc5)c5ccc([nH]5)c(-c5ccc(S(=O)(=O)[O-])cc5)c5nc(c(-c6ccc(S(=O)(=O)[O-])cc6)c6ccc3[nH]6)C=C5)C=C4)cc2)C(F)(F)F)C1=O
REMARK SMILES IDX 16 1 15 2 14 3 13 4 12 5 10 6 11 7 8 8 9 9 7 10 1 11 2 12
REMARK SMILES IDX 3 13 85 14 4 15 5 16 86 17 6 18 81 19 82 20 83 21 84 22
REMARK SMILES IDX 17 23 18 24 19 25 20 26 21 27 22 28 80 29 23 30 79 31 24 32
REMARK SMILES IDX 25 33 26 34 73 35 27 36 78 37 72 38 74 39 28 40 77 41 71 42
REMARK SMILES IDX 70 43 29 45 59 46 40 47 58 48 41 49 44 50 57 51 75 52 42 53
REMARK SMILES IDX 43 54 56 56 76 57 45 58 30 59 31 60 39 61 32 62 38 63 33 64
REMARK SMILES IDX 34 65 35 66 36 67 37 68 60 69 61 70 69 71 62 72 68 73 63 74
REMARK SMILES IDX 64 75 65 76 66 77 67 78 46 79 47 80 55 81 48 82 54 83 49 84
REMARK SMILES IDX 50 85 51 86 52 87 53 88
REMARK H PARENT 74 44 44 55
REMARK Flexibility Score: inf
ROOT
ATOM      1  C   UNL     1      -2.307  -5.867  -1.326  1.00  0.00     0.202 C 
ENDROOT
BRANCH   1   2
ATOM      2  O   UNL     1      -2.292  -7.066  -0.555  1.00  0.00    -0.374 OA
BRANCH   2   3
ATOM      3  C   UNL     1      -1.633  -7.063   0.706  1.00  0.00     0.202 C 
BRANCH   3   4
ATOM      4  C   UNL     1      -0.117  -6.858   0.728  1.00  0.00     0.261 C 
BRANCH   4   5
ATOM      5  O   UNL     1       0.306  -5.729  -0.059  1.00  0.00    -0.461 OA
BRANCH   5   6
ATOM      6  C   UNL     1       1.155  -6.028  -1.079  1.00  0.00     0.341 C 
ATOM      7  O   UNL     1       1.593  -7.157  -1.279  1.00  0.00    -0.249 OA
BRANCH   6   8
ATOM      8  C   UNL     1       1.561  -4.830  -1.935  1.00  0.00     0.240 C 
ATOM      9  C   UNL     1       3.087  -4.669  -1.764  1.00  0.00     0.058 C 
BRANCH   8  10
ATOM     10  N   UNL     1       0.911  -3.513  -1.624  1.00  0.00    -0.249 N 
ATOM     11  C   UNL     1       0.925  -0.314   0.222  1.00  0.00     0.051 C 
ATOM     12  C   UNL     1       0.665  -1.418  -0.730  1.00  0.00     0.023 C 
ATOM     13  C   UNL     1       0.150  -1.380  -1.962  1.00  0.00     0.023 C 
ATOM     14  C   UNL     1       1.131  -2.796  -0.491  1.00  0.00     0.258 C 
ATOM     15  C   UNL     1      -0.261  -0.211  -2.778  1.00  0.00     0.051 C 
ATOM     16  C   UNL     1       0.189  -2.752  -2.490  1.00  0.00     0.258 C 
ATOM     17  O   UNL     1       1.694  -3.152   0.528  1.00  0.00    -0.269 OA
ATOM     18  O   UNL     1      -0.337  -3.073  -3.536  1.00  0.00    -0.269 OA
ENDBRANCH   8  10
BRANCH   8  19
ATOM     19  C   UNL     1       1.308  -5.326  -3.376  1.00  0.00     0.422 C 
ATOM     20  F   UNL     1       0.008  -5.613  -3.610  1.00  0.00    -0.168 F 
ATOM     21  F   UNL     1       1.705  -4.394  -4.282  1.00  0.00    -0.168 F 
ATOM     22  F   UNL     1       2.017  -6.437  -3.691  1.00  0.00    -0.168 F 
ENDBRANCH   8  19
ENDBRANCH   6   8
ENDBRANCH   5   6
ENDBRANCH   4   5
ENDBRANCH   3   4
ENDBRANCH   2   3
ENDBRANCH   1   2
BRANCH   1  23
ATOM     23  C   UNL     1      -3.038  -4.631  -0.780  1.00  0.00     0.261 C 
BRANCH  23  24
ATOM     24  O   UNL     1      -2.577  -4.192   0.511  1.00  0.00    -0.460 OA
BRANCH  24  25
ATOM     25  C   UNL     1      -3.477  -4.388   1.510  1.00  0.00     0.338 C 
ATOM     26  O   UNL     1      -4.600  -4.853   1.403  1.00  0.00    -0.246 OA
BRANCH  25  27
ATOM     27  C   UNL     1      -2.868  -4.135   2.829  1.00  0.00     0.060 A 
ATOM     28  C   UNL     1      -2.907  -5.177   3.765  1.00  0.00     0.016 A 
ATOM     29  C   UNL     1      -2.398  -2.872   3.191  1.00  0.00     0.016 A 
ATOM     30  C   UNL     1      -2.534  -4.944   5.085  1.00  0.00     0.010 A 
ATOM     31  C   UNL     1      -2.031  -2.638   4.522  1.00  0.00     0.010 A 
ATOM     32  C   UNL     1      -2.141  -3.660   5.484  1.00  0.00    -0.014 A 
BRANCH  32  33
ATOM     33  C   UNL     1      -2.006  -3.368   6.933  1.00  0.00     0.031 A 
ATOM     34  C   UNL     1      -3.118  -2.639   7.641  1.00  0.00     0.074 A 
ATOM     35  C   UNL     1      -0.938  -3.805   7.624  1.00  0.00     0.049 A 
ATOM     36  N   UNL     1      -3.216  -2.301   8.901  1.00  0.00    -0.248 NA
ATOM     37  C   UNL     1      -4.273  -2.239   6.820  1.00  0.00     0.031 C 
ATOM     38  C   UNL     1       0.179  -4.564   7.061  1.00  0.00     0.029 A 
ATOM     39  N   UNL     1      -0.623  -3.679   8.953  1.00  0.00    -0.354 N 
ATOM     40  C   UNL     1      -4.435  -1.642   9.023  1.00  0.00     0.074 A 
ATOM     41  C   UNL     1      -5.025  -1.598   7.703  1.00  0.00     0.031 C 
ATOM     42  C   UNL     1       1.056  -4.839   8.041  1.00  0.00     0.029 A 
ATOM     43  C   UNL     1       0.582  -4.247   9.290  1.00  0.00     0.049 A 
ATOM     44  H   UNL     1      -1.206  -3.225   9.604  1.00  0.00     0.167 HD
ATOM     45  C   UNL     1      -5.014  -1.127  10.135  1.00  0.00     0.031 A 
ATOM     46  C   UNL     1       1.237  -4.273  10.468  1.00  0.00     0.031 A 
ATOM     47  C   UNL     1      -4.419  -1.167  11.445  1.00  0.00     0.049 A 
ATOM     48  C   UNL     1       0.605  -3.631  11.675  1.00  0.00     0.074 A 
ATOM     49  C   UNL     1      -4.933  -0.688  12.638  1.00  0.00     0.029 A 
ATOM     50  N   UNL     1      -3.176  -1.708  11.736  1.00  0.00    -0.354 N 
ATOM     51  N   UNL     1      -0.558  -3.033  11.779  1.00  0.00    -0.248 NA
ATOM     52  C   UNL     1       1.372  -3.677  12.928  1.00  0.00     0.031 C 
ATOM     53  C   UNL     1      -3.973  -0.881  13.636  1.00  0.00     0.029 A 
ATOM     54  C   UNL     1      -2.891  -1.546  13.081  1.00  0.00     0.049 A 
ATOM     55  H   UNL     1      -2.583  -2.144  11.081  1.00  0.00     0.167 HD
ATOM     56  C   UNL     1      -0.674  -2.657  13.114  1.00  0.00     0.074 A 
ATOM     57  C   UNL     1       0.529  -3.112  13.781  1.00  0.00     0.031 C 
ATOM     58  C   UNL     1      -1.686  -1.997  13.732  1.00  0.00     0.031 A 
BRANCH  45  59
ATOM     59  C   UNL     1      -6.346  -0.439   9.974  1.00  0.00    -0.014 A 
ATOM     60  C   UNL     1      -7.516  -1.162   9.679  1.00  0.00     0.010 A 
ATOM     61  C   UNL     1      -6.434   0.953  10.164  1.00  0.00     0.010 A 
ATOM     62  C   UNL     1      -8.740  -0.501   9.538  1.00  0.00     0.020 A 
ATOM     63  C   UNL     1      -7.661   1.613  10.053  1.00  0.00     0.020 A 
ATOM     64  C   UNL     1      -8.804   0.883   9.725  1.00  0.00     0.054 A 
BRANCH  64  65
ATOM     65  S   UNL     1     -10.410   1.711   9.557  1.00  0.00     0.124 S 
ATOM     66  O   UNL     1     -10.641   1.631   8.117  1.00  0.00    -0.237 OA
ATOM     67  O   UNL     1     -11.285   0.880  10.381  1.00  0.00    -0.237 OA
ATOM     68  O   UNL     1     -10.164   3.055  10.074  1.00  0.00    -0.744 OA
ENDBRANCH  64  65
ENDBRANCH  45  59
BRANCH  46  69
ATOM     69  C   UNL     1       2.578  -4.915  10.558  1.00  0.00    -0.014 A 
ATOM     70  C   UNL     1       2.767  -6.094  11.300  1.00  0.00     0.010 A 
ATOM     71  C   UNL     1       3.679  -4.343   9.894  1.00  0.00     0.010 A 
ATOM     72  C   UNL     1       4.034  -6.679  11.390  1.00  0.00     0.020 A 
ATOM     73  C   UNL     1       4.940  -4.942   9.955  1.00  0.00     0.020 A 
ATOM     74  C   UNL     1       5.112  -6.101  10.713  1.00  0.00     0.054 A 
BRANCH  74  75
ATOM     75  S   UNL     1       6.735  -6.906  10.802  1.00  0.00     0.124 S 
ATOM     76  O   UNL     1       7.138  -6.626  12.177  1.00  0.00    -0.237 OA
ATOM     77  O   UNL     1       6.410  -8.299  10.508  1.00  0.00    -0.237 OA
ATOM     78  O   UNL     1       7.512  -6.224   9.770  1.00  0.00    -0.744 OA
ENDBRANCH  74  75
ENDBRANCH  46  69
BRANCH  58  79
ATOM     79  C   UNL     1      -1.553  -1.754  15.214  1.00  0.00    -0.014 A 
ATOM     80  C   UNL     1      -0.616  -0.838  15.726  1.00  0.00     0.010 A 
ATOM     81  C   UNL     1      -2.412  -2.423  16.106  1.00  0.00     0.010 A 
ATOM     82  C   UNL     1      -0.513  -0.628  17.105  1.00  0.00     0.020 A 
ATOM     83  C   UNL     1      -2.334  -2.191  17.482  1.00  0.00     0.020 A 
ATOM     84  C   UNL     1      -1.372  -1.308  17.974  1.00  0.00     0.054 A 
BRANCH  84  85
ATOM     85  S   UNL     1      -1.237  -0.995  19.755  1.00  0.00     0.124 S 
ATOM     86  O   UNL     1       0.013  -1.673  20.089  1.00  0.00    -0.237 OA
ATOM     87  O   UNL     1      -1.198   0.464  19.822  1.00  0.00    -0.237 OA
ATOM     88  O   UNL     1      -2.444  -1.607  20.308  1.00  0.00    -0.744 OA
ENDBRANCH  84  85
ENDBRANCH  58  79
ENDBRANCH  32  33
ENDBRANCH  25  27
ENDBRANCH  24  25
ENDBRANCH  23  24
ENDBRANCH   1  23
TORSDOF 19
