REMARK SMILES CC[C@H](NC(=O)c1nn(C)cc1C(=O)OCCOCCOC(=O)c1ccc(-c2c3nc(c(-c4ccc(S(=O)(=O)[O-])cc4)c4ccc([nH]4)c(-c4ccc(S(=O)(=O)[O-])cc4)c4nc(c(-c5ccc(S(=O)(=O)[O-])cc5)c5ccc2[nH]5)C=C4)C=C3)cc1)c1ccccc1
REMARK SMILES IDX 18 1 17 2 16 3 15 4 13 5 14 6 12 7 7 8 8 9 9 10 11 11 10 12
REMARK SMILES IDX 5 13 4 14 6 16 3 17 2 18 1 19 84 20 85 21 89 22 86 23 88 24
REMARK SMILES IDX 87 25 19 26 20 27 21 28 22 29 23 30 24 31 25 32 83 33 26 34
REMARK SMILES IDX 82 35 27 36 28 37 29 38 76 39 30 40 81 41 75 42 77 43 31 44
REMARK SMILES IDX 80 45 74 46 73 47 32 49 62 50 43 51 61 52 44 53 47 54 60 55
REMARK SMILES IDX 78 56 45 57 46 58 59 60 79 61 48 62 33 63 34 64 42 65 35 66
REMARK SMILES IDX 41 67 36 68 37 69 38 70 39 71 40 72 63 73 64 74 72 75 65 76
REMARK SMILES IDX 71 77 66 78 67 79 68 80 69 81 70 82 49 83 50 84 58 85 51 86
REMARK SMILES IDX 57 87 52 88 53 89 54 90 55 91 56 92
REMARK H PARENT 4 15 77 48 47 59
REMARK Flexibility Score: inf
ROOT
ATOM      1  O   UNL     1       1.229   5.076  -2.680  1.00  0.00    -0.374 OA
ENDROOT
BRANCH   1   2
ATOM      2  C   UNL     1       0.734   6.177  -1.918  1.00  0.00     0.202 C 
BRANCH   2   3
ATOM      3  C   UNL     1       1.260   6.617  -0.542  1.00  0.00     0.261 C 
BRANCH   3   4
ATOM      4  O   UNL     1       1.840   5.575   0.240  1.00  0.00    -0.460 OA
BRANCH   4   5
ATOM      5  C   UNL     1       1.188   5.053   1.302  1.00  0.00     0.342 C 
ATOM      6  O   UNL     1       0.083   5.417   1.718  1.00  0.00    -0.246 OA
BRANCH   5   7
ATOM      7  C   UNL     1       2.040   4.118   1.986  1.00  0.00     0.111 A 
ATOM      8  C   UNL     1       1.938   2.743   2.383  1.00  0.00     0.164 A 
ATOM      9  N   UNL     1       3.061   2.396   3.064  1.00  0.00    -0.167 NA
ATOM     10  N   UNL     1       3.781   3.512   3.171  1.00  0.00    -0.274 N 
ATOM     11  C   UNL     1       3.265   4.548   2.480  1.00  0.00     0.125 A 
ATOM     12  C   UNL     1       4.948   3.533   4.019  1.00  0.00     0.173 C 
BRANCH   8  13
ATOM     13  C   UNL     1       0.914   1.675   2.267  1.00  0.00     0.273 C 
ATOM     14  N   UNL     1       0.176   1.390   1.144  1.00  0.00    -0.344 N 
ATOM     15  H   UNL     1      -0.216   0.487   1.149  1.00  0.00     0.164 HD
ATOM     16  O   UNL     1       0.720   0.882   3.199  1.00  0.00    -0.267 OA
BRANCH  14  17
ATOM     17  C   UNL     1      -0.139   2.150  -0.045  1.00  0.00     0.112 C 
BRANCH  17  18
ATOM     18  C   UNL     1      -0.429   1.236  -1.258  1.00  0.00     0.026 C 
ATOM     19  C   UNL     1       0.654   0.205  -1.546  1.00  0.00     0.006 C 
ENDBRANCH  17  18
BRANCH  17  20
ATOM     20  C   UNL     1      -1.313   3.090   0.210  1.00  0.00    -0.026 A 
ATOM     21  C   UNL     1      -1.665   4.038  -0.761  1.00  0.00     0.006 A 
ATOM     22  C   UNL     1      -2.008   3.119   1.432  1.00  0.00     0.006 A 
ATOM     23  C   UNL     1      -2.585   5.052  -0.478  1.00  0.00     0.000 A 
ATOM     24  C   UNL     1      -2.930   4.127   1.714  1.00  0.00     0.000 A 
ATOM     25  C   UNL     1      -3.197   5.111   0.768  1.00  0.00     0.000 A 
ENDBRANCH  17  20
ENDBRANCH  14  17
ENDBRANCH   8  13
ENDBRANCH   5   7
ENDBRANCH   4   5
ENDBRANCH   3   4
ENDBRANCH   2   3
ENDBRANCH   1   2
BRANCH   1  26
ATOM     26  C   UNL     1       2.178   4.153  -2.176  1.00  0.00     0.202 C 
BRANCH  26  27
ATOM     27  C   UNL     1       3.643   4.477  -2.465  1.00  0.00     0.261 C 
BRANCH  27  28
ATOM     28  O   UNL     1       3.891   5.876  -2.389  1.00  0.00    -0.460 OA
BRANCH  28  29
ATOM     29  C   UNL     1       3.635   6.511  -3.558  1.00  0.00     0.338 C 
ATOM     30  O   UNL     1       3.378   6.007  -4.639  1.00  0.00    -0.246 OA
BRANCH  29  31
ATOM     31  C   UNL     1       3.562   7.952  -3.297  1.00  0.00     0.060 A 
ATOM     32  C   UNL     1       2.562   8.674  -3.958  1.00  0.00     0.016 A 
ATOM     33  C   UNL     1       4.487   8.585  -2.460  1.00  0.00     0.016 A 
ATOM     34  C   UNL     1       2.531  10.054  -3.848  1.00  0.00     0.010 A 
ATOM     35  C   UNL     1       4.473   9.971  -2.367  1.00  0.00     0.010 A 
ATOM     36  C   UNL     1       3.536  10.699  -3.116  1.00  0.00    -0.014 A 
BRANCH  36  37
ATOM     37  C   UNL     1       3.803  12.113  -3.423  1.00  0.00     0.031 A 
ATOM     38  C   UNL     1       4.699  12.396  -4.597  1.00  0.00     0.074 A 
ATOM     39  C   UNL     1       3.239  13.090  -2.701  1.00  0.00     0.049 A 
ATOM     40  N   UNL     1       5.040  13.540  -5.122  1.00  0.00    -0.248 NA
ATOM     41  C   UNL     1       5.283  11.223  -5.275  1.00  0.00     0.031 C 
ATOM     42  C   UNL     1       2.343  12.891  -1.562  1.00  0.00     0.029 A 
ATOM     43  N   UNL     1       3.341  14.447  -2.825  1.00  0.00    -0.354 N 
ATOM     44  C   UNL     1       5.865  13.224  -6.196  1.00  0.00     0.074 A 
ATOM     45  C   UNL     1       6.002  11.788  -6.230  1.00  0.00     0.031 C 
ATOM     46  C   UNL     1       1.987  14.093  -1.079  1.00  0.00     0.029 A 
ATOM     47  C   UNL     1       2.637  15.135  -1.870  1.00  0.00     0.049 A 
ATOM     48  H   UNL     1       3.868  14.887  -3.530  1.00  0.00     0.167 HD
ATOM     49  C   UNL     1       6.459  14.062  -7.076  1.00  0.00     0.031 A 
ATOM     50  C   UNL     1       2.541  16.462  -1.667  1.00  0.00     0.031 A 
ATOM     51  C   UNL     1       6.363  15.491  -6.978  1.00  0.00     0.049 A 
ATOM     52  C   UNL     1       3.236  17.382  -2.632  1.00  0.00     0.074 A 
ATOM     53  C   UNL     1       6.944  16.458  -7.775  1.00  0.00     0.029 A 
ATOM     54  N   UNL     1       5.641  16.156  -5.994  1.00  0.00    -0.354 N 
ATOM     55  N   UNL     1       3.994  17.075  -3.661  1.00  0.00    -0.248 NA
ATOM     56  C   UNL     1       3.044  18.822  -2.429  1.00  0.00     0.031 C 
ATOM     57  C   UNL     1       6.603  17.710  -7.248  1.00  0.00     0.029 A 
ATOM     58  C   UNL     1       5.769  17.521  -6.155  1.00  0.00     0.049 A 
ATOM     59  H   UNL     1       5.116  15.717  -5.286  1.00  0.00     0.167 HD
ATOM     60  C   UNL     1       4.353  18.284  -4.245  1.00  0.00     0.074 A 
ATOM     61  C   UNL     1       3.717  19.324  -3.456  1.00  0.00     0.031 C 
ATOM     62  C   UNL     1       5.128  18.519  -5.334  1.00  0.00     0.031 A 
BRANCH  49  63
ATOM     63  C   UNL     1       7.297  13.428  -8.153  1.00  0.00    -0.014 A 
ATOM     64  C   UNL     1       6.705  12.691  -9.197  1.00  0.00     0.010 A 
ATOM     65  C   UNL     1       8.699  13.505  -8.082  1.00  0.00     0.010 A 
ATOM     66  C   UNL     1       7.499  11.991 -10.111  1.00  0.00     0.020 A 
ATOM     67  C   UNL     1       9.496  12.827  -9.008  1.00  0.00     0.020 A 
ATOM     68  C   UNL     1       8.891  12.051 -10.000  1.00  0.00     0.054 A 
BRANCH  68  69
ATOM     69  S   UNL     1       9.905  11.104 -11.169  1.00  0.00     0.124 S 
ATOM     70  O   UNL     1       9.778   9.746 -10.644  1.00  0.00    -0.237 OA
ATOM     71  O   UNL     1       9.240  11.347 -12.447  1.00  0.00    -0.237 OA
ATOM     72  O   UNL     1      11.232  11.701 -11.038  1.00  0.00    -0.744 OA
ENDBRANCH  68  69
ENDBRANCH  49  63
BRANCH  50  73
ATOM     73  C   UNL     1       1.744  16.966  -0.518  1.00  0.00    -0.014 A 
ATOM     74  C   UNL     1       0.478  17.541  -0.714  1.00  0.00     0.010 A 
ATOM     75  C   UNL     1       2.220  16.790   0.795  1.00  0.00     0.010 A 
ATOM     76  C   UNL     1      -0.303  17.923   0.382  1.00  0.00     0.020 A 
ATOM     77  C   UNL     1       1.434  17.152   1.893  1.00  0.00     0.020 A 
ATOM     78  C   UNL     1       0.176  17.717   1.679  1.00  0.00     0.054 A 
BRANCH  78  79
ATOM     79  S   UNL     1      -0.898  18.117   3.087  1.00  0.00     0.124 S 
ATOM     80  O   UNL     1      -0.821  19.574   3.124  1.00  0.00    -0.237 OA
ATOM     81  O   UNL     1      -2.184  17.561   2.672  1.00  0.00    -0.237 OA
ATOM     82  O   UNL     1      -0.263  17.427   4.207  1.00  0.00    -0.744 OA
ENDBRANCH  78  79
ENDBRANCH  50  73
BRANCH  62  83
ATOM     83  C   UNL     1       5.301  19.954  -5.743  1.00  0.00    -0.014 A 
ATOM     84  C   UNL     1       6.132  20.823  -5.015  1.00  0.00     0.010 A 
ATOM     85  C   UNL     1       4.652  20.423  -6.899  1.00  0.00     0.010 A 
ATOM     86  C   UNL     1       6.277  22.153  -5.415  1.00  0.00     0.020 A 
ATOM     87  C   UNL     1       4.814  21.744  -7.315  1.00  0.00     0.020 A 
ATOM     88  C   UNL     1       5.611  22.606  -6.558  1.00  0.00     0.054 A 
BRANCH  88  89
ATOM     89  S   UNL     1       5.825  24.331  -7.071  1.00  0.00     0.124 S 
ATOM     90  O   UNL     1       4.942  25.033  -6.144  1.00  0.00    -0.237 OA
ATOM     91  O   UNL     1       7.255  24.554  -6.867  1.00  0.00    -0.237 OA
ATOM     92  O   UNL     1       5.394  24.332  -8.467  1.00  0.00    -0.744 OA
ENDBRANCH  88  89
ENDBRANCH  62  83
ENDBRANCH  36  37
ENDBRANCH  29  31
ENDBRANCH  28  29
ENDBRANCH  27  28
ENDBRANCH  26  27
ENDBRANCH   1  26
TORSDOF 21
