REMARK SMILES O=C(OCCOCCOC(=O)[C@@H](Cc1c[nH]c2ccccc12)NC(=O)c1ccc(F)cc1F)c1ccc(-c2c3nc(c(-c4ccc(S(=O)(=O)[O-])cc4)c4ccc([nH]4)c(-c4ccc(S(=O)(=O)[O-])cc4)c4nc(c(-c5ccc(S(=O)(=O)[O-])cc5)c5ccc2[nH]5)C=C4)C=C3)cc1
REMARK SMILES IDX 5 1 4 2 3 3 2 4 1 5 34 6 35 7 93 8 36 9 92 10 37 11 38 12
REMARK SMILES IDX 39 13 86 14 40 15 91 16 85 17 87 18 41 19 90 20 84 21 83 22
REMARK SMILES IDX 42 24 72 25 53 26 71 27 54 28 57 29 70 30 88 31 55 32 56 33
REMARK SMILES IDX 69 35 89 36 58 37 43 38 44 39 52 40 45 41 51 42 46 43 47 44
REMARK SMILES IDX 48 45 49 46 50 47 73 48 74 49 82 50 75 51 81 52 76 53 77 54
REMARK SMILES IDX 78 55 79 56 80 57 59 58 60 59 68 60 61 61 67 62 62 63 63 64
REMARK SMILES IDX 64 65 65 66 66 67 6 68 7 69 8 70 9 71 10 72 11 73 12 74
REMARK SMILES IDX 13 75 14 76 15 77 22 78 16 79 17 80 21 81 18 83 20 84 19 85
REMARK SMILES IDX 23 86 24 87 25 89 26 90 27 91 32 92 28 93 31 94 33 95 29 96
REMARK SMILES IDX 30 97
REMARK H PARENT 87 23 57 34 16 82 23 88
REMARK Flexibility Score: inf
ROOT
ATOM      1  C   UNL     1       4.578  -0.231  -1.407  1.00  0.00     0.202 C 
ENDROOT
BRANCH   1   2
ATOM      2  C   UNL     1       4.146  -1.342  -0.441  1.00  0.00     0.261 C 
BRANCH   2   3
ATOM      3  O   UNL     1       2.746  -1.240  -0.121  1.00  0.00    -0.460 OA
BRANCH   3   4
ATOM      4  C   UNL     1       2.161  -0.749   0.998  1.00  0.00     0.338 C 
ATOM      5  O   UNL     1       0.946  -0.897   1.129  1.00  0.00    -0.246 OA
BRANCH   4   6
ATOM      6  C   UNL     1       2.902  -0.014   2.073  1.00  0.00     0.060 A 
ATOM      7  C   UNL     1       4.179   0.522   1.932  1.00  0.00     0.016 A 
ATOM      8  C   UNL     1       2.237   0.209   3.293  1.00  0.00     0.016 A 
ATOM      9  C   UNL     1       4.802   1.218   2.946  1.00  0.00     0.010 A 
ATOM     10  C   UNL     1       2.854   0.919   4.333  1.00  0.00     0.010 A 
ATOM     11  C   UNL     1       4.150   1.408   4.156  1.00  0.00    -0.014 A 
BRANCH  11  12
ATOM     12  C   UNL     1       4.979   1.975   5.227  1.00  0.00     0.031 A 
ATOM     13  C   UNL     1       5.677   1.014   6.140  1.00  0.00     0.074 A 
ATOM     14  C   UNL     1       5.309   3.278   5.168  1.00  0.00     0.049 A 
ATOM     15  N   UNL     1       6.572   1.250   7.057  1.00  0.00    -0.248 NA
ATOM     16  C   UNL     1       5.354  -0.414   5.963  1.00  0.00     0.031 C 
ATOM     17  C   UNL     1       4.812   4.226   4.165  1.00  0.00     0.029 A 
ATOM     18  N   UNL     1       6.197   4.010   5.906  1.00  0.00    -0.354 N 
ATOM     19  C   UNL     1       6.899   0.008   7.585  1.00  0.00     0.074 A 
ATOM     20  C   UNL     1       6.122  -0.983   6.877  1.00  0.00     0.031 C 
ATOM     21  C   UNL     1       5.443   5.401   4.322  1.00  0.00     0.029 A 
ATOM     22  C   UNL     1       6.334   5.307   5.472  1.00  0.00     0.049 A 
ATOM     23  H   UNL     1       6.691   3.643   6.675  1.00  0.00     0.167 HD
ATOM     24  C   UNL     1       7.758  -0.269   8.592  1.00  0.00     0.031 A 
ATOM     25  C   UNL     1       7.087   6.305   5.971  1.00  0.00     0.031 A 
ATOM     26  C   UNL     1       8.489   0.748   9.291  1.00  0.00     0.049 A 
ATOM     27  C   UNL     1       7.935   5.996   7.174  1.00  0.00     0.074 A 
ATOM     28  C   UNL     1       9.296   0.628  10.405  1.00  0.00     0.029 A 
ATOM     29  N   UNL     1       8.491   2.091   8.931  1.00  0.00    -0.354 N 
ATOM     30  N   UNL     1       8.152   4.834   7.749  1.00  0.00    -0.248 NA
ATOM     31  C   UNL     1       8.620   7.125   7.811  1.00  0.00     0.031 C 
ATOM     32  C   UNL     1       9.748   1.909  10.747  1.00  0.00     0.029 A 
ATOM     33  C   UNL     1       9.267   2.816   9.813  1.00  0.00     0.049 A 
ATOM     34  H   UNL     1       8.010   2.469   8.160  1.00  0.00     0.167 HD
ATOM     35  C   UNL     1       9.004   5.091   8.815  1.00  0.00     0.074 A 
ATOM     36  C   UNL     1       9.281   6.516   8.787  1.00  0.00     0.031 C 
ATOM     37  C   UNL     1       9.508   4.236   9.740  1.00  0.00     0.031 A 
BRANCH  24  38
ATOM     38  C   UNL     1       7.824  -1.700   9.049  1.00  0.00    -0.014 A 
ATOM     39  C   UNL     1       8.480  -2.691   8.298  1.00  0.00     0.010 A 
ATOM     40  C   UNL     1       7.143  -2.068  10.223  1.00  0.00     0.010 A 
ATOM     41  C   UNL     1       8.409  -4.033   8.687  1.00  0.00     0.020 A 
ATOM     42  C   UNL     1       7.086  -3.404  10.626  1.00  0.00     0.020 A 
ATOM     43  C   UNL     1       7.699  -4.382   9.841  1.00  0.00     0.054 A 
BRANCH  43  44
ATOM     44  S   UNL     1       7.580  -6.132  10.304  1.00  0.00     0.124 S 
ATOM     45  O   UNL     1       6.613  -6.635   9.331  1.00  0.00    -0.237 OA
ATOM     46  O   UNL     1       8.951  -6.606  10.128  1.00  0.00    -0.237 OA
ATOM     47  O   UNL     1       7.110  -6.094  11.687  1.00  0.00    -0.744 OA
ENDBRANCH  43  44
ENDBRANCH  24  38
BRANCH  25  48
ATOM     48  C   UNL     1       7.014   7.676   5.390  1.00  0.00    -0.014 A 
ATOM     49  C   UNL     1       8.132   8.279   4.790  1.00  0.00     0.010 A 
ATOM     50  C   UNL     1       5.803   8.395   5.441  1.00  0.00     0.010 A 
ATOM     51  C   UNL     1       8.046   9.576   4.268  1.00  0.00     0.020 A 
ATOM     52  C   UNL     1       5.704   9.678   4.896  1.00  0.00     0.020 A 
ATOM     53  C   UNL     1       6.831  10.268   4.326  1.00  0.00     0.054 A 
BRANCH  53  54
ATOM     54  S   UNL     1       6.727  11.935   3.617  1.00  0.00     0.124 S 
ATOM     55  O   UNL     1       7.424  12.735   4.619  1.00  0.00    -0.237 OA
ATOM     56  O   UNL     1       7.415  11.781   2.338  1.00  0.00    -0.237 OA
ATOM     57  O   UNL     1       5.288  12.173   3.516  1.00  0.00    -0.744 OA
ENDBRANCH  53  54
ENDBRANCH  25  48
BRANCH  37  58
ATOM     58  C   UNL     1      10.425   4.825  10.771  1.00  0.00    -0.014 A 
ATOM     59  C   UNL     1       9.919   5.594  11.833  1.00  0.00     0.010 A 
ATOM     60  C   UNL     1      11.802   4.554  10.702  1.00  0.00     0.010 A 
ATOM     61  C   UNL     1      10.786   6.108  12.798  1.00  0.00     0.020 A 
ATOM     62  C   UNL     1      12.668   5.046  11.678  1.00  0.00     0.020 A 
ATOM     63  C   UNL     1      12.155   5.832  12.713  1.00  0.00     0.054 A 
BRANCH  63  64
ATOM     64  S   UNL     1      13.257   6.470  14.003  1.00  0.00     0.124 S 
ATOM     65  O   UNL     1      13.394   7.871  13.617  1.00  0.00    -0.237 OA
ATOM     66  O   UNL     1      12.497   6.225  15.226  1.00  0.00    -0.237 OA
ATOM     67  O   UNL     1      14.464   5.659  13.855  1.00  0.00    -0.744 OA
ENDBRANCH  63  64
ENDBRANCH  37  58
ENDBRANCH  11  12
ENDBRANCH   4   6
ENDBRANCH   3   4
ENDBRANCH   2   3
ENDBRANCH   1   2
BRANCH   1  68
ATOM     68  O   UNL     1       4.424   1.106  -0.932  1.00  0.00    -0.374 OA
BRANCH  68  69
ATOM     69  C   UNL     1       3.127   1.691  -1.107  1.00  0.00     0.202 C 
BRANCH  69  70
ATOM     70  C   UNL     1       3.194   2.766  -2.183  1.00  0.00     0.261 C 
BRANCH  70  71
ATOM     71  O   UNL     1       3.375   2.082  -3.429  1.00  0.00    -0.462 OA
BRANCH  71  72
ATOM     72  C   UNL     1       4.624   1.946  -3.902  1.00  0.00     0.329 C 
ATOM     73  O   UNL     1       5.588   2.622  -3.549  1.00  0.00    -0.250 OA
BRANCH  72  74
ATOM     74  C   UNL     1       4.717   0.892  -5.011  1.00  0.00     0.197 C 
BRANCH  74  75
ATOM     75  C   UNL     1       3.842  -0.375  -5.032  1.00  0.00     0.074 C 
BRANCH  75  76
ATOM     76  C   UNL     1       2.397  -0.413  -4.617  1.00  0.00    -0.020 A 
ATOM     77  C   UNL     1       1.842  -1.526  -4.000  1.00  0.00     0.087 A 
ATOM     78  C   UNL     1       1.334   0.548  -4.729  1.00  0.00     0.003 A 
ATOM     79  N   UNL     1       0.543  -1.257  -3.678  1.00  0.00    -0.361 N 
ATOM     80  C   UNL     1       0.217   0.014  -4.077  1.00  0.00     0.046 A 
ATOM     81  C   UNL     1       1.213   1.854  -5.256  1.00  0.00     0.010 A 
ATOM     82  H   UNL     1      -0.068  -1.882  -3.226  1.00  0.00     0.166 HD
ATOM     83  C   UNL     1      -0.976   0.722  -3.889  1.00  0.00     0.026 A 
ATOM     84  C   UNL     1       0.040   2.590  -5.044  1.00  0.00     0.001 A 
ATOM     85  C   UNL     1      -1.037   2.031  -4.364  1.00  0.00     0.002 A 
ENDBRANCH  75  76
ENDBRANCH  74  75
BRANCH  74  86
ATOM     86  N   UNL     1       4.804   1.518  -6.333  1.00  0.00    -0.338 N 
ATOM     87  C   UNL     1       5.902   2.024  -6.980  1.00  0.00     0.254 C 
ATOM     88  H   UNL     1       3.954   1.586  -6.826  1.00  0.00     0.164 HD
ATOM     89  O   UNL     1       5.764   2.565  -8.076  1.00  0.00    -0.269 OA
BRANCH  87  90
ATOM     90  C   UNL     1       7.250   1.894  -6.399  1.00  0.00     0.075 A 
ATOM     91  C   UNL     1       7.810   0.634  -6.139  1.00  0.00     0.020 A 
ATOM     92  C   UNL     1       8.005   3.047  -6.174  1.00  0.00     0.138 A 
ATOM     93  C   UNL     1       9.098   0.547  -5.607  1.00  0.00     0.040 A 
ATOM     94  C   UNL     1       9.296   2.962  -5.662  1.00  0.00     0.079 A 
ATOM     95  F   UNL     1       7.502   4.260  -6.444  1.00  0.00    -0.206 F 
ATOM     96  C   UNL     1       9.828   1.711  -5.377  1.00  0.00     0.126 A 
ATOM     97  F   UNL     1      11.072   1.617  -4.889  1.00  0.00    -0.207 F 
ENDBRANCH  87  90
ENDBRANCH  74  86
ENDBRANCH  72  74
ENDBRANCH  71  72
ENDBRANCH  70  71
ENDBRANCH  69  70
ENDBRANCH  68  69
ENDBRANCH   1  68
TORSDOF 21
