REMARK SMILES CCC[C@@](C)(C/C=C/c1ccccc1)C(=O)OCCOCCOC(=O)c1ccc(-c2c3nc(c(-c4ccc(S(=O)(=O)[O-])cc4)c4ccc([nH]4)c(-c4ccc(S(=O)(=O)[O-])cc4)c4nc(c(-c5ccc(S(=O)(=O)[O-])cc5)c5ccc2[nH]5)C=C4)C=C3)cc1
REMARK SMILES IDX 20 1 19 2 18 3 17 4 15 5 16 6 4 7 5 8 3 9 2 10 1 11 6 12
REMARK SMILES IDX 7 13 8 14 9 15 10 16 14 17 11 18 13 19 12 20 21 21 22 22
REMARK SMILES IDX 23 23 24 24 25 25 26 26 27 27 85 28 28 29 84 30 29 31 30 32
REMARK SMILES IDX 31 33 78 34 32 35 83 36 77 37 79 38 33 39 82 40 76 41 75 42
REMARK SMILES IDX 34 44 64 45 45 46 63 47 46 48 49 49 62 50 80 51 47 52 48 53
REMARK SMILES IDX 61 55 81 56 50 57 35 58 36 59 44 60 37 61 43 62 38 63 39 64
REMARK SMILES IDX 40 65 41 66 42 67 65 68 66 69 74 70 67 71 73 72 68 73 69 74
REMARK SMILES IDX 70 75 71 76 72 77 51 78 52 79 60 80 53 81 59 82 54 83 55 84
REMARK SMILES IDX 56 85 57 86 58 87
REMARK H PARENT 79 43 49 54
REMARK Flexibility Score: inf
ROOT
ATOM      1  O   UNL     1       2.779   1.670   2.397  1.00  0.00    -0.374 OA
ENDROOT
BRANCH   1   2
ATOM      2  C   UNL     1       2.019   1.968   3.565  1.00  0.00     0.202 C 
BRANCH   2   3
ATOM      3  C   UNL     1       0.760   1.123   3.815  1.00  0.00     0.261 C 
BRANCH   3   4
ATOM      4  O   UNL     1       0.881  -0.259   3.429  1.00  0.00    -0.463 OA
BRANCH   4   5
ATOM      5  C   UNL     1       0.074  -0.647   2.409  1.00  0.00     0.312 C 
ATOM      6  O   UNL     1      -0.721   0.102   1.847  1.00  0.00    -0.252 OA
BRANCH   5   7
ATOM      7  C   UNL     1       0.216  -2.125   2.008  1.00  0.00     0.069 C 
ATOM      8  C   UNL     1      -1.242  -2.648   1.917  1.00  0.00     0.024 C 
BRANCH   7   9
ATOM      9  C   UNL     1       0.926  -2.258   0.628  1.00  0.00     0.018 C 
BRANCH   9  10
ATOM     10  C   UNL     1       0.320  -1.586  -0.614  1.00  0.00    -0.002 C 
ATOM     11  C   UNL     1       0.822  -0.168  -0.864  1.00  0.00     0.004 C 
ENDBRANCH   9  10
ENDBRANCH   7   9
BRANCH   7  12
ATOM     12  C   UNL     1       0.916  -3.034   3.087  1.00  0.00     0.046 C 
BRANCH  12  13
ATOM     13  C   UNL     1       2.417  -3.227   3.016  1.00  0.00    -0.025 C 
ATOM     14  C   UNL     1       3.215  -3.326   4.093  1.00  0.00     0.004 C 
BRANCH  14  15
ATOM     15  C   UNL     1       4.687  -3.463   4.080  1.00  0.00    -0.026 A 
ATOM     16  C   UNL     1       5.348  -3.649   5.303  1.00  0.00     0.008 A 
ATOM     17  C   UNL     1       5.470  -3.295   2.926  1.00  0.00     0.008 A 
ATOM     18  C   UNL     1       6.744  -3.607   5.381  1.00  0.00     0.001 A 
ATOM     19  C   UNL     1       6.867  -3.247   3.005  1.00  0.00     0.001 A 
ATOM     20  C   UNL     1       7.502  -3.388   4.235  1.00  0.00     0.000 A 
ENDBRANCH  14  15
ENDBRANCH  12  13
ENDBRANCH   7  12
ENDBRANCH   5   7
ENDBRANCH   4   5
ENDBRANCH   3   4
ENDBRANCH   2   3
ENDBRANCH   1   2
BRANCH   1  21
ATOM     21  C   UNL     1       3.534   0.453   2.409  1.00  0.00     0.202 C 
BRANCH  21  22
ATOM     22  C   UNL     1       4.434   0.226   3.625  1.00  0.00     0.261 C 
BRANCH  22  23
ATOM     23  O   UNL     1       3.644  -0.040   4.797  1.00  0.00    -0.460 OA
BRANCH  23  24
ATOM     24  C   UNL     1       4.354   0.027   5.945  1.00  0.00     0.338 C 
ATOM     25  O   UNL     1       5.566   0.052   6.064  1.00  0.00    -0.246 OA
BRANCH  24  26
ATOM     26  C   UNL     1       3.430   0.308   7.056  1.00  0.00     0.060 A 
ATOM     27  C   UNL     1       3.229   1.648   7.404  1.00  0.00     0.016 A 
ATOM     28  C   UNL     1       2.885  -0.720   7.827  1.00  0.00     0.016 A 
ATOM     29  C   UNL     1       2.528   1.964   8.567  1.00  0.00     0.010 A 
ATOM     30  C   UNL     1       2.175  -0.398   8.992  1.00  0.00     0.010 A 
ATOM     31  C   UNL     1       2.033   0.943   9.392  1.00  0.00    -0.014 A 
BRANCH  31  32
ATOM     32  C   UNL     1       1.508   1.299  10.735  1.00  0.00     0.031 A 
ATOM     33  C   UNL     1       2.407   1.168  11.937  1.00  0.00     0.074 A 
ATOM     34  C   UNL     1       0.270   1.808  10.877  1.00  0.00     0.049 A 
ATOM     35  N   UNL     1       2.185   1.517  13.179  1.00  0.00    -0.248 NA
ATOM     36  C   UNL     1       3.733   0.571  11.708  1.00  0.00     0.031 C 
ATOM     37  C   UNL     1      -0.690   2.011   9.793  1.00  0.00     0.029 A 
ATOM     38  N   UNL     1      -0.383   2.263  11.996  1.00  0.00    -0.354 N 
ATOM     39  C   UNL     1       3.342   1.191  13.877  1.00  0.00     0.074 A 
ATOM     40  C   UNL     1       4.250   0.582  12.928  1.00  0.00     0.031 C 
ATOM     41  C   UNL     1      -1.807   2.562  10.299  1.00  0.00     0.029 A 
ATOM     42  C   UNL     1      -1.647   2.737  11.741  1.00  0.00     0.049 A 
ATOM     43  H   UNL     1       0.017   2.251  12.895  1.00  0.00     0.167 HD
ATOM     44  C   UNL     1       3.632   1.388  15.187  1.00  0.00     0.031 A 
ATOM     45  C   UNL     1      -2.571   3.258  12.573  1.00  0.00     0.031 A 
ATOM     46  C   UNL     1       2.727   1.975  16.139  1.00  0.00     0.049 A 
ATOM     47  C   UNL     1      -2.245   3.425  14.034  1.00  0.00     0.074 A 
ATOM     48  C   UNL     1       2.933   2.220  17.486  1.00  0.00     0.029 A 
ATOM     49  N   UNL     1       1.441   2.402  15.848  1.00  0.00    -0.354 N 
ATOM     50  N   UNL     1      -1.133   3.138  14.669  1.00  0.00    -0.248 NA
ATOM     51  C   UNL     1      -3.296   4.001  14.886  1.00  0.00     0.031 C 
ATOM     52  C   UNL     1       1.755   2.758  18.019  1.00  0.00     0.029 A 
ATOM     53  C   UNL     1       0.834   2.891  16.993  1.00  0.00     0.049 A 
ATOM     54  H   UNL     1       1.021   2.364  14.959  1.00  0.00     0.167 HD
ATOM     55  C   UNL     1      -1.344   3.519  15.990  1.00  0.00     0.074 A 
ATOM     56  C   UNL     1      -2.682   4.069  16.059  1.00  0.00     0.031 C 
ATOM     57  C   UNL     1      -0.503   3.425  17.051  1.00  0.00     0.031 A 
BRANCH  44  58
ATOM     58  C   UNL     1       4.985   0.936  15.667  1.00  0.00    -0.014 A 
ATOM     59  C   UNL     1       6.150   1.650  15.330  1.00  0.00     0.010 A 
ATOM     60  C   UNL     1       5.092  -0.204  16.483  1.00  0.00     0.010 A 
ATOM     61  C   UNL     1       7.402   1.206  15.765  1.00  0.00     0.020 A 
ATOM     62  C   UNL     1       6.340  -0.639  16.938  1.00  0.00     0.020 A 
ATOM     63  C   UNL     1       7.489   0.059  16.559  1.00  0.00     0.054 A 
BRANCH  63  64
ATOM     64  S   UNL     1       9.125  -0.497  17.115  1.00  0.00     0.124 S 
ATOM     65  O   UNL     1       9.665  -1.102  15.900  1.00  0.00    -0.237 OA
ATOM     66  O   UNL     1       9.764   0.748  17.533  1.00  0.00    -0.237 OA
ATOM     67  O   UNL     1       8.824  -1.432  18.196  1.00  0.00    -0.744 OA
ENDBRANCH  63  64
ENDBRANCH  44  58
BRANCH  45  68
ATOM     68  C   UNL     1      -3.898   3.669  12.040  1.00  0.00    -0.014 A 
ATOM     69  C   UNL     1      -4.236   5.028  11.922  1.00  0.00     0.010 A 
ATOM     70  C   UNL     1      -4.828   2.693  11.639  1.00  0.00     0.010 A 
ATOM     71  C   UNL     1      -5.485   5.405  11.420  1.00  0.00     0.020 A 
ATOM     72  C   UNL     1      -6.069   3.067  11.115  1.00  0.00     0.020 A 
ATOM     73  C   UNL     1      -6.393   4.421  11.018  1.00  0.00     0.054 A 
BRANCH  73  74
ATOM     74  S   UNL     1      -7.984   4.930  10.307  1.00  0.00     0.124 S 
ATOM     75  O   UNL     1      -8.741   5.307  11.497  1.00  0.00    -0.237 OA
ATOM     76  O   UNL     1      -7.601   6.029   9.425  1.00  0.00    -0.237 OA
ATOM     77  O   UNL     1      -8.449   3.726   9.622  1.00  0.00    -0.744 OA
ENDBRANCH  73  74
ENDBRANCH  45  68
BRANCH  57  78
ATOM     78  C   UNL     1      -1.000   3.947  18.372  1.00  0.00    -0.014 A 
ATOM     79  C   UNL     1      -1.966   3.245  19.115  1.00  0.00     0.010 A 
ATOM     80  C   UNL     1      -0.474   5.144  18.890  1.00  0.00     0.010 A 
ATOM     81  C   UNL     1      -2.428   3.753  20.332  1.00  0.00     0.020 A 
ATOM     82  C   UNL     1      -0.916   5.644  20.117  1.00  0.00     0.020 A 
ATOM     83  C   UNL     1      -1.905   4.955  20.822  1.00  0.00     0.054 A 
BRANCH  83  84
ATOM     84  S   UNL     1      -2.505   5.590  22.412  1.00  0.00     0.124 S 
ATOM     85  O   UNL     1      -3.788   6.179  22.038  1.00  0.00    -0.237 OA
ATOM     86  O   UNL     1      -2.583   4.385  23.235  1.00  0.00    -0.237 OA
ATOM     87  O   UNL     1      -1.473   6.543  22.814  1.00  0.00    -0.744 OA
ENDBRANCH  83  84
ENDBRANCH  57  78
ENDBRANCH  31  32
ENDBRANCH  24  26
ENDBRANCH  23  24
ENDBRANCH  22  23
ENDBRANCH  21  22
ENDBRANCH   1  21
TORSDOF 22
