REMARK SMILES CCCCCO[C@H](C(=O)OCCOCCOC(=O)c1ccc(-c2c3nc(c(-c4ccc(S(=O)(=O)[O-])cc4)c4ccc([nH]4)c(-c4ccc(S(=O)(=O)[O-])cc4)c4nc(c(-c5ccc(S(=O)(=O)[O-])cc5)c5ccc2[nH]5)C=C4)C=C3)cc1)c1ccccc1
REMARK SMILES IDX 12 1 11 2 10 3 8 4 9 5 7 6 6 7 5 8 4 9 3 10 2 11 1 12 79 13
REMARK SMILES IDX 80 14 84 15 81 16 83 17 82 18 13 19 14 20 15 21 16 22 17 23
REMARK SMILES IDX 18 24 19 25 20 26 78 27 21 28 77 29 22 30 23 31 24 32 71 33
REMARK SMILES IDX 25 34 76 35 70 36 72 37 26 38 75 39 69 40 68 41 27 43 57 44
REMARK SMILES IDX 38 45 56 46 39 47 42 48 55 49 73 50 40 51 41 52 54 54 74 55
REMARK SMILES IDX 43 56 28 57 29 58 37 59 30 60 36 61 31 62 32 63 33 64 34 65
REMARK SMILES IDX 35 66 58 67 59 68 67 69 60 70 66 71 61 72 62 73 63 74 64 75
REMARK SMILES IDX 65 76 44 77 45 78 53 79 46 80 52 81 47 82 48 83 49 84 50 85
REMARK SMILES IDX 51 86
REMARK H PARENT 72 42 42 53
REMARK Flexibility Score: inf
ROOT
ATOM      1  C   UNL     1      -3.730   2.981   2.867  1.00  0.00     0.202 C 
ENDROOT
BRANCH   1   2
ATOM      2  C   UNL     1      -2.633   2.937   3.935  1.00  0.00     0.261 C 
BRANCH   2   3
ATOM      3  O   UNL     1      -1.660   1.928   3.612  1.00  0.00    -0.461 OA
BRANCH   3   4
ATOM      4  C   UNL     1      -1.418   0.997   4.576  1.00  0.00     0.340 C 
ATOM      5  O   UNL     1      -1.819   1.078   5.734  1.00  0.00    -0.249 OA
BRANCH   4   6
ATOM      6  C   UNL     1      -0.580  -0.198   4.049  1.00  0.00     0.258 C 
BRANCH   6   7
ATOM      7  O   UNL     1      -0.852  -0.779   2.769  1.00  0.00    -0.362 OA
BRANCH   7   8
ATOM      8  C   UNL     1      -0.407  -0.095   1.600  1.00  0.00     0.162 C 
BRANCH   8   9
ATOM      9  C   UNL     1       0.982  -0.514   1.113  1.00  0.00     0.028 C 
BRANCH   9  10
ATOM     10  C   UNL     1       1.226  -2.025   1.052  1.00  0.00     0.002 C 
BRANCH  10  11
ATOM     11  C   UNL     1       0.504  -2.759  -0.078  1.00  0.00    -0.003 C 
ATOM     12  C   UNL     1       0.911  -2.278  -1.462  1.00  0.00     0.004 C 
ENDBRANCH  10  11
ENDBRANCH   9  10
ENDBRANCH   8   9
ENDBRANCH   7   8
ENDBRANCH   6   7
BRANCH   6  13
ATOM     13  C   UNL     1       0.910  -0.080   4.318  1.00  0.00    -0.008 A 
ATOM     14  C   UNL     1       1.644  -1.258   4.549  1.00  0.00     0.007 A 
ATOM     15  C   UNL     1       1.598   1.138   4.224  1.00  0.00     0.007 A 
ATOM     16  C   UNL     1       3.033  -1.226   4.638  1.00  0.00     0.000 A 
ATOM     17  C   UNL     1       2.991   1.167   4.320  1.00  0.00     0.000 A 
ATOM     18  C   UNL     1       3.706  -0.013   4.514  1.00  0.00     0.000 A 
ENDBRANCH   6  13
ENDBRANCH   4   6
ENDBRANCH   3   4
ENDBRANCH   2   3
ENDBRANCH   1   2
BRANCH   1  19
ATOM     19  O   UNL     1      -4.533   1.802   2.762  1.00  0.00    -0.374 OA
BRANCH  19  20
ATOM     20  C   UNL     1      -3.962   0.693   2.064  1.00  0.00     0.202 C 
BRANCH  20  21
ATOM     21  C   UNL     1      -3.979   0.784   0.534  1.00  0.00     0.261 C 
BRANCH  21  22
ATOM     22  O   UNL     1      -3.141   1.852   0.051  1.00  0.00    -0.460 OA
BRANCH  22  23
ATOM     23  C   UNL     1      -3.805   2.818  -0.626  1.00  0.00     0.338 C 
ATOM     24  O   UNL     1      -4.981   2.798  -0.972  1.00  0.00    -0.246 OA
BRANCH  23  25
ATOM     25  C   UNL     1      -2.980   4.033  -0.755  1.00  0.00     0.060 A 
ATOM     26  C   UNL     1      -3.541   5.229  -0.289  1.00  0.00     0.016 A 
ATOM     27  C   UNL     1      -1.746   4.037  -1.409  1.00  0.00     0.016 A 
ATOM     28  C   UNL     1      -2.909   6.443  -0.543  1.00  0.00     0.010 A 
ATOM     29  C   UNL     1      -1.112   5.262  -1.666  1.00  0.00     0.010 A 
ATOM     30  C   UNL     1      -1.716   6.473  -1.278  1.00  0.00    -0.014 A 
BRANCH  30  31
ATOM     31  C   UNL     1      -1.218   7.782  -1.775  1.00  0.00     0.031 A 
ATOM     32  C   UNL     1      -1.509   8.182  -3.199  1.00  0.00     0.074 A 
ATOM     33  C   UNL     1      -0.594   8.644  -0.952  1.00  0.00     0.049 A 
ATOM     34  N   UNL     1      -1.215   9.294  -3.823  1.00  0.00    -0.248 NA
ATOM     35  C   UNL     1      -2.234   7.202  -4.025  1.00  0.00     0.031 C 
ATOM     36  C   UNL     1      -0.298   8.401   0.460  1.00  0.00     0.029 A 
ATOM     37  N   UNL     1      -0.106   9.906  -1.185  1.00  0.00    -0.354 N 
ATOM     38  C   UNL     1      -1.718   9.149  -5.112  1.00  0.00     0.074 A 
ATOM     39  C   UNL     1      -2.304   7.828  -5.191  1.00  0.00     0.031 C 
ATOM     40  C   UNL     1       0.320   9.482   0.967  1.00  0.00     0.029 A 
ATOM     41  C   UNL     1       0.488  10.480  -0.087  1.00  0.00     0.049 A 
ATOM     42  H   UNL     1      -0.176  10.357  -2.058  1.00  0.00     0.167 HD
ATOM     43  C   UNL     1      -1.704  10.036  -6.136  1.00  0.00     0.031 A 
ATOM     44  C   UNL     1       1.108  11.669   0.051  1.00  0.00     0.031 A 
ATOM     45  C   UNL     1      -1.111  11.345  -6.065  1.00  0.00     0.049 A 
ATOM     46  C   UNL     1       1.179  12.611  -1.123  1.00  0.00     0.074 A 
ATOM     47  C   UNL     1      -1.050  12.316  -7.050  1.00  0.00     0.029 A 
ATOM     48  N   UNL     1      -0.474  11.867  -4.950  1.00  0.00    -0.354 N 
ATOM     49  N   UNL     1       0.685  12.462  -2.329  1.00  0.00    -0.248 NA
ATOM     50  C   UNL     1       1.882  13.884  -0.913  1.00  0.00     0.031 C 
ATOM     51  C   UNL     1      -0.328  13.404  -6.548  1.00  0.00     0.029 A 
ATOM     52  C   UNL     1       0.007  13.135  -5.230  1.00  0.00     0.049 A 
ATOM     53  H   UNL     1      -0.378  11.404  -4.087  1.00  0.00     0.167 HD
ATOM     54  C   UNL     1       0.998  13.632  -3.014  1.00  0.00     0.074 A 
ATOM     55  C   UNL     1       1.710  14.484  -2.084  1.00  0.00     0.031 C 
ATOM     56  C   UNL     1       0.718  13.972  -4.297  1.00  0.00     0.031 A 
BRANCH  43  57
ATOM     57  C   UNL     1      -2.324   9.602  -7.438  1.00  0.00    -0.014 A 
ATOM     58  C   UNL     1      -3.719   9.484  -7.577  1.00  0.00     0.010 A 
ATOM     59  C   UNL     1      -1.501   9.342  -8.548  1.00  0.00     0.010 A 
ATOM     60  C   UNL     1      -4.276   9.076  -8.792  1.00  0.00     0.020 A 
ATOM     61  C   UNL     1      -2.056   8.959  -9.773  1.00  0.00     0.020 A 
ATOM     62  C   UNL     1      -3.440   8.812  -9.882  1.00  0.00     0.054 A 
BRANCH  62  63
ATOM     63  S   UNL     1      -4.190   8.300 -11.452  1.00  0.00     0.124 S 
ATOM     64  O   UNL     1      -4.596   6.928 -11.158  1.00  0.00    -0.237 OA
ATOM     65  O   UNL     1      -5.281   9.257 -11.614  1.00  0.00    -0.237 OA
ATOM     66  O   UNL     1      -3.100   8.434 -12.416  1.00  0.00    -0.744 OA
ENDBRANCH  62  63
ENDBRANCH  43  57
BRANCH  44  67
ATOM     67  C   UNL     1       1.738  12.027   1.351  1.00  0.00    -0.014 A 
ATOM     68  C   UNL     1       1.204  13.045   2.160  1.00  0.00     0.010 A 
ATOM     69  C   UNL     1       2.886  11.339   1.787  1.00  0.00     0.010 A 
ATOM     70  C   UNL     1       1.814  13.376   3.375  1.00  0.00     0.020 A 
ATOM     71  C   UNL     1       3.482  11.648   3.012  1.00  0.00     0.020 A 
ATOM     72  C   UNL     1       2.947  12.673   3.794  1.00  0.00     0.054 A 
BRANCH  72  73
ATOM     73  S   UNL     1       3.688  13.077   5.401  1.00  0.00     0.124 S 
ATOM     74  O   UNL     1       4.363  14.338   5.114  1.00  0.00    -0.237 OA
ATOM     75  O   UNL     1       2.520  13.166   6.274  1.00  0.00    -0.237 OA
ATOM     76  O   UNL     1       4.568  11.940   5.665  1.00  0.00    -0.744 OA
ENDBRANCH  72  73
ENDBRANCH  44  67
BRANCH  56  77
ATOM     77  C   UNL     1       1.157  15.333  -4.770  1.00  0.00    -0.014 A 
ATOM     78  C   UNL     1       2.511  15.618  -5.018  1.00  0.00     0.010 A 
ATOM     79  C   UNL     1       0.190  16.324  -5.024  1.00  0.00     0.010 A 
ATOM     80  C   UNL     1       2.894  16.880  -5.482  1.00  0.00     0.020 A 
ATOM     81  C   UNL     1       0.566  17.578  -5.514  1.00  0.00     0.020 A 
ATOM     82  C   UNL     1       1.918  17.852  -5.727  1.00  0.00     0.054 A 
BRANCH  82  83
ATOM     83  S   UNL     1       2.436  19.468  -6.369  1.00  0.00     0.124 S 
ATOM     84  O   UNL     1       3.024  20.091  -5.187  1.00  0.00    -0.237 OA
ATOM     85  O   UNL     1       3.380  19.107  -7.425  1.00  0.00    -0.237 OA
ATOM     86  O   UNL     1       1.190  20.071  -6.837  1.00  0.00    -0.744 OA
ENDBRANCH  82  83
ENDBRANCH  56  77
ENDBRANCH  30  31
ENDBRANCH  23  25
ENDBRANCH  22  23
ENDBRANCH  21  22
ENDBRANCH  20  21
ENDBRANCH  19  20
ENDBRANCH   1  19
TORSDOF 23
